# generated using pymatgen
data_CeSe2
_symmetry_space_group_name_H-M   'P 1'
_cell_length_a   11.02522543
_cell_length_b   11.02522543
_cell_length_c   11.02522543
_cell_angle_alpha   97.58009013
_cell_angle_beta   97.58009013
_cell_angle_gamma   137.40669000
_symmetry_Int_Tables_number   1
_chemical_formula_structural   CeSe2
_chemical_formula_sum   'Ce4 Se8'
_cell_volume   845.08086763
_cell_formula_units_Z   4
loop_
 _symmetry_equiv_pos_site_id
 _symmetry_equiv_pos_as_xyz
  1  'x, y, z'
loop_
 _atom_site_type_symbol
 _atom_site_label
 _atom_site_symmetry_multiplicity
 _atom_site_fract_x
 _atom_site_fract_y
 _atom_site_fract_z
 _atom_site_occupancy
  Ce  Ce0  1  0.15185600  0.14851300  0.34823300  1
  Ce  Ce1  1  0.80028100  0.80362300  0.65176700  1
  Ce  Ce2  1  0.19637700  0.84814400  0.99665800  1
  Ce  Ce3  1  0.85148700  0.19971900  0.00334200  1
  Se  Se4  1  0.89587000  0.98366500  0.47452300  1
  Se  Se5  1  0.50914200  0.42134700  0.52547700  1
  Se  Se6  1  0.57865300  0.10413000  0.08779500  1
  Se  Se7  1  0.01633500  0.49085800  0.91220500  1
  Se  Se8  1  0.11934400  0.30871100  0.20270300  1
  Se  Se9  1  0.10600800  0.91664100  0.79729700  1
  Se  Se10  1  0.08335900  0.88065600  0.18936700  1
  Se  Se11  1  0.69128900  0.89399200  0.81063300  1
