# generated using pymatgen
data_Co(PO3)4
_symmetry_space_group_name_H-M   'P 1'
_cell_length_a   10.50664334
_cell_length_b   10.50664334
_cell_length_c   5.13114228
_cell_angle_alpha   83.51628145
_cell_angle_beta   83.51628145
_cell_angle_gamma   71.71759054
_symmetry_Int_Tables_number   1
_chemical_formula_structural   Co(PO3)4
_chemical_formula_sum   'Co2 P8 O24'
_cell_volume   532.58651299
_cell_formula_units_Z   2
loop_
 _symmetry_equiv_pos_site_id
 _symmetry_equiv_pos_as_xyz
  1  'x, y, z'
loop_
 _atom_site_type_symbol
 _atom_site_label
 _atom_site_symmetry_multiplicity
 _atom_site_fract_x
 _atom_site_fract_y
 _atom_site_fract_z
 _atom_site_occupancy
  Co  Co0  1  0.00000000  0.50000000  0.00000000  1
  Co  Co1  1  0.50000000  0.00000000  0.00000000  1
  P  P2  1  0.78822100  0.36153500  0.81818600  1
  P  P3  1  0.94198800  0.69885900  0.46582800  1
  P  P4  1  0.05801200  0.30114100  0.53417200  1
  P  P5  1  0.36153500  0.78822100  0.81818600  1
  P  P6  1  0.69885900  0.94198800  0.46582800  1
  P  P7  1  0.63846500  0.21177900  0.18181400  1
  P  P8  1  0.30114100  0.05801200  0.53417200  1
  P  P9  1  0.21177900  0.63846500  0.18181400  1
  O  O10  1  0.43432400  0.66983300  0.66349000  1
  O  O11  1  0.39889500  0.08408200  0.70179700  1
  O  O12  1  0.56567600  0.33016700  0.33651000  1
  O  O13  1  0.91435800  0.28091800  0.62715900  1
  O  O14  1  0.16566500  0.55398500  0.01503500  1
  O  O15  1  0.91591800  0.60110500  0.29820300  1
  O  O16  1  0.71908200  0.08564200  0.37284100  1
  O  O17  1  0.33051700  0.07270000  0.24234400  1
  O  O18  1  0.66948300  0.92730000  0.75765600  1
  O  O19  1  0.84813200  0.84813200  0.38684600  1
  O  O20  1  0.08408200  0.39889500  0.70179700  1
  O  O21  1  0.33016700  0.56567600  0.33651000  1
  O  O22  1  0.23252400  0.76747600  0.00000000  1
  O  O23  1  0.08564200  0.71908200  0.37284100  1
  O  O24  1  0.44601500  0.83433500  0.98496500  1
  O  O25  1  0.66983300  0.43432400  0.66349000  1
  O  O26  1  0.76747600  0.23252400  0.00000000  1
  O  O27  1  0.55398500  0.16566500  0.01503500  1
  O  O28  1  0.92730000  0.66948300  0.75765600  1
  O  O29  1  0.07270000  0.33051700  0.24234400  1
  O  O30  1  0.60110500  0.91591800  0.29820300  1
  O  O31  1  0.15186800  0.15186800  0.61315400  1
  O  O32  1  0.28091800  0.91435800  0.62715900  1
  O  O33  1  0.83433500  0.44601500  0.98496500  1
