# generated using pymatgen
data_CeSe2
_symmetry_space_group_name_H-M   'P 1'
_cell_length_a   4.29253600
_cell_length_b   7.53922000
_cell_length_c   9.11049500
_cell_angle_alpha   90.00000000
_cell_angle_beta   90.00000000
_cell_angle_gamma   90.00000000
_symmetry_Int_Tables_number   1
_chemical_formula_structural   CeSe2
_chemical_formula_sum   'Ce4 Se8'
_cell_volume   294.83723979
_cell_formula_units_Z   4
loop_
 _symmetry_equiv_pos_site_id
 _symmetry_equiv_pos_as_xyz
  1  'x, y, z'
loop_
 _atom_site_type_symbol
 _atom_site_label
 _atom_site_symmetry_multiplicity
 _atom_site_fract_x
 _atom_site_fract_y
 _atom_site_fract_z
 _atom_site_occupancy
  Ce  Ce0  1  0.25000000  0.75299800  0.63060500  1
  Ce  Ce1  1  0.25000000  0.25299800  0.86939500  1
  Ce  Ce2  1  0.75000000  0.24700200  0.36939500  1
  Ce  Ce3  1  0.75000000  0.74700200  0.13060500  1
  Se  Se4  1  0.25000000  0.86200900  0.93662100  1
  Se  Se5  1  0.25000000  0.36200900  0.56337900  1
  Se  Se6  1  0.75000000  0.13799100  0.06337900  1
  Se  Se7  1  0.75000000  0.63799100  0.43662100  1
  Se  Se8  1  0.75000000  0.53693200  0.83324300  1
  Se  Se9  1  0.75000000  0.03693200  0.66675700  1
  Se  Se10  1  0.25000000  0.46306800  0.16675700  1
  Se  Se11  1  0.25000000  0.96306800  0.33324300  1
