# generated using pymatgen
data_Mo8O23
_symmetry_space_group_name_H-M   'P 1'
_cell_length_a   13.69758000
_cell_length_b   4.07751300
_cell_length_c   17.35280771
_cell_angle_alpha   90.00000000
_cell_angle_beta   106.45373125
_cell_angle_gamma   90.00000000
_symmetry_Int_Tables_number   1
_chemical_formula_structural   Mo8O23
_chemical_formula_sum   'Mo16 O46'
_cell_volume   929.50054719
_cell_formula_units_Z   2
loop_
 _symmetry_equiv_pos_site_id
 _symmetry_equiv_pos_as_xyz
  1  'x, y, z'
loop_
 _atom_site_type_symbol
 _atom_site_label
 _atom_site_symmetry_multiplicity
 _atom_site_fract_x
 _atom_site_fract_y
 _atom_site_fract_z
 _atom_site_occupancy
  Mo  Mo0  1  0.05377000  0.58457900  0.59698900  1
  Mo  Mo1  1  0.94623000  0.58457900  0.90301100  1
  Mo  Mo2  1  0.94623000  0.41542100  0.40301100  1
  Mo  Mo3  1  0.05377000  0.41542100  0.09698900  1
  Mo  Mo4  1  0.18501000  0.41966700  0.92041600  1
  Mo  Mo5  1  0.81499000  0.41966700  0.57958400  1
  Mo  Mo6  1  0.81499000  0.58033300  0.07958400  1
  Mo  Mo7  1  0.18501000  0.58033300  0.42041600  1
  Mo  Mo8  1  0.31466700  0.57333700  0.75361400  1
  Mo  Mo9  1  0.68533300  0.57333700  0.74638600  1
  Mo  Mo10  1  0.68533300  0.42666300  0.24638600  1
  Mo  Mo11  1  0.31466700  0.42666300  0.25361400  1
  Mo  Mo12  1  0.43591100  0.42535600  0.58311700  1
  Mo  Mo13  1  0.56408900  0.42535600  0.91688300  1
  Mo  Mo14  1  0.56408900  0.57464400  0.41688300  1
  Mo  Mo15  1  0.43591100  0.57464400  0.08311700  1
  O  O16  1  0.23839200  0.48585400  0.83657700  1
  O  O17  1  0.76160800  0.48585400  0.66342300  1
  O  O18  1  0.76160800  0.51414600  0.16342300  1
  O  O19  1  0.23839200  0.51414600  0.33657700  1
  O  O20  1  0.30003000  0.50369400  0.50432700  1
  O  O21  1  0.69997000  0.50369400  0.99567300  1
  O  O22  1  0.69997000  0.49630600  0.49567300  1
  O  O23  1  0.30003000  0.49630600  0.00432700  1
  O  O24  1  0.36999400  0.50497400  0.66982700  1
  O  O25  1  0.63000600  0.50497400  0.83017300  1
  O  O26  1  0.63000600  0.49502600  0.33017300  1
  O  O27  1  0.36999400  0.49502600  0.16982700  1
  O  O28  1  0.43431100  0.50478200  0.83469400  1
  O  O29  1  0.56568900  0.50478200  0.66530600  1
  O  O30  1  0.56568900  0.49521800  0.16530600  1
  O  O31  1  0.43402900  0.99803600  0.58457400  1
  O  O32  1  0.50000000  0.50000000  0.50000000  1
  O  O33  1  0.50000000  0.50000000  0.00000000  1
  O  O34  1  0.17345300  0.49086100  0.17274900  1
  O  O35  1  0.82654700  0.49086100  0.32725100  1
  O  O36  1  0.82654700  0.50913900  0.82725100  1
  O  O37  1  0.17345300  0.50913900  0.67274900  1
  O  O38  1  0.08884500  0.50158800  0.49553400  1
  O  O39  1  0.91115500  0.50158800  0.00446600  1
  O  O40  1  0.91115500  0.49841200  0.50446600  1
  O  O41  1  0.08884500  0.49841200  0.99553400  1
  O  O42  1  0.04320300  0.48989900  0.34803700  1
  O  O43  1  0.95679700  0.48989900  0.15196300  1
  O  O44  1  0.95679700  0.51010100  0.65196300  1
  O  O45  1  0.04320300  0.51010100  0.84803700  1
  O  O46  1  0.30695700  0.99892300  0.25404300  1
  O  O47  1  0.69304300  0.99892300  0.24595700  1
  O  O48  1  0.69304300  0.00107700  0.74595700  1
  O  O49  1  0.30695700  0.00107700  0.75404300  1
  O  O50  1  0.18005400  0.00791500  0.42302900  1
  O  O51  1  0.81994600  0.00791500  0.07697100  1
  O  O52  1  0.81994600  0.99208500  0.57697100  1
  O  O53  1  0.18005400  0.99208500  0.92302900  1
  O  O54  1  0.05303000  0.98766500  0.09297400  1
  O  O55  1  0.94697000  0.98766500  0.40702600  1
  O  O56  1  0.94697000  0.01233500  0.90702600  1
  O  O57  1  0.05303000  0.01233500  0.59297400  1
  O  O58  1  0.43402900  0.00196400  0.08457400  1
  O  O59  1  0.56597100  0.00196400  0.41542600  1
  O  O60  1  0.56597100  0.99803600  0.91542600  1
  O  O61  1  0.43431100  0.49521800  0.33469400  1
