# generated using pymatgen
data_CeSe2
_symmetry_space_group_name_H-M   'P 1'
_cell_length_a   9.23239835
_cell_length_b   9.23239835
_cell_length_c   9.23239835
_cell_angle_alpha   95.48296607
_cell_angle_beta   95.48296607
_cell_angle_gamma   143.98863256
_symmetry_Int_Tables_number   1
_chemical_formula_structural   CeSe2
_chemical_formula_sum   'Ce4 Se8'
_cell_volume   440.02077708
_cell_formula_units_Z   4
loop_
 _symmetry_equiv_pos_site_id
 _symmetry_equiv_pos_as_xyz
  1  'x, y, z'
loop_
 _atom_site_type_symbol
 _atom_site_label
 _atom_site_symmetry_multiplicity
 _atom_site_fract_x
 _atom_site_fract_y
 _atom_site_fract_z
 _atom_site_occupancy
  Ce  Ce0  1  0.01333200  0.30809400  0.32142700  1
  Ce  Ce1  1  0.98666800  0.69190600  0.67857300  1
  Ce  Ce2  1  0.69190600  0.01333200  0.70523800  1
  Ce  Ce3  1  0.30809400  0.98666800  0.29476200  1
  Se  Se4  1  0.14856800  0.50684700  0.65541500  1
  Se  Se5  1  0.85143200  0.49315300  0.34458500  1
  Se  Se6  1  0.49315300  0.14856800  0.64172100  1
  Se  Se7  1  0.50684700  0.85143200  0.35827900  1
  Se  Se8  1  0.16894600  0.15417900  0.32312400  1
  Se  Se9  1  0.83105400  0.84582100  0.67687600  1
  Se  Se10  1  0.84582100  0.16894600  0.01476700  1
  Se  Se11  1  0.15417900  0.83105400  0.98523300  1
