# generated using pymatgen
data_Te4O9
_symmetry_space_group_name_H-M   'P 1'
_cell_length_a   7.48849615
_cell_length_b   7.48849615
_cell_length_c   7.48849599
_cell_angle_alpha   78.59894912
_cell_angle_beta   78.59894912
_cell_angle_gamma   78.59894744
_symmetry_Int_Tables_number   1
_chemical_formula_structural   Te4O9
_chemical_formula_sum   'Te8 O18'
_cell_volume   397.99319904
_cell_formula_units_Z   2
loop_
 _symmetry_equiv_pos_site_id
 _symmetry_equiv_pos_as_xyz
  1  'x, y, z'
loop_
 _atom_site_type_symbol
 _atom_site_label
 _atom_site_symmetry_multiplicity
 _atom_site_fract_x
 _atom_site_fract_y
 _atom_site_fract_z
 _atom_site_occupancy
  Te  Te0  1  0.59644200  0.28992200  0.84024300  1
  Te  Te1  1  0.84024300  0.59644200  0.28992200  1
  Te  Te2  1  0.28992200  0.84024300  0.59644200  1
  Te  Te3  1  0.40355800  0.71007800  0.15975700  1
  Te  Te4  1  0.15975700  0.40355800  0.71007800  1
  Te  Te5  1  0.71007800  0.15975700  0.40355800  1
  Te  Te6  1  0.18354100  0.18354100  0.18354100  1
  Te  Te7  1  0.81645900  0.81645900  0.81645900  1
  O  O8  1  0.57611200  0.77150900  0.28842100  1
  O  O9  1  0.28842100  0.57611200  0.77150900  1
  O  O10  1  0.77150900  0.28842100  0.57611200  1
  O  O11  1  0.42388800  0.22849100  0.71157900  1
  O  O12  1  0.71157900  0.42388800  0.22849100  1
  O  O13  1  0.22849100  0.71157900  0.42388800  1
  O  O14  1  0.72249000  0.91704900  0.58756200  1
  O  O15  1  0.58756200  0.72249000  0.91704900  1
  O  O16  1  0.04293700  0.92844200  0.71762700  1
  O  O17  1  0.92844200  0.71762700  0.04293700  1
  O  O18  1  0.71762700  0.04293700  0.92844200  1
  O  O19  1  0.95706300  0.07155800  0.28237300  1
  O  O20  1  0.07155800  0.28237300  0.95706300  1
  O  O21  1  0.28237300  0.95706300  0.07155800  1
  O  O22  1  0.08295100  0.41243800  0.27751000  1
  O  O23  1  0.41243800  0.27751000  0.08295100  1
  O  O24  1  0.27751000  0.08295100  0.41243800  1
  O  O25  1  0.91704900  0.58756200  0.72249000  1
