# generated using pymatgen
data_Si3Cl8
_symmetry_space_group_name_H-M   'P 1'
_cell_length_a   12.93189550
_cell_length_b   12.93189550
_cell_length_c   12.93189550
_cell_angle_alpha   60.00000000
_cell_angle_beta   60.00000000
_cell_angle_gamma   60.00000000
_symmetry_Int_Tables_number   1
_chemical_formula_structural   Si3Cl8
_chemical_formula_sum   'Si12 Cl32'
_cell_volume   1529.22560615
_cell_formula_units_Z   4
loop_
 _symmetry_equiv_pos_site_id
 _symmetry_equiv_pos_as_xyz
  1  'x, y, z'
loop_
 _atom_site_type_symbol
 _atom_site_label
 _atom_site_symmetry_multiplicity
 _atom_site_fract_x
 _atom_site_fract_y
 _atom_site_fract_z
 _atom_site_occupancy
  Si  Si0  1  0.00000000  0.00000000  0.00000000  1
  Si  Si1  1  0.50000000  0.50000000  0.50000000  1
  Si  Si2  1  0.17535000  0.17535000  0.17535000  1
  Si  Si3  1  0.97395000  0.67535000  0.67535000  1
  Si  Si4  1  0.67535000  0.97395000  0.67535000  1
  Si  Si5  1  0.67535000  0.67535000  0.97395000  1
  Si  Si6  1  0.17535000  0.47395000  0.17535000  1
  Si  Si7  1  0.17535000  0.17535000  0.47395000  1
  Si  Si8  1  0.47395000  0.17535000  0.17535000  1
  Si  Si9  1  0.67535000  0.67535000  0.67535000  1
  Si  Si10  1  0.25000000  0.25000000  0.25000000  1
  Si  Si11  1  0.75000000  0.75000000  0.75000000  1
  Cl  Cl12  1  0.93579500  0.93579500  0.93579500  1
  Cl  Cl13  1  0.69261500  0.43579500  0.43579500  1
  Cl  Cl14  1  0.43579500  0.69261500  0.43579500  1
  Cl  Cl15  1  0.43579500  0.43579500  0.69261500  1
  Cl  Cl16  1  0.93579500  0.19261500  0.93579500  1
  Cl  Cl17  1  0.93579500  0.93579500  0.19261500  1
  Cl  Cl18  1  0.19261500  0.93579500  0.93579500  1
  Cl  Cl19  1  0.43579500  0.43579500  0.43579500  1
  Cl  Cl20  1  0.28418000  0.99151600  0.18315800  1
  Cl  Cl21  1  0.04114600  0.68315800  0.78418000  1
  Cl  Cl22  1  0.68315800  0.04114600  0.49151600  1
  Cl  Cl23  1  0.49151600  0.68315800  0.04114600  1
  Cl  Cl24  1  0.04114600  0.78418000  0.49151600  1
  Cl  Cl25  1  0.68315800  0.78418000  0.04114600  1
  Cl  Cl26  1  0.49151600  0.04114600  0.78418000  1
  Cl  Cl27  1  0.18315800  0.28418000  0.99151600  1
  Cl  Cl28  1  0.99151600  0.18315800  0.28418000  1
  Cl  Cl29  1  0.28418000  0.54114600  0.99151600  1
  Cl  Cl30  1  0.28418000  0.18315800  0.54114600  1
  Cl  Cl31  1  0.99151600  0.54114600  0.18315800  1
  Cl  Cl32  1  0.54114600  0.28418000  0.18315800  1
  Cl  Cl33  1  0.54114600  0.99151600  0.28418000  1
  Cl  Cl34  1  0.18315800  0.99151600  0.54114600  1
  Cl  Cl35  1  0.99151600  0.28418000  0.54114600  1
  Cl  Cl36  1  0.18315800  0.54114600  0.28418000  1
  Cl  Cl37  1  0.54114600  0.18315800  0.99151600  1
  Cl  Cl38  1  0.78418000  0.04114600  0.68315800  1
  Cl  Cl39  1  0.78418000  0.49151600  0.04114600  1
  Cl  Cl40  1  0.04114600  0.49151600  0.68315800  1
  Cl  Cl41  1  0.78418000  0.68315800  0.49151600  1
  Cl  Cl42  1  0.49151600  0.78418000  0.68315800  1
  Cl  Cl43  1  0.68315800  0.49151600  0.78418000  1
