# generated using pymatgen
data_Cr2Ag2O7
_symmetry_space_group_name_H-M   'P 1'
_cell_length_a   6.86508500
_cell_length_b   7.33593631
_cell_length_c   7.39610051
_cell_angle_alpha   117.51399876
_cell_angle_beta   90.23165185
_cell_angle_gamma   95.87308045
_symmetry_Int_Tables_number   1
_chemical_formula_structural   Cr2Ag2O7
_chemical_formula_sum   'Cr4 Ag4 O14'
_cell_volume   328.06242790
_cell_formula_units_Z   2
loop_
 _symmetry_equiv_pos_site_id
 _symmetry_equiv_pos_as_xyz
  1  'x, y, z'
loop_
 _atom_site_type_symbol
 _atom_site_label
 _atom_site_symmetry_multiplicity
 _atom_site_fract_x
 _atom_site_fract_y
 _atom_site_fract_z
 _atom_site_occupancy
  Cr  Cr0  1  0.14697400  0.67690100  0.80298800  1
  Cr  Cr1  1  0.85302600  0.32309900  0.19701200  1
  Cr  Cr2  1  0.66207600  0.99840000  0.75599400  1
  Cr  Cr3  1  0.33792400  0.00160000  0.24400600  1
  Ag  Ag4  1  0.37574300  0.54691100  0.31166400  1
  Ag  Ag5  1  0.62425700  0.45308900  0.68833600  1
  Ag  Ag6  1  0.82878400  0.83991200  0.24530000  1
  Ag  Ag7  1  0.17121600  0.16008800  0.75470000  1
  O  O8  1  0.14033700  0.68173700  0.58503300  1
  O  O9  1  0.85966300  0.31826300  0.41496700  1
  O  O10  1  0.92445000  0.64848300  0.88074300  1
  O  O11  1  0.07555000  0.35151700  0.11925700  1
  O  O12  1  0.27839600  0.49724000  0.79598300  1
  O  O13  1  0.72160400  0.50276000  0.20401700  1
  O  O14  1  0.86043400  0.02781700  0.64304200  1
  O  O15  1  0.13956600  0.97218300  0.35695800  1
  O  O16  1  0.73612900  0.07451700  0.01349800  1
  O  O17  1  0.26387100  0.92548300  0.98650200  1
  O  O18  1  0.42956300  0.24645200  0.35246800  1
  O  O19  1  0.57043700  0.75354800  0.64753200  1
  O  O20  1  0.49515600  0.84800600  0.25466100  1
  O  O21  1  0.50484400  0.15199400  0.74533900  1
