# generated using pymatgen
data_SrAl
_symmetry_space_group_name_H-M   'P 1'
_cell_length_a   12.77133400
_cell_length_b   12.77133400
_cell_length_c   12.77133400
_cell_angle_alpha   90.00000000
_cell_angle_beta   90.00000000
_cell_angle_gamma   90.00000000
_symmetry_Int_Tables_number   1
_chemical_formula_structural   SrAl
_chemical_formula_sum   'Sr32 Al32'
_cell_volume   2083.09361892
_cell_formula_units_Z   32
loop_
 _symmetry_equiv_pos_site_id
 _symmetry_equiv_pos_as_xyz
  1  'x, y, z'
loop_
 _atom_site_type_symbol
 _atom_site_label
 _atom_site_symmetry_multiplicity
 _atom_site_fract_x
 _atom_site_fract_y
 _atom_site_fract_z
 _atom_site_occupancy
  Sr  Sr0  1  0.20168100  0.93630700  0.98153000  1
  Sr  Sr1  1  0.29519500  0.70480500  0.20480500  1
  Sr  Sr2  1  0.70480500  0.20480500  0.29519500  1
  Sr  Sr3  1  0.79519500  0.79519500  0.79519500  1
  Sr  Sr4  1  0.80776000  0.69224000  0.30776000  1
  Sr  Sr5  1  0.69224000  0.30776000  0.80776000  1
  Sr  Sr6  1  0.30776000  0.80776000  0.69224000  1
  Sr  Sr7  1  0.19224000  0.19224000  0.19224000  1
  Sr  Sr8  1  0.01847000  0.70168100  0.56369300  1
  Sr  Sr9  1  0.51847000  0.79831900  0.43630700  1
  Sr  Sr10  1  0.98153000  0.20168100  0.93630700  1
  Sr  Sr11  1  0.79831900  0.43630700  0.51847000  1
  Sr  Sr12  1  0.93630700  0.98153000  0.20168100  1
  Sr  Sr13  1  0.43630700  0.51847000  0.79831900  1
  Sr  Sr14  1  0.70168100  0.56369300  0.01847000  1
  Sr  Sr15  1  0.56369300  0.01847000  0.70168100  1
  Sr  Sr16  1  0.20480500  0.29519500  0.70480500  1
  Sr  Sr17  1  0.29831900  0.06369300  0.48153000  1
  Sr  Sr18  1  0.06369300  0.48153000  0.29831900  1
  Sr  Sr19  1  0.48153000  0.29831900  0.06369300  1
  Sr  Sr20  1  0.30278800  0.56223500  0.49877700  1
  Sr  Sr21  1  0.80278800  0.93776500  0.50122300  1
  Sr  Sr22  1  0.69721200  0.06223500  0.00122300  1
  Sr  Sr23  1  0.93776500  0.50122300  0.80278800  1
  Sr  Sr24  1  0.00122300  0.69721200  0.06223500  1
  Sr  Sr25  1  0.50122300  0.80278800  0.93776500  1
  Sr  Sr26  1  0.56223500  0.49877700  0.30278800  1
  Sr  Sr27  1  0.49877700  0.30278800  0.56223500  1
  Sr  Sr28  1  0.06223500  0.00122300  0.69721200  1
  Sr  Sr29  1  0.43776500  0.99877700  0.19721200  1
  Sr  Sr30  1  0.99877700  0.19721200  0.43776500  1
  Sr  Sr31  1  0.19721200  0.43776500  0.99877700  1
  Al  Al32  1  0.06420500  0.43579500  0.56420500  1
  Al  Al33  1  0.43579500  0.56420500  0.06420500  1
  Al  Al34  1  0.56420500  0.06420500  0.43579500  1
  Al  Al35  1  0.93579500  0.93579500  0.93579500  1
  Al  Al36  1  0.43644300  0.06355700  0.93644300  1
  Al  Al37  1  0.06355700  0.93644300  0.43644300  1
  Al  Al38  1  0.93644300  0.43644300  0.06355700  1
  Al  Al39  1  0.56355700  0.56355700  0.56355700  1
  Al  Al40  1  0.25854200  0.67828000  0.92349200  1
  Al  Al41  1  0.75854200  0.82172000  0.07650800  1
  Al  Al42  1  0.74145800  0.17828000  0.57650800  1
  Al  Al43  1  0.82172000  0.07650800  0.75854200  1
  Al  Al44  1  0.57650800  0.74145800  0.17828000  1
  Al  Al45  1  0.07650800  0.75854200  0.82172000  1
  Al  Al46  1  0.67828000  0.92349200  0.25854200  1
  Al  Al47  1  0.23621000  0.81263300  0.43349400  1
  Al  Al48  1  0.17828000  0.57650800  0.74145800  1
  Al  Al49  1  0.32172000  0.42349200  0.24145800  1
  Al  Al50  1  0.42349200  0.24145800  0.32172000  1
  Al  Al51  1  0.24145800  0.32172000  0.42349200  1
  Al  Al52  1  0.26379000  0.18736700  0.93349400  1
  Al  Al53  1  0.76379000  0.31263300  0.06650600  1
  Al  Al54  1  0.73621000  0.68736700  0.56650600  1
  Al  Al55  1  0.31263300  0.06650600  0.76379000  1
  Al  Al56  1  0.56650600  0.73621000  0.68736700  1
  Al  Al57  1  0.06650600  0.76379000  0.31263300  1
  Al  Al58  1  0.18736700  0.93349400  0.26379000  1
  Al  Al59  1  0.93349400  0.26379000  0.18736700  1
  Al  Al60  1  0.68736700  0.56650600  0.73621000  1
  Al  Al61  1  0.81263300  0.43349400  0.23621000  1
  Al  Al62  1  0.43349400  0.23621000  0.81263300  1
  Al  Al63  1  0.92349200  0.25854200  0.67828000  1
