# generated using pymatgen
data_MnP2O7
_symmetry_space_group_name_H-M   'P 1'
_cell_length_a   5.06514055
_cell_length_b   5.06514055
_cell_length_c   4.45068267
_cell_angle_alpha   81.63643046
_cell_angle_beta   81.63643046
_cell_angle_gamma   100.14946100
_symmetry_Int_Tables_number   1
_chemical_formula_structural   MnP2O7
_chemical_formula_sum   'Mn1 P2 O7'
_cell_volume   109.47358856
_cell_formula_units_Z   1
loop_
 _symmetry_equiv_pos_site_id
 _symmetry_equiv_pos_as_xyz
  1  'x, y, z'
loop_
 _atom_site_type_symbol
 _atom_site_label
 _atom_site_symmetry_multiplicity
 _atom_site_fract_x
 _atom_site_fract_y
 _atom_site_fract_z
 _atom_site_occupancy
  Mn  Mn0  1  0.11175800  0.88824200  0.00000000  1
  P  P1  1  0.66816100  0.73847000  0.59135600  1
  P  P2  1  0.26153000  0.33183900  0.40864400  1
  O  O3  1  0.54891300  0.45108700  0.50000000  1
  O  O4  1  0.43469500  0.85761900  0.73292000  1
  O  O5  1  0.81218200  0.92874000  0.28467800  1
  O  O6  1  0.85993100  0.66363000  0.81344800  1
  O  O7  1  0.07126000  0.18781800  0.71532200  1
  O  O8  1  0.14238100  0.56530500  0.26708000  1
  O  O9  1  0.33637000  0.14006900  0.18655200  1
