# generated using pymatgen
data_V2P5O16
_symmetry_space_group_name_H-M   'P 1'
_cell_length_a   6.81782500
_cell_length_b   5.13515700
_cell_length_c   19.07248698
_cell_angle_alpha   89.09636339
_cell_angle_beta   90.00000000
_cell_angle_gamma   90.00000000
_symmetry_Int_Tables_number   1
_chemical_formula_structural   V2P5O16
_chemical_formula_sum   'V4 P10 O32'
_cell_volume   667.65620204
_cell_formula_units_Z   2
loop_
 _symmetry_equiv_pos_site_id
 _symmetry_equiv_pos_as_xyz
  1  'x, y, z'
loop_
 _atom_site_type_symbol
 _atom_site_label
 _atom_site_symmetry_multiplicity
 _atom_site_fract_x
 _atom_site_fract_y
 _atom_site_fract_z
 _atom_site_occupancy
  V  V0  1  0.81857800  0.74895300  0.90651400  1
  V  V1  1  0.81857800  0.25104700  0.59348600  1
  V  V2  1  0.18142200  0.74895300  0.40651400  1
  V  V3  1  0.18142200  0.25104700  0.09348600  1
  P  P4  1  0.12532800  0.24535100  0.92393300  1
  P  P5  1  0.53589900  0.25340200  0.86913600  1
  P  P6  1  0.72568300  0.00000000  0.75000000  1
  P  P7  1  0.53589900  0.74659800  0.63086400  1
  P  P8  1  0.12532800  0.75464900  0.57606700  1
  P  P9  1  0.87467200  0.24535100  0.42393300  1
  P  P10  1  0.46410100  0.25340200  0.36913600  1
  P  P11  1  0.27431700  0.00000000  0.25000000  1
  P  P12  1  0.46410100  0.74659800  0.13086400  1
  P  P13  1  0.87467200  0.75464900  0.07606700  1
  O  O14  1  0.21341500  0.32077500  0.99448200  1
  O  O15  1  0.03865100  0.97259000  0.92430400  1
  O  O16  1  0.63208000  0.04756600  0.91454000  1
  O  O17  1  0.58594500  0.53295600  0.88362100  1
  O  O18  1  0.98955300  0.45253800  0.89265400  1
  O  O19  1  0.30461100  0.22607500  0.86851600  1
  O  O20  1  0.84060100  0.84879800  0.80403700  1
  O  O21  1  0.57741600  0.19764300  0.78745700  1
  O  O22  1  0.57741600  0.80235700  0.71254300  1
  O  O23  1  0.84060100  0.15120200  0.69596300  1
  O  O24  1  0.30461100  0.77392500  0.63148400  1
  O  O25  1  0.98955300  0.54746200  0.60734600  1
  O  O26  1  0.58594500  0.46704400  0.61637900  1
  O  O27  1  0.63208000  0.95243400  0.58546000  1
  O  O28  1  0.03865100  0.02741000  0.57569600  1
  O  O29  1  0.21341500  0.67922500  0.50551800  1
  O  O30  1  0.78658500  0.32077500  0.49448200  1
  O  O31  1  0.96134900  0.97259000  0.42430400  1
  O  O32  1  0.36792000  0.04756600  0.41454000  1
  O  O33  1  0.41405500  0.53295600  0.38362100  1
  O  O34  1  0.01044700  0.45253800  0.39265400  1
  O  O35  1  0.69538900  0.22607500  0.36851600  1
  O  O36  1  0.15939900  0.84879800  0.30403700  1
  O  O37  1  0.42258400  0.19764300  0.28745700  1
  O  O38  1  0.42258400  0.80235700  0.21254300  1
  O  O39  1  0.15939900  0.15120200  0.19596300  1
  O  O40  1  0.69538900  0.77392500  0.13148400  1
  O  O41  1  0.01044700  0.54746200  0.10734600  1
  O  O42  1  0.41405500  0.46704400  0.11637900  1
  O  O43  1  0.36792000  0.95243400  0.08546000  1
  O  O44  1  0.96134900  0.02741000  0.07569600  1
  O  O45  1  0.78658500  0.67922500  0.00551800  1
