# generated using pymatgen
data_CeSe2
_symmetry_space_group_name_H-M   'P 1'
_cell_length_a   8.13353877
_cell_length_b   8.13353877
_cell_length_c   4.59368900
_cell_angle_alpha   90.00000000
_cell_angle_beta   90.00000000
_cell_angle_gamma   151.70815677
_symmetry_Int_Tables_number   1
_chemical_formula_structural   CeSe2
_chemical_formula_sum   'Ce2 Se4'
_cell_volume   144.03398624
_cell_formula_units_Z   2
loop_
 _symmetry_equiv_pos_site_id
 _symmetry_equiv_pos_as_xyz
  1  'x, y, z'
loop_
 _atom_site_type_symbol
 _atom_site_label
 _atom_site_symmetry_multiplicity
 _atom_site_fract_x
 _atom_site_fract_y
 _atom_site_fract_z
 _atom_site_occupancy
  Ce  Ce0  1  0.88426600  0.11573400  0.75000000  1
  Ce  Ce1  1  0.11573400  0.88426600  0.25000000  1
  Se  Se2  1  0.75475500  0.24524500  0.25000000  1
  Se  Se3  1  0.24524500  0.75475500  0.75000000  1
  Se  Se4  1  0.56864700  0.43135300  0.75000000  1
  Se  Se5  1  0.43135300  0.56864700  0.25000000  1
