# generated using pymatgen
data_AsCF3
_symmetry_space_group_name_H-M   'P 1'
_cell_length_a   10.71354800
_cell_length_b   10.71354800
_cell_length_c   6.48727700
_cell_angle_alpha   90.00000000
_cell_angle_beta   90.00000000
_cell_angle_gamma   90.00000000
_symmetry_Int_Tables_number   1
_chemical_formula_structural   AsCF3
_chemical_formula_sum   'As8 C8 F24'
_cell_volume   744.61037251
_cell_formula_units_Z   8
loop_
 _symmetry_equiv_pos_site_id
 _symmetry_equiv_pos_as_xyz
  1  'x, y, z'
loop_
 _atom_site_type_symbol
 _atom_site_label
 _atom_site_symmetry_multiplicity
 _atom_site_fract_x
 _atom_site_fract_y
 _atom_site_fract_z
 _atom_site_occupancy
  As  As0  1  0.50000000  0.65547800  0.06545400  1
  As  As1  1  0.50000000  0.34452200  0.06545400  1
  As  As2  1  0.84452200  0.00000000  0.56545400  1
  As  As3  1  0.15547800  0.00000000  0.56545400  1
  As  As4  1  0.65547800  0.50000000  0.93454600  1
  As  As5  1  0.00000000  0.84452200  0.43454600  1
  As  As6  1  0.00000000  0.15547800  0.43454600  1
  As  As7  1  0.34452200  0.50000000  0.93454600  1
  C  C8  1  0.50000000  0.76099600  0.80107100  1
  C  C9  1  0.50000000  0.23900400  0.80107100  1
  C  C10  1  0.73900400  0.00000000  0.30107100  1
  C  C11  1  0.26099600  0.00000000  0.30107100  1
  C  C12  1  0.76099600  0.50000000  0.19892900  1
  C  C13  1  0.00000000  0.73900400  0.69892900  1
  C  C14  1  0.00000000  0.26099600  0.69892900  1
  C  C15  1  0.23900400  0.50000000  0.19892900  1
  F  F16  1  0.33662100  0.89716800  0.29869400  1
  F  F17  1  0.39716800  0.16337900  0.79869400  1
  F  F18  1  0.60283200  0.83662100  0.79869400  1
  F  F19  1  0.66337900  0.10283200  0.29869400  1
  F  F20  1  0.16337900  0.39716800  0.20130600  1
  F  F21  1  0.83662100  0.60283200  0.20130600  1
  F  F22  1  0.89716800  0.33662100  0.70130600  1
  F  F23  1  0.10283200  0.66337900  0.70130600  1
  F  F24  1  0.30397300  0.50000000  0.38006000  1
  F  F25  1  0.00000000  0.19602700  0.88006000  1
  F  F26  1  0.00000000  0.80397300  0.88006000  1
  F  F27  1  0.69602700  0.50000000  0.38006000  1
  F  F28  1  0.19602700  0.00000000  0.11994000  1
  F  F29  1  0.80397300  0.00000000  0.11994000  1
  F  F30  1  0.50000000  0.30397300  0.61994000  1
  F  F31  1  0.50000000  0.69602700  0.61994000  1
  F  F32  1  0.16337900  0.60283200  0.20130600  1
  F  F33  1  0.10283200  0.33662100  0.70130600  1
  F  F34  1  0.89716800  0.66337900  0.70130600  1
  F  F35  1  0.83662100  0.39716800  0.20130600  1
  F  F36  1  0.33662100  0.10283200  0.29869400  1
  F  F37  1  0.66337900  0.89716800  0.29869400  1
  F  F38  1  0.60283200  0.16337900  0.79869400  1
  F  F39  1  0.39716800  0.83662100  0.79869400  1
