# generated using pymatgen
data_Nb(SeCl)2
_symmetry_space_group_name_H-M   'P 1'
_cell_length_a   6.44558500
_cell_length_b   6.61402634
_cell_length_c   7.95206435
_cell_angle_alpha   67.42708910
_cell_angle_beta   69.80936992
_cell_angle_gamma   60.88820156
_symmetry_Int_Tables_number   1
_chemical_formula_structural   Nb(SeCl)2
_chemical_formula_sum   'Nb2 Se4 Cl4'
_cell_volume   268.16775015
_cell_formula_units_Z   2
loop_
 _symmetry_equiv_pos_site_id
 _symmetry_equiv_pos_as_xyz
  1  'x, y, z'
loop_
 _atom_site_type_symbol
 _atom_site_label
 _atom_site_symmetry_multiplicity
 _atom_site_fract_x
 _atom_site_fract_y
 _atom_site_fract_z
 _atom_site_occupancy
  Nb  Nb0  1  0.87063500  0.25911900  0.00002300  1
  Nb  Nb1  1  0.12936500  0.74088100  0.99997700  1
  Se  Se2  1  0.92694100  0.89619300  0.30494100  1
  Se  Se3  1  0.07305900  0.10380700  0.69505900  1
  Se  Se4  1  0.72912300  0.04391400  0.87029600  1
  Se  Se5  1  0.27087700  0.95608600  0.12970400  1
  Cl  Cl6  1  0.85232900  0.51162800  0.19924700  1
  Cl  Cl7  1  0.14767100  0.48837200  0.80075300  1
  Cl  Cl8  1  0.43188200  0.35347500  0.19965800  1
  Cl  Cl9  1  0.56811800  0.64652500  0.80034200  1
