# generated using pymatgen
data_CeSe2
_symmetry_space_group_name_H-M   'P 1'
_cell_length_a   7.80584129
_cell_length_b   7.80584129
_cell_length_c   13.99195175
_cell_angle_alpha   93.79166708
_cell_angle_beta   93.79166708
_cell_angle_gamma   139.72306439
_symmetry_Int_Tables_number   1
_chemical_formula_structural   CeSe2
_chemical_formula_sum   'Ce6 Se12'
_cell_volume   540.89398372
_cell_formula_units_Z   6
loop_
 _symmetry_equiv_pos_site_id
 _symmetry_equiv_pos_as_xyz
  1  'x, y, z'
loop_
 _atom_site_type_symbol
 _atom_site_label
 _atom_site_symmetry_multiplicity
 _atom_site_fract_x
 _atom_site_fract_y
 _atom_site_fract_z
 _atom_site_occupancy
  Ce  Ce0  1  0.52869000  0.02869100  0.50000000  1
  Ce  Ce1  1  0.27869100  0.27869100  0.00000000  1
  Ce  Ce2  1  0.99861500  0.85141100  0.72276400  1
  Ce  Ce3  1  0.12864700  0.27585000  0.27723600  1
  Ce  Ce4  1  0.10141100  0.74861500  0.22276400  1
  Ce  Ce5  1  0.52585000  0.87864700  0.77723600  1
  Se  Se6  1  0.09590900  0.59794900  0.61613500  1
  Se  Se7  1  0.98181300  0.47977300  0.38386500  1
  Se  Se8  1  0.84794900  0.84590900  0.11613500  1
  Se  Se9  1  0.72977300  0.73181300  0.88386500  1
  Se  Se10  1  0.25637100  0.09924000  0.39725500  1
  Se  Se11  1  0.70198400  0.85911600  0.60274500  1
  Se  Se12  1  0.34924000  0.00637100  0.89725500  1
  Se  Se13  1  0.10911600  0.45198400  0.10274500  1
  Se  Se14  1  0.53483800  0.25710100  0.67796900  1
  Se  Se15  1  0.57913200  0.85687000  0.32203100  1
  Se  Se16  1  0.50710100  0.28483800  0.17796900  1
  Se  Se17  1  0.10687000  0.32913200  0.82203100  1
