# generated using pymatgen
data_Na5Zr2F13
_symmetry_space_group_name_H-M   'P 1'
_cell_length_a   6.66829018
_cell_length_b   6.66829018
_cell_length_c   9.21790850
_cell_angle_alpha   86.33996643
_cell_angle_beta   86.33996643
_cell_angle_gamma   51.42785279
_symmetry_Int_Tables_number   1
_chemical_formula_structural   Na5Zr2F13
_chemical_formula_sum   'Na5 Zr2 F13'
_cell_volume   319.65193610
_cell_formula_units_Z   1
loop_
 _symmetry_equiv_pos_site_id
 _symmetry_equiv_pos_as_xyz
  1  'x, y, z'
loop_
 _atom_site_type_symbol
 _atom_site_label
 _atom_site_symmetry_multiplicity
 _atom_site_fract_x
 _atom_site_fract_y
 _atom_site_fract_z
 _atom_site_occupancy
  Na  Na0  1  0.80661000  0.80661000  0.89345800  1
  Na  Na1  1  0.66052300  0.66052300  0.42064400  1
  Na  Na2  1  0.00000000  0.00000000  0.50000000  1
  Na  Na3  1  0.33947700  0.33947700  0.57935700  1
  Na  Na4  1  0.19339000  0.19339000  0.10654200  1
  Zr  Zr5  1  0.08073200  0.08073200  0.77884000  1
  Zr  Zr6  1  0.91926800  0.91926800  0.22116000  1
  F  F7  1  0.06631000  0.64593500  0.39629300  1
  F  F8  1  0.83773700  0.27063700  0.26540100  1
  F  F9  1  0.00000000  0.00000000  0.00000000  1
  F  F10  1  0.59669400  0.05036300  0.11659200  1
  F  F11  1  0.94963700  0.40330600  0.88340800  1
  F  F12  1  0.40330600  0.94963700  0.88340800  1
  F  F13  1  0.05036300  0.59669400  0.11659200  1
  F  F14  1  0.64593500  0.06631000  0.39629300  1
  F  F15  1  0.16226300  0.72936300  0.73459900  1
  F  F16  1  0.35406500  0.93369000  0.60370700  1
  F  F17  1  0.93369000  0.35406500  0.60370700  1
  F  F18  1  0.27063700  0.83773700  0.26540100  1
  F  F19  1  0.72936300  0.16226300  0.73459900  1
