# generated using pymatgen
data_Ti9O17
_symmetry_space_group_name_H-M   'P 1'
_cell_length_a   5.57685600
_cell_length_b   7.19835592
_cell_length_c   14.90099833
_cell_angle_alpha   96.82910240
_cell_angle_beta   90.62032234
_cell_angle_gamma   108.62793784
_symmetry_Int_Tables_number   1
_chemical_formula_structural   Ti9O17
_chemical_formula_sum   'Ti18 O34'
_cell_volume   562.07166719
_cell_formula_units_Z   2
loop_
 _symmetry_equiv_pos_site_id
 _symmetry_equiv_pos_as_xyz
  1  'x, y, z'
loop_
 _atom_site_type_symbol
 _atom_site_label
 _atom_site_symmetry_multiplicity
 _atom_site_fract_x
 _atom_site_fract_y
 _atom_site_fract_z
 _atom_site_occupancy
  Ti  Ti0  1  0.00000000  0.50000000  0.00000000  1
  Ti  Ti1  1  0.00000000  0.00000000  0.00000000  1
  Ti  Ti2  1  0.30312000  0.81047600  0.54036700  1
  Ti  Ti3  1  0.69688000  0.18952400  0.45963300  1
  Ti  Ti4  1  0.30305000  0.31264100  0.54273100  1
  Ti  Ti5  1  0.69695000  0.68735900  0.45726900  1
  Ti  Ti6  1  0.74977300  0.59978700  0.65936200  1
  Ti  Ti7  1  0.25022700  0.40021300  0.34063800  1
  Ti  Ti8  1  0.74949200  0.09595100  0.65991300  1
  Ti  Ti9  1  0.25050800  0.90404900  0.34008700  1
  Ti  Ti10  1  0.17271900  0.40782100  0.77412200  1
  Ti  Ti11  1  0.82728100  0.59217900  0.22587800  1
  Ti  Ti12  1  0.16889000  0.90707000  0.77332500  1
  Ti  Ti13  1  0.83111000  0.09293000  0.22667500  1
  Ti  Ti14  1  0.58460700  0.20511300  0.88695400  1
  Ti  Ti15  1  0.41539300  0.79488700  0.11304600  1
  Ti  Ti16  1  0.59128000  0.70727600  0.88682500  1
  Ti  Ti17  1  0.40872000  0.29272400  0.11317500  1
  O  O18  1  0.70335300  0.95923600  0.52081600  1
  O  O19  1  0.29664700  0.04076400  0.47918400  1
  O  O20  1  0.95679300  0.67869600  0.54246300  1
  O  O21  1  0.04320700  0.32130400  0.45753700  1
  O  O22  1  0.45758100  0.60462200  0.57059400  1
  O  O23  1  0.54241900  0.39537800  0.42940600  1
  O  O24  1  0.64758700  0.31460400  0.59521000  1
  O  O25  1  0.35241300  0.68539600  0.40479000  1
  O  O26  1  0.10561800  0.26109500  0.64048200  1
  O  O27  1  0.89438200  0.73890500  0.35951800  1
  O  O28  1  0.38673100  0.94867500  0.65791300  1
  O  O29  1  0.61326900  0.05132500  0.34208700  1
  O  O30  1  0.85993800  0.88673500  0.69132700  1
  O  O31  1  0.14006200  0.11326500  0.30867300  1
  O  O32  1  0.52090800  0.55924500  0.75513400  1
  O  O33  1  0.47909200  0.44075500  0.24486600  1
  O  O34  1  0.04501300  0.61434700  0.72750600  1
  O  O35  1  0.95498700  0.38565300  0.27249400  1
  O  O36  1  0.64125900  0.83263800  0.00999800  1
  O  O37  1  0.35874100  0.16736200  0.99000200  1
  O  O38  1  0.12571800  0.78740200  0.03732800  1
  O  O39  1  0.87428200  0.21259800  0.96267200  1
  O  O40  1  0.29139100  0.51119900  0.07973100  1
  O  O41  1  0.70860900  0.48880100  0.92026900  1
  O  O42  1  0.77384000  0.46567600  0.10658700  1
  O  O43  1  0.22616000  0.53432400  0.89341300  1
  O  O44  1  0.05988800  0.13380500  0.12717700  1
  O  O45  1  0.94011200  0.86619500  0.87282300  1
  O  O46  1  0.54210400  0.08691300  0.15497500  1
  O  O47  1  0.45789600  0.91308700  0.84502500  1
  O  O48  1  0.71393300  0.81166400  0.19464600  1
  O  O49  1  0.28606700  0.18833600  0.80535400  1
  O  O50  1  0.19323200  0.76115100  0.22439500  1
  O  O51  1  0.80676800  0.23884900  0.77560500  1
