# generated using pymatgen
data_CeSe2
_symmetry_space_group_name_H-M   'P 1'
_cell_length_a   4.56544300
_cell_length_b   7.26839600
_cell_length_c   13.97491917
_cell_angle_alpha   79.44786880
_cell_angle_beta   90.00000000
_cell_angle_gamma   90.00000000
_symmetry_Int_Tables_number   1
_chemical_formula_structural   CeSe2
_chemical_formula_sum   'Ce4 Se8'
_cell_volume   455.89361599
_cell_formula_units_Z   4
loop_
 _symmetry_equiv_pos_site_id
 _symmetry_equiv_pos_as_xyz
  1  'x, y, z'
loop_
 _atom_site_type_symbol
 _atom_site_label
 _atom_site_symmetry_multiplicity
 _atom_site_fract_x
 _atom_site_fract_y
 _atom_site_fract_z
 _atom_site_occupancy
  Ce  Ce0  1  0.50000000  0.83493800  0.33764700  1
  Ce  Ce1  1  0.50000000  0.16506200  0.66235300  1
  Ce  Ce2  1  0.00000000  0.55457200  0.80161100  1
  Ce  Ce3  1  0.00000000  0.44542800  0.19838900  1
  Se  Se4  1  0.00000000  0.94778400  0.75831200  1
  Se  Se5  1  0.00000000  0.05221600  0.24168800  1
  Se  Se6  1  0.00000000  0.50000000  0.00000000  1
  Se  Se7  1  0.00000000  0.58421400  0.37925900  1
  Se  Se8  1  0.00000000  0.41578600  0.62074100  1
  Se  Se9  1  0.50000000  0.00000000  0.50000000  1
  Se  Se10  1  0.50000000  0.33433800  0.83533500  1
  Se  Se11  1  0.50000000  0.66566200  0.16466500  1
