# generated using pymatgen
data_CeSe2
_symmetry_space_group_name_H-M   'P 1'
_cell_length_a   13.65013600
_cell_length_b   13.65013600
_cell_length_c   8.82866600
_cell_angle_alpha   90.00000000
_cell_angle_beta   90.00000000
_cell_angle_gamma   90.00000000
_symmetry_Int_Tables_number   1
_chemical_formula_structural   CeSe2
_chemical_formula_sum   'Ce8 Se16'
_cell_volume   1645.01190002
_cell_formula_units_Z   8
loop_
 _symmetry_equiv_pos_site_id
 _symmetry_equiv_pos_as_xyz
  1  'x, y, z'
loop_
 _atom_site_type_symbol
 _atom_site_label
 _atom_site_symmetry_multiplicity
 _atom_site_fract_x
 _atom_site_fract_y
 _atom_site_fract_z
 _atom_site_occupancy
  Ce  Ce0  1  0.31383200  0.07186300  0.00000000  1
  Ce  Ce1  1  0.68616800  0.92813700  0.00000000  1
  Ce  Ce2  1  0.68616800  0.07186300  0.50000000  1
  Ce  Ce3  1  0.31383200  0.92813700  0.50000000  1
  Ce  Ce4  1  0.07186300  0.31383200  0.00000000  1
  Ce  Ce5  1  0.92813700  0.68616800  0.00000000  1
  Ce  Ce6  1  0.07186300  0.68616800  0.50000000  1
  Ce  Ce7  1  0.92813700  0.31383200  0.50000000  1
  Se  Se8  1  0.26518600  0.26518600  0.00000000  1
  Se  Se9  1  0.73481400  0.73481400  0.00000000  1
  Se  Se10  1  0.73481400  0.26518600  0.50000000  1
  Se  Se11  1  0.26518600  0.73481400  0.50000000  1
  Se  Se12  1  0.22489300  0.00000000  0.25000000  1
  Se  Se13  1  0.77510700  0.00000000  0.25000000  1
  Se  Se14  1  0.77510700  0.00000000  0.75000000  1
  Se  Se15  1  0.22489300  0.00000000  0.75000000  1
  Se  Se16  1  0.00000000  0.22489300  0.25000000  1
  Se  Se17  1  0.00000000  0.77510700  0.25000000  1
  Se  Se18  1  0.00000000  0.77510700  0.75000000  1
  Se  Se19  1  0.00000000  0.22489300  0.75000000  1
  Se  Se20  1  0.50000000  0.00000000  0.00000000  1
  Se  Se21  1  0.50000000  0.00000000  0.50000000  1
  Se  Se22  1  0.00000000  0.50000000  0.00000000  1
  Se  Se23  1  0.00000000  0.50000000  0.50000000  1
