# generated using pymatgen
data_TlHg5Cl11
_symmetry_space_group_name_H-M   'P 1'
_cell_length_a   9.64043546
_cell_length_b   9.64043546
_cell_length_c   6.68874603
_cell_angle_alpha   72.27037639
_cell_angle_beta   72.27037639
_cell_angle_gamma   100.83237455
_symmetry_Int_Tables_number   1
_chemical_formula_structural   TlHg5Cl11
_chemical_formula_sum   'Tl1 Hg5 Cl11'
_cell_volume   536.32374220
_cell_formula_units_Z   1
loop_
 _symmetry_equiv_pos_site_id
 _symmetry_equiv_pos_as_xyz
  1  'x, y, z'
loop_
 _atom_site_type_symbol
 _atom_site_label
 _atom_site_symmetry_multiplicity
 _atom_site_fract_x
 _atom_site_fract_y
 _atom_site_fract_z
 _atom_site_occupancy
  Tl  Tl0  1  0.50000000  0.50000000  0.00000000  1
  Hg  Hg1  1  0.00000000  0.00000000  0.00000000  1
  Hg  Hg2  1  0.15203900  0.48329800  0.68325100  1
  Hg  Hg3  1  0.51670200  0.84796100  0.31674900  1
  Hg  Hg4  1  0.84796100  0.51670200  0.31674900  1
  Hg  Hg5  1  0.48329800  0.15203900  0.68325100  1
  Cl  Cl6  1  0.50000000  0.50000000  0.50000000  1
  Cl  Cl7  1  0.08580000  0.33399400  0.06638900  1
  Cl  Cl8  1  0.66600600  0.91420000  0.93361100  1
  Cl  Cl9  1  0.91420000  0.66600600  0.93361100  1
  Cl  Cl10  1  0.33399400  0.08580000  0.06638900  1
  Cl  Cl11  1  0.79526100  0.36464700  0.69564800  1
  Cl  Cl12  1  0.85360500  0.85360500  0.38407100  1
  Cl  Cl13  1  0.14639500  0.14639500  0.61592900  1
  Cl  Cl14  1  0.36464700  0.79526100  0.69564800  1
  Cl  Cl15  1  0.20473900  0.63535300  0.30435200  1
  Cl  Cl16  1  0.63535300  0.20473900  0.30435200  1
