# generated using pymatgen
data_CeSe2
_symmetry_space_group_name_H-M   'P 1'
_cell_length_a   14.28012736
_cell_length_b   20.98500011
_cell_length_c   20.98500052
_cell_angle_alpha   109.06456653
_cell_angle_beta   90.00000000
_cell_angle_gamma   90.00000000
_symmetry_Int_Tables_number   1
_chemical_formula_structural   CeSe2
_chemical_formula_sum   'Ce24 Se48'
_cell_volume   5943.62337349
_cell_formula_units_Z   24
loop_
 _symmetry_equiv_pos_site_id
 _symmetry_equiv_pos_as_xyz
  1  'x, y, z'
loop_
 _atom_site_type_symbol
 _atom_site_label
 _atom_site_symmetry_multiplicity
 _atom_site_fract_x
 _atom_site_fract_y
 _atom_site_fract_z
 _atom_site_occupancy
  Ce  Ce0  1  0.05967067  0.77444374  0.22555626  1
  Ce  Ce1  1  0.94032933  0.22555626  0.77444374  1
  Ce  Ce2  1  0.44032933  0.77444374  0.22555626  1
  Ce  Ce3  1  0.55967067  0.22555626  0.77444374  1
  Ce  Ce4  1  0.06195155  0.62540583  0.37459417  1
  Ce  Ce5  1  0.93804845  0.37459417  0.62540583  1
  Ce  Ce6  1  0.43804845  0.62540583  0.37459417  1
  Ce  Ce7  1  0.56195155  0.37459417  0.62540583  1
  Ce  Ce8  1  0.93361478  0.75737300  0.62058748  1
  Ce  Ce9  1  0.06638522  0.62058748  0.75737300  1
  Ce  Ce10  1  0.56638522  0.75737300  0.62058748  1
  Ce  Ce11  1  0.43361478  0.62058748  0.75737300  1
  Ce  Ce12  1  0.06638522  0.24262700  0.37941252  1
  Ce  Ce13  1  0.93361478  0.37941252  0.24262700  1
  Ce  Ce14  1  0.43361478  0.24262700  0.37941252  1
  Ce  Ce15  1  0.56638522  0.37941252  0.24262700  1
  Ce  Ce16  1  0.93635244  0.01105706  0.38294805  1
  Ce  Ce17  1  0.06364756  0.38294805  0.01105706  1
  Ce  Ce18  1  0.56364756  0.01105706  0.38294805  1
  Ce  Ce19  1  0.43635244  0.38294805  0.01105706  1
  Ce  Ce20  1  0.06364756  0.98894294  0.61705195  1
  Ce  Ce21  1  0.93635244  0.61705195  0.98894294  1
  Ce  Ce22  1  0.43635244  0.98894294  0.61705195  1
  Ce  Ce23  1  0.56364756  0.61705195  0.98894294  1
  Se  Se24  1  0.25000000  0.77744138  0.22255862  1
  Se  Se25  1  0.75000000  0.22255862  0.77744138  1
  Se  Se26  1  0.25000000  0.62932104  0.37067896  1
  Se  Se27  1  0.75000000  0.37067896  0.62932104  1
  Se  Se28  1  0.75000000  0.72435524  0.61089579  1
  Se  Se29  1  0.25000000  0.61089579  0.72435524  1
  Se  Se30  1  0.25000000  0.27564476  0.38910421  1
  Se  Se31  1  0.75000000  0.38910421  0.27564476  1
  Se  Se32  1  0.75000000  0.03863290  0.38671693  1
  Se  Se33  1  0.25000000  0.38671693  0.03863290  1
  Se  Se34  1  0.25000000  0.96136710  0.61328307  1
  Se  Se35  1  0.75000000  0.61328307  0.96136710  1
  Se  Se36  1  0.99545521  0.69980975  0.30019025  1
  Se  Se37  1  0.00454479  0.30019025  0.69980975  1
  Se  Se38  1  0.50454479  0.69980975  0.30019025  1
  Se  Se39  1  0.49545521  0.30019025  0.69980975  1
  Se  Se40  1  0.01504414  0.67682335  0.50632270  1
  Se  Se41  1  0.98495586  0.50632270  0.67682335  1
  Se  Se42  1  0.48495586  0.67682335  0.50632270  1
  Se  Se43  1  0.51504414  0.50632270  0.67682335  1
  Se  Se44  1  0.98495586  0.32317665  0.49367730  1
  Se  Se45  1  0.01504414  0.49367730  0.32317665  1
  Se  Se46  1  0.51504414  0.32317665  0.49367730  1
  Se  Se47  1  0.48495586  0.49367730  0.32317665  1
  Se  Se48  1  0.00000000  0.72959994  0.72959994  1
  Se  Se49  1  0.50000000  0.72959994  0.72959994  1
  Se  Se50  1  0.00000000  0.27040006  0.27040006  1
  Se  Se51  1  0.50000000  0.27040006  0.27040006  1
  Se  Se52  1  0.96034464  0.88991985  0.63824009  1
  Se  Se53  1  0.03965536  0.63824009  0.88991985  1
  Se  Se54  1  0.53965536  0.88991985  0.63824009  1
  Se  Se55  1  0.46034464  0.63824009  0.88991985  1
  Se  Se56  1  0.03965536  0.11008015  0.36175991  1
  Se  Se57  1  0.96034464  0.36175991  0.11008015  1
  Se  Se58  1  0.46034464  0.11008015  0.36175991  1
  Se  Se59  1  0.53965536  0.36175991  0.11008015  1
  Se  Se60  1  0.00000000  0.00000000  0.50000000  1
  Se  Se61  1  0.00000000  0.50000000  0.00000000  1
  Se  Se62  1  0.50000000  0.00000000  0.50000000  1
  Se  Se63  1  0.50000000  0.50000000  0.00000000  1
  Se  Se64  1  0.98393325  0.89914791  0.27990560  1
  Se  Se65  1  0.01606675  0.27990560  0.89914791  1
  Se  Se66  1  0.51606675  0.89914791  0.27990560  1
  Se  Se67  1  0.48393325  0.27990560  0.89914791  1
  Se  Se68  1  0.01606675  0.10085209  0.72009440  1
  Se  Se69  1  0.98393325  0.72009440  0.10085209  1
  Se  Se70  1  0.48393325  0.10085209  0.72009440  1
  Se  Se71  1  0.51606675  0.72009440  0.10085209  1
