# generated using pymatgen
data_K2Zr7Cl18
_symmetry_space_group_name_H-M   'P 1'
_cell_length_a   10.39084105
_cell_length_b   10.39084105
_cell_length_c   10.39084080
_cell_angle_alpha   55.56984880
_cell_angle_beta   55.56984880
_cell_angle_gamma   55.56985117
_symmetry_Int_Tables_number   1
_chemical_formula_structural   K2Zr7Cl18
_chemical_formula_sum   'K2 Zr7 Cl18'
_cell_volume   711.72507775
_cell_formula_units_Z   1
loop_
 _symmetry_equiv_pos_site_id
 _symmetry_equiv_pos_as_xyz
  1  'x, y, z'
loop_
 _atom_site_type_symbol
 _atom_site_label
 _atom_site_symmetry_multiplicity
 _atom_site_fract_x
 _atom_site_fract_y
 _atom_site_fract_z
 _atom_site_occupancy
  K  K0  1  0.77648300  0.77648300  0.77648300  1
  K  K1  1  0.22351700  0.22351700  0.22351700  1
  Zr  Zr2  1  0.50000000  0.50000000  0.50000000  1
  Zr  Zr3  1  0.16281600  0.78964400  0.90136900  1
  Zr  Zr4  1  0.90136900  0.16281600  0.78964400  1
  Zr  Zr5  1  0.78964400  0.90136900  0.16281600  1
  Zr  Zr6  1  0.83718400  0.21035600  0.09863100  1
  Zr  Zr7  1  0.09863100  0.83718400  0.21035600  1
  Zr  Zr8  1  0.21035600  0.09863100  0.83718400  1
  Cl  Cl9  1  0.35970300  0.52432100  0.78131800  1
  Cl  Cl10  1  0.78131800  0.35970300  0.52432100  1
  Cl  Cl11  1  0.52432100  0.78131800  0.35970300  1
  Cl  Cl12  1  0.64029700  0.47567900  0.21868200  1
  Cl  Cl13  1  0.21868200  0.64029700  0.47567900  1
  Cl  Cl14  1  0.47567900  0.21868200  0.64029700  1
  Cl  Cl15  1  0.13292800  0.28418300  0.57577900  1
  Cl  Cl16  1  0.57577800  0.13292800  0.28418300  1
  Cl  Cl17  1  0.28418300  0.57577800  0.13292800  1
  Cl  Cl18  1  0.05676400  0.34802500  0.93138300  1
  Cl  Cl19  1  0.34802500  0.93138300  0.05676400  1
  Cl  Cl20  1  0.93138300  0.05676400  0.34802500  1
  Cl  Cl21  1  0.94323600  0.65197500  0.06861700  1
  Cl  Cl22  1  0.65197500  0.06861700  0.94323600  1
  Cl  Cl23  1  0.06861700  0.94323600  0.65197500  1
  Cl  Cl24  1  0.71581700  0.42422100  0.86707200  1
  Cl  Cl25  1  0.42422200  0.86707200  0.71581700  1
  Cl  Cl26  1  0.86707200  0.71581700  0.42422200  1
