# generated using pymatgen
data_TiBr4
_symmetry_space_group_name_H-M   'P 1'
_cell_length_a   7.44178400
_cell_length_b   11.21654900
_cell_length_c   11.21976926
_cell_angle_alpha   78.59766486
_cell_angle_beta   90.00000000
_cell_angle_gamma   90.00000000
_symmetry_Int_Tables_number   1
_chemical_formula_structural   TiBr4
_chemical_formula_sum   'Ti4 Br16'
_cell_volume   918.04275304
_cell_formula_units_Z   4
loop_
 _symmetry_equiv_pos_site_id
 _symmetry_equiv_pos_as_xyz
  1  'x, y, z'
loop_
 _atom_site_type_symbol
 _atom_site_label
 _atom_site_symmetry_multiplicity
 _atom_site_fract_x
 _atom_site_fract_y
 _atom_site_fract_z
 _atom_site_occupancy
  Ti  Ti0  1  0.42202200  0.63227200  0.25004700  1
  Ti  Ti1  1  0.92202200  0.86772800  0.74995300  1
  Ti  Ti2  1  0.57797800  0.36772800  0.74995300  1
  Ti  Ti3  1  0.07797800  0.13227200  0.25004700  1
  Br  Br4  1  0.42074400  0.79369000  0.08257900  1
  Br  Br5  1  0.92074400  0.70631000  0.91742100  1
  Br  Br6  1  0.57925600  0.20631000  0.91742100  1
  Br  Br7  1  0.07925600  0.29369000  0.08257900  1
  Br  Br8  1  0.12635900  0.57864700  0.30777500  1
  Br  Br9  1  0.62635900  0.92135300  0.69222500  1
  Br  Br10  1  0.87364100  0.42135300  0.69222500  1
  Br  Br11  1  0.37364100  0.07864700  0.30777500  1
  Br  Br12  1  0.57274600  0.69169400  0.41166400  1
  Br  Br13  1  0.07274600  0.80830600  0.58833600  1
  Br  Br14  1  0.42725400  0.30830600  0.58833600  1
  Br  Br15  1  0.92725400  0.19169400  0.41166400  1
  Br  Br16  1  0.56919600  0.46577400  0.19785500  1
  Br  Br17  1  0.06919600  0.03422600  0.80214500  1
  Br  Br18  1  0.43080400  0.53422600  0.80214500  1
  Br  Br19  1  0.93080400  0.96577400  0.19785500  1
