# generated using pymatgen
data_CeSe2
_symmetry_space_group_name_H-M   'P 1'
_cell_length_a   18.70659880
_cell_length_b   18.70659880
_cell_length_c   18.95763002
_cell_angle_alpha   111.23685711
_cell_angle_beta   111.23685711
_cell_angle_gamma   105.41626924
_symmetry_Int_Tables_number   1
_chemical_formula_structural   CeSe2
_chemical_formula_sum   'Ce18 Se36'
_cell_volume   5126.49701072
_cell_formula_units_Z   18
loop_
 _symmetry_equiv_pos_site_id
 _symmetry_equiv_pos_as_xyz
  1  'x, y, z'
loop_
 _atom_site_type_symbol
 _atom_site_label
 _atom_site_symmetry_multiplicity
 _atom_site_fract_x
 _atom_site_fract_y
 _atom_site_fract_z
 _atom_site_occupancy
  Ce  Ce0  1  0.32269322  0.07390313  0.62204188  1
  Ce  Ce1  1  0.45186125  0.70065134  0.37795812  1
  Ce  Ce2  1  0.29934866  0.54813875  0.62204188  1
  Ce  Ce3  1  0.92609687  0.67730678  0.37795812  1
  Ce  Ce4  1  0.67730678  0.92609687  0.37795812  1
  Ce  Ce5  1  0.54813875  0.29934866  0.62204188  1
  Ce  Ce6  1  0.70065134  0.45186125  0.37795812  1
  Ce  Ce7  1  0.07390313  0.32269322  0.62204188  1
  Ce  Ce8  1  0.21574076  0.21574076  0.82124360  1
  Ce  Ce9  1  0.39449716  0.39449716  0.17875640  1
  Ce  Ce10  1  0.60550284  0.60550284  0.82124360  1
  Ce  Ce11  1  0.78425924  0.78425924  0.17875640  1
  Ce  Ce12  1  0.07437648  0.07437648  0.37136500  1
  Ce  Ce13  1  0.70301148  0.70301148  0.62863500  1
  Ce  Ce14  1  0.29698852  0.29698852  0.37136500  1
  Ce  Ce15  1  0.92562352  0.92562352  0.62863500  1
  Ce  Ce16  1  0.25000000  0.75000000  0.50000000  1
  Ce  Ce17  1  0.75000000  0.25000000  0.50000000  1
  Se  Se18  1  0.31977830  0.92310454  0.60888251  1
  Se  Se19  1  0.31422204  0.71089579  0.39111749  1
  Se  Se20  1  0.28910421  0.68577796  0.60888251  1
  Se  Se21  1  0.07689546  0.68022170  0.39111749  1
  Se  Se22  1  0.68022170  0.07689546  0.39111749  1
  Se  Se23  1  0.68577796  0.28910421  0.60888251  1
  Se  Se24  1  0.71089579  0.31422204  0.39111749  1
  Se  Se25  1  0.92310454  0.31977830  0.60888251  1
  Se  Se26  1  0.18395957  0.03529905  0.47225298  1
  Se  Se27  1  0.56304607  0.71170659  0.52774702  1
  Se  Se28  1  0.28829341  0.43695393  0.47225298  1
  Se  Se29  1  0.96470095  0.81604043  0.52774702  1
  Se  Se30  1  0.81604043  0.96470095  0.52774702  1
  Se  Se31  1  0.43695393  0.28829341  0.47225298  1
  Se  Se32  1  0.71170659  0.56304607  0.52774702  1
  Se  Se33  1  0.03529905  0.18395957  0.47225298  1
  Se  Se34  1  0.32207403  0.17030069  0.76917573  1
  Se  Se35  1  0.40112496  0.55289830  0.23082427  1
  Se  Se36  1  0.44710170  0.59887504  0.76917573  1
  Se  Se37  1  0.82969931  0.67792597  0.23082427  1
  Se  Se38  1  0.67792597  0.82969931  0.23082427  1
  Se  Se39  1  0.59887504  0.44710170  0.76917573  1
  Se  Se40  1  0.55289830  0.40112496  0.23082427  1
  Se  Se41  1  0.17030069  0.32207403  0.76917573  1
  Se  Se42  1  0.47456693  0.16894880  0.64351573  1
  Se  Se43  1  0.52543307  0.83105120  0.35648427  1
  Se  Se44  1  0.16894880  0.47456693  0.64351573  1
  Se  Se45  1  0.83105120  0.52543307  0.35648427  1
  Se  Se46  1  0.92698688  0.92698688  0.23551877  1
  Se  Se47  1  0.69146811  0.69146811  0.76448123  1
  Se  Se48  1  0.30853189  0.30853189  0.23551877  1
  Se  Se49  1  0.07301312  0.07301312  0.76448123  1
  Se  Se50  1  0.31117707  0.31117707  -0.00000000  1
  Se  Se51  1  0.68882293  0.68882293  -0.00000000  1
  Se  Se52  1  0.15371525  0.15371525  0.30743051  1
  Se  Se53  1  0.84628475  0.84628475  0.69256949  1
