# generated using pymatgen
data_CeSe2
_symmetry_space_group_name_H-M   'P 1'
_cell_length_a   7.13436000
_cell_length_b   12.13013500
_cell_length_c   14.47797200
_cell_angle_alpha   90.00000000
_cell_angle_beta   90.00000000
_cell_angle_gamma   90.00000000
_symmetry_Int_Tables_number   1
_chemical_formula_structural   CeSe2
_chemical_formula_sum   'Ce8 Se16'
_cell_volume   1252.93455447
_cell_formula_units_Z   8
loop_
 _symmetry_equiv_pos_site_id
 _symmetry_equiv_pos_as_xyz
  1  'x, y, z'
loop_
 _atom_site_type_symbol
 _atom_site_label
 _atom_site_symmetry_multiplicity
 _atom_site_fract_x
 _atom_site_fract_y
 _atom_site_fract_z
 _atom_site_occupancy
  Ce  Ce0  1  0.23539000  0.61762600  0.38853400  1
  Ce  Ce1  1  0.76461000  0.88237400  0.38853400  1
  Ce  Ce2  1  0.76461000  0.11762600  0.11146600  1
  Ce  Ce3  1  0.23539000  0.38237400  0.11146600  1
  Ce  Ce4  1  0.76461000  0.38237400  0.61146600  1
  Ce  Ce5  1  0.23539000  0.11762600  0.61146600  1
  Ce  Ce6  1  0.23539000  0.88237400  0.88853400  1
  Ce  Ce7  1  0.76461000  0.61762600  0.88853400  1
  Se  Se8  1  0.00000000  0.75000000  0.29226600  1
  Se  Se9  1  0.00000000  0.25000000  0.20773400  1
  Se  Se10  1  0.00000000  0.25000000  0.70773400  1
  Se  Se11  1  0.00000000  0.75000000  0.79226600  1
  Se  Se12  1  0.60129600  0.00000000  0.25000000  1
  Se  Se13  1  0.39870400  0.50000000  0.25000000  1
  Se  Se14  1  0.39870400  0.00000000  0.75000000  1
  Se  Se15  1  0.60129600  0.50000000  0.75000000  1
  Se  Se16  1  0.00000000  0.50000000  0.50000000  1
  Se  Se17  1  0.00000000  0.00000000  0.50000000  1
  Se  Se18  1  0.00000000  0.00000000  0.00000000  1
  Se  Se19  1  0.00000000  0.50000000  0.00000000  1
  Se  Se20  1  0.50000000  0.75000000  0.46781100  1
  Se  Se21  1  0.50000000  0.25000000  0.03218900  1
  Se  Se22  1  0.50000000  0.25000000  0.53218900  1
  Se  Se23  1  0.50000000  0.75000000  0.96781100  1
