# generated using pymatgen
data_TeMo5O16
_symmetry_space_group_name_H-M   'P 1'
_cell_length_a   14.83156900
_cell_length_b   8.20220400
_cell_length_c   10.28018949
_cell_angle_alpha   89.25566041
_cell_angle_beta   90.00000000
_cell_angle_gamma   90.00000000
_symmetry_Int_Tables_number   1
_chemical_formula_structural   TeMo5O16
_chemical_formula_sum   'Te4 Mo20 O64'
_cell_volume   1250.49550131
_cell_formula_units_Z   4
loop_
 _symmetry_equiv_pos_site_id
 _symmetry_equiv_pos_as_xyz
  1  'x, y, z'
loop_
 _atom_site_type_symbol
 _atom_site_label
 _atom_site_symmetry_multiplicity
 _atom_site_fract_x
 _atom_site_fract_y
 _atom_site_fract_z
 _atom_site_occupancy
  Te  Te0  1  0.83682400  0.28542500  0.02161400  1
  Te  Te1  1  0.66317600  0.78542500  0.02161400  1
  Te  Te2  1  0.33682400  0.21457500  0.97838600  1
  Te  Te3  1  0.16317600  0.71457500  0.97838600  1
  Mo  Mo4  1  0.99922200  0.20699700  0.68518000  1
  Mo  Mo5  1  0.50077800  0.70699700  0.68518000  1
  Mo  Mo6  1  0.25221200  0.27463400  0.66541700  1
  Mo  Mo7  1  0.75221200  0.22536600  0.33458300  1
  Mo  Mo8  1  0.25412700  0.19858000  0.30747800  1
  Mo  Mo9  1  0.74587300  0.80142000  0.69252200  1
  Mo  Mo10  1  0.00077800  0.79300300  0.31482000  1
  Mo  Mo11  1  0.00180100  0.29482200  0.32973100  1
  Mo  Mo12  1  0.74778800  0.72536600  0.33458300  1
  Mo  Mo13  1  0.49922200  0.29300300  0.31482000  1
  Mo  Mo14  1  0.24778800  0.77463400  0.66541700  1
  Mo  Mo15  1  0.88909300  0.75559500  0.99898700  1
  Mo  Mo16  1  0.24587300  0.69858000  0.30747800  1
  Mo  Mo17  1  0.61090700  0.25559500  0.99898700  1
  Mo  Mo18  1  0.49819900  0.79482200  0.32973100  1
  Mo  Mo19  1  0.50180100  0.20517800  0.67026900  1
  Mo  Mo20  1  0.75412700  0.30142000  0.69252200  1
  Mo  Mo21  1  0.38909300  0.74440500  0.00101300  1
  Mo  Mo22  1  0.11090700  0.24440500  0.00101300  1
  Mo  Mo23  1  0.99819900  0.70517800  0.67026900  1
  O  O24  1  0.74697000  0.51351100  0.68826200  1
  O  O25  1  0.23269600  0.23465500  0.11204100  1
  O  O26  1  0.39131400  0.53306900  0.00806900  1
  O  O27  1  0.26730400  0.73465500  0.11204100  1
  O  O28  1  0.87741600  0.26018200  0.74734900  1
  O  O29  1  0.63060700  0.25565000  0.35622600  1
  O  O30  1  0.21502900  0.73821400  0.49659800  1
  O  O31  1  0.60868600  0.46693100  0.99193100  1
  O  O32  1  0.75480400  0.01288600  0.32723300  1
  O  O33  1  0.49961500  0.99355100  0.65389100  1
  O  O34  1  0.12258400  0.73981800  0.25265100  1
  O  O35  1  0.72789400  0.27053200  0.13198500  1
  O  O36  1  0.77210600  0.77053200  0.13198500  1
  O  O37  1  0.86939300  0.75565000  0.35622600  1
  O  O38  1  0.84540200  0.50994400  0.01111800  1
  O  O39  1  0.46440700  0.77926300  0.86257600  1
  O  O40  1  0.12371200  0.25292100  0.34728300  1
  O  O41  1  0.36939300  0.74435000  0.64377400  1
  O  O42  1  0.49959400  0.49621400  0.70437600  1
  O  O43  1  0.37583700  0.23075600  0.74301200  1
  O  O44  1  0.03286800  0.29300200  0.13292200  1
  O  O45  1  0.28497100  0.23821400  0.49659800  1
  O  O46  1  0.99961500  0.50644900  0.34610900  1
  O  O47  1  0.71502900  0.76178600  0.50340200  1
  O  O48  1  0.89131400  0.96693100  0.99193100  1
  O  O49  1  0.99959400  0.00378600  0.29562400  1
  O  O50  1  0.62416300  0.76924400  0.25698800  1
  O  O51  1  0.37741600  0.23981800  0.25265100  1
  O  O52  1  0.73269600  0.26534500  0.88795900  1
  O  O53  1  0.10868600  0.03306900  0.00806900  1
  O  O54  1  0.46993600  0.27385700  0.50547400  1
  O  O55  1  0.27210600  0.72946800  0.86801500  1
  O  O56  1  0.50040600  0.50378600  0.29562400  1
  O  O57  1  0.96993600  0.22614300  0.49452600  1
  O  O58  1  0.37628800  0.75292100  0.34728300  1
  O  O59  1  0.12416300  0.73075600  0.74301200  1
  O  O60  1  0.03559300  0.27926300  0.86257600  1
  O  O61  1  0.50038500  0.00644900  0.34610900  1
  O  O62  1  0.53286800  0.20699800  0.86707800  1
  O  O63  1  0.62371200  0.24707900  0.65271700  1
  O  O64  1  0.62258400  0.76018200  0.74734900  1
  O  O65  1  0.03006400  0.77385700  0.50547400  1
  O  O66  1  0.76730400  0.76534500  0.88795900  1
  O  O67  1  0.75303000  0.01351100  0.68826200  1
  O  O68  1  0.00040600  0.99621400  0.70437600  1
  O  O69  1  0.24519600  0.98711400  0.67276700  1
  O  O70  1  0.24697000  0.98648900  0.31173800  1
  O  O71  1  0.87583700  0.26924400  0.25698800  1
  O  O72  1  0.22789400  0.22946800  0.86801500  1
  O  O73  1  0.25303000  0.48648900  0.31173800  1
  O  O74  1  0.87628800  0.74707900  0.65271700  1
  O  O75  1  0.46713200  0.79300200  0.13292200  1
  O  O76  1  0.65459800  0.00994400  0.01111800  1
  O  O77  1  0.15459800  0.49005600  0.98888200  1
  O  O78  1  0.74519600  0.51288600  0.32723300  1
  O  O79  1  0.25480400  0.48711400  0.67276700  1
  O  O80  1  0.34540200  0.99005600  0.98888200  1
  O  O81  1  0.96440700  0.72073700  0.13742400  1
  O  O82  1  0.78497100  0.26178600  0.50340200  1
  O  O83  1  0.13060700  0.24435000  0.64377400  1
  O  O84  1  0.53006400  0.72614300  0.49452600  1
  O  O85  1  0.96713200  0.70699800  0.86707800  1
  O  O86  1  0.00038500  0.49355100  0.65389100  1
  O  O87  1  0.53559300  0.22073700  0.13742400  1
