# generated using pymatgen
data_CeSe2
_symmetry_space_group_name_H-M   'P 1'
_cell_length_a   22.73601214
_cell_length_b   22.73601232
_cell_length_c   22.73601232
_cell_angle_alpha   59.99999949
_cell_angle_beta   60.00000026
_cell_angle_gamma   60.00000026
_symmetry_Int_Tables_number   1
_chemical_formula_structural   CeSe2
_chemical_formula_sum   'Ce24 Se48'
_cell_volume   8310.51401654
_cell_formula_units_Z   24
loop_
 _symmetry_equiv_pos_site_id
 _symmetry_equiv_pos_as_xyz
  1  'x, y, z'
loop_
 _atom_site_type_symbol
 _atom_site_label
 _atom_site_symmetry_multiplicity
 _atom_site_fract_x
 _atom_site_fract_y
 _atom_site_fract_z
 _atom_site_occupancy
  Ce  Ce0  1  0.91862427  0.70042157  0.46232989  1
  Ce  Ce1  1  0.91862427  0.70042157  0.91862427  1
  Ce  Ce2  1  0.46232989  0.70042157  0.91862427  1
  Ce  Ce3  1  0.70042157  0.91862427  0.91862427  1
  Ce  Ce4  1  0.70042157  0.91862427  0.46232989  1
  Ce  Ce5  1  0.70042157  0.46232989  0.91862427  1
  Ce  Ce6  1  0.46232989  0.91862427  0.91862427  1
  Ce  Ce7  1  0.91862427  0.46232989  0.91862427  1
  Ce  Ce8  1  0.91862427  0.91862427  0.46232989  1
  Ce  Ce9  1  0.91862427  0.46232989  0.70042157  1
  Ce  Ce10  1  0.46232989  0.91862427  0.70042157  1
  Ce  Ce11  1  0.91862427  0.91862427  0.70042157  1
  Ce  Ce12  1  0.08137573  0.29957843  0.53767011  1
  Ce  Ce13  1  0.08137573  0.29957843  0.08137573  1
  Ce  Ce14  1  0.53767011  0.29957843  0.08137573  1
  Ce  Ce15  1  0.29957843  0.08137573  0.08137573  1
  Ce  Ce16  1  0.29957843  0.08137573  0.53767011  1
  Ce  Ce17  1  0.29957843  0.53767011  0.08137573  1
  Ce  Ce18  1  0.53767011  0.08137573  0.08137573  1
  Ce  Ce19  1  0.08137573  0.53767011  0.08137573  1
  Ce  Ce20  1  0.08137573  0.08137573  0.53767011  1
  Ce  Ce21  1  0.08137573  0.53767011  0.29957843  1
  Ce  Ce22  1  0.53767011  0.08137573  0.29957843  1
  Ce  Ce23  1  0.08137573  0.08137573  0.29957843  1
  Se  Se24  1  0.00000000  0.34796913  1.00000000  1
  Se  Se25  1  0.65203087  0.34796913  1.00000000  1
  Se  Se26  1  -0.00000000  0.34796913  0.65203087  1
  Se  Se27  1  0.34796913  0.00000000  0.65203087  1
  Se  Se28  1  0.34796913  0.65203087  0.00000000  1
  Se  Se29  1  0.34796913  0.00000000  0.00000000  1
  Se  Se30  1  1.00000000  0.65203087  0.00000000  1
  Se  Se31  1  1.00000000  0.00000000  0.65203087  1
  Se  Se32  1  0.65203087  0.00000000  0.00000000  1
  Se  Se33  1  0.65203087  1.00000000  0.34796913  1
  Se  Se34  1  0.00000000  1.00000000  0.34796913  1
  Se  Se35  1  0.00000000  0.65203087  0.34796913  1
  Se  Se36  1  0.97687172  0.78286564  0.45739701  1
  Se  Se37  1  0.78286564  0.78286564  0.97687172  1
  Se  Se38  1  0.45739701  0.78286564  0.78286564  1
  Se  Se39  1  0.97687172  0.78286564  0.78286564  1
  Se  Se40  1  0.78286564  0.78286564  0.45739701  1
  Se  Se41  1  0.45739701  0.78286564  0.97687172  1
  Se  Se42  1  0.78286564  0.97687172  0.78286564  1
  Se  Se43  1  0.78286564  0.45739701  0.97687172  1
  Se  Se44  1  0.78286564  0.97687172  0.45739701  1
  Se  Se45  1  0.78286564  0.45739701  0.78286564  1
  Se  Se46  1  0.97687172  0.45739701  0.78286564  1
  Se  Se47  1  0.45739701  0.97687172  0.78286564  1
  Se  Se48  1  0.02312828  0.21713436  0.54260299  1
  Se  Se49  1  0.21713436  0.21713436  0.02312828  1
  Se  Se50  1  0.54260299  0.21713436  0.21713436  1
  Se  Se51  1  0.02312828  0.21713436  0.21713436  1
  Se  Se52  1  0.21713436  0.21713436  0.54260299  1
  Se  Se53  1  0.54260299  0.21713436  0.02312828  1
  Se  Se54  1  0.21713436  0.02312828  0.21713436  1
  Se  Se55  1  0.21713436  0.54260299  0.02312828  1
  Se  Se56  1  0.21713436  0.02312828  0.54260299  1
  Se  Se57  1  0.21713436  0.54260299  0.21713436  1
  Se  Se58  1  0.02312828  0.54260299  0.21713436  1
  Se  Se59  1  0.54260299  0.02312828  0.21713436  1
  Se  Se60  1  0.91199935  0.58800065  0.58800065  1
  Se  Se61  1  0.91199935  0.58800065  0.91199935  1
  Se  Se62  1  0.58800065  0.58800065  0.91199935  1
  Se  Se63  1  0.58800065  0.91199935  0.91199935  1
  Se  Se64  1  0.58800065  0.91199935  0.58800065  1
  Se  Se65  1  0.91199935  0.91199935  0.58800065  1
  Se  Se66  1  0.08800065  0.41199935  0.41199935  1
  Se  Se67  1  0.08800065  0.41199935  0.08800065  1
  Se  Se68  1  0.41199935  0.41199935  0.08800065  1
  Se  Se69  1  0.41199935  0.08800065  0.08800065  1
  Se  Se70  1  0.41199935  0.08800065  0.41199935  1
  Se  Se71  1  0.08800065  0.08800065  0.41199935  1
