# generated using pymatgen
data_As4(Pb3S5)3
_symmetry_space_group_name_H-M   'P 1'
_cell_length_a   10.77728188
_cell_length_b   10.77728188
_cell_length_c   10.77728144
_cell_angle_alpha   114.25965492
_cell_angle_beta   114.25965492
_cell_angle_gamma   114.25965066
_symmetry_Int_Tables_number   1
_chemical_formula_structural   As4(Pb3S5)3
_chemical_formula_sum   'As4 Pb9 S15'
_cell_volume   745.65238447
_cell_formula_units_Z   1
loop_
 _symmetry_equiv_pos_site_id
 _symmetry_equiv_pos_as_xyz
  1  'x, y, z'
loop_
 _atom_site_type_symbol
 _atom_site_label
 _atom_site_symmetry_multiplicity
 _atom_site_fract_x
 _atom_site_fract_y
 _atom_site_fract_z
 _atom_site_occupancy
  As  As0  1  0.05593700  0.05593700  0.05593700  1
  As  As1  1  0.40748900  0.84246700  0.40748900  1
  As  As2  1  0.40748900  0.40748900  0.84246700  1
  As  As3  1  0.84246700  0.40748900  0.40748900  1
  Pb  Pb4  1  0.59823400  0.33436500  0.59823400  1
  Pb  Pb5  1  0.59823400  0.59823400  0.33436500  1
  Pb  Pb6  1  0.33436500  0.59823400  0.59823400  1
  Pb  Pb7  1  0.24332700  0.77442000  0.97857700  1
  Pb  Pb8  1  0.97857700  0.24332700  0.77442000  1
  Pb  Pb9  1  0.77442000  0.97857700  0.24332700  1
  Pb  Pb10  1  0.24332700  0.97857700  0.77442000  1
  Pb  Pb11  1  0.77442000  0.24332700  0.97857700  1
  Pb  Pb12  1  0.97857700  0.77442000  0.24332700  1
  S  S13  1  0.92173300  0.47517300  0.92173300  1
  S  S14  1  0.92173300  0.92173300  0.47517300  1
  S  S15  1  0.47517300  0.92173300  0.92173300  1
  S  S16  1  0.12902100  0.32242800  0.12902100  1
  S  S17  1  0.12902100  0.12902100  0.32242800  1
  S  S18  1  0.32242800  0.12902100  0.12902100  1
  S  S19  1  0.63139600  0.88780900  0.63139600  1
  S  S20  1  0.63139600  0.63139600  0.88780900  1
  S  S21  1  0.88780900  0.63139600  0.63139600  1
  S  S22  1  0.58623700  0.03972100  0.39480300  1
  S  S23  1  0.39480300  0.58623700  0.03972100  1
  S  S24  1  0.03972100  0.39480300  0.58623700  1
  S  S25  1  0.58623700  0.39480300  0.03972100  1
  S  S26  1  0.39480300  0.03972100  0.58623700  1
  S  S27  1  0.03972100  0.58623700  0.39480300  1
