# generated using pymatgen
data_U(PO3)4
_symmetry_space_group_name_H-M   'P 1'
_cell_length_a   8.85352700
_cell_length_b   8.85352700
_cell_length_c   8.44062646
_cell_angle_alpha   61.77701646
_cell_angle_beta   61.77701646
_cell_angle_gamma   95.35264603
_symmetry_Int_Tables_number   1
_chemical_formula_structural   U(PO3)4
_chemical_formula_sum   'U2 P8 O24'
_cell_volume   468.90774050
_cell_formula_units_Z   2
loop_
 _symmetry_equiv_pos_site_id
 _symmetry_equiv_pos_as_xyz
  1  'x, y, z'
loop_
 _atom_site_type_symbol
 _atom_site_label
 _atom_site_symmetry_multiplicity
 _atom_site_fract_x
 _atom_site_fract_y
 _atom_site_fract_z
 _atom_site_occupancy
  U  U0  1  0.65792100  0.09392200  0.00713100  1
  U  U1  1  0.09392200  0.65792100  0.00713100  1
  P  P2  1  0.13496300  0.90293900  0.25233100  1
  P  P3  1  0.84968000  0.61793000  0.76083100  1
  P  P4  1  0.36912700  0.14333200  0.48117000  1
  P  P5  1  0.60578300  0.37867200  0.53872200  1
  P  P6  1  0.90293900  0.13496300  0.25233100  1
  P  P7  1  0.14333200  0.36912700  0.48117000  1
  P  P8  1  0.37867200  0.60578300  0.53872200  1
  P  P9  1  0.61793000  0.84968000  0.76083100  1
  O  O10  1  0.78079000  0.52926200  0.31060200  1
  O  O11  1  0.90158900  0.66148100  0.88408100  1
  O  O12  1  0.70210200  0.70210200  0.73704800  1
  O  O13  1  0.73018300  0.02913700  0.50588600  1
  O  O14  1  0.50396100  0.13061600  0.30092600  1
  O  O15  1  0.62708100  0.25302700  0.71458300  1
  O  O16  1  0.08537900  0.84684000  0.13537100  1
  O  O17  1  0.66148100  0.90158900  0.88408100  1
  O  O18  1  0.47774300  0.25135600  0.52753300  1
  O  O19  1  0.84684000  0.08537900  0.13537100  1
  O  O20  1  0.98637300  0.33795700  0.15809200  1
  O  O21  1  0.13061600  0.50396100  0.30092600  1
  O  O22  1  0.02913700  0.73018300  0.50588600  1
  O  O23  1  0.77215900  0.41672600  0.84908500  1
  O  O24  1  0.25302700  0.62708100  0.71458300  1
  O  O25  1  0.05294200  0.05294200  0.27281700  1
  O  O26  1  0.28537400  0.28537400  0.38186900  1
  O  O27  1  0.96491000  0.21263100  0.70015700  1
  O  O28  1  0.47281200  0.47281200  0.63090200  1
  O  O29  1  0.41672600  0.77215900  0.84908500  1
  O  O30  1  0.52926200  0.78079000  0.31060200  1
  O  O31  1  0.33795700  0.98637300  0.15809200  1
  O  O32  1  0.25135600  0.47774300  0.52753300  1
  O  O33  1  0.21263100  0.96491000  0.70015700  1
