# generated using pymatgen
data_CeSe2
_symmetry_space_group_name_H-M   'P 1'
_cell_length_a   14.39742874
_cell_length_b   21.23294815
_cell_length_c   26.67334243
_cell_angle_alpha   105.33358276
_cell_angle_beta   105.65737684
_cell_angle_gamma   90.00000001
_symmetry_Int_Tables_number   1
_chemical_formula_structural   CeSe2
_chemical_formula_sum   'Ce28 Se56'
_cell_volume   7549.57650841
_cell_formula_units_Z   28
loop_
 _symmetry_equiv_pos_site_id
 _symmetry_equiv_pos_as_xyz
  1  'x, y, z'
loop_
 _atom_site_type_symbol
 _atom_site_label
 _atom_site_symmetry_multiplicity
 _atom_site_fract_x
 _atom_site_fract_y
 _atom_site_fract_z
 _atom_site_occupancy
  Ce  Ce0  1  0.86496877  0.92961536  0.10314426  1
  Ce  Ce1  1  0.23817549  0.92961536  0.10314426  1
  Ce  Ce2  1  0.13503123  0.07038464  0.89685574  1
  Ce  Ce3  1  0.76182451  0.07038464  0.89685574  1
  Ce  Ce4  1  0.00937731  0.12547740  0.38197898  1
  Ce  Ce5  1  0.37260167  0.12547740  0.38197898  1
  Ce  Ce6  1  0.99062269  0.87452260  0.61802102  1
  Ce  Ce7  1  0.62739833  0.87452260  0.61802102  1
  Ce  Ce8  1  0.82561184  0.89231624  0.28163821  1
  Ce  Ce9  1  0.45602637  0.89231624  0.28163821  1
  Ce  Ce10  1  0.17438816  0.10768376  0.71836179  1
  Ce  Ce11  1  0.54397363  0.10768376  0.71836179  1
  Ce  Ce12  1  0.73363398  0.15904546  0.09339105  1
  Ce  Ce13  1  0.35975707  0.15904546  0.09339105  1
  Ce  Ce14  1  0.26636602  0.84095454  0.90660895  1
  Ce  Ce15  1  0.64024293  0.84095454  0.90660895  1
  Ce  Ce16  1  0.95373994  0.31038456  0.27569249  1
  Ce  Ce17  1  0.32195255  0.31038456  0.27569249  1
  Ce  Ce18  1  0.04626006  0.68961544  0.72430751  1
  Ce  Ce19  1  0.67804745  0.68961544  0.72430751  1
  Ce  Ce20  1  0.60469083  0.23670665  0.58049047  1
  Ce  Ce21  1  0.97579965  0.23670665  0.58049047  1
  Ce  Ce22  1  0.39530917  0.76329335  0.41950953  1
  Ce  Ce23  1  0.02420035  0.76329335  0.41950953  1
  Ce  Ce24  1  0.88985316  0.52640603  0.40860481  1
  Ce  Ce25  1  0.51875166  0.52640603  0.40860481  1
  Ce  Ce26  1  0.11014684  0.47359397  0.59139519  1
  Ce  Ce27  1  0.48124834  0.47359397  0.59139519  1
  Se  Se28  1  0.05226645  0.95158531  0.10453289  1
  Se  Se29  1  0.94773355  0.04841469  0.89546711  1
  Se  Se30  1  0.18393987  0.08831098  0.36787974  1
  Se  Se31  1  0.81606013  0.91168902  0.63212026  1
  Se  Se32  1  0.63353267  0.86493460  0.26706534  1
  Se  Se33  1  0.36646733  0.13506540  0.73293466  1
  Se  Se34  1  0.54463798  0.17757404  0.08927597  1
  Se  Se35  1  0.45536202  0.82242596  0.91072403  1
  Se  Se36  1  0.14025040  0.34093177  0.28050081  1
  Se  Se37  1  0.85974960  0.65906823  0.71949919  1
  Se  Se38  1  0.78078155  0.21719174  0.56156309  1
  Se  Se39  1  0.21921845  0.78280826  0.43843691  1
  Se  Se40  1  0.70939750  0.55268726  0.41879500  1
  Se  Se41  1  0.29060250  0.44731274  0.58120500  1
  Se  Se42  1  0.94989333  0.21911555  0.33022752  1
  Se  Se43  1  0.38033419  0.21911555  0.33022752  1
  Se  Se44  1  0.05010667  0.78088445  0.66977248  1
  Se  Se45  1  0.61966581  0.78088445  0.66977248  1
  Se  Se46  1  0.02708753  0.17473432  0.48964584  1
  Se  Se47  1  0.46255831  0.17473432  0.48964584  1
  Se  Se48  1  0.97291247  0.82526568  0.51035416  1
  Se  Se49  1  0.53744169  0.82526568  0.51035416  1
  Se  Se50  1  0.86020473  0.87339675  0.18330338  1
  Se  Se51  1  0.32309864  0.87339675  0.18330338  1
  Se  Se52  1  0.13979527  0.12660325  0.81669662  1
  Se  Se53  1  0.67690136  0.12660325  0.81669662  1
  Se  Se54  1  0.84873437  0.26089521  0.17026216  1
  Se  Se55  1  0.32152779  0.26089521  0.17026216  1
  Se  Se56  1  0.15126563  0.73910479  0.82973784  1
  Se  Se57  1  0.67847221  0.73910479  0.82973784  1
  Se  Se58  1  0.76612190  0.84857286  0.00515613  1
  Se  Se59  1  0.23903424  0.84857286  0.00515613  1
  Se  Se60  1  0.23387810  0.15142714  0.99484387  1
  Se  Se61  1  0.76096576  0.15142714  0.99484387  1
  Se  Se62  1  0.93116756  0.81233979  0.33623716  1
  Se  Se63  1  0.40506960  0.81233979  0.33623716  1
  Se  Se64  1  0.06883244  0.18766021  0.66376284  1
  Se  Se65  1  0.59493040  0.18766021  0.66376284  1
  Se  Se66  1  0.00000000  0.50000000  0.50000000  1
  Se  Se67  1  0.50000000  0.50000000  0.50000000  1
  Se  Se68  1  0.78066095  0.04521245  0.11942526  1
  Se  Se69  1  0.33876431  0.04521245  0.11942526  1
  Se  Se70  1  0.21933905  0.95478755  0.88057474  1
  Se  Se71  1  0.66123569  0.95478755  0.88057474  1
  Se  Se72  1  0.87623528  0.42045368  0.32198980  1
  Se  Se73  1  0.44575452  0.42045368  0.32198980  1
  Se  Se74  1  0.12376472  0.57954632  0.67801020  1
  Se  Se75  1  0.55424548  0.57954632  0.67801020  1
  Se  Se76  1  0.87769721  0.01951958  0.33989071  1
  Se  Se77  1  0.46219350  0.01951958  0.33989071  1
  Se  Se78  1  0.12230279  0.98048042  0.66010929  1
  Se  Se79  1  0.53780650  0.98048042  0.66010929  1
  Se  Se80  1  0.58027823  0.36760424  0.60661727  1
  Se  Se81  1  0.02633904  0.36760424  0.60661727  1
  Se  Se82  1  0.41972177  0.63239576  0.39338273  1
  Se  Se83  1  0.97366096  0.63239576  0.39338273  1
