# generated using pymatgen
data_Bi4Se3
_symmetry_space_group_name_H-M   'P 1'
_cell_length_a   13.84029066
_cell_length_b   13.84029066
_cell_length_c   13.84029047
_cell_angle_alpha   17.99432315
_cell_angle_beta   17.99432315
_cell_angle_gamma   17.99432098
_symmetry_Int_Tables_number   1
_chemical_formula_structural   Bi4Se3
_chemical_formula_sum   'Bi4 Se3'
_cell_volume   220.91260207
_cell_formula_units_Z   1
loop_
 _symmetry_equiv_pos_site_id
 _symmetry_equiv_pos_as_xyz
  1  'x, y, z'
loop_
 _atom_site_type_symbol
 _atom_site_label
 _atom_site_symmetry_multiplicity
 _atom_site_fract_x
 _atom_site_fract_y
 _atom_site_fract_z
 _atom_site_occupancy
  Bi  Bi0  1  0.71247200  0.71247200  0.71247200  1
  Bi  Bi1  1  0.28752800  0.28752800  0.28752800  1
  Bi  Bi2  1  0.85456800  0.85456800  0.85456800  1
  Bi  Bi3  1  0.14543200  0.14543200  0.14543200  1
  Se  Se4  1  0.00000000  0.00000000  0.00000000  1
  Se  Se5  1  0.58378300  0.58378300  0.58378300  1
  Se  Se6  1  0.41621700  0.41621700  0.41621700  1
