# generated using pymatgen
data_BN3Cl2
_symmetry_space_group_name_H-M   'P 1'
_cell_length_a   15.00505400
_cell_length_b   9.27971300
_cell_length_c   10.94280876
_cell_angle_alpha   80.36793228
_cell_angle_beta   90.00000000
_cell_angle_gamma   90.00000000
_symmetry_Int_Tables_number   1
_chemical_formula_structural   BN3Cl2
_chemical_formula_sum   'B12 N36 Cl24'
_cell_volume   1502.22472002
_cell_formula_units_Z   12
loop_
 _symmetry_equiv_pos_site_id
 _symmetry_equiv_pos_as_xyz
  1  'x, y, z'
loop_
 _atom_site_type_symbol
 _atom_site_label
 _atom_site_symmetry_multiplicity
 _atom_site_fract_x
 _atom_site_fract_y
 _atom_site_fract_z
 _atom_site_occupancy
  B  B0  1  0.55380900  0.29300300  0.35500900  1
  B  B1  1  0.05380900  0.70699700  0.14499100  1
  B  B2  1  0.44619100  0.70699700  0.64499100  1
  B  B3  1  0.94619100  0.29300300  0.85500900  1
  B  B4  1  0.43888500  0.23066000  0.16116500  1
  B  B5  1  0.93888500  0.76934000  0.33883500  1
  B  B6  1  0.56111500  0.76934000  0.83883500  1
  B  B7  1  0.06111500  0.23066000  0.66116500  1
  B  B8  1  0.62057000  0.13914000  0.16952200  1
  B  B9  1  0.12057000  0.86086000  0.33047800  1
  B  B10  1  0.37943000  0.86086000  0.83047800  1
  B  B11  1  0.87943000  0.13914000  0.66952200  1
  N  N12  1  0.34162100  0.42564600  0.36472900  1
  N  N13  1  0.84162100  0.57435400  0.13527100  1
  N  N14  1  0.65837900  0.57435400  0.63527100  1
  N  N15  1  0.15837900  0.42564600  0.86472900  1
  N  N16  1  0.39841500  0.36728300  0.32466900  1
  N  N17  1  0.89841500  0.63271700  0.17533100  1
  N  N18  1  0.60158500  0.63271700  0.67533100  1
  N  N19  1  0.10158500  0.36728300  0.82466900  1
  N  N20  1  0.46107800  0.30304800  0.28078500  1
  N  N21  1  0.96107800  0.69695200  0.21921500  1
  N  N22  1  0.53892200  0.69695200  0.71921500  1
  N  N23  1  0.03892200  0.30304800  0.78078500  1
  N  N24  1  0.55299000  0.30363400  0.88394700  1
  N  N25  1  0.05299000  0.69636600  0.61605300  1
  N  N26  1  0.44701000  0.69636600  0.11605300  1
  N  N27  1  0.94701000  0.30363400  0.38394700  1
  N  N28  1  0.54380800  0.26401100  0.98700900  1
  N  N29  1  0.04380800  0.73598900  0.51299100  1
  N  N30  1  0.45619200  0.73598900  0.01299100  1
  N  N31  1  0.95619200  0.26401100  0.48700900  1
  N  N32  1  0.53510100  0.21847300  0.10082100  1
  N  N33  1  0.03510100  0.78152700  0.39917900  1
  N  N34  1  0.46489900  0.78152700  0.89917900  1
  N  N35  1  0.96489900  0.21847300  0.60082100  1
  N  N36  1  0.66422700  0.97057200  0.46292900  1
  N  N37  1  0.16422700  0.02942800  0.03707100  1
  N  N38  1  0.33577300  0.02942800  0.53707100  1
  N  N39  1  0.83577300  0.97057200  0.96292900  1
  N  N40  1  0.63394300  0.05952100  0.39122200  1
  N  N41  1  0.13394300  0.94047900  0.10877800  1
  N  N42  1  0.36605700  0.94047900  0.60877800  1
  N  N43  1  0.86605700  0.05952100  0.89122200  1
  N  N44  1  0.60169000  0.15707000  0.30997900  1
  N  N45  1  0.10169000  0.84293000  0.19002100  1
  N  N46  1  0.39831000  0.84293000  0.69002100  1
  N  N47  1  0.89831000  0.15707000  0.80997900  1
  Cl  Cl48  1  0.61728100  0.45996800  0.30692000  1
  Cl  Cl49  1  0.11728100  0.54003200  0.19308000  1
  Cl  Cl50  1  0.38271900  0.54003200  0.69308000  1
  Cl  Cl51  1  0.88271900  0.45996800  0.80692000  1
  Cl  Cl52  1  0.53271800  0.25382700  0.52119100  1
  Cl  Cl53  1  0.03271800  0.74617300  0.97880900  1
  Cl  Cl54  1  0.46728200  0.74617300  0.47880900  1
  Cl  Cl55  1  0.96728200  0.25382700  0.02119100  1
  Cl  Cl56  1  0.36696300  0.35101300  0.05580500  1
  Cl  Cl57  1  0.86696300  0.64898700  0.44419500  1
  Cl  Cl58  1  0.63303700  0.64898700  0.94419500  1
  Cl  Cl59  1  0.13303700  0.35101300  0.55580500  1
  Cl  Cl60  1  0.39204400  0.04923400  0.21148700  1
  Cl  Cl61  1  0.89204400  0.95076600  0.28851300  1
  Cl  Cl62  1  0.60795600  0.95076600  0.78851300  1
  Cl  Cl63  1  0.10795600  0.04923400  0.71148700  1
  Cl  Cl64  1  0.72151400  0.23566400  0.11088600  1
  Cl  Cl65  1  0.22151400  0.76433600  0.38911400  1
  Cl  Cl66  1  0.27848600  0.76433600  0.88911400  1
  Cl  Cl67  1  0.77848600  0.23566400  0.61088600  1
  Cl  Cl68  1  0.62340700  0.94602600  0.15610800  1
  Cl  Cl69  1  0.12340700  0.05397400  0.34389200  1
  Cl  Cl70  1  0.37659300  0.05397400  0.84389200  1
  Cl  Cl71  1  0.87659300  0.94602600  0.65610800  1
