data_image0
_chemical_formula_structural       Bi4Te3
_chemical_formula_sum              "Bi4 Te3"
_cell_length_a       4.49289
_cell_length_b       4.49279
_cell_length_c       14.2975
_cell_angle_alpha    80.9656
_cell_angle_beta     99.0399
_cell_angle_gamma    120.001

_space_group_name_H-M_alt    "P 1"
_space_group_IT_number       1

loop_
  _space_group_symop_operation_xyz
  'x, y, z'

loop_
  _atom_site_type_symbol
  _atom_site_label
  _atom_site_symmetry_multiplicity
  _atom_site_fract_x
  _atom_site_fract_y
  _atom_site_fract_z
  _atom_site_occupancy
  Bi  Bi1       1.0  0.71500  0.28500  0.14400  1.0000
  Bi  Bi2       1.0  0.14700  0.85300  0.44000  1.0000
  Bi  Bi3       1.0  0.85300  0.14700  0.56000  1.0000
  Bi  Bi4       1.0  0.28500  0.71500  0.85600  1.0000
  Te  Te1       1.0  0.00000  0.00000  0.00000  1.0000
  Te  Te2       1.0  0.42200  0.57800  0.26600  1.0000
  Te  Te3       1.0  0.57800  0.42200  0.73400  1.0000
