# generated using pymatgen
data_Ca4Fe9O17
_symmetry_space_group_name_H-M   'P 1'
_cell_length_a   6.09472181
_cell_length_b   6.09472181
_cell_length_c   11.57264123
_cell_angle_alpha   82.51815235
_cell_angle_beta   82.51815235
_cell_angle_gamma   59.95165880
_symmetry_Int_Tables_number   1
_chemical_formula_structural   Ca4Fe9O17
_chemical_formula_sum   'Ca4 Fe9 O17'
_cell_volume   367.87155980
_cell_formula_units_Z   1
loop_
 _symmetry_equiv_pos_site_id
 _symmetry_equiv_pos_as_xyz
  1  'x, y, z'
loop_
 _atom_site_type_symbol
 _atom_site_label
 _atom_site_symmetry_multiplicity
 _atom_site_fract_x
 _atom_site_fract_y
 _atom_site_fract_z
 _atom_site_occupancy
  Ca  Ca0  1  0.53914100  0.54127600  0.75071600  1
  Ca  Ca1  1  0.45872400  0.46085800  0.24928400  1
  Ca  Ca2  1  0.79371700  0.79378400  0.24035800  1
  Ca  Ca3  1  0.20621600  0.20628300  0.75964200  1
  Fe  Fe4  1  0.50383700  0.16771800  0.00030200  1
  Fe  Fe5  1  0.83228200  0.49616300  0.99969800  1
  Fe  Fe6  1  0.15848000  0.84152000  0.00000000  1
  Fe  Fe7  1  0.86968300  0.87058900  0.77544000  1
  Fe  Fe8  1  0.12941100  0.13031700  0.22456000  1
  Fe  Fe9  1  0.25477500  0.24824200  0.49213300  1
  Fe  Fe10  1  0.75175800  0.74522500  0.50786700  1
  Fe  Fe11  1  0.74844200  0.25155800  0.50000000  1
  Fe  Fe12  1  0.25168400  0.74831600  0.50000000  1
  O  O13  1  0.17467300  0.16394100  0.97957400  1
  O  O14  1  0.83605900  0.82532700  0.02042600  1
  O  O15  1  0.16096300  0.85622200  0.82284200  1
  O  O16  1  0.14377800  0.83903700  0.17715800  1
  O  O17  1  0.85357900  0.57067200  0.82191400  1
  O  O18  1  0.42932800  0.14642100  0.17808600  1
  O  O19  1  0.57056500  0.16330500  0.82241900  1
  O  O20  1  0.83669500  0.42943500  0.17758100  1
  O  O21  1  0.48933900  0.51066100  0.00000000  1
  O  O22  1  0.40440200  0.90257900  0.59469000  1
  O  O23  1  0.09742100  0.59559800  0.40531000  1
  O  O24  1  0.90401800  0.39111300  0.59430500  1
  O  O25  1  0.60888700  0.09598200  0.40569500  1
  O  O26  1  0.10020100  0.09655500  0.40117200  1
  O  O27  1  0.90344500  0.89979900  0.59882800  1
  O  O28  1  0.59507200  0.60357500  0.40672700  1
  O  O29  1  0.39642500  0.40492800  0.59327300  1
