# generated using pymatgen
data_AgClO3
_symmetry_space_group_name_H-M   'P 1'
_cell_length_a   7.36708786
_cell_length_b   7.36708786
_cell_length_c   7.36708786
_cell_angle_alpha   107.88482220
_cell_angle_beta   107.88482220
_cell_angle_gamma   112.69285191
_symmetry_Int_Tables_number   1
_chemical_formula_structural   AgClO3
_chemical_formula_sum   'Ag4 Cl4 O12'
_cell_volume   307.06362812
_cell_formula_units_Z   4
loop_
 _symmetry_equiv_pos_site_id
 _symmetry_equiv_pos_as_xyz
  1  'x, y, z'
loop_
 _atom_site_type_symbol
 _atom_site_label
 _atom_site_symmetry_multiplicity
 _atom_site_fract_x
 _atom_site_fract_y
 _atom_site_fract_z
 _atom_site_occupancy
  Ag  Ag0  1  0.29740700  0.29740700  0.00000000  1
  Ag  Ag1  1  0.70259300  0.70259300  0.00000000  1
  Ag  Ag2  1  0.25000000  0.75000000  0.50000000  1
  Ag  Ag3  1  0.75000000  0.25000000  0.50000000  1
  Cl  Cl4  1  0.19095700  0.73768600  0.92864300  1
  Cl  Cl5  1  0.73768600  0.80904300  0.54672900  1
  Cl  Cl6  1  0.26231400  0.19095700  0.45327100  1
  Cl  Cl7  1  0.80904300  0.26231400  0.07135700  1
  O  O8  1  0.25844000  0.57739100  0.83583200  1
  O  O9  1  0.57739100  0.74156000  0.31895100  1
  O  O10  1  0.42260900  0.25844000  0.68104900  1
  O  O11  1  0.74155900  0.42260800  0.16416800  1
  O  O12  1  0.06290200  0.40354700  0.16714600  1
  O  O13  1  0.40354700  0.23640100  0.34064500  1
  O  O14  1  0.89575600  0.06290200  0.65935500  1
  O  O15  1  0.23640100  0.89575600  0.83285400  1
  O  O16  1  0.76359900  0.10424400  0.16714600  1
  O  O17  1  0.10424400  0.93709800  0.34064500  1
  O  O18  1  0.59645300  0.76359900  0.65935500  1
  O  O19  1  0.93709800  0.59645300  0.83285400  1
