# generated using pymatgen
data_SbTeI
_symmetry_space_group_name_H-M   'P 1'
_cell_length_a   7.70522625
_cell_length_b   7.70522625
_cell_length_c   9.75717547
_cell_angle_alpha   50.99098534
_cell_angle_beta   50.99098534
_cell_angle_gamma   32.40640240
_symmetry_Int_Tables_number   1
_chemical_formula_structural   SbTeI
_chemical_formula_sum   'Sb2 Te2 I2'
_cell_volume   234.45808163
_cell_formula_units_Z   2
loop_
 _symmetry_equiv_pos_site_id
 _symmetry_equiv_pos_as_xyz
  1  'x, y, z'
loop_
 _atom_site_type_symbol
 _atom_site_label
 _atom_site_symmetry_multiplicity
 _atom_site_fract_x
 _atom_site_fract_y
 _atom_site_fract_z
 _atom_site_occupancy
  Sb  Sb0  1  0.13056500  0.13056500  0.24337800  1
  Sb  Sb1  1  0.86943500  0.86943500  0.75662200  1
  Te  Te2  1  0.18290100  0.18290100  0.90367500  1
  Te  Te3  1  0.81709900  0.81709900  0.09632500  1
  I  I4  1  0.42725600  0.42725600  0.36638900  1
  I  I5  1  0.57274400  0.57274400  0.63361100  1
