# generated using pymatgen
data_Ca5(AlBi3)2
_symmetry_space_group_name_H-M   'P 1'
_cell_length_a   4.58792200
_cell_length_b   7.58767300
_cell_length_c   23.58029300
_cell_angle_alpha   90.00000000
_cell_angle_beta   90.00000000
_cell_angle_gamma   90.00000000
_symmetry_Int_Tables_number   1
_chemical_formula_structural   Ca5(AlBi3)2
_chemical_formula_sum   'Ca10 Al4 Bi12'
_cell_volume   820.86895127
_cell_formula_units_Z   2
loop_
 _symmetry_equiv_pos_site_id
 _symmetry_equiv_pos_as_xyz
  1  'x, y, z'
loop_
 _atom_site_type_symbol
 _atom_site_label
 _atom_site_symmetry_multiplicity
 _atom_site_fract_x
 _atom_site_fract_y
 _atom_site_fract_z
 _atom_site_occupancy
  Ca  Ca0  1  0.00000000  0.53473000  0.41137100  1
  Ca  Ca1  1  0.00000000  0.46527000  0.58862900  1
  Ca  Ca2  1  0.00000000  0.03473000  0.08862900  1
  Ca  Ca3  1  0.00000000  0.96527000  0.91137100  1
  Ca  Ca4  1  0.00000000  0.27080100  0.75516700  1
  Ca  Ca5  1  0.00000000  0.72919900  0.24483300  1
  Ca  Ca6  1  0.00000000  0.77080100  0.74483300  1
  Ca  Ca7  1  0.00000000  0.22919900  0.25516700  1
  Ca  Ca8  1  0.00000000  0.50000000  0.00000000  1
  Ca  Ca9  1  0.00000000  0.00000000  0.50000000  1
  Al  Al10  1  0.50000000  0.81765600  0.62081900  1
  Al  Al11  1  0.50000000  0.18234400  0.37918100  1
  Al  Al12  1  0.50000000  0.31765600  0.87918100  1
  Al  Al13  1  0.50000000  0.68234400  0.12081900  1
  Bi  Bi14  1  0.00000000  0.03666800  0.63621500  1
  Bi  Bi15  1  0.00000000  0.96333200  0.36378500  1
  Bi  Bi16  1  0.00000000  0.53666800  0.86378500  1
  Bi  Bi17  1  0.00000000  0.46333200  0.13621500  1
  Bi  Bi18  1  0.50000000  0.98933900  0.18833500  1
  Bi  Bi19  1  0.50000000  0.01066100  0.81166500  1
  Bi  Bi20  1  0.50000000  0.48933900  0.31166500  1
  Bi  Bi21  1  0.50000000  0.51066100  0.68833500  1
  Bi  Bi22  1  0.50000000  0.79328900  0.00252600  1
  Bi  Bi23  1  0.50000000  0.20671100  0.99747400  1
  Bi  Bi24  1  0.50000000  0.29328900  0.49747400  1
  Bi  Bi25  1  0.50000000  0.70671100  0.50252600  1
