data_image0
_chemical_formula_structural       Mn2N4W2
_chemical_formula_sum              "Mn2 N4 W2"
_cell_length_a       3.02411
_cell_length_b       3.0241
_cell_length_c       10.2773
_cell_angle_alpha    90
_cell_angle_beta     90
_cell_angle_gamma    120

_space_group_name_H-M_alt    "P 1"
_space_group_IT_number       1

loop_
  _space_group_symop_operation_xyz
  'x, y, z'

loop_
  _atom_site_type_symbol
  _atom_site_label
  _atom_site_symmetry_multiplicity
  _atom_site_fract_x
  _atom_site_fract_y
  _atom_site_fract_z
  _atom_site_occupancy
  Mn  Mn1       1.0  0.00000  0.00000  0.98600  1.0000
  Mn  Mn2       1.0  0.00000  0.00000  0.48600  1.0000
  N   N1        1.0  0.00000  0.00000  0.18000  1.0000
  N   N2        1.0  0.33300  0.66700  0.44200  1.0000
  N   N3        1.0  0.00000  0.00000  0.68000  1.0000
  N   N4        1.0  0.66700  0.33300  0.94200  1.0000
  W   W1        1.0  0.66700  0.33300  0.29200  1.0000
  W   W2        1.0  0.33300  0.66700  0.79200  1.0000
