# generated using pymatgen
data_Ba3NiO4
_symmetry_space_group_name_H-M   'P 1'
_cell_length_a   7.24463800
_cell_length_b   7.24463762
_cell_length_c   7.24463806
_cell_angle_alpha   66.61914453
_cell_angle_beta   66.61915161
_cell_angle_gamma   66.61914367
_symmetry_Int_Tables_number   1
_chemical_formula_structural   Ba3NiO4
_chemical_formula_sum   'Ba6 Ni2 O8'
_cell_volume   307.15281516
_cell_formula_units_Z   2
loop_
 _symmetry_equiv_pos_site_id
 _symmetry_equiv_pos_as_xyz
  1  'x, y, z'
loop_
 _atom_site_type_symbol
 _atom_site_label
 _atom_site_symmetry_multiplicity
 _atom_site_fract_x
 _atom_site_fract_y
 _atom_site_fract_z
 _atom_site_occupancy
  Ba  Ba0  1  0.75000000  0.33509100  0.16491000  1
  Ba  Ba1  1  0.16491000  0.75000000  0.33509000  1
  Ba  Ba2  1  0.25000100  0.66491000  0.83509000  1
  Ba  Ba3  1  0.66491000  0.83509000  0.25000000  1
  Ba  Ba4  1  0.83509000  0.25000000  0.66491000  1
  Ba  Ba5  1  0.33509100  0.16490900  0.75000000  1
  Ni  Ni6  1  0.75000000  0.74999900  0.75000000  1
  Ni  Ni7  1  0.25000100  0.25000000  0.24999900  1
  O  O8  1  0.75000000  0.98275300  0.51724600  1
  O  O9  1  0.48275300  0.25000000  0.01724800  1
  O  O10  1  0.00000000  0.00000000  0.00000000  1
  O  O11  1  0.50000000  0.49999900  0.50000000  1
  O  O12  1  0.01724700  0.48275200  0.25000000  1
  O  O13  1  0.51724800  0.74999900  0.98275200  1
  O  O14  1  0.25000000  0.01724700  0.48275200  1
  O  O15  1  0.98275200  0.51724700  0.75000000  1
