# generated using pymatgen
data_Lu(BRh)4
_symmetry_space_group_name_H-M   'P 1'
_cell_length_a   11.80546691
_cell_length_b   11.80546691
_cell_length_c   7.51271000
_cell_angle_alpha   90.00000000
_cell_angle_beta   90.00000000
_cell_angle_gamma   142.92077374
_symmetry_Int_Tables_number   1
_chemical_formula_structural   Lu(BRh)4
_chemical_formula_sum   'Lu6 B24 Rh24'
_cell_volume   631.27961372
_cell_formula_units_Z   6
loop_
 _symmetry_equiv_pos_site_id
 _symmetry_equiv_pos_as_xyz
  1  'x, y, z'
loop_
 _atom_site_type_symbol
 _atom_site_label
 _atom_site_symmetry_multiplicity
 _atom_site_fract_x
 _atom_site_fract_y
 _atom_site_fract_z
 _atom_site_occupancy
  Lu  Lu0  1  0.00000000  0.00000000  0.50000000  1
  Lu  Lu1  1  0.50000000  0.50000000  0.00000000  1
  Lu  Lu2  1  0.66683200  0.33316800  0.50000000  1
  Lu  Lu3  1  0.33316800  0.66683200  0.50000000  1
  Lu  Lu4  1  0.83316800  0.16683200  0.00000000  1
  Lu  Lu5  1  0.16683200  0.83316800  0.00000000  1
  B  B6  1  0.40897800  0.30208400  0.33425800  1
  B  B7  1  0.30208400  0.40897800  0.66574200  1
  B  B8  1  0.59102200  0.69791600  0.33425800  1
  B  B9  1  0.69791600  0.59102200  0.66574200  1
  B  B10  1  0.09102200  0.19791600  0.16574200  1
  B  B11  1  0.19791600  0.09102200  0.83425800  1
  B  B12  1  0.94793300  0.39104800  0.63632900  1
  B  B13  1  0.39104800  0.94793300  0.36367100  1
  B  B14  1  0.05206700  0.60895200  0.63632900  1
  B  B15  1  0.60895200  0.05206700  0.36367100  1
  B  B16  1  0.55206700  0.10895200  0.86367100  1
  B  B17  1  0.10895200  0.55206700  0.13632900  1
  B  B18  1  0.44793300  0.89104800  0.86367100  1
  B  B19  1  0.89104800  0.44793300  0.13632900  1
  B  B20  1  0.02656700  0.24740100  0.32802800  1
  B  B21  1  0.24740100  0.02656700  0.67197200  1
  B  B22  1  0.97343300  0.75259900  0.32802800  1
  B  B23  1  0.75259900  0.97343300  0.67197200  1
  B  B24  1  0.47343300  0.25259900  0.17197200  1
  B  B25  1  0.25259900  0.47343300  0.82802800  1
  B  B26  1  0.52656700  0.74740100  0.17197200  1
  B  B27  1  0.74740100  0.52656700  0.82802800  1
  B  B28  1  0.90897800  0.80208400  0.16574200  1
  B  B29  1  0.80208400  0.90897800  0.83425800  1
  Rh  Rh30  1  0.10643400  0.19225800  0.87598900  1
  Rh  Rh31  1  0.19225800  0.10643400  0.12401100  1
  Rh  Rh32  1  0.60643400  0.69225800  0.62401100  1
  Rh  Rh33  1  0.69225800  0.60643400  0.37598900  1
  Rh  Rh34  1  0.39356600  0.30774200  0.62401100  1
  Rh  Rh35  1  0.30774200  0.39356600  0.37598900  1
  Rh  Rh36  1  0.02856500  0.27963300  0.61435200  1
  Rh  Rh37  1  0.27963300  0.02856500  0.38564800  1
  Rh  Rh38  1  0.97143500  0.72036700  0.61435200  1
  Rh  Rh39  1  0.72036700  0.97143500  0.38564800  1
  Rh  Rh40  1  0.47143500  0.22036700  0.88564800  1
  Rh  Rh41  1  0.22036700  0.47143500  0.11435200  1
  Rh  Rh42  1  0.52856500  0.77963300  0.88564800  1
  Rh  Rh43  1  0.77963300  0.52856500  0.11435200  1
  Rh  Rh44  1  0.90751100  0.32491600  0.34405100  1
  Rh  Rh45  1  0.32491600  0.90751100  0.65594900  1
  Rh  Rh46  1  0.09248900  0.67508400  0.34405100  1
  Rh  Rh47  1  0.67508400  0.09248900  0.65594900  1
  Rh  Rh48  1  0.59248900  0.17508400  0.15594900  1
  Rh  Rh49  1  0.17508400  0.59248900  0.84405100  1
  Rh  Rh50  1  0.40751100  0.82491600  0.15594900  1
  Rh  Rh51  1  0.82491600  0.40751100  0.84405100  1
  Rh  Rh52  1  0.80774200  0.89356600  0.12401100  1
  Rh  Rh53  1  0.89356600  0.80774200  0.87598900  1
