# generated using pymatgen
data_Ge(BiTe2)2
_symmetry_space_group_name_H-M   'P 1'
_cell_length_a   14.01044436
_cell_length_b   14.01044436
_cell_length_c   14.01044403
_cell_angle_alpha   18.02677735
_cell_angle_beta   18.02677735
_cell_angle_gamma   18.02677807
_symmetry_Int_Tables_number   1
_chemical_formula_structural   Ge(BiTe2)2
_chemical_formula_sum   'Ge1 Bi2 Te4'
_cell_volume   229.96760823
_cell_formula_units_Z   1
loop_
 _symmetry_equiv_pos_site_id
 _symmetry_equiv_pos_as_xyz
  1  'x, y, z'
loop_
 _atom_site_type_symbol
 _atom_site_label
 _atom_site_symmetry_multiplicity
 _atom_site_fract_x
 _atom_site_fract_y
 _atom_site_fract_z
 _atom_site_occupancy
  Ge  Ge0  1  0.00000000  0.00000000  0.00000000  1
  Bi  Bi1  1  0.57511000  0.57511000  0.57511000  1
  Bi  Bi2  1  0.42489000  0.42489000  0.42489000  1
  Te  Te3  1  0.86609100  0.86609100  0.86609100  1
  Te  Te4  1  0.13390900  0.13390900  0.13390900  1
  Te  Te5  1  0.70733000  0.70733000  0.70733000  1
  Te  Te6  1  0.29267000  0.29267000  0.29267000  1
