# generated using pymatgen
data_Hg2AsCl2
_symmetry_space_group_name_H-M   'P 1'
_cell_length_a   8.31728255
_cell_length_b   8.31728255
_cell_length_c   9.21522407
_cell_angle_alpha   82.13721021
_cell_angle_beta   82.13721021
_cell_angle_gamma   61.45147790
_symmetry_Int_Tables_number   1
_chemical_formula_structural   Hg2AsCl2
_chemical_formula_sum   'Hg8 As4 Cl8'
_cell_volume   552.83705112
_cell_formula_units_Z   4
loop_
 _symmetry_equiv_pos_site_id
 _symmetry_equiv_pos_as_xyz
  1  'x, y, z'
loop_
 _atom_site_type_symbol
 _atom_site_label
 _atom_site_symmetry_multiplicity
 _atom_site_fract_x
 _atom_site_fract_y
 _atom_site_fract_z
 _atom_site_occupancy
  Hg  Hg0  1  0.22443600  0.73252800  0.75750300  1
  Hg  Hg1  1  0.26747200  0.77556400  0.24249700  1
  Hg  Hg2  1  0.77556400  0.26747200  0.24249700  1
  Hg  Hg3  1  0.73252800  0.22443600  0.75750300  1
  Hg  Hg4  1  0.27641100  0.27641100  0.04659200  1
  Hg  Hg5  1  0.72358900  0.72358900  0.95340800  1
  Hg  Hg6  1  0.78271300  0.78271300  0.49024900  1
  Hg  Hg7  1  0.21728700  0.21728700  0.50975100  1
  As  As8  1  0.04010700  0.04010700  0.60890500  1
  As  As9  1  0.95989300  0.95989300  0.39109500  1
  As  As10  1  0.44568000  0.44568000  0.90947900  1
  As  As11  1  0.55432000  0.55432000  0.09052100  1
  Cl  Cl12  1  0.99168100  0.55229300  0.73880700  1
  Cl  Cl13  1  0.44770700  0.00831900  0.26119300  1
  Cl  Cl14  1  0.00831900  0.44770700  0.26119300  1
  Cl  Cl15  1  0.55229300  0.99168100  0.73880700  1
  Cl  Cl16  1  0.88896700  0.88896700  0.00952700  1
  Cl  Cl17  1  0.11103300  0.11103300  0.99047300  1
  Cl  Cl18  1  0.38928400  0.38928400  0.48010000  1
  Cl  Cl19  1  0.61071600  0.61071600  0.51990000  1
