# generated using pymatgen
data_Zr6CI12
_symmetry_space_group_name_H-M   'P 1'
_cell_length_a   9.34505154
_cell_length_b   9.34505154
_cell_length_c   9.34505199
_cell_angle_alpha   106.77183093
_cell_angle_beta   106.77183093
_cell_angle_gamma   106.77183497
_symmetry_Int_Tables_number   1
_chemical_formula_structural   Zr6CI12
_chemical_formula_sum   'Zr6 C1 I12'
_cell_volume   683.84482754
_cell_formula_units_Z   1
loop_
 _symmetry_equiv_pos_site_id
 _symmetry_equiv_pos_as_xyz
  1  'x, y, z'
loop_
 _atom_site_type_symbol
 _atom_site_label
 _atom_site_symmetry_multiplicity
 _atom_site_fract_x
 _atom_site_fract_y
 _atom_site_fract_z
 _atom_site_occupancy
  Zr  Zr0  1  0.91528500  0.97541000  0.73750700  1
  Zr  Zr1  1  0.73750700  0.91528500  0.97541000  1
  Zr  Zr2  1  0.97541000  0.73750700  0.91528500  1
  Zr  Zr3  1  0.08471500  0.02459000  0.26249300  1
  Zr  Zr4  1  0.26249300  0.08471500  0.02459000  1
  Zr  Zr5  1  0.02459000  0.26249300  0.08471500  1
  C  C6  1  0.00000000  0.00000000  0.00000000  1
  I  I7  1  0.43549500  0.13935900  0.36200100  1
  I  I8  1  0.13935900  0.36200200  0.43549500  1
  I  I9  1  0.63799900  0.56450500  0.86064100  1
  I  I10  1  0.56450500  0.86064100  0.63799900  1
  I  I11  1  0.86064100  0.63799900  0.56450500  1
  I  I12  1  0.36200100  0.43549500  0.13935900  1
  I  I13  1  0.77637500  0.92198500  0.30379100  1
  I  I14  1  0.30379100  0.77637500  0.92198500  1
  I  I15  1  0.92198500  0.30379100  0.77637500  1
  I  I16  1  0.22362500  0.07801500  0.69620900  1
  I  I17  1  0.69620900  0.22362500  0.07801500  1
  I  I18  1  0.07801500  0.69620900  0.22362500  1
