# generated using pymatgen
data_V3P4O15
_symmetry_space_group_name_H-M   'P 1'
_cell_length_a   5.33217500
_cell_length_b   12.40073100
_cell_length_c   17.77819700
_cell_angle_alpha   90.00000000
_cell_angle_beta   90.00000000
_cell_angle_gamma   90.00000000
_symmetry_Int_Tables_number   1
_chemical_formula_structural   V3P4O15
_chemical_formula_sum   'V12 P16 O60'
_cell_volume   1175.54537031
_cell_formula_units_Z   4
loop_
 _symmetry_equiv_pos_site_id
 _symmetry_equiv_pos_as_xyz
  1  'x, y, z'
loop_
 _atom_site_type_symbol
 _atom_site_label
 _atom_site_symmetry_multiplicity
 _atom_site_fract_x
 _atom_site_fract_y
 _atom_site_fract_z
 _atom_site_occupancy
  V  V0  1  0.25457500  0.47972400  0.37553700  1
  V  V1  1  0.75457500  0.52027600  0.12446300  1
  V  V2  1  0.74542500  0.97972400  0.62446300  1
  V  V3  1  0.24542500  0.02027600  0.87553700  1
  V  V4  1  0.74542500  0.52027600  0.62446300  1
  V  V5  1  0.24542500  0.47972400  0.87553700  1
  V  V6  1  0.25457500  0.02027600  0.37553700  1
  V  V7  1  0.75457500  0.97972400  0.12446300  1
  V  V8  1  0.98794700  0.75000000  0.67161900  1
  V  V9  1  0.48794700  0.25000000  0.82838100  1
  V  V10  1  0.01205300  0.25000000  0.32838100  1
  V  V11  1  0.51205300  0.75000000  0.17161900  1
  P  P12  1  0.26042000  0.37364800  0.19468600  1
  P  P13  1  0.76042000  0.62635200  0.30531400  1
  P  P14  1  0.73958000  0.87364800  0.80531400  1
  P  P15  1  0.23958000  0.12635200  0.69468600  1
  P  P16  1  0.73958000  0.62635200  0.80531400  1
  P  P17  1  0.23958000  0.37364800  0.69468600  1
  P  P18  1  0.26042000  0.12635200  0.19468600  1
  P  P19  1  0.76042000  0.87364800  0.30531400  1
  P  P20  1  0.73853400  0.36759100  0.46353400  1
  P  P21  1  0.23853400  0.63240900  0.03646600  1
  P  P22  1  0.26146600  0.86759100  0.53646600  1
  P  P23  1  0.76146600  0.13240900  0.96353400  1
  P  P24  1  0.26146600  0.63240900  0.53646600  1
  P  P25  1  0.76146600  0.36759100  0.96353400  1
  P  P26  1  0.73853400  0.13240900  0.46353400  1
  P  P27  1  0.23853400  0.86759100  0.03646600  1
  O  O28  1  0.73083300  0.75000000  0.83337000  1
  O  O29  1  0.23083300  0.25000000  0.66663000  1
  O  O30  1  0.26916700  0.25000000  0.16663000  1
  O  O31  1  0.76916700  0.75000000  0.33337000  1
  O  O32  1  0.23899500  0.75000000  0.72146000  1
  O  O33  1  0.73899500  0.25000000  0.77854000  1
  O  O34  1  0.76100500  0.25000000  0.27854000  1
  O  O35  1  0.26100500  0.75000000  0.22146000  1
  O  O36  1  0.24669500  0.75000000  0.99808500  1
  O  O37  1  0.74669500  0.25000000  0.50191500  1
  O  O38  1  0.75330500  0.25000000  0.00191500  1
  O  O39  1  0.25330500  0.75000000  0.49808500  1
  O  O40  1  0.72031900  0.44703400  0.02549000  1
  O  O41  1  0.22031900  0.55296600  0.47451000  1
  O  O42  1  0.27968100  0.94703400  0.97451000  1
  O  O43  1  0.77968100  0.05296600  0.52549000  1
  O  O44  1  0.27968100  0.55296600  0.97451000  1
  O  O45  1  0.77968100  0.44703400  0.52549000  1
  O  O46  1  0.72031900  0.05296600  0.02549000  1
  O  O47  1  0.22031900  0.94703400  0.47451000  1
  O  O48  1  0.50660600  0.42610200  0.17474100  1
  O  O49  1  0.49406000  0.37476800  0.42000800  1
  O  O50  1  0.00660600  0.57389800  0.32525900  1
  O  O51  1  0.99339400  0.07389800  0.67474100  1
  O  O52  1  0.49339400  0.57389800  0.82525900  1
  O  O53  1  0.99339400  0.42610200  0.67474100  1
  O  O54  1  0.50660600  0.07389800  0.17474100  1
  O  O55  1  0.00660600  0.92610200  0.32525900  1
  O  O56  1  0.53533500  0.92483600  0.34173400  1
  O  O57  1  0.03533500  0.07516400  0.15826600  1
  O  O58  1  0.46466500  0.42483600  0.65826600  1
  O  O59  1  0.96466500  0.57516400  0.84173400  1
  O  O60  1  0.46466500  0.07516400  0.65826600  1
  O  O61  1  0.96466500  0.92483600  0.84173400  1
  O  O62  1  0.53533500  0.57516400  0.34173400  1
  O  O63  1  0.03533500  0.42483600  0.15826600  1
  O  O64  1  0.46675900  0.86738600  0.09299400  1
  O  O65  1  0.96675900  0.13261400  0.40700600  1
  O  O66  1  0.53324100  0.36738600  0.90700600  1
  O  O67  1  0.03324100  0.63261400  0.59299400  1
  O  O68  1  0.53324100  0.13261400  0.90700600  1
  O  O69  1  0.03324100  0.86738600  0.59299400  1
  O  O70  1  0.46675900  0.63261400  0.09299400  1
  O  O71  1  0.96675900  0.36738600  0.40700600  1
  O  O72  1  0.73082100  0.86675500  0.21730200  1
  O  O73  1  0.23082100  0.13324500  0.28269800  1
  O  O74  1  0.26917900  0.36675500  0.78269800  1
  O  O75  1  0.76917900  0.63324500  0.71730200  1
  O  O76  1  0.26917900  0.13324500  0.78269800  1
  O  O77  1  0.76917900  0.86675500  0.71730200  1
  O  O78  1  0.73082100  0.63324500  0.21730200  1
  O  O79  1  0.23082100  0.36675500  0.28269800  1
  O  O80  1  0.99406000  0.87476800  0.07999200  1
  O  O81  1  0.49406000  0.12523200  0.42000800  1
  O  O82  1  0.00594000  0.37476800  0.92000800  1
  O  O83  1  0.50594000  0.62523200  0.57999200  1
  O  O84  1  0.00594000  0.12523200  0.92000800  1
  O  O85  1  0.50594000  0.87476800  0.57999200  1
  O  O86  1  0.99406000  0.62523200  0.07999200  1
  O  O87  1  0.49339400  0.92610200  0.82525900  1
