# generated using pymatgen
data_BaGe2O5
_symmetry_space_group_name_H-M   'P 1'
_cell_length_a   5.74273479
_cell_length_b   5.74273479
_cell_length_c   14.61231300
_cell_angle_alpha   90.00000000
_cell_angle_beta   90.00000000
_cell_angle_gamma   121.44549764
_symmetry_Int_Tables_number   1
_chemical_formula_structural   BaGe2O5
_chemical_formula_sum   'Ba4 Ge8 O20'
_cell_volume   411.12620946
_cell_formula_units_Z   4
loop_
 _symmetry_equiv_pos_site_id
 _symmetry_equiv_pos_as_xyz
  1  'x, y, z'
loop_
 _atom_site_type_symbol
 _atom_site_label
 _atom_site_symmetry_multiplicity
 _atom_site_fract_x
 _atom_site_fract_y
 _atom_site_fract_z
 _atom_site_occupancy
  Ba  Ba0  1  0.16205700  0.83794300  0.58122900  1
  Ba  Ba1  1  0.83794300  0.16205700  0.41877100  1
  Ba  Ba2  1  0.33794300  0.66205700  0.08122900  1
  Ba  Ba3  1  0.66205700  0.33794300  0.91877100  1
  Ge  Ge4  1  0.49475700  0.50524300  0.64152600  1
  Ge  Ge5  1  0.50524300  0.49475700  0.35847400  1
  Ge  Ge6  1  0.00524300  0.99475700  0.14152600  1
  Ge  Ge7  1  0.99475700  0.00524300  0.85847400  1
  Ge  Ge8  1  0.82716800  0.17283200  0.68327100  1
  Ge  Ge9  1  0.17283200  0.82716800  0.31672900  1
  Ge  Ge10  1  0.67283200  0.32716800  0.18327100  1
  Ge  Ge11  1  0.32716800  0.67283200  0.81672900  1
  O  O12  1  0.33505900  0.15276000  0.40619500  1
  O  O13  1  0.15276000  0.33505900  0.59380500  1
  O  O14  1  0.16494100  0.34724000  0.90619500  1
  O  O15  1  0.34724000  0.16494100  0.09380500  1
  O  O16  1  0.66494100  0.84724000  0.59380500  1
  O  O17  1  0.84724000  0.66494100  0.40619500  1
  O  O18  1  0.83505900  0.65276000  0.09380500  1
  O  O19  1  0.65276000  0.83505900  0.90619500  1
  O  O20  1  0.00166900  0.49833100  0.75000000  1
  O  O21  1  0.49833100  0.00166900  0.25000000  1
  O  O22  1  0.99833100  0.50166900  0.25000000  1
  O  O23  1  0.50166900  0.99833100  0.75000000  1
  O  O24  1  0.49388500  0.50611500  0.76124500  1
  O  O25  1  0.50611500  0.49388500  0.23875500  1
  O  O26  1  0.00611500  0.99388500  0.26124500  1
  O  O27  1  0.99388500  0.00611500  0.73875500  1
  O  O28  1  0.16612300  0.83387700  0.89867500  1
  O  O29  1  0.83387700  0.16612300  0.10132500  1
  O  O30  1  0.33387700  0.66612300  0.39867500  1
  O  O31  1  0.66612300  0.33387700  0.60132500  1
