# generated using pymatgen
data_Ca3(AlAs2)2
_symmetry_space_group_name_H-M   'P 1'
_cell_length_a   7.89007898
_cell_length_b   7.89007898
_cell_length_c   8.28372214
_cell_angle_alpha   87.08090495
_cell_angle_beta   87.08090495
_cell_angle_gamma   62.13301828
_symmetry_Int_Tables_number   1
_chemical_formula_structural   Ca3(AlAs2)2
_chemical_formula_sum   'Ca6 Al4 As8'
_cell_volume   455.08114883
_cell_formula_units_Z   2
loop_
 _symmetry_equiv_pos_site_id
 _symmetry_equiv_pos_as_xyz
  1  'x, y, z'
loop_
 _atom_site_type_symbol
 _atom_site_label
 _atom_site_symmetry_multiplicity
 _atom_site_fract_x
 _atom_site_fract_y
 _atom_site_fract_z
 _atom_site_occupancy
  Ca  Ca0  1  0.84776500  0.15223500  0.75000000  1
  Ca  Ca1  1  0.36576200  0.91432400  0.86185100  1
  Ca  Ca2  1  0.63423800  0.08567600  0.13814900  1
  Ca  Ca3  1  0.91432400  0.36576200  0.36185100  1
  Ca  Ca4  1  0.15223500  0.84776500  0.25000000  1
  Ca  Ca5  1  0.08567600  0.63423800  0.63814900  1
  Al  Al6  1  0.58232600  0.80855200  0.45734900  1
  Al  Al7  1  0.19144800  0.41767400  0.04265100  1
  Al  Al8  1  0.41767400  0.19144800  0.54265100  1
  Al  Al9  1  0.80855200  0.58232600  0.95734900  1
  As  As10  1  0.73519200  0.55768400  0.67099400  1
  As  As11  1  0.44231600  0.26480800  0.82900600  1
  As  As12  1  0.55768400  0.73519200  0.17099400  1
  As  As13  1  0.26480800  0.44231600  0.32900600  1
  As  As14  1  0.99952000  0.77111500  0.96329200  1
  As  As15  1  0.22888500  0.00048000  0.53670800  1
  As  As16  1  0.00048000  0.22888500  0.03670800  1
  As  As17  1  0.77111500  0.99952000  0.46329200  1
