# generated using pymatgen
data_ThP7
_symmetry_space_group_name_H-M   'P 1'
_cell_length_a   5.63346000
_cell_length_b   10.26069200
_cell_length_c   10.45611500
_cell_angle_alpha   90.00000000
_cell_angle_beta   90.00000000
_cell_angle_gamma   90.00000000
_symmetry_Int_Tables_number   1
_chemical_formula_structural   ThP7
_chemical_formula_sum   'Th4 P28'
_cell_volume   604.39688518
_cell_formula_units_Z   4
loop_
 _symmetry_equiv_pos_site_id
 _symmetry_equiv_pos_as_xyz
  1  'x, y, z'
loop_
 _atom_site_type_symbol
 _atom_site_label
 _atom_site_symmetry_multiplicity
 _atom_site_fract_x
 _atom_site_fract_y
 _atom_site_fract_z
 _atom_site_occupancy
  Th  Th0  1  0.63716600  0.48929000  0.66921400  1
  Th  Th1  1  0.13716600  0.01071000  0.33078600  1
  Th  Th2  1  0.36283400  0.98929000  0.83078600  1
  Th  Th3  1  0.86283400  0.51071000  0.16921400  1
  P  P4  1  0.00992100  0.75892100  0.49871700  1
  P  P5  1  0.50992100  0.74107900  0.50128300  1
  P  P6  1  0.99007900  0.25892100  0.00128300  1
  P  P7  1  0.49007900  0.24107900  0.99871700  1
  P  P8  1  0.67793300  0.75416900  0.79535300  1
  P  P9  1  0.17793300  0.74583100  0.20464700  1
  P  P10  1  0.32206700  0.25416900  0.70464700  1
  P  P11  1  0.82206700  0.24583100  0.29535300  1
  P  P12  1  0.54943100  0.73178100  0.28620300  1
  P  P13  1  0.04943100  0.76821900  0.71379700  1
  P  P14  1  0.45056900  0.23178100  0.21379700  1
  P  P15  1  0.95056900  0.26821900  0.78620300  1
  P  P16  1  0.27204700  0.75905500  0.00037600  1
  P  P17  1  0.77204700  0.74094500  0.99962400  1
  P  P18  1  0.72795300  0.25905500  0.49962400  1
  P  P19  1  0.22795300  0.24094500  0.50037600  1
  P  P20  1  0.63673000  0.94145700  0.26012100  1
  P  P21  1  0.13673000  0.55854300  0.73987900  1
  P  P22  1  0.36327000  0.44145700  0.23987900  1
  P  P23  1  0.86327000  0.05854300  0.76012100  1
  P  P24  1  0.20792900  0.55076200  0.94830300  1
  P  P25  1  0.70792900  0.94923800  0.05169700  1
  P  P26  1  0.79207100  0.05076200  0.55169700  1
  P  P27  1  0.29207100  0.44923800  0.44830300  1
  P  P28  1  0.55854200  0.44858100  0.94855500  1
  P  P29  1  0.05854200  0.05141900  0.05144500  1
  P  P30  1  0.44145800  0.94858100  0.55144500  1
  P  P31  1  0.94145800  0.55141900  0.44855500  1
