# generated using pymatgen
data_Nd2GeO5
_symmetry_space_group_name_H-M   'P 1'
_cell_length_a   7.33018700
_cell_length_b   7.05502500
_cell_length_c   10.17739598
_cell_angle_alpha   72.36884290
_cell_angle_beta   90.00000000
_cell_angle_gamma   90.00000000
_symmetry_Int_Tables_number   1
_chemical_formula_structural   Nd2GeO5
_chemical_formula_sum   'Nd8 Ge4 O20'
_cell_volume   501.59717053
_cell_formula_units_Z   4
loop_
 _symmetry_equiv_pos_site_id
 _symmetry_equiv_pos_as_xyz
  1  'x, y, z'
loop_
 _atom_site_type_symbol
 _atom_site_label
 _atom_site_symmetry_multiplicity
 _atom_site_fract_x
 _atom_site_fract_y
 _atom_site_fract_z
 _atom_site_occupancy
  Nd  Nd0  1  0.11943700  0.74430200  0.46926300  1
  Nd  Nd1  1  0.61943700  0.75569800  0.53073700  1
  Nd  Nd2  1  0.88056300  0.25569800  0.53073700  1
  Nd  Nd3  1  0.38056300  0.24430200  0.46926300  1
  Nd  Nd4  1  0.65019100  0.92206400  0.84974500  1
  Nd  Nd5  1  0.15019100  0.57793600  0.15025500  1
  Nd  Nd6  1  0.34980900  0.07793600  0.15025500  1
  Nd  Nd7  1  0.84980900  0.42206400  0.84974500  1
  Ge  Ge8  1  0.13319700  0.98150200  0.79083300  1
  Ge  Ge9  1  0.63319700  0.51849800  0.20916700  1
  Ge  Ge10  1  0.86680300  0.01849800  0.20916700  1
  Ge  Ge11  1  0.36680300  0.48150200  0.79083300  1
  O  O12  1  0.88310500  0.54716900  0.60970400  1
  O  O13  1  0.38310500  0.95283100  0.39029600  1
  O  O14  1  0.11689500  0.45283100  0.39029600  1
  O  O15  1  0.61689500  0.04716900  0.60970400  1
  O  O16  1  0.38862100  0.81368100  0.02803000  1
  O  O17  1  0.88862100  0.68631900  0.97197000  1
  O  O18  1  0.61137900  0.18631900  0.97197000  1
  O  O19  1  0.11137900  0.31368100  0.02803000  1
  O  O20  1  0.14064000  0.02332400  0.60132100  1
  O  O21  1  0.64064000  0.47667600  0.39867900  1
  O  O22  1  0.85936000  0.97667600  0.39867900  1
  O  O23  1  0.35936000  0.52332400  0.60132100  1
  O  O24  1  0.57805500  0.63933900  0.78251000  1
  O  O25  1  0.07805500  0.86066100  0.21749000  1
  O  O26  1  0.42194500  0.36066100  0.21749000  1
  O  O27  1  0.92194500  0.13933900  0.78251000  1
  O  O28  1  0.54012400  0.25099000  0.82288900  1
  O  O29  1  0.04012400  0.24901000  0.17711100  1
  O  O30  1  0.45987600  0.74901000  0.17711100  1
  O  O31  1  0.95987600  0.75099000  0.82288900  1
