# generated using pymatgen
data_Zn(Bi3O5)4
_symmetry_space_group_name_H-M   'P 1'
_cell_length_a   8.83167857
_cell_length_b   8.83167857
_cell_length_c   8.83167857
_cell_angle_alpha   109.47122063
_cell_angle_beta   109.47122063
_cell_angle_gamma   109.47122063
_symmetry_Int_Tables_number   1
_chemical_formula_structural   Zn(Bi3O5)4
_chemical_formula_sum   'Zn1 Bi12 O20'
_cell_volume   530.28320531
_cell_formula_units_Z   1
loop_
 _symmetry_equiv_pos_site_id
 _symmetry_equiv_pos_as_xyz
  1  'x, y, z'
loop_
 _atom_site_type_symbol
 _atom_site_label
 _atom_site_symmetry_multiplicity
 _atom_site_fract_x
 _atom_site_fract_y
 _atom_site_fract_z
 _atom_site_occupancy
  Zn  Zn0  1  0.00000000  0.00000000  0.00000000  1
  Bi  Bi1  1  0.83271200  0.69179600  0.51095200  1
  Bi  Bi2  1  0.14091600  0.81915600  0.30820400  1
  Bi  Bi3  1  0.32176000  0.48904800  0.18084400  1
  Bi  Bi4  1  0.48904800  0.18084400  0.32176000  1
  Bi  Bi5  1  0.67824000  0.85908400  0.16728800  1
  Bi  Bi6  1  0.51095200  0.83271200  0.69179600  1
  Bi  Bi7  1  0.69179600  0.51095200  0.83271200  1
  Bi  Bi8  1  0.30820400  0.14091600  0.81915600  1
  Bi  Bi9  1  0.85908400  0.16728800  0.67824000  1
  Bi  Bi10  1  0.18084400  0.32176000  0.48904800  1
  Bi  Bi11  1  0.16728800  0.67824000  0.85908400  1
  Bi  Bi12  1  0.81915600  0.30820400  0.14091600  1
  O  O13  1  0.00000000  0.00000000  0.62138300  1
  O  O14  1  0.00000000  0.62138300  0.00000000  1
  O  O15  1  0.37861700  0.37861700  0.37861700  1
  O  O16  1  0.62138300  0.00000000  0.00000000  1
  O  O17  1  0.35843100  0.23938900  0.61989700  1
  O  O18  1  0.11904200  0.38050900  0.76061100  1
  O  O19  1  0.73853400  0.38010300  0.61949100  1
  O  O20  1  0.38010300  0.61949100  0.73853400  1
  O  O21  1  0.26146600  0.88095800  0.64156900  1
  O  O22  1  0.61989700  0.35843100  0.23938900  1
  O  O23  1  0.23938900  0.61989700  0.35843100  1
  O  O24  1  0.76061100  0.11904200  0.38050900  1
  O  O25  1  0.88095800  0.64156900  0.26146600  1
  O  O26  1  0.61949100  0.73853400  0.38010300  1
  O  O27  1  0.64156900  0.26146600  0.88095800  1
  O  O28  1  0.38050900  0.76061100  0.11904200  1
  O  O29  1  0.00000000  0.00000000  0.22980000  1
  O  O30  1  0.00000000  0.22980000  0.00000000  1
  O  O31  1  0.77020000  0.77020000  0.77020000  1
  O  O32  1  0.22980000  0.00000000  0.00000000  1
