data_image0
_chemical_formula_structural       Br6Sm2
_chemical_formula_sum              "Br6 Sm2"
_cell_length_a       4.05467
_cell_length_b       6.75984
_cell_length_c       9.13404
_cell_angle_alpha    90
_cell_angle_beta     90
_cell_angle_gamma    107.452

_space_group_name_H-M_alt    "P 1"
_space_group_IT_number       1

loop_
  _space_group_symop_operation_xyz
  'x, y, z'

loop_
  _atom_site_type_symbol
  _atom_site_label
  _atom_site_symmetry_multiplicity
  _atom_site_fract_x
  _atom_site_fract_y
  _atom_site_fract_z
  _atom_site_occupancy
  Br  Br1       1.0  0.64700  0.29300  0.06620  1.0000
  Br  Br2       1.0  0.91500  0.83100  0.25000  1.0000
  Br  Br3       1.0  0.64700  0.29300  0.43400  1.0000
  Br  Br4       1.0  0.35300  0.70700  0.56600  1.0000
  Br  Br5       1.0  0.08460  0.16900  0.75000  1.0000
  Br  Br6       1.0  0.35300  0.70700  0.93400  1.0000
  Sm  Sm1       1.0  0.25700  0.51400  0.25000  1.0000
  Sm  Sm2       1.0  0.74300  0.48600  0.75000  1.0000
