# generated using pymatgen
data_BaMg(CO2)2
_symmetry_space_group_name_H-M   'P 1'
_cell_length_a   4.47917177
_cell_length_b   4.47917177
_cell_length_c   6.41489698
_cell_angle_alpha   72.91045295
_cell_angle_beta   72.91045295
_cell_angle_gamma   71.99003579
_symmetry_Int_Tables_number   1
_chemical_formula_structural   BaMg(CO2)2
_chemical_formula_sum   'Ba1 Mg1 C2 O4'
_cell_volume   114.03690637
_cell_formula_units_Z   1
loop_
 _symmetry_equiv_pos_site_id
 _symmetry_equiv_pos_as_xyz
  1  'x, y, z'
loop_
 _atom_site_type_symbol
 _atom_site_label
 _atom_site_symmetry_multiplicity
 _atom_site_fract_x
 _atom_site_fract_y
 _atom_site_fract_z
 _atom_site_occupancy
  Ba  Ba0  1  0.00000000  0.00000000  0.50000000  1
  Mg  Mg1  1  0.50000000  0.50000000  0.00000000  1
  C  C2  1  0.26682500  0.26682500  0.82003100  1
  C  C3  1  0.73317500  0.73317500  0.17996900  1
  O  O4  1  0.02411700  0.60480400  0.21957300  1
  O  O5  1  0.39519600  0.97588300  0.78042700  1
  O  O6  1  0.97588300  0.39519600  0.78042700  1
  O  O7  1  0.60480400  0.02411700  0.21957300  1
