# generated using pymatgen
data_B9H11N4
_symmetry_space_group_name_H-M   'P 1'
_cell_length_a   6.16227500
_cell_length_b   8.55039600
_cell_length_c   19.77726010
_cell_angle_alpha   84.92040221
_cell_angle_beta   90.00000000
_cell_angle_gamma   90.00000000
_symmetry_Int_Tables_number   1
_chemical_formula_structural   B9H11N4
_chemical_formula_sum   'B36 H44 N16'
_cell_volume   1037.96915453
_cell_formula_units_Z   4
loop_
 _symmetry_equiv_pos_site_id
 _symmetry_equiv_pos_as_xyz
  1  'x, y, z'
loop_
 _atom_site_type_symbol
 _atom_site_label
 _atom_site_symmetry_multiplicity
 _atom_site_fract_x
 _atom_site_fract_y
 _atom_site_fract_z
 _atom_site_occupancy
  B  B0  1  0.75917700  0.08792200  0.19253900  1
  B  B1  1  0.25917700  0.91207800  0.30746100  1
  B  B2  1  0.24082300  0.91207800  0.80746100  1
  B  B3  1  0.74082300  0.08792200  0.69253900  1
  B  B4  1  0.69619900  0.97012700  0.12722800  1
  B  B5  1  0.19619900  0.02987300  0.37277200  1
  B  B6  1  0.30380100  0.02987300  0.87277200  1
  B  B7  1  0.80380100  0.97012700  0.62722800  1
  B  B8  1  0.74534300  0.08782300  0.05154800  1
  B  B9  1  0.24534300  0.91217700  0.44845200  1
  B  B10  1  0.25465700  0.91217700  0.94845200  1
  B  B11  1  0.75465700  0.08782300  0.55154800  1
  B  B12  1  0.60865500  0.28797000  0.04992300  1
  B  B13  1  0.10865500  0.71203000  0.45007700  1
  B  B14  1  0.39134500  0.71203000  0.95007700  1
  B  B15  1  0.89134500  0.28797000  0.54992300  1
  B  B16  1  0.62237600  0.29115700  0.18178400  1
  B  B17  1  0.12237600  0.70884300  0.31821600  1
  B  B18  1  0.37762400  0.70884300  0.81821600  1
  B  B19  1  0.87762400  0.29115700  0.68178400  1
  B  B20  1  0.92973300  0.08101600  0.12119900  1
  B  B21  1  0.42973300  0.91898400  0.37880100  1
  B  B22  1  0.07026700  0.91898400  0.87880100  1
  B  B23  1  0.57026700  0.08101600  0.62119900  1
  B  B24  1  0.88492600  0.26080100  0.06783800  1
  B  B25  1  0.38492600  0.73919900  0.43216200  1
  B  B26  1  0.11507400  0.73919900  0.93216200  1
  B  B27  1  0.61507400  0.26080100  0.56783800  1
  B  B28  1  0.74586000  0.40367300  0.10823100  1
  B  B29  1  0.24586000  0.59632700  0.39176900  1
  B  B30  1  0.25414000  0.59632700  0.89176900  1
  B  B31  1  0.75414000  0.40367300  0.60823100  1
  B  B32  1  0.89406800  0.26143500  0.16003900  1
  B  B33  1  0.39406800  0.73856500  0.33996100  1
  B  B34  1  0.10593200  0.73856500  0.83996100  1
  B  B35  1  0.60593200  0.26143500  0.66003900  1
  H  H36  1  0.78667100  0.03330400  0.24946000  1
  H  H37  1  0.28667100  0.96669600  0.25054000  1
  H  H38  1  0.21332900  0.96669600  0.75054000  1
  H  H39  1  0.71332900  0.03330400  0.74946000  1
  H  H40  1  0.65923100  0.83301500  0.13324800  1
  H  H41  1  0.15923100  0.16698500  0.36675200  1
  H  H42  1  0.34076900  0.16698500  0.86675200  1
  H  H43  1  0.84076900  0.83301500  0.63324800  1
  H  H44  1  0.76965500  0.02951800  0.99958300  1
  H  H45  1  0.26965500  0.97048200  0.50041700  1
  H  H46  1  0.23034500  0.97048200  0.00041700  1
  H  H47  1  0.73034500  0.02951800  0.49958300  1
  H  H48  1  0.52424200  0.33742700  0.99828100  1
  H  H49  1  0.02424200  0.66257300  0.50171900  1
  H  H50  1  0.47575800  0.66257300  0.00171900  1
  H  H51  1  0.97575800  0.33742700  0.49828100  1
  H  H52  1  0.36875400  0.38988200  0.11478600  1
  H  H53  1  0.86875400  0.61011800  0.38521400  1
  H  H54  1  0.63124600  0.61011800  0.88521400  1
  H  H55  1  0.13124600  0.38988200  0.61478600  1
  H  H56  1  0.10243400  0.01753200  0.12245400  1
  H  H57  1  0.60243400  0.98246800  0.37754600  1
  H  H58  1  0.89756600  0.98246800  0.87754600  1
  H  H59  1  0.39756600  0.01753200  0.62245400  1
  H  H60  1  0.02421900  0.29980800  0.02778200  1
  H  H61  1  0.52421900  0.70019200  0.47221800  1
  H  H62  1  0.97578100  0.70019200  0.97221800  1
  H  H63  1  0.47578100  0.29980800  0.52778200  1
  H  H64  1  0.76730300  0.54218900  0.10344500  1
  H  H65  1  0.26730300  0.45781100  0.39655500  1
  H  H66  1  0.23269700  0.45781100  0.89655500  1
  H  H67  1  0.73269700  0.54218900  0.60344500  1
  H  H68  1  0.03737500  0.30177300  0.19540700  1
  H  H69  1  0.53737500  0.69822700  0.30459300  1
  H  H70  1  0.96262500  0.69822700  0.80459300  1
  H  H71  1  0.46262500  0.30177300  0.69540700  1
  H  H72  1  0.56037300  0.03898400  0.07718200  1
  H  H73  1  0.06037300  0.96101600  0.42281800  1
  H  H74  1  0.43962700  0.96101600  0.92281800  1
  H  H75  1  0.93962700  0.03898400  0.57718200  1
  H  H76  1  0.56967400  0.03793100  0.17430000  1
  H  H77  1  0.06967400  0.96206900  0.32570000  1
  H  H78  1  0.43032600  0.96206900  0.82570000  1
  H  H79  1  0.93032600  0.03793100  0.67430000  1
  N  N80  1  0.70207600  0.36291300  0.34874300  1
  N  N81  1  0.20207600  0.63708700  0.15125700  1
  N  N82  1  0.29792400  0.63708700  0.65125700  1
  N  N83  1  0.79792400  0.36291300  0.84874300  1
  N  N84  1  0.62729100  0.35468500  0.29594800  1
  N  N85  1  0.12729100  0.64531500  0.20405200  1
  N  N86  1  0.37270900  0.64531500  0.70405200  1
  N  N87  1  0.87270900  0.35468500  0.79594800  1
  N  N88  1  0.52990700  0.35270600  0.24217900  1
  N  N89  1  0.02990700  0.64729400  0.25782100  1
  N  N90  1  0.47009300  0.64729400  0.75782100  1
  N  N91  1  0.97009300  0.35270600  0.74217900  1
  N  N92  1  0.50493600  0.32089100  0.11615300  1
  N  N93  1  0.00493600  0.67910900  0.38384700  1
  N  N94  1  0.49506400  0.67910900  0.88384700  1
  N  N95  1  0.99506400  0.32089100  0.61615300  1
