# generated using pymatgen
data_AsBr5F6
_symmetry_space_group_name_H-M   'P 1'
_cell_length_a   7.39783194
_cell_length_b   7.39783194
_cell_length_c   12.64395475
_cell_angle_alpha   77.79471993
_cell_angle_beta   77.79471993
_cell_angle_gamma   77.08179329
_symmetry_Int_Tables_number   1
_chemical_formula_structural   AsBr5F6
_chemical_formula_sum   'As2 Br10 F12'
_cell_volume   649.35833461
_cell_formula_units_Z   2
loop_
 _symmetry_equiv_pos_site_id
 _symmetry_equiv_pos_as_xyz
  1  'x, y, z'
loop_
 _atom_site_type_symbol
 _atom_site_label
 _atom_site_symmetry_multiplicity
 _atom_site_fract_x
 _atom_site_fract_y
 _atom_site_fract_z
 _atom_site_occupancy
  As  As0  1  0.36314200  0.63685800  0.25000000  1
  As  As1  1  0.63685800  0.36314200  0.75000000  1
  Br  Br2  1  0.86144100  0.29819700  0.08263000  1
  Br  Br3  1  0.67999600  0.91207300  0.32272900  1
  Br  Br4  1  0.91207300  0.67999600  0.82272900  1
  Br  Br5  1  0.32000400  0.08792700  0.67727100  1
  Br  Br6  1  0.08792700  0.32000400  0.17727100  1
  Br  Br7  1  0.70180300  0.13855900  0.41737000  1
  Br  Br8  1  0.13855900  0.70180300  0.91737000  1
  Br  Br9  1  0.29819700  0.86144100  0.58263000  1
  Br  Br10  1  0.00000000  0.00000000  0.00000000  1
  Br  Br11  1  0.00000000  0.00000000  0.50000000  1
  F  F12  1  0.61811000  0.35474000  0.89333200  1
  F  F13  1  0.64526000  0.38189000  0.60666800  1
  F  F14  1  0.38189000  0.64526000  0.10666800  1
  F  F15  1  0.35474000  0.61811000  0.39333200  1
  F  F16  1  0.65930100  0.11633800  0.77056100  1
  F  F17  1  0.88366200  0.34069900  0.72943900  1
  F  F18  1  0.38702600  0.38541000  0.26809400  1
  F  F19  1  0.11633800  0.65930100  0.27056100  1
  F  F20  1  0.38541000  0.38702600  0.76809400  1
  F  F21  1  0.61297400  0.61459000  0.73190600  1
  F  F22  1  0.61459000  0.61297400  0.23190600  1
  F  F23  1  0.34069900  0.88366200  0.22943900  1
