# generated using pymatgen
data_H9CN9
_symmetry_space_group_name_H-M   'P 1'
_cell_length_a   7.83320200
_cell_length_b   6.82753800
_cell_length_c   13.26118113
_cell_angle_alpha   84.16805288
_cell_angle_beta   90.00000000
_cell_angle_gamma   90.00000000
_symmetry_Int_Tables_number   1
_chemical_formula_structural   H9CN9
_chemical_formula_sum   'H36 C4 N36'
_cell_volume   705.55683503
_cell_formula_units_Z   4
loop_
 _symmetry_equiv_pos_site_id
 _symmetry_equiv_pos_as_xyz
  1  'x, y, z'
loop_
 _atom_site_type_symbol
 _atom_site_label
 _atom_site_symmetry_multiplicity
 _atom_site_fract_x
 _atom_site_fract_y
 _atom_site_fract_z
 _atom_site_occupancy
  H  H0  1  0.69854900  0.10850600  0.39165200  1
  H  H1  1  0.44326600  0.28805500  0.84949100  1
  H  H2  1  0.94326600  0.71194500  0.65050900  1
  H  H3  1  0.55673400  0.71194500  0.15050900  1
  H  H4  1  0.19854900  0.89149400  0.10834800  1
  H  H5  1  0.30145100  0.89149400  0.60834800  1
  H  H6  1  0.80145100  0.10850600  0.89165200  1
  H  H7  1  0.69910000  0.35387900  0.38071500  1
  H  H8  1  0.19910000  0.64612100  0.11928500  1
  H  H9  1  0.30090000  0.64612100  0.61928500  1
  H  H10  1  0.80090000  0.35387900  0.88071500  1
  H  H11  1  0.77041800  0.19155700  0.55726400  1
  H  H12  1  0.27041800  0.80844300  0.94273600  1
  H  H13  1  0.22958200  0.80844300  0.44273600  1
  H  H14  1  0.72958200  0.19155700  0.05726400  1
  H  H15  1  0.01460500  0.13168600  0.73219800  1
  H  H16  1  0.51460500  0.86831400  0.76780200  1
  H  H17  1  0.98539500  0.86831400  0.26780200  1
  H  H18  1  0.48539500  0.13168600  0.23219800  1
  H  H19  1  0.05673400  0.28805500  0.34949100  1
  H  H20  1  0.48173900  0.62590100  0.78641300  1
  H  H21  1  0.01826100  0.62590100  0.28641300  1
  H  H22  1  0.51826100  0.37409900  0.21358700  1
  H  H23  1  0.20639600  0.30076400  0.59876500  1
  H  H24  1  0.70639600  0.69923600  0.90123500  1
  H  H25  1  0.79360400  0.69923600  0.40123500  1
  H  H26  1  0.29360400  0.30076400  0.09876500  1
  H  H27  1  0.35025100  0.19704600  0.41054000  1
  H  H28  1  0.85025100  0.80295400  0.08946000  1
  H  H29  1  0.64974900  0.80295400  0.58946000  1
  H  H30  1  0.14974900  0.19704600  0.91054000  1
  H  H31  1  0.32483300  0.44000800  0.39002600  1
  H  H32  1  0.82483300  0.55999200  0.10997400  1
  H  H33  1  0.67516700  0.55999200  0.60997400  1
  H  H34  1  0.17516700  0.44000800  0.89002600  1
  H  H35  1  0.98173900  0.37409900  0.71358700  1
  C  C36  1  0.01108600  0.25674800  0.50286800  1
  C  C37  1  0.51108600  0.74325200  0.99713200  1
  C  C38  1  0.98891400  0.74325200  0.49713200  1
  C  C39  1  0.48891400  0.25674800  0.00286800  1
  N  N40  1  0.54996100  0.07874200  0.63644400  1
  N  N41  1  0.45003900  0.92125800  0.36355600  1
  N  N42  1  0.95003900  0.07874200  0.13644400  1
  N  N43  1  0.49295600  0.22550800  0.66349400  1
  N  N44  1  0.99295600  0.77449200  0.83650600  1
  N  N45  1  0.50704400  0.77449200  0.33650600  1
  N  N46  1  0.00704400  0.22550800  0.16349400  1
  N  N47  1  0.43400800  0.37234700  0.69049700  1
  N  N48  1  0.93400800  0.62765300  0.80950300  1
  N  N49  1  0.56599200  0.62765300  0.30950300  1
  N  N50  1  0.06599200  0.37234700  0.19049700  1
  N  N51  1  0.77386900  0.23043800  0.39529400  1
  N  N52  1  0.27386900  0.76956200  0.10470600  1
  N  N53  1  0.22613100  0.76956200  0.60470600  1
  N  N54  1  0.72613100  0.23043800  0.89529400  1
  N  N55  1  0.84304600  0.22645500  0.49318800  1
  N  N56  1  0.34304600  0.77354500  0.00681200  1
  N  N57  1  0.15695400  0.77354500  0.50681200  1
  N  N58  1  0.65695400  0.22645500  0.99318800  1
  N  N59  1  0.97445200  0.24475400  0.68046300  1
  N  N60  1  0.47445200  0.75524600  0.81953700  1
  N  N61  1  0.02554800  0.75524600  0.31953700  1
  N  N62  1  0.52554800  0.24475400  0.18046300  1
  N  N63  1  0.08169400  0.25562400  0.59534600  1
  N  N64  1  0.58169400  0.74437600  0.90465400  1
  N  N65  1  0.91830600  0.74437600  0.40465400  1
  N  N66  1  0.41830600  0.25562400  0.09534600  1
  N  N67  1  0.28604700  0.31568300  0.43364300  1
  N  N68  1  0.78604700  0.68431700  0.06635700  1
  N  N69  1  0.71395300  0.68431700  0.56635700  1
  N  N70  1  0.21395300  0.31568300  0.93364300  1
  N  N71  1  0.11026700  0.28849900  0.42031300  1
  N  N72  1  0.61026700  0.71150100  0.07968700  1
  N  N73  1  0.88973300  0.71150100  0.57968700  1
  N  N74  1  0.38973300  0.28849900  0.92031300  1
  N  N75  1  0.04996100  0.92125800  0.86355600  1
