# generated using pymatgen
data_K2FeF5
_symmetry_space_group_name_H-M   'P 1'
_cell_length_a   7.55211900
_cell_length_b   13.07149700
_cell_length_c   20.77700800
_cell_angle_alpha   90.00000000
_cell_angle_beta   90.00000000
_cell_angle_gamma   90.00000000
_symmetry_Int_Tables_number   1
_chemical_formula_structural   K2FeF5
_chemical_formula_sum   'K32 Fe16 F80'
_cell_volume   2051.05430494
_cell_formula_units_Z   16
loop_
 _symmetry_equiv_pos_site_id
 _symmetry_equiv_pos_as_xyz
  1  'x, y, z'
loop_
 _atom_site_type_symbol
 _atom_site_label
 _atom_site_symmetry_multiplicity
 _atom_site_fract_x
 _atom_site_fract_y
 _atom_site_fract_z
 _atom_site_occupancy
  K  K0  1  0.00000000  0.07386900  0.25000000  1
  K  K1  1  0.50000000  0.42613100  0.75000000  1
  K  K2  1  0.00000000  0.92613100  0.75000000  1
  K  K3  1  0.50000000  0.57386900  0.25000000  1
  K  K4  1  0.00000000  0.53602400  0.25000000  1
  K  K5  1  0.50000000  0.96397600  0.75000000  1
  K  K6  1  0.00000000  0.46397600  0.75000000  1
  K  K7  1  0.50000000  0.03602400  0.25000000  1
  K  K8  1  0.15869100  0.01926400  0.41655400  1
  K  K9  1  0.65869100  0.48073600  0.58344600  1
  K  K10  1  0.84130900  0.01926400  0.08344600  1
  K  K11  1  0.34130900  0.48073600  0.91655400  1
  K  K12  1  0.84130900  0.98073600  0.58344600  1
  K  K13  1  0.34130900  0.51926400  0.41655400  1
  K  K14  1  0.15869100  0.98073600  0.91655400  1
  K  K15  1  0.65869100  0.51926400  0.08344600  1
  K  K16  1  0.14895200  0.78754700  0.16273500  1
  K  K17  1  0.64895200  0.71245300  0.83726500  1
  K  K18  1  0.85104800  0.78754700  0.33726500  1
  K  K19  1  0.35104800  0.71245300  0.66273500  1
  K  K20  1  0.85104800  0.21245300  0.83726500  1
  K  K21  1  0.35104800  0.28754700  0.16273500  1
  K  K22  1  0.14895200  0.21245300  0.66273500  1
  K  K23  1  0.64895200  0.28754700  0.33726500  1
  K  K24  1  0.48762400  0.23089500  0.99307000  1
  K  K25  1  0.98762400  0.26910500  0.00693000  1
  K  K26  1  0.51237600  0.23089500  0.50693000  1
  K  K27  1  0.01237600  0.26910500  0.49307000  1
  K  K28  1  0.51237600  0.76910500  0.00693000  1
  K  K29  1  0.01237600  0.73089500  0.99307000  1
  K  K30  1  0.48762400  0.76910500  0.49307000  1
  K  K31  1  0.98762400  0.73089500  0.50693000  1
  Fe  Fe32  1  0.66952500  0.00102400  0.42227400  1
  Fe  Fe33  1  0.16952500  0.49897600  0.57772600  1
  Fe  Fe34  1  0.33047500  0.00102400  0.07772600  1
  Fe  Fe35  1  0.83047500  0.49897600  0.92227400  1
  Fe  Fe36  1  0.33047500  0.99897600  0.57772600  1
  Fe  Fe37  1  0.83047500  0.50102400  0.42227400  1
  Fe  Fe38  1  0.66952500  0.99897600  0.92227400  1
  Fe  Fe39  1  0.16952500  0.50102400  0.07772600  1
  Fe  Fe40  1  0.33612300  0.80329000  0.32832200  1
  Fe  Fe41  1  0.83612300  0.69671000  0.67167800  1
  Fe  Fe42  1  0.66387700  0.80329000  0.17167800  1
  Fe  Fe43  1  0.16387700  0.69671000  0.82832200  1
  Fe  Fe44  1  0.66387700  0.19671000  0.67167800  1
  Fe  Fe45  1  0.16387700  0.30329000  0.32832200  1
  Fe  Fe46  1  0.33612300  0.19671000  0.82832200  1
  Fe  Fe47  1  0.83612300  0.30329000  0.17167800  1
  F  F48  1  0.98995900  0.19769800  0.14022000  1
  F  F49  1  0.48995900  0.30230200  0.85978000  1
  F  F50  1  0.01004100  0.19769800  0.35978000  1
  F  F51  1  0.51004100  0.30230200  0.64022000  1
  F  F52  1  0.01004100  0.80230200  0.85978000  1
  F  F53  1  0.51004100  0.69769800  0.14022000  1
  F  F54  1  0.98995900  0.80230200  0.64022000  1
  F  F55  1  0.48995900  0.69769800  0.35978000  1
  F  F56  1  0.49585000  0.90451700  0.37689500  1
  F  F57  1  0.99585000  0.59548300  0.62310500  1
  F  F58  1  0.50415000  0.90451700  0.12310500  1
  F  F59  1  0.00415000  0.59548300  0.87689500  1
  F  F60  1  0.50415000  0.09548300  0.62310500  1
  F  F61  1  0.00415000  0.40451700  0.37689500  1
  F  F62  1  0.49585000  0.09548300  0.87689500  1
  F  F63  1  0.99585000  0.40451700  0.12310500  1
  F  F64  1  0.00000000  0.50000000  0.00000000  1
  F  F65  1  0.50000000  0.00000000  0.00000000  1
  F  F66  1  0.00000000  0.50000000  0.50000000  1
  F  F67  1  0.50000000  0.00000000  0.50000000  1
  F  F68  1  0.00000000  0.32176000  0.25000000  1
  F  F69  1  0.50000000  0.17824000  0.75000000  1
  F  F70  1  0.00000000  0.67824000  0.75000000  1
  F  F71  1  0.50000000  0.82176000  0.25000000  1
  F  F72  1  0.29895900  0.20599700  0.27788300  1
  F  F73  1  0.79895900  0.29400300  0.72211700  1
  F  F74  1  0.70104100  0.20599700  0.22211700  1
  F  F75  1  0.20104100  0.29400300  0.77788300  1
  F  F76  1  0.70104100  0.79400300  0.72211700  1
  F  F77  1  0.20104100  0.70599700  0.27788300  1
  F  F78  1  0.29895900  0.79400300  0.77788300  1
  F  F79  1  0.79895900  0.70599700  0.22211700  1
  F  F80  1  0.22365400  0.87797900  0.03953400  1
  F  F81  1  0.72365400  0.62202100  0.96046600  1
  F  F82  1  0.77634600  0.87797900  0.46046600  1
  F  F83  1  0.27634600  0.62202100  0.53953400  1
  F  F84  1  0.77634600  0.12202100  0.96046600  1
  F  F85  1  0.27634600  0.37797900  0.03953400  1
  F  F86  1  0.22365400  0.12202100  0.53953400  1
  F  F87  1  0.72365400  0.37797900  0.46046600  1
  F  F88  1  0.46806300  0.11113100  0.11191600  1
  F  F89  1  0.96806300  0.38886900  0.88808400  1
  F  F90  1  0.53193700  0.11113100  0.38808400  1
  F  F91  1  0.03193700  0.38886900  0.61191600  1
  F  F92  1  0.53193700  0.88886900  0.88808400  1
  F  F93  1  0.03193700  0.61113100  0.11191600  1
  F  F94  1  0.46806300  0.88886900  0.61191600  1
  F  F95  1  0.96806300  0.61113100  0.38808400  1
  F  F96  1  0.17821600  0.99111000  0.15126100  1
  F  F97  1  0.67821600  0.50889000  0.84873900  1
  F  F98  1  0.82178400  0.99111000  0.34873900  1
  F  F99  1  0.32178400  0.50889000  0.65126100  1
  F  F100  1  0.82178400  0.00889000  0.84873900  1
  F  F101  1  0.32178400  0.49111000  0.15126100  1
  F  F102  1  0.17821600  0.00889000  0.65126100  1
  F  F103  1  0.67821600  0.49111000  0.34873900  1
  F  F104  1  0.17547300  0.91169600  0.52945300  1
  F  F105  1  0.67547300  0.58830400  0.47054700  1
  F  F106  1  0.82452700  0.91169600  0.97054700  1
  F  F107  1  0.32452700  0.58830400  0.02945300  1
  F  F108  1  0.82452700  0.08830400  0.47054700  1
  F  F109  1  0.32452700  0.41169600  0.52945300  1
  F  F110  1  0.17547300  0.08830400  0.02945300  1
  F  F111  1  0.67547300  0.41169600  0.97054700  1
  F  F112  1  0.20817700  0.92187300  0.29657000  1
  F  F113  1  0.70817700  0.57812700  0.70343000  1
  F  F114  1  0.79182300  0.92187300  0.20343000  1
  F  F115  1  0.29182300  0.57812700  0.79657000  1
  F  F116  1  0.79182300  0.07812700  0.70343000  1
  F  F117  1  0.29182300  0.42187300  0.29657000  1
  F  F118  1  0.20817700  0.07812700  0.79657000  1
  F  F119  1  0.70817700  0.42187300  0.20343000  1
  F  F120  1  0.31291000  0.29921400  0.40314400  1
  F  F121  1  0.81291000  0.20078600  0.59685600  1
  F  F122  1  0.68709000  0.29921400  0.09685600  1
  F  F123  1  0.18709000  0.20078600  0.90314400  1
  F  F124  1  0.68709000  0.70078600  0.59685600  1
  F  F125  1  0.18709000  0.79921400  0.40314400  1
  F  F126  1  0.31291000  0.70078600  0.90314400  1
  F  F127  1  0.81291000  0.79921400  0.09685600  1
