# generated using pymatgen
data_CrXeF6
_symmetry_space_group_name_H-M   'P 1'
_cell_length_a   7.43378300
_cell_length_b   8.06839400
_cell_length_c   12.91510266
_cell_angle_alpha   52.43740253
_cell_angle_beta   90.00000000
_cell_angle_gamma   90.00000000
_symmetry_Int_Tables_number   1
_chemical_formula_structural   CrXeF6
_chemical_formula_sum   'Cr4 Xe4 F24'
_cell_volume   614.04047739
_cell_formula_units_Z   4
loop_
 _symmetry_equiv_pos_site_id
 _symmetry_equiv_pos_as_xyz
  1  'x, y, z'
loop_
 _atom_site_type_symbol
 _atom_site_label
 _atom_site_symmetry_multiplicity
 _atom_site_fract_x
 _atom_site_fract_y
 _atom_site_fract_z
 _atom_site_occupancy
  Cr  Cr0  1  0.41417800  0.99284400  0.25533500  1
  Cr  Cr1  1  0.91417800  0.00715600  0.24466500  1
  Cr  Cr2  1  0.58582200  0.00715600  0.74466500  1
  Cr  Cr3  1  0.08582200  0.99284400  0.75533500  1
  Xe  Xe4  1  0.34511100  0.38415900  0.88647900  1
  Xe  Xe5  1  0.84511100  0.61584100  0.61352100  1
  Xe  Xe6  1  0.65488900  0.61584100  0.11352100  1
  Xe  Xe7  1  0.15488900  0.38415900  0.38647900  1
  F  F8  1  0.45589900  0.74355000  0.40247500  1
  F  F9  1  0.95589900  0.25645000  0.09752500  1
  F  F10  1  0.54410100  0.25645000  0.59752500  1
  F  F11  1  0.04410100  0.74355000  0.90247500  1
  F  F12  1  0.45278600  0.14802100  0.30912300  1
  F  F13  1  0.95278600  0.85197900  0.19087700  1
  F  F14  1  0.54721400  0.85197900  0.69087700  1
  F  F15  1  0.04721400  0.14802100  0.80912300  1
  F  F16  1  0.13292300  0.28817200  0.58413300  1
  F  F17  1  0.63292300  0.71182800  0.91586700  1
  F  F18  1  0.86707700  0.71182800  0.41586700  1
  F  F19  1  0.36707700  0.28817200  0.08413300  1
  F  F20  1  0.16763600  0.49244400  0.19842100  1
  F  F21  1  0.66763600  0.50755600  0.30157900  1
  F  F22  1  0.83236400  0.50755600  0.80157900  1
  F  F23  1  0.33236400  0.49244400  0.69842100  1
  F  F24  1  0.83770400  0.02998200  0.69624600  1
  F  F25  1  0.33770400  0.97001800  0.80375400  1
  F  F26  1  0.16229600  0.97001800  0.30375400  1
  F  F27  1  0.66229600  0.02998200  0.19624600  1
  F  F28  1  0.13841300  0.91717400  0.65361300  1
  F  F29  1  0.63841300  0.08282600  0.84638700  1
  F  F30  1  0.86158700  0.08282600  0.34638700  1
  F  F31  1  0.36158700  0.91717400  0.15361300  1
