# generated using pymatgen
data_Nb3GeTe6
_symmetry_space_group_name_H-M   'P 1'
_cell_length_a   6.53146300
_cell_length_b   11.70524900
_cell_length_c   14.91385500
_cell_angle_alpha   90.00000000
_cell_angle_beta   90.00000000
_cell_angle_gamma   90.00000000
_symmetry_Int_Tables_number   1
_chemical_formula_structural   Nb3GeTe6
_chemical_formula_sum   'Nb12 Ge4 Te24'
_cell_volume   1140.20001918
_cell_formula_units_Z   4
loop_
 _symmetry_equiv_pos_site_id
 _symmetry_equiv_pos_as_xyz
  1  'x, y, z'
loop_
 _atom_site_type_symbol
 _atom_site_label
 _atom_site_symmetry_multiplicity
 _atom_site_fract_x
 _atom_site_fract_y
 _atom_site_fract_z
 _atom_site_occupancy
  Nb  Nb0  1  0.69795700  0.96765800  0.75000000  1
  Nb  Nb1  1  0.19795700  0.53234200  0.75000000  1
  Nb  Nb2  1  0.80204300  0.46765800  0.25000000  1
  Nb  Nb3  1  0.30204300  0.03234200  0.25000000  1
  Nb  Nb4  1  0.96270200  0.31443600  0.75000000  1
  Nb  Nb5  1  0.46270200  0.18556400  0.75000000  1
  Nb  Nb6  1  0.53729800  0.81443600  0.25000000  1
  Nb  Nb7  1  0.03729800  0.68556400  0.25000000  1
  Nb  Nb8  1  0.82620500  0.16639900  0.25000000  1
  Nb  Nb9  1  0.32620500  0.33360100  0.25000000  1
  Nb  Nb10  1  0.67379500  0.66639900  0.75000000  1
  Nb  Nb11  1  0.17379500  0.83360100  0.75000000  1
  Ge  Ge12  1  0.92561300  0.92496400  0.25000000  1
  Ge  Ge13  1  0.42561300  0.57503600  0.25000000  1
  Ge  Ge14  1  0.57438700  0.42496400  0.75000000  1
  Ge  Ge15  1  0.07438700  0.07503600  0.75000000  1
  Te  Te16  1  0.85504700  0.81774600  0.62319100  1
  Te  Te17  1  0.35504700  0.68225400  0.87680900  1
  Te  Te18  1  0.64495300  0.31774600  0.37680900  1
  Te  Te19  1  0.14495300  0.18225400  0.12319100  1
  Te  Te20  1  0.14495300  0.18225400  0.37680900  1
  Te  Te21  1  0.64495300  0.31774600  0.12319100  1
  Te  Te22  1  0.35504700  0.68225400  0.62319100  1
  Te  Te23  1  0.85504700  0.81774600  0.87680900  1
  Te  Te24  1  0.78318100  0.15958300  0.62384300  1
  Te  Te25  1  0.28318100  0.34041700  0.87615700  1
  Te  Te26  1  0.71681900  0.65958300  0.37615700  1
  Te  Te27  1  0.21681900  0.84041700  0.12384300  1
  Te  Te28  1  0.21681900  0.84041700  0.37615700  1
  Te  Te29  1  0.71681900  0.65958300  0.12384300  1
  Te  Te30  1  0.28318100  0.34041700  0.62384300  1
  Te  Te31  1  0.78318100  0.15958300  0.87615700  1
  Te  Te32  1  0.36567900  0.99301800  0.62705500  1
  Te  Te33  1  0.86567900  0.50698200  0.87294500  1
  Te  Te34  1  0.13432100  0.49301800  0.37294500  1
  Te  Te35  1  0.63432100  0.00698200  0.12705500  1
  Te  Te36  1  0.63432100  0.00698200  0.37294500  1
  Te  Te37  1  0.13432100  0.49301800  0.12705500  1
  Te  Te38  1  0.86567900  0.50698200  0.62705500  1
  Te  Te39  1  0.36567900  0.99301800  0.87294500  1
