# generated using pymatgen
data_CeMgAg
_symmetry_space_group_name_H-M   'P 1'
_cell_length_a   7.88576987
_cell_length_b   7.88576987
_cell_length_c   4.36336700
_cell_angle_alpha   90.00000000
_cell_angle_beta   90.00000000
_cell_angle_gamma   119.99999892
_symmetry_Int_Tables_number   1
_chemical_formula_structural   CeMgAg
_chemical_formula_sum   'Ce3 Mg3 Ag3'
_cell_volume   234.98523630
_cell_formula_units_Z   3
loop_
 _symmetry_equiv_pos_site_id
 _symmetry_equiv_pos_as_xyz
  1  'x, y, z'
loop_
 _atom_site_type_symbol
 _atom_site_label
 _atom_site_symmetry_multiplicity
 _atom_site_fract_x
 _atom_site_fract_y
 _atom_site_fract_z
 _atom_site_occupancy
  Ce  Ce0  1  0.41599900  0.00000000  0.50000000  1
  Ce  Ce1  1  0.00000000  0.41599900  0.50000000  1
  Ce  Ce2  1  0.58400100  0.58400100  0.50000000  1
  Mg  Mg3  1  0.76005200  0.00000000  0.00000000  1
  Mg  Mg4  1  0.00000000  0.76005200  0.00000000  1
  Mg  Mg5  1  0.23994800  0.23994800  0.00000000  1
  Ag  Ag6  1  0.33333300  0.66666700  0.00000000  1
  Ag  Ag7  1  0.66666700  0.33333300  0.00000000  1
  Ag  Ag8  1  0.00000000  0.00000000  0.50000000  1
