# generated using pymatgen
data_Ga3Bi5Cl12
_symmetry_space_group_name_H-M   'P 1'
_cell_length_a   12.44358772
_cell_length_b   12.44358772
_cell_length_c   12.44358736
_cell_angle_alpha   58.12840624
_cell_angle_beta   58.12840624
_cell_angle_gamma   58.12840927
_symmetry_Int_Tables_number   1
_chemical_formula_structural   Ga3Bi5Cl12
_chemical_formula_sum   'Ga6 Bi10 Cl24'
_cell_volume   1304.00147670
_cell_formula_units_Z   2
loop_
 _symmetry_equiv_pos_site_id
 _symmetry_equiv_pos_as_xyz
  1  'x, y, z'
loop_
 _atom_site_type_symbol
 _atom_site_label
 _atom_site_symmetry_multiplicity
 _atom_site_fract_x
 _atom_site_fract_y
 _atom_site_fract_z
 _atom_site_occupancy
  Ga  Ga0  1  0.25000000  0.77098800  0.72901200  1
  Ga  Ga1  1  0.72901200  0.25000000  0.77098800  1
  Ga  Ga2  1  0.77098800  0.72901200  0.25000000  1
  Ga  Ga3  1  0.75000000  0.22901200  0.27098800  1
  Ga  Ga4  1  0.27098800  0.75000000  0.22901200  1
  Ga  Ga5  1  0.22901200  0.27098800  0.75000000  1
  Bi  Bi6  1  0.32792100  0.32792100  0.32792100  1
  Bi  Bi7  1  0.17207900  0.17207900  0.17207900  1
  Bi  Bi8  1  0.67207900  0.67207900  0.67207900  1
  Bi  Bi9  1  0.82792100  0.82792100  0.82792100  1
  Bi  Bi10  1  0.25000000  0.40693200  0.09306800  1
  Bi  Bi11  1  0.09306800  0.25000000  0.40693200  1
  Bi  Bi12  1  0.40693200  0.09306800  0.25000000  1
  Bi  Bi13  1  0.75000000  0.59306800  0.90693200  1
  Bi  Bi14  1  0.90693200  0.75000000  0.59306800  1
  Bi  Bi15  1  0.59306800  0.90693200  0.75000000  1
  Cl  Cl16  1  0.07366800  0.95525200  0.69263500  1
  Cl  Cl17  1  0.69263500  0.07366800  0.95525200  1
  Cl  Cl18  1  0.95525200  0.69263500  0.07366800  1
  Cl  Cl19  1  0.42633200  0.80736500  0.54474800  1
  Cl  Cl20  1  0.54474800  0.42633200  0.80736500  1
  Cl  Cl21  1  0.80736500  0.54474800  0.42633200  1
  Cl  Cl22  1  0.92633200  0.04474800  0.30736500  1
  Cl  Cl23  1  0.30736500  0.92633200  0.04474800  1
  Cl  Cl24  1  0.04474800  0.30736500  0.92633200  1
  Cl  Cl25  1  0.57366800  0.19263500  0.45525200  1
  Cl  Cl26  1  0.45525200  0.57366800  0.19263500  1
  Cl  Cl27  1  0.19263500  0.45525200  0.57366800  1
  Cl  Cl28  1  0.30190400  0.72534000  0.89581400  1
  Cl  Cl29  1  0.89581400  0.30190400  0.72534000  1
  Cl  Cl30  1  0.72534000  0.89581400  0.30190400  1
  Cl  Cl31  1  0.19809600  0.60418600  0.77466000  1
  Cl  Cl32  1  0.39581400  0.22534000  0.80190400  1
  Cl  Cl33  1  0.22534000  0.80190400  0.39581400  1
  Cl  Cl34  1  0.80190400  0.39581400  0.22534000  1
  Cl  Cl35  1  0.27466000  0.10418600  0.69809600  1
  Cl  Cl36  1  0.10418600  0.69809600  0.27466000  1
  Cl  Cl37  1  0.69809600  0.27466000  0.10418600  1
  Cl  Cl38  1  0.60418600  0.77466000  0.19809600  1
  Cl  Cl39  1  0.77466000  0.19809600  0.60418600  1
