# generated using pymatgen
data_Ta3TeI7
_symmetry_space_group_name_H-M   'P 1'
_cell_length_a   7.68760146
_cell_length_b   7.68760146
_cell_length_c   15.07368300
_cell_angle_alpha   90.00000000
_cell_angle_beta   90.00000000
_cell_angle_gamma   119.99999533
_symmetry_Int_Tables_number   1
_chemical_formula_structural   Ta3TeI7
_chemical_formula_sum   'Ta6 Te2 I14'
_cell_volume   771.49257528
_cell_formula_units_Z   2
loop_
 _symmetry_equiv_pos_site_id
 _symmetry_equiv_pos_as_xyz
  1  'x, y, z'
loop_
 _atom_site_type_symbol
 _atom_site_label
 _atom_site_symmetry_multiplicity
 _atom_site_fract_x
 _atom_site_fract_y
 _atom_site_fract_z
 _atom_site_occupancy
  Ta  Ta0  1  0.13068100  0.86931900  0.75051100  1
  Ta  Ta1  1  0.26136200  0.13068100  0.25051100  1
  Ta  Ta2  1  0.86931900  0.73863800  0.25051100  1
  Ta  Ta3  1  0.13068100  0.26136200  0.75051100  1
  Ta  Ta4  1  0.73863800  0.86931900  0.75051100  1
  Ta  Ta5  1  0.86931900  0.13068100  0.25051100  1
  Te  Te6  1  0.00000000  0.00000000  0.89084800  1
  Te  Te7  1  0.00000000  0.00000000  0.39084800  1
  I  I8  1  0.49849700  0.99699500  0.35113500  1
  I  I9  1  0.50150300  0.00300500  0.85113500  1
  I  I10  1  0.99699500  0.49849700  0.85113500  1
  I  I11  1  0.49849700  0.50150300  0.35113500  1
  I  I12  1  0.00300500  0.50150300  0.35113500  1
  I  I13  1  0.50150300  0.49849700  0.85113500  1
  I  I14  1  0.33333300  0.66666700  0.65409900  1
  I  I15  1  0.66666700  0.33333300  0.15409900  1
  I  I16  1  0.83277700  0.16722300  0.62627100  1
  I  I17  1  0.66555400  0.83277700  0.12627200  1
  I  I18  1  0.16722300  0.33444600  0.12627200  1
  I  I19  1  0.83277700  0.66555400  0.62627100  1
  I  I20  1  0.33444600  0.16722300  0.62627100  1
  I  I21  1  0.16722300  0.83277700  0.12627200  1
