# generated using pymatgen
data_Si2NiP3
_symmetry_space_group_name_H-M   'P 1'
_cell_length_a   6.42586248
_cell_length_b   6.42586248
_cell_length_c   6.42586248
_cell_angle_alpha   148.23367625
_cell_angle_beta   131.01941532
_cell_angle_gamma   59.56789368
_symmetry_Int_Tables_number   1
_chemical_formula_structural   Si2NiP3
_chemical_formula_sum   'Si2 Ni1 P3'
_cell_volume   104.50314730
_cell_formula_units_Z   1
loop_
 _symmetry_equiv_pos_site_id
 _symmetry_equiv_pos_as_xyz
  1  'x, y, z'
loop_
 _atom_site_type_symbol
 _atom_site_label
 _atom_site_symmetry_multiplicity
 _atom_site_fract_x
 _atom_site_fract_y
 _atom_site_fract_z
 _atom_site_occupancy
  Si  Si0  1  0.59236800  0.83479300  0.75757400  1
  Si  Si1  1  0.92278100  0.16520700  0.75757400  1
  Ni  Ni2  1  0.24764800  0.50000000  0.74764800  1
  P  P3  1  0.00382000  0.00000000  0.00382000  1
  P  P4  1  0.32629600  0.33790500  0.98839200  1
  P  P5  1  0.65048700  0.66209500  0.98839200  1
