# generated using pymatgen
data_Ca14Si19
_symmetry_space_group_name_H-M   'P 1'
_cell_length_a   23.39807236
_cell_length_b   23.39807236
_cell_length_c   23.39807259
_cell_angle_alpha   21.35739418
_cell_angle_beta   21.35739418
_cell_angle_gamma   21.35739258
_symmetry_Int_Tables_number   1
_chemical_formula_structural   Ca14Si19
_chemical_formula_sum   'Ca28 Si38'
_cell_volume   1488.37162365
_cell_formula_units_Z   2
loop_
 _symmetry_equiv_pos_site_id
 _symmetry_equiv_pos_as_xyz
  1  'x, y, z'
loop_
 _atom_site_type_symbol
 _atom_site_label
 _atom_site_symmetry_multiplicity
 _atom_site_fract_x
 _atom_site_fract_y
 _atom_site_fract_z
 _atom_site_occupancy
  Ca  Ca0  1  0.94249800  0.19084900  0.42779500  1
  Ca  Ca1  1  0.42779500  0.94249800  0.19084900  1
  Ca  Ca2  1  0.19084900  0.42779500  0.94249800  1
  Ca  Ca3  1  0.55750200  0.07220500  0.30915100  1
  Ca  Ca4  1  0.30915100  0.55750200  0.07220500  1
  Ca  Ca5  1  0.07220500  0.30915100  0.55750200  1
  Ca  Ca6  1  0.05750200  0.80915100  0.57220500  1
  Ca  Ca7  1  0.57220500  0.05750200  0.80915100  1
  Ca  Ca8  1  0.80915100  0.57220500  0.05750200  1
  Ca  Ca9  1  0.44249800  0.92779500  0.69084900  1
  Ca  Ca10  1  0.69084900  0.44249800  0.92779500  1
  Ca  Ca11  1  0.92779500  0.69084900  0.44249800  1
  Ca  Ca12  1  0.25000000  0.49961200  0.00038800  1
  Ca  Ca13  1  0.00038800  0.25000000  0.49961200  1
  Ca  Ca14  1  0.49961200  0.00038800  0.25000000  1
  Ca  Ca15  1  0.75000000  0.50038800  0.99961200  1
  Ca  Ca16  1  0.99961200  0.75000000  0.50038800  1
  Ca  Ca17  1  0.50038800  0.99961200  0.75000000  1
  Ca  Ca18  1  0.10996700  0.10996700  0.10996700  1
  Ca  Ca19  1  0.39003300  0.39003300  0.39003300  1
  Ca  Ca20  1  0.89003300  0.89003300  0.89003300  1
  Ca  Ca21  1  0.60996700  0.60996700  0.60996700  1
  Ca  Ca22  1  0.05479900  0.05479900  0.05479900  1
  Ca  Ca23  1  0.44520100  0.44520100  0.44520100  1
  Ca  Ca24  1  0.94520100  0.94520100  0.94520100  1
  Ca  Ca25  1  0.55479900  0.55479900  0.55479900  1
  Ca  Ca26  1  0.00000000  0.00000000  0.00000000  1
  Ca  Ca27  1  0.50000000  0.50000000  0.50000000  1
  Si  Si28  1  0.98965700  0.43900800  0.73106800  1
  Si  Si29  1  0.73106800  0.98965700  0.43900800  1
  Si  Si30  1  0.43900800  0.73106800  0.98965700  1
  Si  Si31  1  0.51034300  0.76893200  0.06099200  1
  Si  Si32  1  0.06099200  0.51034300  0.76893200  1
  Si  Si33  1  0.76893200  0.06099200  0.51034300  1
  Si  Si34  1  0.01034300  0.56099200  0.26893200  1
  Si  Si35  1  0.26893200  0.01034300  0.56099200  1
  Si  Si36  1  0.56099200  0.26893200  0.01034300  1
  Si  Si37  1  0.48965700  0.23106800  0.93900800  1
  Si  Si38  1  0.93900800  0.48965700  0.23106800  1
  Si  Si39  1  0.23106800  0.93900800  0.48965700  1
  Si  Si40  1  0.83191300  0.21481000  0.38070400  1
  Si  Si41  1  0.38070400  0.83191300  0.21481000  1
  Si  Si42  1  0.21481000  0.38070400  0.83191300  1
  Si  Si43  1  0.66808700  0.11929600  0.28519000  1
  Si  Si44  1  0.28519000  0.66808700  0.11929600  1
  Si  Si45  1  0.11929600  0.28519000  0.66808700  1
  Si  Si46  1  0.16808700  0.78519000  0.61929600  1
  Si  Si47  1  0.61929600  0.16808700  0.78519000  1
  Si  Si48  1  0.78519000  0.61929600  0.16808700  1
  Si  Si49  1  0.33191300  0.88070400  0.71481000  1
  Si  Si50  1  0.71481000  0.33191300  0.88070400  1
  Si  Si51  1  0.88070400  0.71481000  0.33191300  1
  Si  Si52  1  0.25000000  0.83389600  0.66610400  1
  Si  Si53  1  0.66610400  0.25000000  0.83389600  1
  Si  Si54  1  0.83389600  0.66610400  0.25000000  1
  Si  Si55  1  0.75000000  0.16610400  0.33389600  1
  Si  Si56  1  0.65297700  0.65297700  0.65297700  1
  Si  Si57  1  0.84702300  0.84702300  0.84702300  1
  Si  Si58  1  0.34702300  0.34702300  0.34702300  1
  Si  Si59  1  0.15297700  0.15297700  0.15297700  1
  Si  Si60  1  0.71903000  0.71903000  0.71903000  1
  Si  Si61  1  0.78097000  0.78097000  0.78097000  1
  Si  Si62  1  0.28097000  0.28097000  0.28097000  1
  Si  Si63  1  0.21903000  0.21903000  0.21903000  1
  Si  Si64  1  0.16610400  0.33389600  0.75000000  1
  Si  Si65  1  0.33389600  0.75000000  0.16610400  1
