# generated using pymatgen
data_Co10Ge3O16
_symmetry_space_group_name_H-M   'P 1'
_cell_length_a   10.33178773
_cell_length_b   10.33178775
_cell_length_c   10.33178819
_cell_angle_alpha   33.87203511
_cell_angle_beta   33.87203376
_cell_angle_gamma   33.87203574
_symmetry_Int_Tables_number   1
_chemical_formula_structural   Co10Ge3O16
_chemical_formula_sum   'Co10 Ge3 O16'
_cell_volume   305.30606045
_cell_formula_units_Z   1
loop_
 _symmetry_equiv_pos_site_id
 _symmetry_equiv_pos_as_xyz
  1  'x, y, z'
loop_
 _atom_site_type_symbol
 _atom_site_label
 _atom_site_symmetry_multiplicity
 _atom_site_fract_x
 _atom_site_fract_y
 _atom_site_fract_z
 _atom_site_occupancy
  Co  Co0  1  0.75111900  0.75111800  0.24098600  1
  Co  Co1  1  0.75111800  0.24098700  0.75111800  1
  Co  Co2  1  0.24098700  0.75111800  0.75111900  1
  Co  Co3  1  0.75901400  0.24888100  0.24888200  1
  Co  Co4  1  0.24888100  0.24888100  0.75901500  1
  Co  Co5  1  0.24888200  0.75901300  0.24888200  1
  Co  Co6  1  0.50000000  0.49999900  0.50000000  1
  Co  Co7  1  0.00000000  0.50000000  0.50000000  1
  Co  Co8  1  0.50000000  0.50000000  0.00000100  1
  Co  Co9  1  0.49999900  0.00000100  0.50000000  1
  Ge  Ge10  1  0.81079200  0.81079300  0.81079300  1
  Ge  Ge11  1  0.18920800  0.18920700  0.18920700  1
  Ge  Ge12  1  0.00000000  0.00000000  0.00000000  1
  O  O13  1  0.37249800  0.87851700  0.37249900  1
  O  O14  1  0.87851600  0.37249900  0.37249900  1
  O  O15  1  0.37249800  0.37249900  0.87851700  1
  O  O16  1  0.62750200  0.12148300  0.62750100  1
  O  O17  1  0.12148400  0.62750200  0.62750100  1
  O  O18  1  0.62750200  0.62750200  0.12148300  1
  O  O19  1  0.66209700  0.11190200  0.11190400  1
  O  O20  1  0.11190300  0.11190200  0.66209800  1
  O  O21  1  0.11190400  0.66209700  0.11190300  1
  O  O22  1  0.88809700  0.88809700  0.33790300  1
  O  O23  1  0.88809700  0.33790200  0.88809800  1
  O  O24  1  0.33790200  0.88809700  0.88809800  1
  O  O25  1  0.62333600  0.62333700  0.62333800  1
  O  O26  1  0.12686200  0.12686200  0.12686100  1
  O  O27  1  0.37666200  0.37666400  0.37666400  1
  O  O28  1  0.87313800  0.87313800  0.87313800  1
