# generated using pymatgen
data_P2S3
_symmetry_space_group_name_H-M   'P 1'
_cell_length_a   13.20373100
_cell_length_b   7.53594300
_cell_length_c   12.35091302
_cell_angle_alpha   78.78224931
_cell_angle_beta   90.00000000
_cell_angle_gamma   90.00000000
_symmetry_Int_Tables_number   1
_chemical_formula_structural   P2S3
_chemical_formula_sum   'P16 S24'
_cell_volume   1205.46839119
_cell_formula_units_Z   8
loop_
 _symmetry_equiv_pos_site_id
 _symmetry_equiv_pos_as_xyz
  1  'x, y, z'
loop_
 _atom_site_type_symbol
 _atom_site_label
 _atom_site_symmetry_multiplicity
 _atom_site_fract_x
 _atom_site_fract_y
 _atom_site_fract_z
 _atom_site_occupancy
  P  P0  1  0.91628300  0.72018600  0.16626700  1
  P  P1  1  0.41628300  0.27981400  0.33373300  1
  P  P2  1  0.08371700  0.27981400  0.83373300  1
  P  P3  1  0.58371700  0.72018600  0.66626700  1
  P  P4  1  0.93700600  0.74657300  0.43009700  1
  P  P5  1  0.43700600  0.25342700  0.06990300  1
  P  P6  1  0.06299400  0.25342700  0.56990300  1
  P  P7  1  0.56299400  0.74657300  0.93009700  1
  P  P8  1  0.09577000  0.77637100  0.34337500  1
  P  P9  1  0.59577000  0.22362900  0.15662500  1
  P  P10  1  0.90423000  0.22362900  0.65662500  1
  P  P11  1  0.40423000  0.77637100  0.84337500  1
  P  P12  1  0.95148200  0.14594100  0.24717500  1
  P  P13  1  0.45148200  0.85405900  0.25282500  1
  P  P14  1  0.04851800  0.85405900  0.75282500  1
  P  P15  1  0.54851800  0.14594100  0.74717500  1
  S  S16  1  0.89515000  0.00163300  0.12301600  1
  S  S17  1  0.39515000  0.99836700  0.37698400  1
  S  S18  1  0.10485000  0.99836700  0.87698400  1
  S  S19  1  0.60485000  0.00163300  0.62301600  1
  S  S20  1  0.85117600  0.61654200  0.32284100  1
  S  S21  1  0.35117600  0.38345800  0.17715900  1
  S  S22  1  0.14882400  0.38345800  0.67715900  1
  S  S23  1  0.64882400  0.61654200  0.82284100  1
  S  S24  1  0.07066600  0.65847600  0.20269200  1
  S  S25  1  0.57066600  0.34152400  0.29730800  1
  S  S26  1  0.92933400  0.34152400  0.79730800  1
  S  S27  1  0.42933400  0.65847600  0.70269200  1
  S  S28  1  0.86176100  0.61418200  0.04881100  1
  S  S29  1  0.36176100  0.38581800  0.45118900  1
  S  S30  1  0.13823900  0.38581800  0.95118900  1
  S  S31  1  0.63823900  0.61418200  0.54881100  1
  S  S32  1  0.88379900  0.01878800  0.39768100  1
  S  S33  1  0.38379900  0.98121200  0.10231900  1
  S  S34  1  0.11620100  0.98121200  0.60231900  1
  S  S35  1  0.61620100  0.01878800  0.89768100  1
  S  S36  1  0.10244600  0.05926600  0.28117200  1
  S  S37  1  0.60244600  0.94073400  0.21882800  1
  S  S38  1  0.89755400  0.94073400  0.71882800  1
  S  S39  1  0.39755400  0.05926600  0.78117200  1
