# generated using pymatgen
data_Se2NCl5
_symmetry_space_group_name_H-M   'P 1'
_cell_length_a   13.12153000
_cell_length_b   8.79374300
_cell_length_c   18.44343761
_cell_angle_alpha   67.01148477
_cell_angle_beta   90.00000000
_cell_angle_gamma   90.00000000
_symmetry_Int_Tables_number   1
_chemical_formula_structural   Se2NCl5
_chemical_formula_sum   'Se16 N8 Cl40'
_cell_volume   1959.12949012
_cell_formula_units_Z   8
loop_
 _symmetry_equiv_pos_site_id
 _symmetry_equiv_pos_as_xyz
  1  'x, y, z'
loop_
 _atom_site_type_symbol
 _atom_site_label
 _atom_site_symmetry_multiplicity
 _atom_site_fract_x
 _atom_site_fract_y
 _atom_site_fract_z
 _atom_site_occupancy
  Se  Se0  1  0.75412600  0.45540100  0.45962700  1
  Se  Se1  1  0.25412600  0.54459900  0.04037300  1
  Se  Se2  1  0.24587400  0.54459900  0.54037300  1
  Se  Se3  1  0.74587400  0.45540100  0.95962700  1
  Se  Se4  1  0.88349700  0.59893400  0.55365800  1
  Se  Se5  1  0.38349700  0.40106600  0.94634200  1
  Se  Se6  1  0.11650300  0.40106600  0.44634200  1
  Se  Se7  1  0.61650300  0.59893400  0.05365800  1
  Se  Se8  1  0.03723500  0.75461600  0.18990200  1
  Se  Se9  1  0.53723500  0.24538400  0.31009800  1
  Se  Se10  1  0.96276500  0.24538400  0.81009800  1
  Se  Se11  1  0.46276500  0.75461600  0.68990200  1
  Se  Se12  1  0.91857700  0.89337300  0.28978700  1
  Se  Se13  1  0.41857700  0.10662700  0.21021300  1
  Se  Se14  1  0.08142300  0.10662700  0.71021300  1
  Se  Se15  1  0.58142300  0.89337300  0.78978700  1
  N  N16  1  0.78553100  0.63237800  0.48097400  1
  N  N17  1  0.28553100  0.36762200  0.01902600  1
  N  N18  1  0.21446900  0.36762200  0.51902600  1
  N  N19  1  0.71446900  0.63237800  0.98097400  1
  N  N20  1  0.01359900  0.92861400  0.21499700  1
  N  N21  1  0.51359900  0.07138600  0.28500300  1
  N  N22  1  0.98640100  0.07138600  0.78500300  1
  N  N23  1  0.48640100  0.92861400  0.71499700  1
  Cl  Cl24  1  0.92598300  0.78085900  0.09493400  1
  Cl  Cl25  1  0.09010000  0.42735500  0.69152000  1
  Cl  Cl26  1  0.40990000  0.42735500  0.19152000  1
  Cl  Cl27  1  0.90990000  0.57264500  0.30848000  1
  Cl  Cl28  1  0.72877100  0.94623500  0.72556000  1
  Cl  Cl29  1  0.22877100  0.05376500  0.77444000  1
  Cl  Cl30  1  0.27122900  0.05376500  0.27444000  1
  Cl  Cl31  1  0.77122900  0.94623500  0.22556000  1
  Cl  Cl32  1  0.79788800  0.48973700  0.66942700  1
  Cl  Cl33  1  0.05677300  0.85417400  0.71053700  1
  Cl  Cl34  1  0.44322700  0.85417400  0.21053700  1
  Cl  Cl35  1  0.94322700  0.14582600  0.28946300  1
  Cl  Cl36  1  0.57401700  0.78085900  0.59493400  1
  Cl  Cl37  1  0.07401700  0.21914100  0.90506600  1
  Cl  Cl38  1  0.42598300  0.21914100  0.40506600  1
  Cl  Cl39  1  0.59010000  0.57264500  0.80848000  1
  Cl  Cl40  1  0.33164300  0.88383300  0.61244400  1
  Cl  Cl41  1  0.83164300  0.11616700  0.88755600  1
  Cl  Cl42  1  0.66835700  0.11616700  0.38755600  1
  Cl  Cl43  1  0.16835700  0.88383300  0.11244400  1
  Cl  Cl44  1  0.86393100  0.59439800  0.87210400  1
  Cl  Cl45  1  0.36393100  0.40560200  0.62789600  1
  Cl  Cl46  1  0.13606900  0.40560200  0.12789600  1
  Cl  Cl47  1  0.63606900  0.59439800  0.37210400  1
  Cl  Cl48  1  0.64577400  0.31039700  0.55367000  1
  Cl  Cl49  1  0.14577400  0.68960300  0.94633000  1
  Cl  Cl50  1  0.35422600  0.68960300  0.44633000  1
  Cl  Cl51  1  0.85422600  0.31039700  0.05367000  1
  Cl  Cl52  1  0.87408500  0.86297700  0.53995400  1
  Cl  Cl53  1  0.37408500  0.13702300  0.96004600  1
  Cl  Cl54  1  0.12591500  0.13702300  0.46004600  1
  Cl  Cl55  1  0.62591500  0.86297700  0.03995400  1
  Cl  Cl56  1  0.58192900  0.29717900  0.05292500  1
  Cl  Cl57  1  0.08192900  0.70282100  0.44707500  1
  Cl  Cl58  1  0.41807100  0.70282100  0.94707500  1
  Cl  Cl59  1  0.91807100  0.29717900  0.55292500  1
  Cl  Cl60  1  0.70211200  0.48973700  0.16942700  1
  Cl  Cl61  1  0.20211200  0.51026300  0.33057300  1
  Cl  Cl62  1  0.29788800  0.51026300  0.83057300  1
  Cl  Cl63  1  0.55677300  0.14582600  0.78946300  1
