# generated using pymatgen
data_CeSe2
_symmetry_space_group_name_H-M   'P 1'
_cell_length_a   8.48180012
_cell_length_b   23.32283046
_cell_length_c   29.45934012
_cell_angle_alpha   105.64998776
_cell_angle_beta   90.00000000
_cell_angle_gamma   90.00000000
_symmetry_Int_Tables_number   1
_chemical_formula_structural   CeSe2
_chemical_formula_sum   'Ce24 Se48'
_cell_volume   5611.58996474
_cell_formula_units_Z   24
loop_
 _symmetry_equiv_pos_site_id
 _symmetry_equiv_pos_as_xyz
  1  'x, y, z'
loop_
 _atom_site_type_symbol
 _atom_site_label
 _atom_site_symmetry_multiplicity
 _atom_site_fract_x
 _atom_site_fract_y
 _atom_site_fract_z
 _atom_site_occupancy
  Ce  Ce0  1  0.26881003  0.30684869  0.82977889  1
  Ce  Ce1  1  0.76881003  0.69315131  0.67022111  1
  Ce  Ce2  1  0.73118997  0.69315131  0.17022111  1
  Ce  Ce3  1  0.23118997  0.30684869  0.32977889  1
  Ce  Ce4  1  0.69871504  0.27050901  0.09234397  1
  Ce  Ce5  1  0.19871504  0.72949099  0.40765603  1
  Ce  Ce6  1  0.30128496  0.72949099  0.90765603  1
  Ce  Ce7  1  0.80128496  0.27050901  0.59234397  1
  Ce  Ce8  1  0.85406280  0.00953865  0.80780271  1
  Ce  Ce9  1  0.35406280  0.99046135  0.69219729  1
  Ce  Ce10  1  0.14593720  0.99046135  0.19219729  1
  Ce  Ce11  1  0.64593720  0.00953865  0.30780271  1
  Ce  Ce12  1  0.77343036  0.81142577  0.84936068  1
  Ce  Ce13  1  0.27343036  0.18857423  0.65063932  1
  Ce  Ce14  1  0.22656964  0.18857423  0.15063932  1
  Ce  Ce15  1  0.72656964  0.81142577  0.34936068  1
  Ce  Ce16  1  0.78006778  0.23188915  0.90548679  1
  Ce  Ce17  1  0.28006778  0.76811085  0.59451321  1
  Ce  Ce18  1  0.21993222  0.76811085  0.09451321  1
  Ce  Ce19  1  0.71993222  0.23188915  0.40548679  1
  Ce  Ce20  1  0.55327346  0.49210364  0.19907834  1
  Ce  Ce21  1  0.05327346  0.50789636  0.30092166  1
  Ce  Ce22  1  0.44672654  0.50789636  0.80092166  1
  Ce  Ce23  1  0.94672654  0.49210364  0.69907834  1
  Se  Se24  1  0.87477831  0.11688145  0.87295825  1
  Se  Se25  1  0.37477831  0.88311855  0.62704175  1
  Se  Se26  1  0.12522169  0.88311855  0.12704175  1
  Se  Se27  1  0.62522169  0.11688145  0.37295825  1
  Se  Se28  1  0.01781155  0.29819455  0.88454065  1
  Se  Se29  1  0.51781155  0.70180545  0.61545935  1
  Se  Se30  1  0.98218845  0.70180545  0.11545935  1
  Se  Se31  1  0.48218845  0.29819455  0.38454065  1
  Se  Se32  1  0.64271703  0.38556956  0.14078275  1
  Se  Se33  1  0.14271703  0.61443044  0.35921725  1
  Se  Se34  1  0.35728297  0.61443044  0.85921725  1
  Se  Se35  1  0.85728297  0.38556956  0.64078275  1
  Se  Se36  1  0.24029596  0.49529521  0.22380311  1
  Se  Se37  1  0.74029596  0.50470479  0.27619689  1
  Se  Se38  1  0.75970404  0.50470479  0.77619689  1
  Se  Se39  1  0.25970404  0.49529521  0.72380311  1
  Se  Se40  1  0.79234342  0.93054353  0.85899549  1
  Se  Se41  1  0.29234342  0.06945647  0.64100451  1
  Se  Se42  1  0.20765658  0.06945647  0.14100451  1
  Se  Se43  1  0.70765658  0.93054353  0.35899549  1
  Se  Se44  1  0.77451441  0.26012186  0.00111724  1
  Se  Se45  1  0.27451441  0.73987814  0.49888276  1
  Se  Se46  1  0.22548559  0.73987814  0.99888276  1
  Se  Se47  1  0.72548559  0.26012186  0.50111724  1
  Se  Se48  1  0.57372450  0.79233579  0.91596311  1
  Se  Se49  1  0.07372450  0.20766421  0.58403689  1
  Se  Se50  1  0.42627550  0.20766421  0.08403689  1
  Se  Se51  1  0.92627550  0.79233579  0.41596311  1
  Se  Se52  1  0.61497990  0.01657491  0.74811286  1
  Se  Se53  1  0.11497990  0.98342509  0.75188714  1
  Se  Se54  1  0.38502010  0.98342509  0.25188714  1
  Se  Se55  1  0.88502010  0.01657491  0.24811286  1
  Se  Se56  1  0.50798869  0.25289135  0.86342428  1
  Se  Se57  1  0.00798869  0.74710865  0.63657572  1
  Se  Se58  1  0.49201131  0.74710865  0.13657572  1
  Se  Se59  1  0.99201131  0.25289135  0.36342428  1
  Se  Se60  1  0.36008976  0.42249123  0.84369222  1
  Se  Se61  1  0.86008976  0.57750877  0.65630778  1
  Se  Se62  1  0.63991024  0.57750877  0.15630778  1
  Se  Se63  1  0.13991024  0.42249123  0.34369222  1
  Se  Se64  1  0.06472970  0.77184769  0.86346286  1
  Se  Se65  1  0.56472970  0.22815231  0.63653714  1
  Se  Se66  1  0.93527030  0.22815231  0.13653714  1
  Se  Se67  1  0.43527030  0.77184769  0.36346286  1
  Se  Se68  1  0.18628672  0.25026211  0.73914161  1
  Se  Se69  1  0.68628672  0.74973789  0.76085839  1
  Se  Se70  1  0.81371328  0.74973789  0.26085839  1
  Se  Se71  1  0.31371328  0.25026211  0.23914161  1
