# generated using pymatgen
data_Cd2P3Cl
_symmetry_space_group_name_H-M   'P 1'
_cell_length_a   6.11639198
_cell_length_b   6.11639198
_cell_length_c   7.66724285
_cell_angle_alpha   83.07993756
_cell_angle_beta   83.07993756
_cell_angle_gamma   96.79401101
_symmetry_Int_Tables_number   1
_chemical_formula_structural   Cd2P3Cl
_chemical_formula_sum   'Cd4 P6 Cl2'
_cell_volume   280.09071814
_cell_formula_units_Z   2
loop_
 _symmetry_equiv_pos_site_id
 _symmetry_equiv_pos_as_xyz
  1  'x, y, z'
loop_
 _atom_site_type_symbol
 _atom_site_label
 _atom_site_symmetry_multiplicity
 _atom_site_fract_x
 _atom_site_fract_y
 _atom_site_fract_z
 _atom_site_occupancy
  Cd  Cd0  1  0.66733200  0.35988000  0.56723200  1
  Cd  Cd1  1  0.35988000  0.66733200  0.06723200  1
  Cd  Cd2  1  0.14927500  0.84213100  0.49951700  1
  Cd  Cd3  1  0.84213100  0.14927500  0.99951700  1
  P  P4  1  0.94964800  0.55993100  0.03286600  1
  P  P5  1  0.55993100  0.94964800  0.53286600  1
  P  P6  1  0.68493300  0.59447200  0.24725200  1
  P  P7  1  0.59447200  0.68493300  0.74725200  1
  P  P8  1  0.82445400  0.91481100  0.31849600  1
  P  P9  1  0.91481100  0.82445400  0.81849600  1
  Cl  Cl10  1  0.11945900  0.39167200  0.52663700  1
  Cl  Cl11  1  0.39167200  0.11945900  0.02663700  1
