# generated using pymatgen
data_BaTbO3
_symmetry_space_group_name_H-M   'P 1'
_cell_length_a   6.28436240
_cell_length_b   6.28436240
_cell_length_c   6.28436240
_cell_angle_alpha   120.57980094
_cell_angle_beta   120.57980094
_cell_angle_gamma   88.99865509
_symmetry_Int_Tables_number   1
_chemical_formula_structural   BaTbO3
_chemical_formula_sum   'Ba2 Tb2 O6'
_cell_volume   173.92978074
_cell_formula_units_Z   2
loop_
 _symmetry_equiv_pos_site_id
 _symmetry_equiv_pos_as_xyz
  1  'x, y, z'
loop_
 _atom_site_type_symbol
 _atom_site_label
 _atom_site_symmetry_multiplicity
 _atom_site_fract_x
 _atom_site_fract_y
 _atom_site_fract_z
 _atom_site_occupancy
  Ba  Ba0  1  0.75000000  0.25000000  0.50000000  1
  Ba  Ba1  1  0.25000000  0.75000000  0.50000000  1
  Tb  Tb2  1  0.50000000  0.50000000  0.00000000  1
  Tb  Tb3  1  0.00000000  0.00000000  0.00000000  1
  O  O4  1  0.69127200  0.19127200  0.88254500  1
  O  O5  1  0.19127200  0.30872800  0.50000000  1
  O  O6  1  0.80872800  0.69127200  0.50000000  1
  O  O7  1  0.30872800  0.80872800  0.11745500  1
  O  O8  1  0.75000000  0.75000000  0.00000000  1
  O  O9  1  0.25000000  0.25000000  0.00000000  1
