# generated using pymatgen
data_V3Sb2
_symmetry_space_group_name_H-M   'P 1'
_cell_length_a   7.53451057
_cell_length_b   7.53451057
_cell_length_c   7.53451020
_cell_angle_alpha   42.96213624
_cell_angle_beta   42.96213624
_cell_angle_gamma   42.96213842
_symmetry_Int_Tables_number   1
_chemical_formula_structural   V3Sb2
_chemical_formula_sum   'V6 Sb4'
_cell_volume   180.05404617
_cell_formula_units_Z   2
loop_
 _symmetry_equiv_pos_site_id
 _symmetry_equiv_pos_as_xyz
  1  'x, y, z'
loop_
 _atom_site_type_symbol
 _atom_site_label
 _atom_site_symmetry_multiplicity
 _atom_site_fract_x
 _atom_site_fract_y
 _atom_site_fract_z
 _atom_site_occupancy
  V  V0  1  0.39767100  0.87307900  0.39767100  1
  V  V1  1  0.39767100  0.39767100  0.87307900  1
  V  V2  1  0.87307900  0.39767100  0.39767100  1
  V  V3  1  0.60232900  0.12692100  0.60232900  1
  V  V4  1  0.60232900  0.60232900  0.12692100  1
  V  V5  1  0.12692100  0.60232900  0.60232900  1
  Sb  Sb6  1  0.88998200  0.88998200  0.88998200  1
  Sb  Sb7  1  0.11001800  0.11001800  0.11001800  1
  Sb  Sb8  1  0.66868500  0.66868500  0.66868500  1
  Sb  Sb9  1  0.33131500  0.33131500  0.33131500  1
