# generated using pymatgen
data_Ge7F16
_symmetry_space_group_name_H-M   'P 1'
_cell_length_a   9.99754985
_cell_length_b   9.99754985
_cell_length_c   10.43556338
_cell_angle_alpha   89.39921399
_cell_angle_beta   89.39921399
_cell_angle_gamma   45.66262973
_symmetry_Int_Tables_number   1
_chemical_formula_structural   Ge7F16
_chemical_formula_sum   'Ge14 F32'
_cell_volume   745.97616725
_cell_formula_units_Z   2
loop_
 _symmetry_equiv_pos_site_id
 _symmetry_equiv_pos_as_xyz
  1  'x, y, z'
loop_
 _atom_site_type_symbol
 _atom_site_label
 _atom_site_symmetry_multiplicity
 _atom_site_fract_x
 _atom_site_fract_y
 _atom_site_fract_z
 _atom_site_occupancy
  Ge  Ge0  1  0.92805200  0.76769300  0.02751700  1
  Ge  Ge1  1  0.76769300  0.92805200  0.52751700  1
  Ge  Ge2  1  0.73580700  0.39292000  0.59010600  1
  Ge  Ge3  1  0.39292000  0.73580700  0.09010600  1
  Ge  Ge4  1  0.26564700  0.56487800  0.40739300  1
  Ge  Ge5  1  0.56487800  0.26564700  0.90739300  1
  Ge  Ge6  1  0.33286000  0.23115200  0.19207000  1
  Ge  Ge7  1  0.23115200  0.33286000  0.69207000  1
  Ge  Ge8  1  0.23295500  0.03562100  0.45734200  1
  Ge  Ge9  1  0.03562100  0.23295500  0.95734200  1
  Ge  Ge10  1  0.76320700  0.64088000  0.30383300  1
  Ge  Ge11  1  0.64088000  0.76320700  0.80383300  1
  Ge  Ge12  1  0.17733800  0.82440300  0.75181900  1
  Ge  Ge13  1  0.82440300  0.17733800  0.25181900  1
  F  F14  1  0.97279500  0.87181400  0.79988900  1
  F  F15  1  0.87181400  0.97279500  0.29988900  1
  F  F16  1  0.05431100  0.06582400  0.81333800  1
  F  F17  1  0.06582400  0.05431100  0.31333800  1
  F  F18  1  0.30089700  0.59018100  0.69896900  1
  F  F19  1  0.59018100  0.30089700  0.19896900  1
  F  F20  1  0.27390700  0.72983900  0.91838800  1
  F  F21  1  0.72983900  0.27390700  0.41838800  1
  F  F22  1  0.07858600  0.92521200  0.59415300  1
  F  F23  1  0.92521200  0.07858600  0.09415300  1
  F  F24  1  0.37900100  0.78749500  0.71370500  1
  F  F25  1  0.78749500  0.37900100  0.21370500  1
  F  F26  1  0.76535500  0.78262800  0.65218700  1
  F  F27  1  0.78262800  0.76535500  0.15218700  1
  F  F28  1  0.20209400  0.48422100  0.26282800  1
  F  F29  1  0.48422100  0.20209400  0.76282800  1
  F  F30  1  0.02059600  0.67770300  0.48117000  1
  F  F31  1  0.67770300  0.02059600  0.98117000  1
  F  F32  1  0.37651400  0.34621900  0.49237500  1
  F  F33  1  0.34621900  0.37651400  0.99237500  1
  F  F34  1  0.21774300  0.20544300  0.34596200  1
  F  F35  1  0.20544300  0.21774300  0.84596200  1
  F  F36  1  0.64176100  0.59622600  0.48981100  1
  F  F37  1  0.59622600  0.64176100  0.98981100  1
  F  F38  1  0.66160000  0.87606700  0.40461000  1
  F  F39  1  0.87606700  0.66160000  0.90461000  1
  F  F40  1  0.51327800  0.79154400  0.24843800  1
  F  F41  1  0.79154400  0.51327800  0.74843800  1
  F  F42  1  0.10976600  0.34652000  0.10577600  1
  F  F43  1  0.34652000  0.10976600  0.60577600  1
  F  F44  1  0.99254800  0.26915500  0.53378900  1
  F  F45  1  0.26915500  0.99254800  0.03378900  1
