# generated using pymatgen
data_CdGeO3
_symmetry_space_group_name_H-M   'P 1'
_cell_length_a   7.16397119
_cell_length_b   7.16397119
_cell_length_c   5.48468821
_cell_angle_alpha   80.62062279
_cell_angle_beta   80.62062279
_cell_angle_gamma   87.16736835
_symmetry_Int_Tables_number   1
_chemical_formula_structural   CdGeO3
_chemical_formula_sum   'Cd4 Ge4 O12'
_cell_volume   273.93608249
_cell_formula_units_Z   4
loop_
 _symmetry_equiv_pos_site_id
 _symmetry_equiv_pos_as_xyz
  1  'x, y, z'
loop_
 _atom_site_type_symbol
 _atom_site_label
 _atom_site_symmetry_multiplicity
 _atom_site_fract_x
 _atom_site_fract_y
 _atom_site_fract_z
 _atom_site_occupancy
  Cd  Cd0  1  0.71238500  0.28761500  0.75000000  1
  Cd  Cd1  1  0.28761500  0.71238500  0.25000000  1
  Cd  Cd2  1  0.09762800  0.90237200  0.75000000  1
  Cd  Cd3  1  0.90237200  0.09762800  0.25000000  1
  Ge  Ge4  1  0.20670200  0.38328600  0.77303500  1
  Ge  Ge5  1  0.61671400  0.79329800  0.72696500  1
  Ge  Ge6  1  0.79329800  0.61671400  0.22696500  1
  Ge  Ge7  1  0.38328600  0.20670200  0.27303500  1
  O  O8  1  0.39311200  0.85608300  0.87018200  1
  O  O9  1  0.14391700  0.60688800  0.62981800  1
  O  O10  1  0.60688800  0.14391700  0.12981800  1
  O  O11  1  0.85608300  0.39311200  0.37018200  1
  O  O12  1  0.70023300  0.59551600  0.94183700  1
  O  O13  1  0.40448400  0.29976700  0.55816300  1
  O  O14  1  0.29976700  0.40448400  0.05816300  1
  O  O15  1  0.59551600  0.70023300  0.44183700  1
  O  O16  1  0.21361800  0.02846800  0.34676300  1
  O  O17  1  0.97153200  0.78638200  0.15323700  1
  O  O18  1  0.78638200  0.97153200  0.65323700  1
  O  O19  1  0.02846800  0.21361800  0.84676300  1
