# generated using pymatgen
data_AgBiTe2
_symmetry_space_group_name_H-M   'P 1'
_cell_length_a   7.48834504
_cell_length_b   7.48834504
_cell_length_c   7.48834529
_cell_angle_alpha   34.47133605
_cell_angle_beta   34.47133605
_cell_angle_gamma   34.47134118
_symmetry_Int_Tables_number   1
_chemical_formula_structural   AgBiTe2
_chemical_formula_sum   'Ag1 Bi1 Te2'
_cell_volume   120.00100225
_cell_formula_units_Z   1
loop_
 _symmetry_equiv_pos_site_id
 _symmetry_equiv_pos_as_xyz
  1  'x, y, z'
loop_
 _atom_site_type_symbol
 _atom_site_label
 _atom_site_symmetry_multiplicity
 _atom_site_fract_x
 _atom_site_fract_y
 _atom_site_fract_z
 _atom_site_occupancy
  Ag  Ag0  1  0.00000000  0.00000000  0.00000000  1
  Bi  Bi1  1  0.50000000  0.50000000  0.50000000  1
  Te  Te2  1  0.25584400  0.25584400  0.25584400  1
  Te  Te3  1  0.74415600  0.74415600  0.74415600  1
