# generated using pymatgen
data_TlBrO3
_symmetry_space_group_name_H-M   'P 1'
_cell_length_a   4.63004024
_cell_length_b   4.63004024
_cell_length_c   4.63004077
_cell_angle_alpha   84.61646081
_cell_angle_beta   84.61646081
_cell_angle_gamma   84.61646376
_symmetry_Int_Tables_number   1
_chemical_formula_structural   TlBrO3
_chemical_formula_sum   'Tl1 Br1 O3'
_cell_volume   98.01915838
_cell_formula_units_Z   1
loop_
 _symmetry_equiv_pos_site_id
 _symmetry_equiv_pos_as_xyz
  1  'x, y, z'
loop_
 _atom_site_type_symbol
 _atom_site_label
 _atom_site_symmetry_multiplicity
 _atom_site_fract_x
 _atom_site_fract_y
 _atom_site_fract_z
 _atom_site_occupancy
  Tl  Tl0  1  0.00445100  0.00445100  0.00445100  1
  Br  Br1  1  0.50181600  0.50181600  0.50181600  1
  O  O2  1  0.43630300  0.86712700  0.43630300  1
  O  O3  1  0.86712700  0.43630300  0.43630300  1
  O  O4  1  0.43630300  0.43630300  0.86712700  1
