# generated using pymatgen
data_TeWBr9
_symmetry_space_group_name_H-M   'P 1'
_cell_length_a   12.17127300
_cell_length_b   7.11290600
_cell_length_c   10.38584419
_cell_angle_alpha   76.58283077
_cell_angle_beta   90.00000000
_cell_angle_gamma   90.00000000
_symmetry_Int_Tables_number   1
_chemical_formula_structural   TeWBr9
_chemical_formula_sum   'Te2 W2 Br18'
_cell_volume   874.59430388
_cell_formula_units_Z   2
loop_
 _symmetry_equiv_pos_site_id
 _symmetry_equiv_pos_as_xyz
  1  'x, y, z'
loop_
 _atom_site_type_symbol
 _atom_site_label
 _atom_site_symmetry_multiplicity
 _atom_site_fract_x
 _atom_site_fract_y
 _atom_site_fract_z
 _atom_site_occupancy
  Te  Te0  1  0.25000000  0.75699300  0.46856000  1
  Te  Te1  1  0.75000000  0.24300700  0.53144000  1
  W  W2  1  0.25000000  0.64454500  0.85364100  1
  W  W3  1  0.75000000  0.35545500  0.14635900  1
  Br  Br4  1  0.60682600  0.45252800  0.30550100  1
  Br  Br5  1  0.10682600  0.54747200  0.69449900  1
  Br  Br6  1  0.39317400  0.54747200  0.69449900  1
  Br  Br7  1  0.89317400  0.45252800  0.30550100  1
  Br  Br8  1  0.75000000  0.68498900  0.01127900  1
  Br  Br9  1  0.25000000  0.31501100  0.98872100  1
  Br  Br10  1  0.75000000  0.51897000  0.65111600  1
  Br  Br11  1  0.25000000  0.48103000  0.34888400  1
  Br  Br12  1  0.75000000  0.02146900  0.31528300  1
  Br  Br13  1  0.25000000  0.97853100  0.68471700  1
  Br  Br14  1  0.89885600  0.24530800  0.02545300  1
  Br  Br15  1  0.39885600  0.75469200  0.97454700  1
  Br  Br16  1  0.10114400  0.75469200  0.97454700  1
  Br  Br17  1  0.60114400  0.24530800  0.02545300  1
  Br  Br18  1  0.90635900  0.05053200  0.66431300  1
  Br  Br19  1  0.40635900  0.94946800  0.33568700  1
  Br  Br20  1  0.09364100  0.94946800  0.33568700  1
  Br  Br21  1  0.59364100  0.05053200  0.66431300  1
