# generated using pymatgen
data_NiGe2
_symmetry_space_group_name_H-M   'P 1'
_cell_length_a   6.17940935
_cell_length_b   6.17940935
_cell_length_c   5.80088300
_cell_angle_alpha   90.00000000
_cell_angle_beta   90.00000000
_cell_angle_gamma   123.97750445
_symmetry_Int_Tables_number   1
_chemical_formula_structural   NiGe2
_chemical_formula_sum   'Ni4 Ge8'
_cell_volume   183.68648997
_cell_formula_units_Z   4
loop_
 _symmetry_equiv_pos_site_id
 _symmetry_equiv_pos_as_xyz
  1  'x, y, z'
loop_
 _atom_site_type_symbol
 _atom_site_label
 _atom_site_symmetry_multiplicity
 _atom_site_fract_x
 _atom_site_fract_y
 _atom_site_fract_z
 _atom_site_occupancy
  Ni  Ni0  1  0.88449100  0.11550900  0.00000000  1
  Ni  Ni1  1  0.61550900  0.38449100  0.50000000  1
  Ni  Ni2  1  0.11550900  0.88449100  0.00000000  1
  Ni  Ni3  1  0.38449100  0.61550900  0.50000000  1
  Ge  Ge4  1  0.84567000  0.84567000  0.65666900  1
  Ge  Ge5  1  0.65433000  0.65433000  0.15666900  1
  Ge  Ge6  1  0.34567000  0.34567000  0.84333100  1
  Ge  Ge7  1  0.15433000  0.15433000  0.34333100  1
  Ge  Ge8  1  0.50231200  0.00231200  0.75000000  1
  Ge  Ge9  1  0.99768800  0.49768800  0.25000000  1
  Ge  Ge10  1  0.49768800  0.99768800  0.25000000  1
  Ge  Ge11  1  0.00231200  0.50231200  0.75000000  1
