# generated using pymatgen
data_Ba2CoCl6
_symmetry_space_group_name_H-M   'P 1'
_cell_length_a   8.18976800
_cell_length_b   9.23340100
_cell_length_c   15.86150469
_cell_angle_alpha   54.53913242
_cell_angle_beta   90.00000000
_cell_angle_gamma   90.00000000
_symmetry_Int_Tables_number   1
_chemical_formula_structural   Ba2CoCl6
_chemical_formula_sum   'Ba8 Co4 Cl24'
_cell_volume   976.95629763
_cell_formula_units_Z   4
loop_
 _symmetry_equiv_pos_site_id
 _symmetry_equiv_pos_as_xyz
  1  'x, y, z'
loop_
 _atom_site_type_symbol
 _atom_site_label
 _atom_site_symmetry_multiplicity
 _atom_site_fract_x
 _atom_site_fract_y
 _atom_site_fract_z
 _atom_site_occupancy
  Ba  Ba0  1  0.39049500  0.06640500  0.79498500  1
  Ba  Ba1  1  0.89049500  0.93359500  0.70501500  1
  Ba  Ba2  1  0.60950500  0.93359500  0.20501500  1
  Ba  Ba3  1  0.10950500  0.06640500  0.29498500  1
  Ba  Ba4  1  0.27988700  0.47318400  0.90448600  1
  Ba  Ba5  1  0.77988700  0.52681600  0.59551400  1
  Ba  Ba6  1  0.72011300  0.52681600  0.09551400  1
  Ba  Ba7  1  0.22011300  0.47318400  0.40448600  1
  Co  Co8  1  0.85708900  0.20049500  0.93225200  1
  Co  Co9  1  0.35708900  0.79950500  0.56774800  1
  Co  Co10  1  0.14291100  0.79950500  0.06774800  1
  Co  Co11  1  0.64291100  0.20049500  0.43225200  1
  Cl  Cl12  1  0.57920600  0.21304700  0.96128000  1
  Cl  Cl13  1  0.07920600  0.78695300  0.53872000  1
  Cl  Cl14  1  0.42079400  0.78695300  0.03872000  1
  Cl  Cl15  1  0.92079400  0.21304700  0.46128000  1
  Cl  Cl16  1  0.41951700  0.49584600  0.70305200  1
  Cl  Cl17  1  0.91951700  0.50415400  0.79694800  1
  Cl  Cl18  1  0.58048300  0.50415400  0.29694800  1
  Cl  Cl19  1  0.08048300  0.49584600  0.20305200  1
  Cl  Cl20  1  0.92835900  0.25019000  0.06992600  1
  Cl  Cl21  1  0.42835900  0.74981000  0.43007400  1
  Cl  Cl22  1  0.07164100  0.74981000  0.93007400  1
  Cl  Cl23  1  0.57164100  0.25019000  0.56992600  1
  Cl  Cl24  1  0.35432800  0.12769700  0.42729200  1
  Cl  Cl25  1  0.85432800  0.87230300  0.07270800  1
  Cl  Cl26  1  0.64567200  0.87230300  0.57270800  1
  Cl  Cl27  1  0.14567200  0.12769700  0.92729200  1
  Cl  Cl28  1  0.10098200  0.28611300  0.63358200  1
  Cl  Cl29  1  0.60098200  0.71388700  0.86641800  1
  Cl  Cl30  1  0.89901800  0.71388700  0.36641800  1
  Cl  Cl31  1  0.39901800  0.28611300  0.13358200  1
  Cl  Cl32  1  0.23331100  0.85907800  0.19720600  1
  Cl  Cl33  1  0.73331100  0.14092200  0.30279400  1
  Cl  Cl34  1  0.76668900  0.14092200  0.80279400  1
  Cl  Cl35  1  0.26668900  0.85907800  0.69720600  1
