# generated using pymatgen
data_Ba3P4O13
_symmetry_space_group_name_H-M   'P 1'
_cell_length_a   7.68279200
_cell_length_b   8.77616824
_cell_length_c   10.77285387
_cell_angle_alpha   108.10358110
_cell_angle_beta   104.22072425
_cell_angle_gamma   102.51862774
_symmetry_Int_Tables_number   1
_chemical_formula_structural   Ba3P4O13
_chemical_formula_sum   'Ba6 P8 O26'
_cell_volume   634.48685321
_cell_formula_units_Z   2
loop_
 _symmetry_equiv_pos_site_id
 _symmetry_equiv_pos_as_xyz
  1  'x, y, z'
loop_
 _atom_site_type_symbol
 _atom_site_label
 _atom_site_symmetry_multiplicity
 _atom_site_fract_x
 _atom_site_fract_y
 _atom_site_fract_z
 _atom_site_occupancy
  Ba  Ba0  1  0.15132100  0.23013800  0.23044000  1
  Ba  Ba1  1  0.84867900  0.76986200  0.76956000  1
  Ba  Ba2  1  0.63685200  0.22415000  0.73060400  1
  Ba  Ba3  1  0.36314800  0.77585000  0.26939600  1
  Ba  Ba4  1  0.00000000  0.00000000  0.50000000  1
  Ba  Ba5  1  0.50000000  0.00000000  0.00000000  1
  P  P6  1  0.15262900  0.52259700  0.86462000  1
  P  P7  1  0.84737100  0.47740300  0.13538000  1
  P  P8  1  0.33770000  0.46089900  0.63299100  1
  P  P9  1  0.66230000  0.53910100  0.36700900  1
  P  P10  1  0.32710500  0.79819300  0.63686300  1
  P  P11  1  0.67289500  0.20180700  0.36313700  1
  P  P12  1  0.83991400  0.81601400  0.14487800  1
  P  P13  1  0.16008600  0.18398600  0.85512200  1
  O  O14  1  0.30026100  0.16853000  0.77729200  1
  O  O15  1  0.69973900  0.83147000  0.22270800  1
  O  O16  1  0.95209600  0.10432700  0.75702100  1
  O  O17  1  0.04790400  0.89567300  0.24297900  1
  O  O18  1  0.19179300  0.12227800  0.97452800  1
  O  O19  1  0.80820700  0.87772200  0.02547200  1
  O  O20  1  0.19646800  0.38879700  0.93011000  1
  O  O21  1  0.80353200  0.61120300  0.06989000  1
  O  O22  1  0.70322900  0.14317300  0.48431100  1
  O  O23  1  0.29677100  0.85682700  0.51568900  1
  O  O24  1  0.82268100  0.19838200  0.29380500  1
  O  O25  1  0.17731900  0.80161800  0.70619500  1
  O  O26  1  0.46848000  0.11294700  0.25927900  1
  O  O27  1  0.53152000  0.88705300  0.74072100  1
  O  O28  1  0.69125100  0.40548200  0.43702100  1
  O  O29  1  0.30874900  0.59451800  0.56297900  1
  O  O30  1  0.28159100  0.69421800  0.96957100  1
  O  O31  1  0.71840900  0.30578200  0.03042900  1
  O  O32  1  0.73820500  0.71158800  0.48386600  1
  O  O33  1  0.26179500  0.28841200  0.51613400  1
  O  O34  1  0.46038500  0.48803800  0.27371400  1
  O  O35  1  0.53961500  0.51196200  0.72628600  1
  O  O36  1  0.80346300  0.53481000  0.27892400  1
  O  O37  1  0.19653700  0.46519000  0.72107600  1
  O  O38  1  0.94360200  0.50024300  0.81907400  1
  O  O39  1  0.05639800  0.49975700  0.18092600  1
