# generated using pymatgen
data_La3(AlI)2
_symmetry_space_group_name_H-M   'P 1'
_cell_length_a   10.19195022
_cell_length_b   10.19195022
_cell_length_c   12.47796396
_cell_angle_alpha   59.23913734
_cell_angle_beta   59.23913734
_cell_angle_gamma   24.65666486
_symmetry_Int_Tables_number   1
_chemical_formula_structural   La3(AlI)2
_chemical_formula_sum   'La6 Al4 I4'
_cell_volume   460.70757053
_cell_formula_units_Z   2
loop_
 _symmetry_equiv_pos_site_id
 _symmetry_equiv_pos_as_xyz
  1  'x, y, z'
loop_
 _atom_site_type_symbol
 _atom_site_label
 _atom_site_symmetry_multiplicity
 _atom_site_fract_x
 _atom_site_fract_y
 _atom_site_fract_z
 _atom_site_occupancy
  La  La0  1  0.83074800  0.83074800  0.39194500  1
  La  La1  1  0.16925200  0.16925200  0.60805500  1
  La  La2  1  0.75481000  0.75481000  0.80182700  1
  La  La3  1  0.24519000  0.24519000  0.19817300  1
  La  La4  1  0.53458400  0.53458400  0.30915200  1
  La  La5  1  0.46541600  0.46541600  0.69084800  1
  Al  Al6  1  0.92697700  0.92697700  0.53337700  1
  Al  Al7  1  0.07302300  0.07302300  0.46662300  1
  Al  Al8  1  0.34089200  0.34089200  0.58470200  1
  Al  Al9  1  0.65910800  0.65910800  0.41529800  1
  I  I10  1  0.42332900  0.42332900  0.17024200  1
  I  I11  1  0.57667100  0.57667100  0.82975800  1
  I  I12  1  0.85845200  0.85845200  0.94055700  1
  I  I13  1  0.14154800  0.14154800  0.05944300  1
