# generated using pymatgen
data_Rb2TbF6
_symmetry_space_group_name_H-M   'P 1'
_cell_length_a   7.01175727
_cell_length_b   7.01175727
_cell_length_c   7.50972701
_cell_angle_alpha   89.36686390
_cell_angle_beta   89.36686390
_cell_angle_gamma   117.84817330
_symmetry_Int_Tables_number   1
_chemical_formula_structural   Rb2TbF6
_chemical_formula_sum   'Rb4 Tb2 F12'
_cell_volume   326.37977293
_cell_formula_units_Z   2
loop_
 _symmetry_equiv_pos_site_id
 _symmetry_equiv_pos_as_xyz
  1  'x, y, z'
loop_
 _atom_site_type_symbol
 _atom_site_label
 _atom_site_symmetry_multiplicity
 _atom_site_fract_x
 _atom_site_fract_y
 _atom_site_fract_z
 _atom_site_occupancy
  Rb  Rb0  1  0.64332500  0.32536900  0.99877900  1
  Rb  Rb1  1  0.67463100  0.35667500  0.50122100  1
  Rb  Rb2  1  0.32536900  0.64332500  0.49877900  1
  Rb  Rb3  1  0.35667500  0.67463100  0.00122100  1
  Tb  Tb4  1  0.96092500  0.03907500  0.25000000  1
  Tb  Tb5  1  0.03907500  0.96092500  0.75000000  1
  F  F6  1  0.12950800  0.92633100  0.04528500  1
  F  F7  1  0.07366900  0.87049200  0.45471500  1
  F  F8  1  0.87049200  0.07366900  0.95471500  1
  F  F9  1  0.92633100  0.12950800  0.54528500  1
  F  F10  1  0.00452700  0.61862300  0.76767800  1
  F  F11  1  0.38137700  0.99547300  0.73232200  1
  F  F12  1  0.70248000  0.69212000  0.23558300  1
  F  F13  1  0.30788000  0.29752000  0.26441700  1
  F  F14  1  0.29752000  0.30788000  0.76441700  1
  F  F15  1  0.69212000  0.70248000  0.73558300  1
  F  F16  1  0.61862300  0.00452700  0.26767800  1
  F  F17  1  0.99547300  0.38137700  0.23232200  1
