# generated using pymatgen
data_Ba3FeO5
_symmetry_space_group_name_H-M   'P 1'
_cell_length_a   7.39739600
_cell_length_b   8.40521600
_cell_length_c   10.55791300
_cell_angle_alpha   90.00000000
_cell_angle_beta   90.00000000
_cell_angle_gamma   90.00000000
_symmetry_Int_Tables_number   1
_chemical_formula_structural   Ba3FeO5
_chemical_formula_sum   'Ba12 Fe4 O20'
_cell_volume   656.45630766
_cell_formula_units_Z   4
loop_
 _symmetry_equiv_pos_site_id
 _symmetry_equiv_pos_as_xyz
  1  'x, y, z'
loop_
 _atom_site_type_symbol
 _atom_site_label
 _atom_site_symmetry_multiplicity
 _atom_site_fract_x
 _atom_site_fract_y
 _atom_site_fract_z
 _atom_site_occupancy
  Ba  Ba0  1  0.61302000  0.25000000  0.97147400  1
  Ba  Ba1  1  0.11302000  0.75000000  0.52852600  1
  Ba  Ba2  1  0.38698000  0.75000000  0.02852600  1
  Ba  Ba3  1  0.88698000  0.25000000  0.47147400  1
  Ba  Ba4  1  0.41410700  0.02519400  0.32093300  1
  Ba  Ba5  1  0.91410700  0.97480700  0.17906700  1
  Ba  Ba6  1  0.58589300  0.52519300  0.67906700  1
  Ba  Ba7  1  0.08589300  0.47480700  0.82093300  1
  Ba  Ba8  1  0.58589300  0.97480700  0.67906700  1
  Ba  Ba9  1  0.08589300  0.02519400  0.82093300  1
  Ba  Ba10  1  0.41410700  0.47480700  0.32093300  1
  Ba  Ba11  1  0.91410700  0.52519300  0.17906700  1
  Fe  Fe12  1  0.30465600  0.25000000  0.59452400  1
  Fe  Fe13  1  0.80465600  0.75000000  0.90547600  1
  Fe  Fe14  1  0.69534400  0.75000000  0.40547600  1
  Fe  Fe15  1  0.19534400  0.25000000  0.09452400  1
  O  O16  1  0.83549000  0.25000000  0.72280200  1
  O  O17  1  0.33549000  0.75000000  0.77719800  1
  O  O18  1  0.16451000  0.75000000  0.27719800  1
  O  O19  1  0.66451000  0.25000000  0.22280200  1
  O  O20  1  0.51217200  0.25000000  0.49855100  1
  O  O21  1  0.01217200  0.75000000  0.00144900  1
  O  O22  1  0.48782800  0.75000000  0.50144900  1
  O  O23  1  0.98782800  0.25000000  0.99855100  1
  O  O24  1  0.29986600  0.05626800  0.06289800  1
  O  O25  1  0.79986600  0.94373200  0.43710200  1
  O  O26  1  0.70013400  0.55626800  0.93710200  1
  O  O27  1  0.20013400  0.44373200  0.56289800  1
  O  O28  1  0.70013400  0.94373200  0.93710200  1
  O  O29  1  0.20013400  0.05626800  0.56289800  1
  O  O30  1  0.29986600  0.44373200  0.06289800  1
  O  O31  1  0.79986600  0.55626800  0.43710200  1
  O  O32  1  0.14444800  0.25000000  0.26878000  1
  O  O33  1  0.64444800  0.75000000  0.23122000  1
  O  O34  1  0.85555200  0.75000000  0.73122000  1
  O  O35  1  0.35555200  0.25000000  0.76878000  1
