# generated using pymatgen
data_Be(N3O7)2
_symmetry_space_group_name_H-M   'P 1'
_cell_length_a   14.26083238
_cell_length_b   12.88429812
_cell_length_c   7.58798950
_cell_angle_alpha   84.06695562
_cell_angle_beta   63.97920707
_cell_angle_gamma   31.95383732
_symmetry_Int_Tables_number   1
_chemical_formula_structural   Be(N3O7)2
_chemical_formula_sum   'Be2 N12 O28'
_cell_volume   546.95748924
_cell_formula_units_Z   2
loop_
 _symmetry_equiv_pos_site_id
 _symmetry_equiv_pos_as_xyz
  1  'x, y, z'
loop_
 _atom_site_type_symbol
 _atom_site_label
 _atom_site_symmetry_multiplicity
 _atom_site_fract_x
 _atom_site_fract_y
 _atom_site_fract_z
 _atom_site_occupancy
  Be  Be0  1  0.09764100  0.90235900  0.90235900  1
  Be  Be1  1  0.34764100  0.15235900  0.15235900  1
  N  N2  1  0.65915000  0.22760400  0.15042100  1
  N  N3  1  0.96282500  0.15042100  0.22760400  1
  N  N4  1  0.09957900  0.28717500  0.59085000  1
  N  N5  1  0.02239600  0.59085000  0.28717500  1
  N  N6  1  0.32202800  0.78922100  0.48016500  1
  N  N7  1  0.40858600  0.48016500  0.78922100  1
  N  N8  1  0.76983500  0.84141400  0.92797200  1
  N  N9  1  0.46077900  0.92797200  0.84141400  1
  N  N10  1  0.61297100  0.02570300  0.43509700  1
  N  N11  1  0.92622900  0.43509700  0.02570300  1
  N  N12  1  0.81490300  0.32377100  0.63702900  1
  N  N13  1  0.22429700  0.63702900  0.32377100  1
  O  O14  1  0.87238400  0.01822900  0.06402300  1
  O  O15  1  0.04536500  0.06402300  0.01822900  1
  O  O16  1  0.18597700  0.20463500  0.37761600  1
  O  O17  1  0.23177100  0.37761600  0.20463500  1
  O  O18  1  0.58900200  0.38119800  0.14846200  1
  O  O19  1  0.88133800  0.14846200  0.38119800  1
  O  O20  1  0.10153800  0.36866200  0.66099800  1
  O  O21  1  0.86880200  0.66099800  0.36866200  1
  O  O22  1  0.52233100  0.27293200  0.24021000  1
  O  O23  1  0.96452700  0.24021000  0.27293200  1
  O  O24  1  0.00979000  0.28547300  0.72766900  1
  O  O25  1  0.97706800  0.72766900  0.28547300  1
  O  O26  1  0.13506000  0.89960800  0.66613700  1
  O  O27  1  0.29919500  0.66613700  0.89960800  1
  O  O28  1  0.58386300  0.95080500  0.11494000  1
  O  O29  1  0.35039200  0.11494000  0.95080500  1
  O  O30  1  0.47276200  0.67774400  0.48837800  1
  O  O31  1  0.36111700  0.48837800  0.67774400  1
  O  O32  1  0.76162200  0.88888300  0.77723800  1
  O  O33  1  0.57225600  0.77723800  0.88888300  1
  O  O34  1  0.33095700  0.80579600  0.31313000  1
  O  O35  1  0.55011700  0.31313000  0.80579600  1
  O  O36  1  0.93687000  0.69988300  0.91904300  1
  O  O37  1  0.44420400  0.91904300  0.69988300  1
  O  O38  1  0.47533700  0.16911000  0.62427500  1
  O  O39  1  0.73127900  0.62427500  0.16911000  1
  O  O40  1  0.62572500  0.51872100  0.77466300  1
  O  O41  1  0.08089000  0.77466300  0.51872100  1
