# generated using pymatgen
data_Ba4Ni3Ge20
_symmetry_space_group_name_H-M   'P 1'
_cell_length_a   10.75324400
_cell_length_b   10.75324400
_cell_length_c   10.75324400
_cell_angle_alpha   90.00000000
_cell_angle_beta   90.00000000
_cell_angle_gamma   90.00000000
_symmetry_Int_Tables_number   1
_chemical_formula_structural   Ba4Ni3Ge20
_chemical_formula_sum   'Ba8 Ni6 Ge40'
_cell_volume   1243.42186867
_cell_formula_units_Z   2
loop_
 _symmetry_equiv_pos_site_id
 _symmetry_equiv_pos_as_xyz
  1  'x, y, z'
loop_
 _atom_site_type_symbol
 _atom_site_label
 _atom_site_symmetry_multiplicity
 _atom_site_fract_x
 _atom_site_fract_y
 _atom_site_fract_z
 _atom_site_occupancy
  Ba  Ba0  1  0.00000000  0.00000000  0.00000000  1
  Ba  Ba1  1  0.50000000  0.50000000  0.50000000  1
  Ba  Ba2  1  0.25000000  0.50000000  0.00000000  1
  Ba  Ba3  1  0.75000000  0.50000000  0.00000000  1
  Ba  Ba4  1  0.50000000  0.00000000  0.25000000  1
  Ba  Ba5  1  0.50000000  0.00000000  0.75000000  1
  Ba  Ba6  1  0.00000000  0.75000000  0.50000000  1
  Ba  Ba7  1  0.00000000  0.25000000  0.50000000  1
  Ni  Ni8  1  0.25000000  0.00000000  0.50000000  1
  Ni  Ni9  1  0.75000000  0.00000000  0.50000000  1
  Ni  Ni10  1  0.00000000  0.50000000  0.25000000  1
  Ni  Ni11  1  0.00000000  0.50000000  0.75000000  1
  Ni  Ni12  1  0.50000000  0.75000000  0.00000000  1
  Ni  Ni13  1  0.50000000  0.25000000  0.00000000  1
  Ge  Ge14  1  0.18300800  0.18300800  0.18300800  1
  Ge  Ge15  1  0.68300800  0.31699200  0.68300800  1
  Ge  Ge16  1  0.68300800  0.68300800  0.31699200  1
  Ge  Ge17  1  0.31699200  0.68300800  0.68300800  1
  Ge  Ge18  1  0.81699200  0.81699200  0.18300800  1
  Ge  Ge19  1  0.18300800  0.81699200  0.81699200  1
  Ge  Ge20  1  0.81699200  0.18300800  0.81699200  1
  Ge  Ge21  1  0.31699200  0.31699200  0.31699200  1
  Ge  Ge22  1  0.81699200  0.81699200  0.81699200  1
  Ge  Ge23  1  0.31699200  0.68300800  0.31699200  1
  Ge  Ge24  1  0.31699200  0.31699200  0.68300800  1
  Ge  Ge25  1  0.68300800  0.31699200  0.31699200  1
  Ge  Ge26  1  0.18300800  0.18300800  0.81699200  1
  Ge  Ge27  1  0.81699200  0.18300800  0.18300800  1
  Ge  Ge28  1  0.18300800  0.81699200  0.18300800  1
  Ge  Ge29  1  0.68300800  0.68300800  0.68300800  1
  Ge  Ge30  1  0.00000000  0.32289900  0.12430600  1
  Ge  Ge31  1  0.50000000  0.37569400  0.82289900  1
  Ge  Ge32  1  0.50000000  0.62430600  0.17710100  1
  Ge  Ge33  1  0.62430600  0.82289900  0.50000000  1
  Ge  Ge34  1  0.37569400  0.82289900  0.50000000  1
  Ge  Ge35  1  0.17710100  0.50000000  0.62430600  1
  Ge  Ge36  1  0.82289900  0.50000000  0.62430600  1
  Ge  Ge37  1  0.12430600  0.00000000  0.32289900  1
  Ge  Ge38  1  0.32289900  0.12430600  0.00000000  1
  Ge  Ge39  1  0.67710100  0.87569400  0.00000000  1
  Ge  Ge40  1  0.12430600  0.00000000  0.67710100  1
  Ge  Ge41  1  0.67710100  0.12430600  0.00000000  1
  Ge  Ge42  1  0.87569400  0.00000000  0.32289900  1
  Ge  Ge43  1  0.87569400  0.00000000  0.67710100  1
  Ge  Ge44  1  0.32289900  0.87569400  0.00000000  1
  Ge  Ge45  1  0.00000000  0.67710100  0.87569400  1
  Ge  Ge46  1  0.00000000  0.32289900  0.87569400  1
  Ge  Ge47  1  0.00000000  0.67710100  0.12430600  1
  Ge  Ge48  1  0.82289900  0.50000000  0.37569400  1
  Ge  Ge49  1  0.17710100  0.50000000  0.37569400  1
  Ge  Ge50  1  0.62430600  0.17710100  0.50000000  1
  Ge  Ge51  1  0.37569400  0.17710100  0.50000000  1
  Ge  Ge52  1  0.50000000  0.62430600  0.82289900  1
  Ge  Ge53  1  0.50000000  0.37569400  0.17710100  1
