# generated using pymatgen
data_UP2O7
_symmetry_space_group_name_H-M   'P 1'
_cell_length_a   7.11779200
_cell_length_b   11.69727700
_cell_length_c   12.97033600
_cell_angle_alpha   90.00000000
_cell_angle_beta   90.00000000
_cell_angle_gamma   90.00000000
_symmetry_Int_Tables_number   1
_chemical_formula_structural   UP2O7
_chemical_formula_sum   'U8 P16 O56'
_cell_volume   1079.89441189
_cell_formula_units_Z   8
loop_
 _symmetry_equiv_pos_site_id
 _symmetry_equiv_pos_as_xyz
  1  'x, y, z'
loop_
 _atom_site_type_symbol
 _atom_site_label
 _atom_site_symmetry_multiplicity
 _atom_site_fract_x
 _atom_site_fract_y
 _atom_site_fract_z
 _atom_site_occupancy
  U  U0  1  0.70973000  0.35933900  0.81282800  1
  U  U1  1  0.20973000  0.64066100  0.18717200  1
  U  U2  1  0.20973000  0.14066100  0.31282800  1
  U  U3  1  0.70973000  0.85933900  0.68717200  1
  U  U4  1  0.20780500  0.97471200  0.82737800  1
  U  U5  1  0.70780500  0.02528800  0.17262200  1
  U  U6  1  0.70780500  0.52528800  0.32737800  1
  U  U7  1  0.20780500  0.47471200  0.67262200  1
  P  P8  1  0.66610400  0.16474800  0.59549000  1
  P  P9  1  0.16610400  0.83525200  0.40451000  1
  P  P10  1  0.16610400  0.33525200  0.09549000  1
  P  P11  1  0.66610400  0.66474800  0.90451000  1
  P  P12  1  0.73613000  0.33128100  0.09220600  1
  P  P13  1  0.23613000  0.66871900  0.90779400  1
  P  P14  1  0.23613000  0.16871900  0.59220600  1
  P  P15  1  0.73613000  0.83128100  0.40779400  1
  P  P16  1  0.21461800  0.79288000  0.62849100  1
  P  P17  1  0.71461800  0.20712000  0.37150900  1
  P  P18  1  0.71461800  0.70712000  0.12849100  1
  P  P19  1  0.21461800  0.29288000  0.87150900  1
  P  P20  1  0.70870400  0.54622200  0.61682900  1
  P  P21  1  0.20870400  0.45377800  0.38317100  1
  P  P22  1  0.20870400  0.95377800  0.11682900  1
  P  P23  1  0.70870400  0.04622200  0.88317100  1
  O  O24  1  0.45680900  0.19058200  0.56559300  1
  O  O25  1  0.95680900  0.80941800  0.43440700  1
  O  O26  1  0.95680900  0.30941800  0.06559300  1
  O  O27  1  0.45680900  0.69058200  0.93440700  1
  O  O28  1  0.76331500  0.16087300  0.48503000  1
  O  O29  1  0.26331500  0.83912700  0.51497000  1
  O  O30  1  0.26331500  0.33912700  0.98503000  1
  O  O31  1  0.76331500  0.66087300  0.01497000  1
  O  O32  1  0.69229400  0.04884500  0.64297700  1
  O  O33  1  0.19229400  0.95115500  0.35702300  1
  O  O34  1  0.19229400  0.45115500  0.14297700  1
  O  O35  1  0.69229400  0.54884500  0.85702300  1
  O  O36  1  0.74138700  0.26356200  0.65739100  1
  O  O37  1  0.24138700  0.73643800  0.34260900  1
  O  O38  1  0.24138700  0.23643800  0.15739100  1
  O  O39  1  0.74138700  0.76356200  0.84260900  1
  O  O40  1  0.65917000  0.36791100  0.98774800  1
  O  O41  1  0.15917000  0.63208900  0.01225200  1
  O  O42  1  0.15917000  0.13208900  0.48774800  1
  O  O43  1  0.72501900  0.42465300  0.17424400  1
  O  O44  1  0.65917000  0.86791100  0.51225200  1
  O  O45  1  0.16528900  0.78440000  0.87070100  1
  O  O46  1  0.16528900  0.28440000  0.62929900  1
  O  O47  1  0.66528900  0.71560000  0.37070100  1
  O  O48  1  0.88057200  0.98855200  0.82718000  1
  O  O49  1  0.38057200  0.01144800  0.17282000  1
  O  O50  1  0.38057200  0.51144800  0.32718000  1
  O  O51  1  0.88057200  0.48855200  0.67282000  1
  O  O52  1  0.53246000  0.98445000  0.83584100  1
  O  O53  1  0.03246000  0.01555000  0.16415900  1
  O  O54  1  0.03246000  0.51555000  0.33584100  1
  O  O55  1  0.53246000  0.48445000  0.66415900  1
  O  O56  1  0.71863900  0.02634400  0.99948900  1
  O  O57  1  0.21863900  0.97365600  0.00051100  1
  O  O58  1  0.21863900  0.47365600  0.49948900  1
  O  O59  1  0.71863900  0.52634400  0.50051100  1
  O  O60  1  0.70246200  0.17471400  0.85820700  1
  O  O61  1  0.20246200  0.82528600  0.14179300  1
  O  O62  1  0.20246200  0.32528600  0.35820700  1
  O  O63  1  0.70246200  0.67471400  0.64179300  1
  O  O64  1  0.03228100  0.35163600  0.83457000  1
  O  O65  1  0.53228100  0.64836400  0.16543000  1
  O  O66  1  0.53228100  0.14836400  0.33457000  1
  O  O67  1  0.03228100  0.85163600  0.66543000  1
  O  O68  1  0.20332900  0.16436100  0.87539200  1
  O  O69  1  0.70332900  0.83563900  0.12460800  1
  O  O70  1  0.70332900  0.33563900  0.37539200  1
  O  O71  1  0.20332900  0.66436100  0.62460800  1
  O  O72  1  0.37788300  0.34121200  0.80577500  1
  O  O73  1  0.87788300  0.65878800  0.19422500  1
  O  O74  1  0.87788300  0.15878800  0.30577500  1
  O  O75  1  0.37788300  0.84121200  0.69422500  1
  O  O76  1  0.72501900  0.92465300  0.32575600  1
  O  O77  1  0.22501900  0.07534700  0.67424400  1
  O  O78  1  0.22501900  0.57534700  0.82575600  1
  O  O79  1  0.66528900  0.21560000  0.12929900  1
