# generated using pymatgen
data_Ba10Ga
_symmetry_space_group_name_H-M   'P 1'
_cell_length_a   15.43702492
_cell_length_b   15.43702492
_cell_length_c   15.43702492
_cell_angle_alpha   60.00000000
_cell_angle_beta   60.00000000
_cell_angle_gamma   60.00000000
_symmetry_Int_Tables_number   1
_chemical_formula_structural   Ba10Ga
_chemical_formula_sum   'Ba40 Ga4'
_cell_volume   2601.21241193
_cell_formula_units_Z   4
loop_
 _symmetry_equiv_pos_site_id
 _symmetry_equiv_pos_as_xyz
  1  'x, y, z'
loop_
 _atom_site_type_symbol
 _atom_site_label
 _atom_site_symmetry_multiplicity
 _atom_site_fract_x
 _atom_site_fract_y
 _atom_site_fract_z
 _atom_site_occupancy
  Ba  Ba0  1  0.61814200  0.61814200  0.88185800  1
  Ba  Ba1  1  0.36814200  0.63185800  0.63185800  1
  Ba  Ba2  1  0.63185800  0.36814200  0.36814200  1
  Ba  Ba3  1  0.36814200  0.36814200  0.63185800  1
  Ba  Ba4  1  0.36814200  0.63185800  0.36814200  1
  Ba  Ba5  1  0.63185800  0.36814200  0.63185800  1
  Ba  Ba6  1  0.88185800  0.61814200  0.88185800  1
  Ba  Ba7  1  0.88185800  0.61814200  0.61814200  1
  Ba  Ba8  1  0.61814200  0.88185800  0.88185800  1
  Ba  Ba9  1  0.61814200  0.88185800  0.61814200  1
  Ba  Ba10  1  0.63185800  0.63185800  0.36814200  1
  Ba  Ba11  1  0.88185800  0.88185800  0.61814200  1
  Ba  Ba12  1  0.79186100  0.07054500  0.34573200  1
  Ba  Ba13  1  0.45813900  0.45813900  0.17945500  1
  Ba  Ba14  1  0.17945500  0.90426800  0.45813900  1
  Ba  Ba15  1  0.45813900  0.90426800  0.45813900  1
  Ba  Ba16  1  0.90426800  0.45813900  0.17945500  1
  Ba  Ba17  1  0.90426800  0.45813900  0.45813900  1
  Ba  Ba18  1  0.17945500  0.45813900  0.45813900  1
  Ba  Ba19  1  0.34573200  0.07054500  0.79186100  1
  Ba  Ba20  1  0.79186100  0.07054500  0.79186100  1
  Ba  Ba21  1  0.07054500  0.79186100  0.34573200  1
  Ba  Ba22  1  0.79186100  0.79186100  0.34573200  1
  Ba  Ba23  1  0.07054500  0.34573200  0.79186100  1
  Ba  Ba24  1  0.34573200  0.79186100  0.07054500  1
  Ba  Ba25  1  0.79186100  0.79186100  0.07054500  1
  Ba  Ba26  1  0.79186100  0.34573200  0.79186100  1
  Ba  Ba27  1  0.17945500  0.45813900  0.90426800  1
  Ba  Ba28  1  0.45813900  0.45813900  0.90426800  1
  Ba  Ba29  1  0.45813900  0.90426800  0.17945500  1
  Ba  Ba30  1  0.45813900  0.17945500  0.90426800  1
  Ba  Ba31  1  0.90426800  0.17945500  0.45813900  1
  Ba  Ba32  1  0.45813900  0.17945500  0.45813900  1
  Ba  Ba33  1  0.34573200  0.79186100  0.79186100  1
  Ba  Ba34  1  0.07054500  0.79186100  0.79186100  1
  Ba  Ba35  1  0.79186100  0.34573200  0.07054500  1
  Ba  Ba36  1  0.12500000  0.12500000  0.12500000  1
  Ba  Ba37  1  0.62500000  0.12500000  0.12500000  1
  Ba  Ba38  1  0.12500000  0.12500000  0.62500000  1
  Ba  Ba39  1  0.12500000  0.62500000  0.12500000  1
  Ga  Ga40  1  0.62500000  0.62500000  0.62500000  1
  Ga  Ga41  1  0.12500000  0.62500000  0.62500000  1
  Ga  Ga42  1  0.62500000  0.62500000  0.12500000  1
  Ga  Ga43  1  0.62500000  0.12500000  0.62500000  1
