# generated using pymatgen
data_CsK2
_symmetry_space_group_name_H-M   'P 1'
_cell_length_a   9.06649612
_cell_length_b   9.06649612
_cell_length_c   14.84782900
_cell_angle_alpha   90.00000000
_cell_angle_beta   90.00000000
_cell_angle_gamma   120.00000089
_symmetry_Int_Tables_number   1
_chemical_formula_structural   CsK2
_chemical_formula_sum   'Cs4 K8'
_cell_volume   1056.99405645
_cell_formula_units_Z   4
loop_
 _symmetry_equiv_pos_site_id
 _symmetry_equiv_pos_as_xyz
  1  'x, y, z'
loop_
 _atom_site_type_symbol
 _atom_site_label
 _atom_site_symmetry_multiplicity
 _atom_site_fract_x
 _atom_site_fract_y
 _atom_site_fract_z
 _atom_site_occupancy
  Cs  Cs0  1  0.33333300  0.66666700  0.43706300  1
  Cs  Cs1  1  0.66666700  0.33333300  0.93706300  1
  Cs  Cs2  1  0.66666700  0.33333300  0.56293700  1
  Cs  Cs3  1  0.33333300  0.66666700  0.06293700  1
  K  K4  1  0.16798700  0.33597500  0.75000000  1
  K  K5  1  0.83201300  0.16798700  0.25000000  1
  K  K6  1  0.33597500  0.16798700  0.25000000  1
  K  K7  1  0.66402500  0.83201300  0.75000000  1
  K  K8  1  0.00000000  0.00000000  0.00000000  1
  K  K9  1  0.00000000  0.00000000  0.50000000  1
  K  K10  1  0.83201300  0.66402500  0.25000000  1
  K  K11  1  0.16798700  0.83201300  0.75000000  1
