# generated using pymatgen
data_Y2WO6
_symmetry_space_group_name_H-M   'P 1'
_cell_length_a   5.29463600
_cell_length_b   9.17595500
_cell_length_c   10.02531300
_cell_angle_alpha   90.00000000
_cell_angle_beta   90.00000000
_cell_angle_gamma   90.00000000
_symmetry_Int_Tables_number   1
_chemical_formula_structural   Y2WO6
_chemical_formula_sum   'Y8 W4 O24'
_cell_volume   487.06320690
_cell_formula_units_Z   4
loop_
 _symmetry_equiv_pos_site_id
 _symmetry_equiv_pos_as_xyz
  1  'x, y, z'
loop_
 _atom_site_type_symbol
 _atom_site_label
 _atom_site_symmetry_multiplicity
 _atom_site_fract_x
 _atom_site_fract_y
 _atom_site_fract_z
 _atom_site_occupancy
  Y  Y0  1  0.98096300  0.60329300  0.53514400  1
  Y  Y1  1  0.48096300  0.89670700  0.46485600  1
  Y  Y2  1  0.01903700  0.10329300  0.96485600  1
  Y  Y3  1  0.51903700  0.39670700  0.03514400  1
  Y  Y4  1  0.46130900  0.78102600  0.87038500  1
  Y  Y5  1  0.96130900  0.71897400  0.12961500  1
  Y  Y6  1  0.03869100  0.21897400  0.37038500  1
  Y  Y7  1  0.53869100  0.28102600  0.62961500  1
  W  W8  1  0.96101500  0.99552800  0.65158100  1
  W  W9  1  0.46101500  0.50447200  0.34841900  1
  W  W10  1  0.03898500  0.49552800  0.84841900  1
  W  W11  1  0.53898500  0.00447200  0.15158100  1
  O  O12  1  0.75313200  0.08859000  0.50573300  1
  O  O13  1  0.25313200  0.41141000  0.49426700  1
  O  O14  1  0.24686800  0.58859000  0.99426700  1
  O  O15  1  0.74686800  0.91141000  0.00573300  1
  O  O16  1  0.23169300  0.11495500  0.56825400  1
  O  O17  1  0.73169300  0.38504500  0.43174600  1
  O  O18  1  0.76830700  0.61495500  0.93174600  1
  O  O19  1  0.26830700  0.88504500  0.06825400  1
  O  O20  1  0.08670000  0.84310400  0.53111600  1
  O  O21  1  0.58670000  0.65689600  0.46888400  1
  O  O22  1  0.91330000  0.34310400  0.96888400  1
  O  O23  1  0.41330000  0.15689600  0.03111600  1
  O  O24  1  0.69210300  0.85939100  0.26381100  1
  O  O25  1  0.19210300  0.64060900  0.73618900  1
  O  O26  1  0.30789700  0.35939100  0.23618900  1
  O  O27  1  0.80789700  0.14060900  0.76381100  1
  O  O28  1  0.32592600  0.04768900  0.29835100  1
  O  O29  1  0.82592600  0.45231100  0.70164900  1
  O  O30  1  0.68102500  0.86243900  0.68103200  1
  O  O31  1  0.17407400  0.95231100  0.79835100  1
  O  O32  1  0.81897500  0.13756100  0.18103200  1
  O  O33  1  0.31897500  0.36243900  0.81896800  1
  O  O34  1  0.18102500  0.63756100  0.31896800  1
  O  O35  1  0.67407400  0.54768900  0.20164900  1
