# generated using pymatgen
data_NdMg12
_symmetry_space_group_name_H-M   'P 1'
_cell_length_a   7.83321835
_cell_length_b   7.83321835
_cell_length_c   7.83321835
_cell_angle_alpha   98.47556369
_cell_angle_beta   98.47556369
_cell_angle_gamma   134.84771006
_symmetry_Int_Tables_number   1
_chemical_formula_structural   NdMg12
_chemical_formula_sum   'Nd1 Mg12'
_cell_volume   314.65366914
_cell_formula_units_Z   1
loop_
 _symmetry_equiv_pos_site_id
 _symmetry_equiv_pos_as_xyz
  1  'x, y, z'
loop_
 _atom_site_type_symbol
 _atom_site_label
 _atom_site_symmetry_multiplicity
 _atom_site_fract_x
 _atom_site_fract_y
 _atom_site_fract_z
 _atom_site_occupancy
  Nd  Nd0  1  0.00000000  0.00000000  0.00000000  1
  Mg  Mg1  1  0.71678300  0.50000000  0.21678300  1
  Mg  Mg2  1  0.00000000  0.64699400  0.64699400  1
  Mg  Mg3  1  0.64699400  0.00000000  0.64699400  1
  Mg  Mg4  1  0.35300600  0.00000000  0.35300600  1
  Mg  Mg5  1  0.50000000  0.28321700  0.78321700  1
  Mg  Mg6  1  0.50000000  0.00000000  0.00000000  1
  Mg  Mg7  1  0.28321700  0.50000000  0.78321700  1
  Mg  Mg8  1  0.50000000  0.50000000  0.50000000  1
  Mg  Mg9  1  0.00000000  0.35300600  0.35300600  1
  Mg  Mg10  1  0.50000000  0.71678300  0.21678300  1
  Mg  Mg11  1  0.00000000  0.00000000  0.50000000  1
  Mg  Mg12  1  0.00000000  0.50000000  0.00000000  1
