# generated using pymatgen
data_Ca5(Ga3O7)2
_symmetry_space_group_name_H-M   'P 1'
_cell_length_a   8.14450823
_cell_length_b   8.14450823
_cell_length_c   10.59712300
_cell_angle_alpha   90.00000000
_cell_angle_beta   90.00000000
_cell_angle_gamma   91.11678573
_symmetry_Int_Tables_number   1
_chemical_formula_structural   Ca5(Ga3O7)2
_chemical_formula_sum   'Ca10 Ga12 O28'
_cell_volume   702.80558409
_cell_formula_units_Z   2
loop_
 _symmetry_equiv_pos_site_id
 _symmetry_equiv_pos_as_xyz
  1  'x, y, z'
loop_
 _atom_site_type_symbol
 _atom_site_label
 _atom_site_symmetry_multiplicity
 _atom_site_fract_x
 _atom_site_fract_y
 _atom_site_fract_z
 _atom_site_occupancy
  Ca  Ca0  1  0.94113800  0.25820800  0.24968200  1
  Ca  Ca1  1  0.05886200  0.74179200  0.74968200  1
  Ca  Ca2  1  0.74179200  0.05886200  0.74968200  1
  Ca  Ca3  1  0.25820800  0.94113800  0.24968200  1
  Ca  Ca4  1  0.95803600  0.67205300  0.20204300  1
  Ca  Ca5  1  0.04196400  0.32794700  0.70204300  1
  Ca  Ca6  1  0.32794700  0.04196400  0.70204300  1
  Ca  Ca7  1  0.67205300  0.95803600  0.20204300  1
  Ca  Ca8  1  0.52701000  0.52701000  0.24748800  1
  Ca  Ca9  1  0.47299000  0.47299000  0.74748800  1
  Ga  Ga10  1  0.21117900  0.49783900  0.00966200  1
  Ga  Ga11  1  0.78882100  0.50216100  0.50966200  1
  Ga  Ga12  1  0.49783900  0.21117900  0.00966200  1
  Ga  Ga13  1  0.50216100  0.78882100  0.50966200  1
  Ga  Ga14  1  0.29992200  0.29992200  0.44375600  1
  Ga  Ga15  1  0.70007800  0.70007800  0.94375600  1
  Ga  Ga16  1  0.00043700  0.00043700  0.46692100  1
  Ga  Ga17  1  0.99956300  0.99956300  0.96692100  1
  Ga  Ga18  1  0.15917400  0.64774000  0.47855300  1
  Ga  Ga19  1  0.84082600  0.35226000  0.97855300  1
  Ga  Ga20  1  0.35226000  0.84082600  0.97855300  1
  Ga  Ga21  1  0.64774000  0.15917400  0.47855300  1
  O  O22  1  0.70185600  0.70185600  0.11723400  1
  O  O23  1  0.29814400  0.29814400  0.61723400  1
  O  O24  1  0.50082200  0.25141200  0.36932900  1
  O  O25  1  0.49917900  0.74858800  0.86932900  1
  O  O26  1  0.74858800  0.49917900  0.86932900  1
  O  O27  1  0.25141200  0.50082100  0.36932900  1
  O  O28  1  0.98902400  0.98902400  0.13821800  1
  O  O29  1  0.01097600  0.01097600  0.63821800  1
  O  O30  1  0.48857800  0.81001500  0.33723200  1
  O  O31  1  0.51142200  0.18998500  0.83723200  1
  O  O32  1  0.18998500  0.51142200  0.83723200  1
  O  O33  1  0.81001500  0.48857800  0.33723200  1
  O  O34  1  0.85323300  0.85323300  0.87854700  1
  O  O35  1  0.14676700  0.14676700  0.37854700  1
  O  O36  1  0.80785300  0.06069400  0.37951900  1
  O  O37  1  0.19214700  0.93930600  0.87951900  1
  O  O38  1  0.93930600  0.19214700  0.87951900  1
  O  O39  1  0.06069400  0.80785300  0.37951900  1
  O  O40  1  0.29376600  0.76341800  0.59319300  1
  O  O41  1  0.70623400  0.23658200  0.09319300  1
  O  O42  1  0.23658200  0.70623400  0.09319300  1
  O  O43  1  0.76341800  0.29376600  0.59319300  1
  O  O44  1  0.99176100  0.56513600  0.58524100  1
  O  O45  1  0.00823900  0.43486400  0.08524100  1
  O  O46  1  0.43486400  0.00823900  0.08524100  1
  O  O47  1  0.56513600  0.99176100  0.58524100  1
  O  O48  1  0.61261200  0.61261200  0.57553000  1
  O  O49  1  0.38738800  0.38738800  0.07553000  1
