# generated using pymatgen
data_Hf11Ga10
_symmetry_space_group_name_H-M   'P 1'
_cell_length_a   10.40232216
_cell_length_b   10.40232216
_cell_length_c   10.40232216
_cell_angle_alpha   120.24311219
_cell_angle_beta   120.24311219
_cell_angle_gamma   89.57943060
_symmetry_Int_Tables_number   1
_chemical_formula_structural   Hf11Ga10
_chemical_formula_sum   'Hf22 Ga20'
_cell_volume   792.98396816
_cell_formula_units_Z   2
loop_
 _symmetry_equiv_pos_site_id
 _symmetry_equiv_pos_as_xyz
  1  'x, y, z'
loop_
 _atom_site_type_symbol
 _atom_site_label
 _atom_site_symmetry_multiplicity
 _atom_site_fract_x
 _atom_site_fract_y
 _atom_site_fract_z
 _atom_site_occupancy
  Hf  Hf0  1  0.32136700  0.32136700  0.00000000  1
  Hf  Hf1  1  0.67863300  0.67863300  0.00000000  1
  Hf  Hf2  1  0.17481800  0.17481800  0.34963600  1
  Hf  Hf3  1  0.17481800  0.82518200  0.00000000  1
  Hf  Hf4  1  0.82518200  0.17481800  0.00000000  1
  Hf  Hf5  1  0.82518200  0.82518200  0.65036400  1
  Hf  Hf6  1  0.43884400  0.18808600  0.25075800  1
  Hf  Hf7  1  0.18808600  0.93732800  0.74924200  1
  Hf  Hf8  1  0.18808600  0.43884400  0.25075800  1
  Hf  Hf9  1  0.56115600  0.81191400  0.74924200  1
  Hf  Hf10  1  0.06267200  0.81191400  0.25075800  1
  Hf  Hf11  1  0.81191400  0.06267200  0.25075800  1
  Hf  Hf12  1  0.81191400  0.56115600  0.74924200  1
  Hf  Hf13  1  0.93732800  0.18808600  0.74924200  1
  Hf  Hf14  1  0.72992200  0.39637100  0.33355100  1
  Hf  Hf15  1  0.39637100  0.06282000  0.66644900  1
  Hf  Hf16  1  0.39637100  0.72992200  0.33355100  1
  Hf  Hf17  1  0.27007800  0.60362900  0.66644900  1
  Hf  Hf18  1  0.93718000  0.60362900  0.33355100  1
  Hf  Hf19  1  0.60362900  0.93718000  0.33355100  1
  Hf  Hf20  1  0.60362900  0.27007800  0.66644900  1
  Hf  Hf21  1  0.06282000  0.39637100  0.66644900  1
  Ga  Ga22  1  0.75000000  0.25000000  0.50000000  1
  Ga  Ga23  1  0.25000000  0.75000000  0.50000000  1
  Ga  Ga24  1  0.10756600  0.10756600  0.00000000  1
  Ga  Ga25  1  0.89243400  0.89243400  0.00000000  1
  Ga  Ga26  1  0.37256300  0.37256300  0.74512600  1
  Ga  Ga27  1  0.37256300  0.62743700  0.00000000  1
  Ga  Ga28  1  0.62743700  0.37256300  0.00000000  1
  Ga  Ga29  1  0.62743700  0.62743700  0.25487400  1
  Ga  Ga30  1  0.00000000  0.35683600  0.35683600  1
  Ga  Ga31  1  0.35683600  0.00000000  0.35683600  1
  Ga  Ga32  1  0.64316400  0.00000000  0.64316400  1
  Ga  Ga33  1  0.00000000  0.64316400  0.64316400  1
  Ga  Ga34  1  0.53314700  0.53314700  0.41278600  1
  Ga  Ga35  1  0.53314700  0.12036100  0.00000000  1
  Ga  Ga36  1  0.12036100  0.53314700  0.00000000  1
  Ga  Ga37  1  0.46685300  0.87963900  0.00000000  1
  Ga  Ga38  1  0.87963900  0.46685300  0.00000000  1
  Ga  Ga39  1  0.87963900  0.87963900  0.41278600  1
  Ga  Ga40  1  0.46685300  0.46685300  0.58721400  1
  Ga  Ga41  1  0.12036100  0.12036100  0.58721400  1
