# generated using pymatgen
data_TmSb(PbO3)2
_symmetry_space_group_name_H-M   'P 1'
_cell_length_a   5.86963240
_cell_length_b   5.86963240
_cell_length_c   5.86963198
_cell_angle_alpha   60.41553499
_cell_angle_beta   60.41553499
_cell_angle_gamma   60.41553755
_symmetry_Int_Tables_number   1
_chemical_formula_structural   TmSb(PbO3)2
_chemical_formula_sum   'Tm1 Sb1 Pb2 O6'
_cell_volume   144.33756041
_cell_formula_units_Z   1
loop_
 _symmetry_equiv_pos_site_id
 _symmetry_equiv_pos_as_xyz
  1  'x, y, z'
loop_
 _atom_site_type_symbol
 _atom_site_label
 _atom_site_symmetry_multiplicity
 _atom_site_fract_x
 _atom_site_fract_y
 _atom_site_fract_z
 _atom_site_occupancy
  Tm  Tm0  1  0.00000000  0.00000000  0.00000000  1
  Sb  Sb1  1  0.50000000  0.50000000  0.50000000  1
  Pb  Pb2  1  0.25035800  0.25035800  0.25035800  1
  Pb  Pb3  1  0.74964200  0.74964200  0.74964200  1
  O  O4  1  0.67380800  0.80150300  0.26528100  1
  O  O5  1  0.26528100  0.67380800  0.80150300  1
  O  O6  1  0.80150300  0.26528100  0.67380800  1
  O  O7  1  0.32619200  0.19849700  0.73471900  1
  O  O8  1  0.73471900  0.32619200  0.19849700  1
  O  O9  1  0.19849700  0.73471900  0.32619200  1
