# generated using pymatgen
data_Zn36Ga5Ni8
_symmetry_space_group_name_H-M   'P 1'
_cell_length_a   8.87071100
_cell_length_b   8.87071100
_cell_length_c   8.87071100
_cell_angle_alpha   90.00000000
_cell_angle_beta   90.00000000
_cell_angle_gamma   90.00000000
_symmetry_Int_Tables_number   1
_chemical_formula_structural   Zn36Ga5Ni8
_chemical_formula_sum   'Zn36 Ga5 Ni8'
_cell_volume   698.03193428
_cell_formula_units_Z   1
loop_
 _symmetry_equiv_pos_site_id
 _symmetry_equiv_pos_as_xyz
  1  'x, y, z'
loop_
 _atom_site_type_symbol
 _atom_site_label
 _atom_site_symmetry_multiplicity
 _atom_site_fract_x
 _atom_site_fract_y
 _atom_site_fract_z
 _atom_site_occupancy
  Zn  Zn0  1  0.31202600  0.00000000  0.00000000  1
  Zn  Zn1  1  0.68797400  0.00000000  0.00000000  1
  Zn  Zn2  1  0.00000000  0.00000000  0.31202600  1
  Zn  Zn3  1  0.00000000  0.00000000  0.68797400  1
  Zn  Zn4  1  0.00000000  0.68797400  0.00000000  1
  Zn  Zn5  1  0.00000000  0.31202600  0.00000000  1
  Zn  Zn6  1  0.86157000  0.50000000  0.50000000  1
  Zn  Zn7  1  0.13843000  0.50000000  0.50000000  1
  Zn  Zn8  1  0.50000000  0.50000000  0.86157000  1
  Zn  Zn9  1  0.50000000  0.50000000  0.13843000  1
  Zn  Zn10  1  0.50000000  0.13843000  0.50000000  1
  Zn  Zn11  1  0.50000000  0.86157000  0.50000000  1
  Zn  Zn12  1  0.29404600  0.29404600  0.05470100  1
  Zn  Zn13  1  0.70595400  0.05470100  0.70595400  1
  Zn  Zn14  1  0.70595400  0.94529900  0.29404600  1
  Zn  Zn15  1  0.94529900  0.70595400  0.29404600  1
  Zn  Zn16  1  0.05470100  0.70595400  0.70595400  1
  Zn  Zn17  1  0.29404600  0.70595400  0.94529900  1
  Zn  Zn18  1  0.70595400  0.29404600  0.94529900  1
  Zn  Zn19  1  0.05470100  0.29404600  0.29404600  1
  Zn  Zn20  1  0.29404600  0.05470100  0.29404600  1
  Zn  Zn21  1  0.94529900  0.29404600  0.70595400  1
  Zn  Zn22  1  0.29404600  0.94529900  0.70595400  1
  Zn  Zn23  1  0.70595400  0.70595400  0.05470100  1
  Zn  Zn24  1  0.82050000  0.82050000  0.53911000  1
  Zn  Zn25  1  0.17950000  0.53911000  0.17950000  1
  Zn  Zn26  1  0.17950000  0.46089000  0.82050000  1
  Zn  Zn27  1  0.46089000  0.17950000  0.82050000  1
  Zn  Zn28  1  0.53911000  0.17950000  0.17950000  1
  Zn  Zn29  1  0.82050000  0.17950000  0.46089000  1
  Zn  Zn30  1  0.17950000  0.82050000  0.46089000  1
  Zn  Zn31  1  0.53911000  0.82050000  0.82050000  1
  Zn  Zn32  1  0.82050000  0.53911000  0.82050000  1
  Zn  Zn33  1  0.46089000  0.82050000  0.17950000  1
  Zn  Zn34  1  0.82050000  0.46089000  0.17950000  1
  Zn  Zn35  1  0.17950000  0.17950000  0.53911000  1
  Ga  Ga36  1  0.00000000  0.00000000  0.00000000  1
  Ga  Ga37  1  0.61539100  0.61539100  0.61539100  1
  Ga  Ga38  1  0.38460900  0.61539100  0.38460900  1
  Ga  Ga39  1  0.38460900  0.38460900  0.61539100  1
  Ga  Ga40  1  0.61539100  0.38460900  0.38460900  1
  Ni  Ni41  1  0.33548000  0.33548000  0.33548000  1
  Ni  Ni42  1  0.66452000  0.33548000  0.66452000  1
  Ni  Ni43  1  0.66452000  0.66452000  0.33548000  1
  Ni  Ni44  1  0.33548000  0.66452000  0.66452000  1
  Ni  Ni45  1  0.82470800  0.82470800  0.82470800  1
  Ni  Ni46  1  0.17529200  0.82470800  0.17529200  1
  Ni  Ni47  1  0.17529200  0.17529200  0.82470800  1
  Ni  Ni48  1  0.82470800  0.17529200  0.17529200  1
