# generated using pymatgen
data_CeSe2
_symmetry_space_group_name_H-M   'P 1'
_cell_length_a   6.60219600
_cell_length_b   7.76990300
_cell_length_c   21.62169300
_cell_angle_alpha   90.00000000
_cell_angle_beta   90.00000000
_cell_angle_gamma   90.00000000
_symmetry_Int_Tables_number   1
_chemical_formula_structural   CeSe2
_chemical_formula_sum   'Ce12 Se24'
_cell_volume   1109.15874283
_cell_formula_units_Z   12
loop_
 _symmetry_equiv_pos_site_id
 _symmetry_equiv_pos_as_xyz
  1  'x, y, z'
loop_
 _atom_site_type_symbol
 _atom_site_label
 _atom_site_symmetry_multiplicity
 _atom_site_fract_x
 _atom_site_fract_y
 _atom_site_fract_z
 _atom_site_occupancy
  Ce  Ce0  1  0.00000000  0.00089500  0.75000000  1
  Ce  Ce1  1  0.50000000  0.49910500  0.25000000  1
  Ce  Ce2  1  0.00000000  0.99910500  0.25000000  1
  Ce  Ce3  1  0.50000000  0.50089500  0.75000000  1
  Ce  Ce4  1  0.99891600  0.68380000  0.58256300  1
  Ce  Ce5  1  0.50108400  0.81620000  0.08256300  1
  Ce  Ce6  1  0.49891600  0.81620000  0.41743700  1
  Ce  Ce7  1  0.00108400  0.68380000  0.91743700  1
  Ce  Ce8  1  0.00108400  0.31620000  0.41743700  1
  Ce  Ce9  1  0.49891600  0.18380000  0.91743700  1
  Ce  Ce10  1  0.50108400  0.18380000  0.58256300  1
  Ce  Ce11  1  0.99891600  0.31620000  0.08256300  1
  Se  Se12  1  0.26608000  0.91993200  0.52331000  1
  Se  Se13  1  0.23392000  0.58006800  0.02331000  1
  Se  Se14  1  0.76608000  0.58006800  0.47669000  1
  Se  Se15  1  0.73392000  0.91993200  0.97669000  1
  Se  Se16  1  0.73392000  0.08006800  0.47669000  1
  Se  Se17  1  0.76608000  0.41993200  0.97669000  1
  Se  Se18  1  0.23392000  0.41993200  0.52331000  1
  Se  Se19  1  0.26608000  0.08006800  0.02331000  1
  Se  Se20  1  0.75768600  0.93725600  0.64416700  1
  Se  Se21  1  0.74231400  0.56274400  0.14416700  1
  Se  Se22  1  0.25768600  0.56274400  0.35583300  1
  Se  Se23  1  0.24231400  0.93725600  0.85583300  1
  Se  Se24  1  0.24231400  0.06274400  0.35583300  1
  Se  Se25  1  0.25768600  0.43725600  0.85583300  1
  Se  Se26  1  0.74231400  0.43725600  0.64416700  1
  Se  Se27  1  0.75768600  0.06274400  0.14416700  1
  Se  Se28  1  0.25172900  0.75648600  0.68796800  1
  Se  Se29  1  0.24827100  0.74351400  0.18796800  1
  Se  Se30  1  0.75172900  0.74351400  0.31203200  1
  Se  Se31  1  0.74827100  0.75648600  0.81203200  1
  Se  Se32  1  0.74827100  0.24351400  0.31203200  1
  Se  Se33  1  0.75172900  0.25648600  0.81203200  1
  Se  Se34  1  0.24827100  0.25648600  0.68796800  1
  Se  Se35  1  0.25172900  0.24351400  0.18796800  1
