# generated using pymatgen
data_Dy3Co11B4
_symmetry_space_group_name_H-M   'P 1'
_cell_length_a   5.02483856
_cell_length_b   5.02483856
_cell_length_c   9.75566400
_cell_angle_alpha   90.00000000
_cell_angle_beta   90.00000000
_cell_angle_gamma   120.00000732
_symmetry_Int_Tables_number   1
_chemical_formula_structural   Dy3Co11B4
_chemical_formula_sum   'Dy3 Co11 B4'
_cell_volume   213.32004144
_cell_formula_units_Z   1
loop_
 _symmetry_equiv_pos_site_id
 _symmetry_equiv_pos_as_xyz
  1  'x, y, z'
loop_
 _atom_site_type_symbol
 _atom_site_label
 _atom_site_symmetry_multiplicity
 _atom_site_fract_x
 _atom_site_fract_y
 _atom_site_fract_z
 _atom_site_occupancy
  Dy  Dy0  1  0.00000000  0.00000000  0.65836400  1
  Dy  Dy1  1  0.00000000  0.00000000  0.34163600  1
  Dy  Dy2  1  0.00000000  0.00000000  0.00000000  1
  Co  Co3  1  0.50000000  0.50000000  0.50000000  1
  Co  Co4  1  0.00000000  0.50000000  0.50000000  1
  Co  Co5  1  0.50000000  0.00000000  0.20251100  1
  Co  Co6  1  0.50000000  0.50000000  0.20251100  1
  Co  Co7  1  0.00000000  0.50000000  0.20251100  1
  Co  Co8  1  0.50000000  0.00000000  0.79748900  1
  Co  Co9  1  0.50000000  0.50000000  0.79748900  1
  Co  Co10  1  0.00000000  0.50000000  0.79748900  1
  Co  Co11  1  0.33333300  0.66666700  0.00000000  1
  Co  Co12  1  0.66666700  0.33333300  0.00000000  1
  Co  Co13  1  0.50000000  0.00000000  0.50000000  1
  B  B14  1  0.33333300  0.66666700  0.65027600  1
  B  B15  1  0.66666700  0.33333300  0.65027600  1
  B  B16  1  0.66666700  0.33333300  0.34972400  1
  B  B17  1  0.33333300  0.66666700  0.34972400  1
