# generated using pymatgen
data_Dy2(WO4)3
_symmetry_space_group_name_H-M   'P 1'
_cell_length_a   6.92719506
_cell_length_b   6.92719506
_cell_length_c   11.40896666
_cell_angle_alpha   79.23485305
_cell_angle_beta   79.23485305
_cell_angle_gamma   111.87547026
_symmetry_Int_Tables_number   1
_chemical_formula_structural   Dy2(WO4)3
_chemical_formula_sum   'Dy4 W6 O24'
_cell_volume   478.96737232
_cell_formula_units_Z   2
loop_
 _symmetry_equiv_pos_site_id
 _symmetry_equiv_pos_as_xyz
  1  'x, y, z'
loop_
 _atom_site_type_symbol
 _atom_site_label
 _atom_site_symmetry_multiplicity
 _atom_site_fract_x
 _atom_site_fract_y
 _atom_site_fract_z
 _atom_site_occupancy
  Dy  Dy0  1  0.95824100  0.71176900  0.59280000  1
  Dy  Dy1  1  0.28823100  0.04175900  0.90720000  1
  Dy  Dy2  1  0.04175900  0.28823100  0.40720000  1
  Dy  Dy3  1  0.71176900  0.95824100  0.09280000  1
  W  W4  1  0.86824100  0.13175900  0.75000000  1
  W  W5  1  0.13175900  0.86824100  0.25000000  1
  W  W6  1  0.75315500  0.54014700  0.94991700  1
  W  W7  1  0.45985300  0.24684500  0.55008300  1
  W  W8  1  0.24684500  0.45985300  0.05008300  1
  W  W9  1  0.54014700  0.75315500  0.44991700  1
  O  O10  1  0.39359200  0.47070800  0.42630700  1
  O  O11  1  0.52929200  0.60640800  0.07369300  1
  O  O12  1  0.60640800  0.52929200  0.57369300  1
  O  O13  1  0.47070800  0.39359200  0.92630700  1
  O  O14  1  0.76985800  0.33295700  0.06124300  1
  O  O15  1  0.66704300  0.23014200  0.43875700  1
  O  O16  1  0.23014200  0.66704300  0.93875700  1
  O  O17  1  0.33295700  0.76985800  0.56124300  1
  O  O18  1  0.54159400  0.90004700  0.29810700  1
  O  O19  1  0.09995300  0.45840600  0.20189300  1
  O  O20  1  0.92265400  0.33945600  0.60515700  1
  O  O21  1  0.66054400  0.07734600  0.89484300  1
  O  O22  1  0.07734600  0.66054400  0.39484300  1
  O  O23  1  0.33945600  0.92265400  0.10515700  1
  O  O24  1  0.79130300  0.87076000  0.72037700  1
  O  O25  1  0.12924000  0.20869700  0.77962300  1
  O  O26  1  0.20869700  0.12924000  0.27962300  1
  O  O27  1  0.45840600  0.09995300  0.70189300  1
  O  O28  1  0.18105300  0.07976600  0.54001500  1
  O  O29  1  0.92023400  0.81894700  0.95998500  1
  O  O30  1  0.81894700  0.92023400  0.45998500  1
  O  O31  1  0.07976600  0.18105300  0.04001500  1
  O  O32  1  0.90004700  0.54159400  0.79810700  1
  O  O33  1  0.87076000  0.79130300  0.22037700  1
