# generated using pymatgen
data_Fe2Te4O11
_symmetry_space_group_name_H-M   'P 1'
_cell_length_a   7.05523000
_cell_length_b   11.96160000
_cell_length_c   14.37432062
_cell_angle_alpha   57.12663201
_cell_angle_beta   90.00000000
_cell_angle_gamma   90.00000000
_symmetry_Int_Tables_number   1
_chemical_formula_structural   Fe2Te4O11
_chemical_formula_sum   'Fe8 Te16 O44'
_cell_volume   1018.82832680
_cell_formula_units_Z   4
loop_
 _symmetry_equiv_pos_site_id
 _symmetry_equiv_pos_as_xyz
  1  'x, y, z'
loop_
 _atom_site_type_symbol
 _atom_site_label
 _atom_site_symmetry_multiplicity
 _atom_site_fract_x
 _atom_site_fract_y
 _atom_site_fract_z
 _atom_site_occupancy
  Fe  Fe0  1  0.75221500  0.88567000  0.37074800  1
  Fe  Fe1  1  0.25221500  0.11433000  0.12925200  1
  Fe  Fe2  1  0.24778500  0.11433000  0.62925200  1
  Fe  Fe3  1  0.74778500  0.88567000  0.87074800  1
  Fe  Fe4  1  0.45417100  0.71397900  0.59751300  1
  Fe  Fe5  1  0.95417100  0.28602100  0.90248700  1
  Fe  Fe6  1  0.54582900  0.28602100  0.40248700  1
  Fe  Fe7  1  0.04582900  0.71397900  0.09751300  1
  Te  Te8  1  0.79671500  0.62642000  0.36194400  1
  Te  Te9  1  0.20374800  0.77343600  0.83575600  1
  Te  Te10  1  0.29625200  0.77343600  0.33575600  1
  Te  Te11  1  0.79625200  0.22656400  0.16424400  1
  Te  Te12  1  0.70374800  0.22656400  0.66424400  1
  Te  Te13  1  0.29671500  0.37358000  0.13805600  1
  Te  Te14  1  0.20328500  0.37358000  0.63805600  1
  Te  Te15  1  0.70328500  0.62642000  0.86194400  1
  Te  Te16  1  0.89409300  0.59967300  0.64749000  1
  Te  Te17  1  0.39409300  0.40032700  0.85251000  1
  Te  Te18  1  0.10590700  0.40032700  0.35251000  1
  Te  Te19  1  0.60590700  0.59967300  0.14749000  1
  Te  Te20  1  0.74404000  0.00025300  0.02039100  1
  Te  Te21  1  0.24404000  0.99974700  0.47960900  1
  Te  Te22  1  0.25596000  0.99974700  0.97960900  1
  Te  Te23  1  0.75596000  0.00025300  0.52039100  1
  O  O24  1  0.95659700  0.46870600  0.60873200  1
  O  O25  1  0.45659700  0.53129400  0.89126800  1
  O  O26  1  0.04340300  0.53129400  0.39126800  1
  O  O27  1  0.54340300  0.46870600  0.10873200  1
  O  O28  1  0.71274500  0.27905000  0.51476800  1
  O  O29  1  0.21274500  0.72095000  0.98523200  1
  O  O30  1  0.28725500  0.72095000  0.48523200  1
  O  O31  1  0.78725500  0.27905000  0.01476800  1
  O  O32  1  0.77639000  0.16729200  0.88427100  1
  O  O33  1  0.27639000  0.83270800  0.61572900  1
  O  O34  1  0.22361000  0.83270800  0.11572900  1
  O  O35  1  0.72361000  0.16729200  0.38427100  1
  O  O36  1  0.82076300  0.45700300  0.79272100  1
  O  O37  1  0.32076300  0.54299700  0.70727900  1
  O  O38  1  0.17923700  0.54299700  0.20727900  1
  O  O39  1  0.67923700  0.45700300  0.29272100  1
  O  O40  1  0.74256500  0.04287900  0.72655300  1
  O  O41  1  0.17965900  0.29094100  0.79672100  1
  O  O42  1  0.32034100  0.29094100  0.29672100  1
  O  O43  1  0.82034100  0.70905900  0.20327900  1
  O  O44  1  0.67014700  0.63196100  0.56292700  1
  O  O45  1  0.17014700  0.36803900  0.93707300  1
  O  O46  1  0.32985300  0.36803900  0.43707300  1
  O  O47  1  0.82985300  0.63196100  0.06292700  1
  O  O48  1  0.57477000  0.90709400  0.47224000  1
  O  O49  1  0.07477000  0.09290600  0.02776000  1
  O  O50  1  0.42523000  0.09290600  0.52776000  1
  O  O51  1  0.92523000  0.90709400  0.97224000  1
  O  O52  1  0.93315300  0.93085700  0.45864500  1
  O  O53  1  0.43315300  0.06914300  0.04135500  1
  O  O54  1  0.06684700  0.06914300  0.54135500  1
  O  O55  1  0.56684700  0.93085700  0.95864500  1
  O  O56  1  0.93520100  0.75999000  0.36873900  1
  O  O57  1  0.43520100  0.24001000  0.13126100  1
  O  O58  1  0.06479900  0.24001000  0.63126100  1
  O  O59  1  0.56479900  0.75999000  0.86873900  1
  O  O60  1  0.57473700  0.79105500  0.32438000  1
  O  O61  1  0.07473700  0.20894500  0.17562000  1
  O  O62  1  0.42526300  0.20894500  0.67562000  1
  O  O63  1  0.92526300  0.79105500  0.82438000  1
  O  O64  1  0.75743500  0.04287900  0.22655300  1
  O  O65  1  0.25743500  0.95712100  0.27344700  1
  O  O66  1  0.24256500  0.95712100  0.77344700  1
  O  O67  1  0.67965900  0.70905900  0.70327900  1
