# generated using pymatgen
data_B17F27
_symmetry_space_group_name_H-M   'P 1'
_cell_length_a   7.41775400
_cell_length_b   13.37908411
_cell_length_c   13.77001721
_cell_angle_alpha   69.56540393
_cell_angle_beta   79.57940035
_cell_angle_gamma   81.16207719
_symmetry_Int_Tables_number   1
_chemical_formula_structural   B17F27
_chemical_formula_sum   'B34 F54'
_cell_volume   1253.37087541
_cell_formula_units_Z   2
loop_
 _symmetry_equiv_pos_site_id
 _symmetry_equiv_pos_as_xyz
  1  'x, y, z'
loop_
 _atom_site_type_symbol
 _atom_site_label
 _atom_site_symmetry_multiplicity
 _atom_site_fract_x
 _atom_site_fract_y
 _atom_site_fract_z
 _atom_site_occupancy
  B  B0  1  0.81926300  0.63146900  0.97481600  1
  B  B1  1  0.18073700  0.36853100  0.02518400  1
  B  B2  1  0.77160500  0.72201100  0.84414000  1
  B  B3  1  0.22839500  0.27798900  0.15586000  1
  B  B4  1  0.88709600  0.84147200  0.80513300  1
  B  B5  1  0.11290400  0.15852800  0.19486700  1
  B  B6  1  0.72502600  0.79222800  0.92492300  1
  B  B7  1  0.27497400  0.20777200  0.07507700  1
  B  B8  1  0.95480300  0.69114600  0.75868200  1
  B  B9  1  0.04519700  0.30885400  0.24131800  1
  B  B10  1  0.57507700  0.69664000  0.81048400  1
  B  B11  1  0.42492300  0.30336000  0.18951600  1
  B  B12  1  0.83765800  0.87014800  0.96781000  1
  B  B13  1  0.16234200  0.12985200  0.03219000  1
  B  B14  1  0.49814300  0.80226900  0.97774400  1
  B  B15  1  0.50185700  0.19773100  0.02225600  1
  B  B16  1  0.74298400  0.41425800  0.76153000  1
  B  B17  1  0.25701600  0.58574200  0.23847000  1
  B  B18  1  0.89391800  0.67183600  0.48803300  1
  B  B19  1  0.10608200  0.32816400  0.51196700  1
  B  B20  1  0.78249600  0.88206300  0.47243800  1
  B  B21  1  0.21750400  0.11793700  0.52756200  1
  B  B22  1  0.71828900  0.65357000  0.30769300  1
  B  B23  1  0.28171100  0.34643000  0.69230700  1
  B  B24  1  0.49007200  0.83772900  0.25282900  1
  B  B25  1  0.50992800  0.16227100  0.74717100  1
  B  B26  1  0.75152000  0.78076000  0.42768400  1
  B  B27  1  0.24848000  0.21924000  0.57231600  1
  B  B28  1  0.71761900  0.89397200  0.30632800  1
  B  B29  1  0.28238100  0.10602800  0.69367200  1
  B  B30  1  0.63532200  0.76499300  0.34340000  1
  B  B31  1  0.36467800  0.23500700  0.65660000  1
  B  B32  1  0.48327900  0.73452500  0.46912800  1
  B  B33  1  0.51672100  0.26547500  0.53087200  1
  F  F34  1  0.79913400  0.97587800  0.93882500  1
  F  F35  1  0.20086600  0.02412200  0.06117500  1
  F  F36  1  0.42473000  0.73124100  0.06592800  1
  F  F37  1  0.57527000  0.26875900  0.93407200  1
  F  F38  1  0.38716200  0.88600600  0.92933000  1
  F  F39  1  0.61283800  0.11399400  0.07067000  1
  F  F40  1  0.04898600  0.17698100  0.96135100  1
  F  F41  1  0.95101400  0.82301900  0.03864900  1
  F  F42  1  0.44138700  0.29021700  0.28836400  1
  F  F43  1  0.55861300  0.70978300  0.71163600  1
  F  F44  1  0.57350300  0.33217600  0.11911900  1
  F  F45  1  0.42649700  0.66782400  0.88088100  1
  F  F46  1  0.03644700  0.26147500  0.34524400  1
  F  F47  1  0.96355300  0.73852500  0.65475600  1
  F  F48  1  0.92040300  0.39105200  0.20800000  1
  F  F49  1  0.07959700  0.60894800  0.79200000  1
  F  F50  1  0.18557600  0.07229500  0.26649700  1
  F  F51  1  0.81442400  0.92770500  0.73350300  1
  F  F52  1  0.92938300  0.16342400  0.19050300  1
  F  F53  1  0.07061700  0.83657600  0.80949700  1
  F  F54  1  0.30014600  0.43919700  0.97318700  1
  F  F55  1  0.69985400  0.56080300  0.02681300  1
  F  F56  1  0.63316800  0.19069200  0.50464800  1
  F  F57  1  0.36683200  0.80930800  0.49535200  1
  F  F58  1  0.53949100  0.36753300  0.47918300  1
  F  F59  1  0.46050900  0.63246700  0.52081700  1
  F  F60  1  0.39666000  0.01755200  0.68808900  1
  F  F61  1  0.60334000  0.98244800  0.31191100  1
  F  F62  1  0.12886300  0.08913000  0.76356600  1
  F  F63  1  0.87113700  0.91087000  0.23643400  1
  F  F64  1  0.69113300  0.15730400  0.71873900  1
  F  F65  1  0.30886700  0.84269600  0.28126100  1
  F  F66  1  0.45050400  0.12429800  0.84999000  1
  F  F67  1  0.54949600  0.87570200  0.15001000  1
  F  F68  1  0.22920500  0.44019700  0.62294500  1
  F  F69  1  0.77079500  0.55980300  0.37705500  1
  F  F70  1  0.26005100  0.34271200  0.79199400  1
  F  F71  1  0.73994900  0.65728800  0.20800600  1
  F  F72  1  0.34501700  0.09271100  0.45655700  1
  F  F73  1  0.65498300  0.90728900  0.54344300  1
  F  F74  1  0.06093800  0.07225200  0.55462000  1
  F  F75  1  0.93906200  0.92774800  0.44538000  1
  F  F76  1  0.16231600  0.40879600  0.42700500  1
  F  F77  1  0.83768400  0.59120400  0.57299500  1
  F  F78  1  0.92736800  0.33380200  0.54933300  1
  F  F79  1  0.07263200  0.66619800  0.45066700  1
  F  F80  1  0.01515200  0.38320900  0.99619000  1
  F  F81  1  0.98484800  0.61679100  0.00381000  1
  F  F82  1  0.27008500  0.51471500  0.18912700  1
  F  F83  1  0.72991500  0.48528500  0.81087300  1
  F  F84  1  0.11035500  0.65640800  0.23557700  1
  F  F85  1  0.88964500  0.34359200  0.76442300  1
  F  F86  1  0.39022100  0.58473300  0.29167800  1
  F  F87  1  0.60977900  0.41526700  0.70832200  1
