# generated using pymatgen
data_Ta3SBr7
_symmetry_space_group_name_H-M   'P 1'
_cell_length_a   7.16422527
_cell_length_b   7.16422527
_cell_length_c   9.27273553
_cell_angle_alpha   55.12298274
_cell_angle_beta   55.12298274
_cell_angle_gamma   59.99782734
_symmetry_Int_Tables_number   1
_chemical_formula_structural   Ta3SBr7
_chemical_formula_sum   'Ta3 S1 Br7'
_cell_volume   309.54498900
_cell_formula_units_Z   1
loop_
 _symmetry_equiv_pos_site_id
 _symmetry_equiv_pos_as_xyz
  1  'x, y, z'
loop_
 _atom_site_type_symbol
 _atom_site_label
 _atom_site_symmetry_multiplicity
 _atom_site_fract_x
 _atom_site_fract_y
 _atom_site_fract_z
 _atom_site_occupancy
  Ta  Ta0  1  0.24525300  0.64726100  0.38708100  1
  Ta  Ta1  1  0.64726100  0.24525300  0.38708100  1
  Ta  Ta2  1  0.64729200  0.64729200  0.38698800  1
  S  S3  1  0.63680400  0.63680400  0.13644400  1
  Br  Br4  1  0.72715400  0.22418900  0.63327800  1
  Br  Br5  1  0.22418900  0.72715400  0.63327800  1
  Br  Br6  1  0.74807300  0.74807300  0.58651200  1
  Br  Br7  1  0.11558300  0.11558300  0.18218400  1
  Br  Br8  1  0.22405700  0.22405700  0.63360200  1
  Br  Br9  1  0.61101700  0.11571600  0.18247500  1
  Br  Br10  1  0.11571600  0.61101700  0.18247500  1
