# generated using pymatgen
data_B5F6
_symmetry_space_group_name_H-M   'P 1'
_cell_length_a   14.76632563
_cell_length_b   14.76632563
_cell_length_c   14.76632563
_cell_angle_alpha   154.31308421
_cell_angle_beta   154.31308421
_cell_angle_gamma   36.64470193
_symmetry_Int_Tables_number   1
_chemical_formula_structural   B5F6
_chemical_formula_sum   'B20 F24'
_cell_volume   604.10778787
_cell_formula_units_Z   4
loop_
 _symmetry_equiv_pos_site_id
 _symmetry_equiv_pos_as_xyz
  1  'x, y, z'
loop_
 _atom_site_type_symbol
 _atom_site_label
 _atom_site_symmetry_multiplicity
 _atom_site_fract_x
 _atom_site_fract_y
 _atom_site_fract_z
 _atom_site_occupancy
  B  B0  1  0.39532100  0.56752500  0.01067200  1
  B  B1  1  0.31752500  0.80685300  0.67220400  1
  B  B2  1  0.13464900  0.64532100  0.32779600  1
  B  B3  1  0.55685300  0.38464900  0.98932800  1
  B  B4  1  0.35467900  0.68247500  0.48932800  1
  B  B5  1  0.43247500  0.44314700  0.82779600  1
  B  B6  1  0.61535100  0.60467900  0.17220400  1
  B  B7  1  0.19314700  0.86535100  0.51067200  1
  B  B8  1  0.41882400  0.41882400  0.00000000  1
  B  B9  1  0.16882400  0.66882400  0.50000000  1
  B  B10  1  0.33117600  0.83117600  0.50000000  1
  B  B11  1  0.58117600  0.58117600  0.00000000  1
  B  B12  1  0.20341100  0.72075200  0.01310900  1
  B  B13  1  0.47075200  0.95764300  0.01734100  1
  B  B14  1  0.94030200  0.45341100  0.98265900  1
  B  B15  1  0.70764300  0.19030200  0.98689100  1
  B  B16  1  0.54658900  0.52924800  0.48689100  1
  B  B17  1  0.27924800  0.29235700  0.48265900  1
  B  B18  1  0.80969800  0.79658900  0.51734100  1
  B  B19  1  0.04235700  0.05969800  0.51310900  1
  F  F20  1  0.25509700  0.28734100  0.75487400  1
  F  F21  1  0.03734100  0.78246800  0.53224400  1
  F  F22  1  0.25022300  0.50509700  0.46775600  1
  F  F23  1  0.53246800  0.50022300  0.24512600  1
  F  F24  1  0.49490300  0.96265900  0.74512600  1
  F  F25  1  0.71265900  0.46753200  0.96775600  1
  F  F26  1  0.49977700  0.74490300  0.03224400  1
  F  F27  1  0.21753200  0.74977700  0.25487400  1
  F  F28  1  0.01014600  0.64659400  0.78892300  1
  F  F29  1  0.39659400  0.10767100  0.13644800  1
  F  F30  1  0.97122300  0.26014600  0.86355200  1
  F  F31  1  0.85767100  0.22122300  0.21107700  1
  F  F32  1  0.73985400  0.60340600  0.71107700  1
  F  F33  1  0.35340600  0.14232900  0.36355200  1
  F  F34  1  0.77877700  0.98985400  0.63644800  1
  F  F35  1  0.89232900  0.02877700  0.28892300  1
  F  F36  1  0.24292300  0.92713600  0.24261600  1
  F  F37  1  0.67713600  0.93452000  0.18421300  1
  F  F38  1  0.75030700  0.49292300  0.81578700  1
  F  F39  1  0.68452000  0.00030700  0.75738400  1
  F  F40  1  0.50707700  0.32286400  0.25738400  1
  F  F41  1  0.07286400  0.31548000  0.31578700  1
  F  F42  1  0.99969300  0.75707700  0.68421300  1
  F  F43  1  0.06548000  0.24969300  0.74261600  1
