data_image0
_chemical_formula_structural       FeRh2Se4
_chemical_formula_sum              "Fe1 Rh2 Se4"
_cell_length_a       3.70063
_cell_length_b       6.46626
_cell_length_c       6.54049
_cell_angle_alpha    119.167
_cell_angle_beta     106.433
_cell_angle_gamma    90

_space_group_name_H-M_alt    "P 1"
_space_group_IT_number       1

loop_
  _space_group_symop_operation_xyz
  'x, y, z'

loop_
  _atom_site_type_symbol
  _atom_site_label
  _atom_site_symmetry_multiplicity
  _atom_site_fract_x
  _atom_site_fract_y
  _atom_site_fract_z
  _atom_site_occupancy
  Fe  Fe1       1.0  0.00000  0.00000  0.00000  1.0000
  Rh  Rh1       1.0  0.73700  0.72100  0.47500  1.0000
  Rh  Rh2       1.0  0.26300  0.27900  0.52500  1.0000
  Se  Se1       1.0  0.12000  0.44500  0.24000  1.0000
  Se  Se2       1.0  0.63200  0.97200  0.26400  1.0000
  Se  Se3       1.0  0.36800  0.02840  0.73600  1.0000
  Se  Se4       1.0  0.88000  0.55500  0.76000  1.0000
