# generated using pymatgen
data_RbCO3
_symmetry_space_group_name_H-M   'P 1'
_cell_length_a   10.71095900
_cell_length_b   7.87814400
_cell_length_c   8.04467863
_cell_angle_alpha   78.49516639
_cell_angle_beta   90.00000000
_cell_angle_gamma   90.00000000
_symmetry_Int_Tables_number   1
_chemical_formula_structural   RbCO3
_chemical_formula_sum   'Rb8 C8 O24'
_cell_volume   665.19078202
_cell_formula_units_Z   8
loop_
 _symmetry_equiv_pos_site_id
 _symmetry_equiv_pos_as_xyz
  1  'x, y, z'
loop_
 _atom_site_type_symbol
 _atom_site_label
 _atom_site_symmetry_multiplicity
 _atom_site_fract_x
 _atom_site_fract_y
 _atom_site_fract_z
 _atom_site_occupancy
  Rb  Rb0  1  0.91366800  0.00610500  0.25152800  1
  Rb  Rb1  1  0.41366800  0.49389500  0.74847200  1
  Rb  Rb2  1  0.08633200  0.99389500  0.74847200  1
  Rb  Rb3  1  0.58633200  0.50610500  0.25152800  1
  Rb  Rb4  1  0.51293800  0.00563700  0.25420100  1
  Rb  Rb5  1  0.01293800  0.49436300  0.74579900  1
  Rb  Rb6  1  0.48706200  0.99436300  0.74579900  1
  Rb  Rb7  1  0.98706200  0.50563700  0.25420100  1
  C  C8  1  0.22549100  0.18571600  0.03668200  1
  C  C9  1  0.27450900  0.68571600  0.03668200  1
  C  C10  1  0.77450900  0.81428400  0.96331800  1
  C  C11  1  0.72549100  0.31428400  0.96331800  1
  C  C12  1  0.77845400  0.19386900  0.55278500  1
  C  C13  1  0.27845400  0.30613100  0.44721500  1
  C  C14  1  0.22154600  0.80613100  0.44721500  1
  C  C15  1  0.72154600  0.69386900  0.55278500  1
  O  O16  1  0.70538000  0.77184100  0.82743900  1
  O  O17  1  0.20538000  0.72815900  0.17256100  1
  O  O18  1  0.29462000  0.22815900  0.17256100  1
  O  O19  1  0.79462000  0.27184100  0.82743900  1
  O  O20  1  0.79090000  0.72572900  0.69311200  1
  O  O21  1  0.29090000  0.77427100  0.30688800  1
  O  O22  1  0.20910000  0.27427100  0.30688800  1
  O  O23  1  0.70910000  0.22572900  0.69311200  1
  O  O24  1  0.69811900  0.85808700  0.06650800  1
  O  O25  1  0.19811900  0.64191300  0.93349200  1
  O  O26  1  0.30188100  0.14191300  0.93349200  1
  O  O27  1  0.80188100  0.35808700  0.06650800  1
  O  O28  1  0.60538100  0.71200300  0.54713700  1
  O  O29  1  0.10538100  0.78799700  0.45286300  1
  O  O30  1  0.39461900  0.28799700  0.45286300  1
  O  O31  1  0.89461900  0.21200300  0.54713700  1
  O  O32  1  0.79687400  0.64945500  0.44888000  1
  O  O33  1  0.29687400  0.85054500  0.55112000  1
  O  O34  1  0.20312600  0.35054500  0.55112000  1
  O  O35  1  0.70312600  0.14945500  0.44888000  1
  O  O36  1  0.39093500  0.69663100  0.03297600  1
  O  O37  1  0.10906500  0.19663100  0.03297600  1
  O  O38  1  0.60906500  0.30336900  0.96702400  1
  O  O39  1  0.89093500  0.80336900  0.96702400  1
