# generated using pymatgen
data_CeSe2
_symmetry_space_group_name_H-M   'P 1'
_cell_length_a   12.52710735
_cell_length_b   12.52710729
_cell_length_c   18.49796336
_cell_angle_alpha   70.20792701
_cell_angle_beta   70.20792777
_cell_angle_gamma   60.00000018
_symmetry_Int_Tables_number   1
_chemical_formula_structural   CeSe2
_chemical_formula_sum   'Ce12 Se24'
_cell_volume   2313.82362761
_cell_formula_units_Z   12
loop_
 _symmetry_equiv_pos_site_id
 _symmetry_equiv_pos_as_xyz
  1  'x, y, z'
loop_
 _atom_site_type_symbol
 _atom_site_label
 _atom_site_symmetry_multiplicity
 _atom_site_fract_x
 _atom_site_fract_y
 _atom_site_fract_z
 _atom_site_occupancy
  Ce  Ce0  1  0.37440505  0.02900498  0.64930675  1
  Ce  Ce1  1  0.02900498  0.94728321  0.64930675  1
  Ce  Ce2  1  0.94728321  0.37440505  0.64930675  1
  Ce  Ce3  1  0.52900498  0.87440505  0.14930675  1
  Ce  Ce4  1  0.87440505  0.44728321  0.14930675  1
  Ce  Ce5  1  0.44728321  0.52900498  0.14930675  1
  Ce  Ce6  1  0.62561952  0.97099754  0.35064265  1
  Ce  Ce7  1  0.97099754  0.05274030  0.35064265  1
  Ce  Ce8  1  0.05274030  0.62561952  0.35064265  1
  Ce  Ce9  1  0.47099754  0.12561952  0.85064265  1
  Ce  Ce10  1  0.12561952  0.55274030  0.85064265  1
  Ce  Ce11  1  0.55274030  0.47099754  0.85064265  1
  Se  Se12  1  0.49996685  0.00000560  0.49994228  1
  Se  Se13  1  0.00000560  0.00008527  0.49994228  1
  Se  Se14  1  0.00008527  0.49996685  0.49994228  1
  Se  Se15  1  0.50000560  0.99996685  0.99994228  1
  Se  Se16  1  0.99996685  0.50008527  0.99994228  1
  Se  Se17  1  0.50008527  0.50000560  0.99994228  1
  Se  Se18  1  0.74998904  0.52150223  0.74990767  1
  Se  Se19  1  0.52150223  0.97860105  0.74990767  1
  Se  Se20  1  0.97860105  0.74998904  0.74990767  1
  Se  Se21  1  0.02150223  0.24998904  0.24990767  1
  Se  Se22  1  0.24998904  0.47860105  0.24990767  1
  Se  Se23  1  0.47860105  0.02150223  0.24990767  1
  Se  Se24  1  0.26002665  0.88150170  0.67099667  1
  Se  Se25  1  0.88150170  0.18747497  0.67099667  1
  Se  Se26  1  0.18747497  0.26002665  0.67099667  1
  Se  Se27  1  0.38150170  0.76002665  0.17099667  1
  Se  Se28  1  0.76002665  0.68747497  0.17099667  1
  Se  Se29  1  0.68747497  0.38150170  0.17099667  1
  Se  Se30  1  0.73997052  0.11849856  0.32900397  1
  Se  Se31  1  0.11849856  0.81252695  0.32900397  1
  Se  Se32  1  0.81252695  0.73997052  0.32900397  1
  Se  Se33  1  0.61849856  0.23997052  0.82900397  1
  Se  Se34  1  0.23997052  0.31252695  0.82900397  1
  Se  Se35  1  0.31252695  0.61849856  0.82900397  1
