# generated using pymatgen
data_CeSe2
_symmetry_space_group_name_H-M   'P 1'
_cell_length_a   18.84854766
_cell_length_b   18.84854766
_cell_length_c   7.60354300
_cell_angle_alpha   90.00000000
_cell_angle_beta   90.00000000
_cell_angle_gamma   119.99999881
_symmetry_Int_Tables_number   1
_chemical_formula_structural   CeSe2
_chemical_formula_sum   'Ce12 Se24'
_cell_volume   2339.38891334
_cell_formula_units_Z   12
loop_
 _symmetry_equiv_pos_site_id
 _symmetry_equiv_pos_as_xyz
  1  'x, y, z'
loop_
 _atom_site_type_symbol
 _atom_site_label
 _atom_site_symmetry_multiplicity
 _atom_site_fract_x
 _atom_site_fract_y
 _atom_site_fract_z
 _atom_site_occupancy
  Ce  Ce0  1  0.46659000  0.31150000  0.78020400  1
  Ce  Ce1  1  0.84491000  0.53341000  0.78020400  1
  Ce  Ce2  1  0.68850000  0.15509000  0.78020400  1
  Ce  Ce3  1  0.53341000  0.84491000  0.78020400  1
  Ce  Ce4  1  0.31150000  0.46659000  0.78020400  1
  Ce  Ce5  1  0.15509000  0.68850000  0.78020400  1
  Ce  Ce6  1  0.53341000  0.68850000  0.21979600  1
  Ce  Ce7  1  0.15509000  0.46659000  0.21979600  1
  Ce  Ce8  1  0.31150000  0.84491000  0.21979600  1
  Ce  Ce9  1  0.46659000  0.15509000  0.21979600  1
  Ce  Ce10  1  0.68850000  0.53341000  0.21979600  1
  Ce  Ce11  1  0.84491000  0.31150000  0.21979600  1
  Se  Se12  1  0.81360500  0.62720900  0.00000000  1
  Se  Se13  1  0.81360500  0.18639500  0.00000000  1
  Se  Se14  1  0.37279100  0.18639500  0.00000000  1
  Se  Se15  1  0.18639500  0.81360500  0.00000000  1
  Se  Se16  1  0.62720900  0.81360500  0.00000000  1
  Se  Se17  1  0.18639500  0.37279100  0.00000000  1
  Se  Se18  1  0.61500500  0.61500500  0.34721700  1
  Se  Se19  1  0.00000000  0.38499500  0.34721700  1
  Se  Se20  1  0.38499500  0.00000000  0.34721700  1
  Se  Se21  1  0.38499500  0.38499500  0.65278300  1
  Se  Se22  1  0.00000000  0.61500500  0.65278300  1
  Se  Se23  1  0.61500500  0.00000000  0.65278300  1
  Se  Se24  1  0.58902400  0.41097600  0.00000000  1
  Se  Se25  1  0.82195200  0.41097600  0.00000000  1
  Se  Se26  1  0.58902400  0.17804800  0.00000000  1
  Se  Se27  1  0.41097600  0.82195200  0.00000000  1
  Se  Se28  1  0.41097600  0.58902400  0.00000000  1
  Se  Se29  1  0.17804800  0.58902400  0.00000000  1
  Se  Se30  1  0.74249000  0.48498000  0.50000000  1
  Se  Se31  1  0.74249000  0.25751000  0.50000000  1
  Se  Se32  1  0.51502000  0.25751000  0.50000000  1
  Se  Se33  1  0.25751000  0.74249000  0.50000000  1
  Se  Se34  1  0.48498000  0.74249000  0.50000000  1
  Se  Se35  1  0.25751000  0.51502000  0.50000000  1
