# generated using pymatgen
data_CeSe2
_symmetry_space_group_name_H-M   'P 1'
_cell_length_a   19.59953598
_cell_length_b   19.59953598
_cell_length_c   13.00683714
_cell_angle_alpha   80.42632418
_cell_angle_beta   80.42632418
_cell_angle_gamma   71.45710300
_symmetry_Int_Tables_number   1
_chemical_formula_structural   CeSe2
_chemical_formula_sum   'Ce16 Se32'
_cell_volume   4636.60041592
_cell_formula_units_Z   16
loop_
 _symmetry_equiv_pos_site_id
 _symmetry_equiv_pos_as_xyz
  1  'x, y, z'
loop_
 _atom_site_type_symbol
 _atom_site_label
 _atom_site_symmetry_multiplicity
 _atom_site_fract_x
 _atom_site_fract_y
 _atom_site_fract_z
 _atom_site_occupancy
  Ce  Ce0  1  0.37380500  0.60147000  0.30098500  1
  Ce  Ce1  1  0.60147000  0.37380500  0.30098500  1
  Ce  Ce2  1  0.62619500  0.39853000  0.69901500  1
  Ce  Ce3  1  0.39853000  0.62619500  0.69901500  1
  Ce  Ce4  1  0.53287300  0.76196500  0.09921100  1
  Ce  Ce5  1  0.76196500  0.53287300  0.09921100  1
  Ce  Ce6  1  0.46712700  0.23803500  0.90078900  1
  Ce  Ce7  1  0.23803500  0.46712700  0.90078900  1
  Ce  Ce8  1  0.13830700  0.36393600  0.62150300  1
  Ce  Ce9  1  0.36393600  0.13830700  0.62150300  1
  Ce  Ce10  1  0.86169300  0.63606400  0.37849700  1
  Ce  Ce11  1  0.63606400  0.86169300  0.37849700  1
  Ce  Ce12  1  0.13529600  0.54228500  0.27217800  1
  Ce  Ce13  1  0.54228500  0.13529600  0.27217800  1
  Ce  Ce14  1  0.86470400  0.45771500  0.72782200  1
  Ce  Ce15  1  0.45771500  0.86470400  0.72782200  1
  Se  Se16  1  0.42102600  0.70567600  0.17115100  1
  Se  Se17  1  0.70567600  0.42102600  0.17115100  1
  Se  Se18  1  0.57897400  0.29432400  0.82884900  1
  Se  Se19  1  0.29432400  0.57897400  0.82884900  1
  Se  Se20  1  0.23802400  0.60969500  0.26545600  1
  Se  Se21  1  0.60969500  0.23802400  0.26545600  1
  Se  Se22  1  0.76197600  0.39030500  0.73454400  1
  Se  Se23  1  0.39030500  0.76197600  0.73454400  1
  Se  Se24  1  0.49841900  0.85468600  0.92114200  1
  Se  Se25  1  0.85468600  0.49841900  0.92114200  1
  Se  Se26  1  0.50158100  0.14531400  0.07885800  1
  Se  Se27  1  0.14531400  0.50158100  0.07885800  1
  Se  Se28  1  0.37442200  0.62557800  0.50000000  1
  Se  Se29  1  0.62557800  0.37442200  0.50000000  1
  Se  Se30  1  0.15713100  0.42370700  0.41846600  1
  Se  Se31  1  0.42370700  0.15713100  0.41846600  1
  Se  Se32  1  0.84286900  0.57629300  0.58153400  1
  Se  Se33  1  0.57629300  0.84286900  0.58153400  1
  Se  Se34  1  0.55674500  0.83050400  0.24863800  1
  Se  Se35  1  0.83050400  0.55674500  0.24863800  1
  Se  Se36  1  0.44325500  0.16949600  0.75136200  1
  Se  Se37  1  0.16949600  0.44325500  0.75136200  1
  Se  Se38  1  0.46887700  0.46887700  0.27545100  1
  Se  Se39  1  0.53112300  0.53112300  0.72454900  1
  Se  Se40  1  0.99899600  0.36273700  0.67891800  1
  Se  Se41  1  0.36273700  0.99899600  0.67891800  1
  Se  Se42  1  0.00100400  0.63726300  0.32108200  1
  Se  Se43  1  0.63726300  0.00100400  0.32108200  1
  Se  Se44  1  0.65560600  0.65560600  0.04458500  1
  Se  Se45  1  0.34439400  0.34439400  0.95541500  1
  Se  Se46  1  0.22272200  0.22272200  0.64540700  1
  Se  Se47  1  0.77727800  0.77727800  0.35459300  1
