# generated using pymatgen
data_Te2Ir
_symmetry_space_group_name_H-M   'P 1'
_cell_length_a   6.54262500
_cell_length_b   6.54262500
_cell_length_c   6.54262500
_cell_angle_alpha   90.00000000
_cell_angle_beta   90.00000000
_cell_angle_gamma   90.00000000
_symmetry_Int_Tables_number   1
_chemical_formula_structural   Te2Ir
_chemical_formula_sum   'Te8 Ir4'
_cell_volume   280.06322556
_cell_formula_units_Z   4
loop_
 _symmetry_equiv_pos_site_id
 _symmetry_equiv_pos_as_xyz
  1  'x, y, z'
loop_
 _atom_site_type_symbol
 _atom_site_label
 _atom_site_symmetry_multiplicity
 _atom_site_fract_x
 _atom_site_fract_y
 _atom_site_fract_z
 _atom_site_occupancy
  Te  Te0  1  0.36701400  0.13298600  0.86701400  1
  Te  Te1  1  0.13298600  0.86701400  0.36701400  1
  Te  Te2  1  0.86701400  0.36701400  0.13298600  1
  Te  Te3  1  0.63298600  0.63298600  0.63298600  1
  Te  Te4  1  0.36701400  0.36701400  0.36701400  1
  Te  Te5  1  0.13298600  0.63298600  0.86701400  1
  Te  Te6  1  0.86701400  0.13298600  0.63298600  1
  Te  Te7  1  0.63298600  0.86701400  0.13298600  1
  Ir  Ir8  1  0.00000000  0.50000000  0.50000000  1
  Ir  Ir9  1  0.50000000  0.50000000  0.00000000  1
  Ir  Ir10  1  0.50000000  0.00000000  0.50000000  1
  Ir  Ir11  1  0.00000000  0.00000000  0.00000000  1
