# generated using pymatgen
data_TiAgF6
_symmetry_space_group_name_H-M   'P 1'
_cell_length_a   5.26291963
_cell_length_b   5.45788294
_cell_length_c   5.86865860
_cell_angle_alpha   94.08180942
_cell_angle_beta   117.19884575
_cell_angle_gamma   118.69592736
_symmetry_Int_Tables_number   1
_chemical_formula_structural   TiAgF6
_chemical_formula_sum   'Ti1 Ag1 F6'
_cell_volume   122.05155096
_cell_formula_units_Z   1
loop_
 _symmetry_equiv_pos_site_id
 _symmetry_equiv_pos_as_xyz
  1  'x, y, z'
loop_
 _atom_site_type_symbol
 _atom_site_label
 _atom_site_symmetry_multiplicity
 _atom_site_fract_x
 _atom_site_fract_y
 _atom_site_fract_z
 _atom_site_occupancy
  Ti  Ti0  1  0.00000000  0.50000000  0.50000000  1
  Ag  Ag1  1  0.00000000  0.00000000  0.00000000  1
  F  F2  1  0.86786300  0.70517000  0.29093100  1
  F  F3  1  0.13213700  0.29483000  0.70906900  1
  F  F4  1  0.47044400  0.85918100  0.72737600  1
  F  F5  1  0.52955600  0.14081900  0.27262400  1
  F  F6  1  0.89193200  0.61728800  0.74120400  1
  F  F7  1  0.10806800  0.38271200  0.25879600  1
