# generated using pymatgen
data_CsHC2
_symmetry_space_group_name_H-M   'P 1'
_cell_length_a   9.15915705
_cell_length_b   9.15915705
_cell_length_c   9.15915752
_cell_angle_alpha   109.14910609
_cell_angle_beta   109.14910609
_cell_angle_gamma   109.14909931
_symmetry_Int_Tables_number   1
_chemical_formula_structural   CsHC2
_chemical_formula_sum   'Cs6 H6 C12'
_cell_volume   598.43638973
_cell_formula_units_Z   6
loop_
 _symmetry_equiv_pos_site_id
 _symmetry_equiv_pos_as_xyz
  1  'x, y, z'
loop_
 _atom_site_type_symbol
 _atom_site_label
 _atom_site_symmetry_multiplicity
 _atom_site_fract_x
 _atom_site_fract_y
 _atom_site_fract_z
 _atom_site_occupancy
  Cs  Cs0  1  0.38274200  0.73503400  0.25803900  1
  Cs  Cs1  1  0.73503400  0.25803900  0.38274200  1
  Cs  Cs2  1  0.25803900  0.38274200  0.73503400  1
  Cs  Cs3  1  0.75803900  0.23503400  0.88274200  1
  Cs  Cs4  1  0.23503400  0.88274200  0.75803900  1
  Cs  Cs5  1  0.88274200  0.75803900  0.23503400  1
  H  H6  1  0.79397300  0.64535900  0.81095300  1
  H  H7  1  0.64535900  0.81095300  0.79397300  1
  H  H8  1  0.81095300  0.79397300  0.64535900  1
  H  H9  1  0.31095300  0.14535900  0.29397300  1
  H  H10  1  0.14535900  0.29397300  0.31095300  1
  H  H11  1  0.29397300  0.31095300  0.14535900  1
  C  C12  1  0.39965300  0.33233700  0.11322700  1
  C  C13  1  0.11322700  0.39965300  0.33233700  1
  C  C14  1  0.33233700  0.11322700  0.39965300  1
  C  C15  1  0.83233700  0.89965300  0.61322700  1
  C  C16  1  0.61322700  0.83233700  0.89965300  1
  C  C17  1  0.89965300  0.61322700  0.83233700  1
  C  C18  1  0.52124900  0.35923600  0.07519900  1
  C  C19  1  0.07519900  0.52124900  0.35923600  1
  C  C20  1  0.35923600  0.07519900  0.52124900  1
  C  C21  1  0.85923600  0.02124900  0.57519900  1
  C  C22  1  0.57519900  0.85923600  0.02124900  1
  C  C23  1  0.02124900  0.57519900  0.85923600  1
