# generated using pymatgen
data_RbC
_symmetry_space_group_name_H-M   'P 1'
_cell_length_a   4.80064900
_cell_length_b   9.47494900
_cell_length_c   9.85475000
_cell_angle_alpha   90.00000000
_cell_angle_beta   90.00000000
_cell_angle_gamma   90.00000000
_symmetry_Int_Tables_number   1
_chemical_formula_structural   RbC
_chemical_formula_sum   'Rb8 C8'
_cell_volume   448.25221680
_cell_formula_units_Z   8
loop_
 _symmetry_equiv_pos_site_id
 _symmetry_equiv_pos_as_xyz
  1  'x, y, z'
loop_
 _atom_site_type_symbol
 _atom_site_label
 _atom_site_symmetry_multiplicity
 _atom_site_fract_x
 _atom_site_fract_y
 _atom_site_fract_z
 _atom_site_occupancy
  Rb  Rb0  1  0.25000000  0.98707800  0.66854400  1
  Rb  Rb1  1  0.75000000  0.01292200  0.33145600  1
  Rb  Rb2  1  0.25000000  0.48707800  0.83145600  1
  Rb  Rb3  1  0.75000000  0.51292200  0.16854400  1
  Rb  Rb4  1  0.25000000  0.33917600  0.42774300  1
  Rb  Rb5  1  0.75000000  0.66082400  0.57225700  1
  Rb  Rb6  1  0.25000000  0.83917600  0.07225700  1
  Rb  Rb7  1  0.75000000  0.16082400  0.92774300  1
  C  C8  1  0.25000000  0.66872100  0.35333800  1
  C  C9  1  0.75000000  0.33127900  0.64666200  1
  C  C10  1  0.25000000  0.16872100  0.14666200  1
  C  C11  1  0.75000000  0.83127900  0.85333800  1
  C  C12  1  0.25000000  0.78942300  0.40932800  1
  C  C13  1  0.75000000  0.21057700  0.59067200  1
  C  C14  1  0.25000000  0.28942300  0.09067200  1
  C  C15  1  0.75000000  0.71057700  0.90932800  1
