# generated using pymatgen
data_Nd2S3
_symmetry_space_group_name_H-M   'P 1'
_cell_length_a   14.21582691
_cell_length_b   14.21582691
_cell_length_c   14.21582691
_cell_angle_alpha   144.77272638
_cell_angle_beta   144.77272638
_cell_angle_gamma   50.67334329
_symmetry_Int_Tables_number   1
_chemical_formula_structural   Nd2S3
_chemical_formula_sum   'Nd16 S24'
_cell_volume   951.00208695
_cell_formula_units_Z   8
loop_
 _symmetry_equiv_pos_site_id
 _symmetry_equiv_pos_as_xyz
  1  'x, y, z'
loop_
 _atom_site_type_symbol
 _atom_site_label
 _atom_site_symmetry_multiplicity
 _atom_site_fract_x
 _atom_site_fract_y
 _atom_site_fract_z
 _atom_site_occupancy
  Nd  Nd0  1  0.71900700  0.59907700  0.39648600  1
  Nd  Nd1  1  0.41573800  0.91573800  0.50000000  1
  Nd  Nd2  1  0.99503600  0.62500000  0.87003600  1
  Nd  Nd3  1  0.33426200  0.33426200  0.00000000  1
  Nd  Nd4  1  0.03099300  0.92748000  0.38007100  1
  Nd  Nd5  1  0.54740900  0.65092300  0.61992900  1
  Nd  Nd6  1  0.75496400  0.12500000  0.12996400  1
  Nd  Nd7  1  0.34907700  0.96900700  0.89648600  1
  Nd  Nd8  1  0.37500000  0.24503600  0.37003600  1
  Nd  Nd9  1  0.66573800  0.66573800  0.00000000  1
  Nd  Nd10  1  0.07252000  0.45259100  0.10351400  1
  Nd  Nd11  1  0.87500000  0.00496400  0.62996400  1
  Nd  Nd12  1  0.08426200  0.58426200  0.50000000  1
  Nd  Nd13  1  0.67748000  0.28099300  0.88007100  1
  Nd  Nd14  1  0.20259100  0.32252000  0.60351400  1
  Nd  Nd15  1  0.40092300  0.79740900  0.11992900  1
  S  S16  1  0.71376800  0.82201900  0.74527700  1
  S  S17  1  0.36173600  0.60916900  0.10455000  1
  S  S18  1  0.24538100  0.64083100  0.25256700  1
  S  S19  1  0.50461900  0.25718700  0.89545000  1
  S  S20  1  0.38826400  0.99281300  0.74743300  1
  S  S21  1  0.07674200  0.96849100  0.25472300  1
  S  S22  1  0.03623200  0.28150900  0.60825100  1
  S  S23  1  0.06472900  0.15309900  0.75061400  1
  S  S24  1  0.68588500  0.93527100  0.08837000  1
  S  S25  1  0.67325800  0.42798100  0.39175000  1
  S  S26  1  0.84690100  0.59751500  0.91163000  1
  S  S27  1  0.57201900  0.96376800  0.24527700  1
  S  S28  1  0.71849100  0.32674200  0.75472300  1
  S  S29  1  0.40248500  0.31411500  0.24938600  1
  S  S30  1  0.35916900  0.61173600  0.60455000  1
  S  S31  1  0.39083100  0.49538100  0.75256700  1
  S  S32  1  0.03150900  0.28623200  0.10825100  1
  S  S33  1  0.00718700  0.75461900  0.39545000  1
  S  S34  1  0.90309900  0.31472900  0.25061400  1
  S  S35  1  0.17798100  0.92325800  0.89175000  1
  S  S36  1  0.06411500  0.65248500  0.74938600  1
  S  S37  1  0.74281300  0.63826400  0.24743300  1
  S  S38  1  0.68527100  0.93588500  0.58837000  1
  S  S39  1  0.34751500  0.09690100  0.41163000  1
