# generated using pymatgen
data_V3(PO4)4
_symmetry_space_group_name_H-M   'P 1'
_cell_length_a   7.64238600
_cell_length_b   7.80035000
_cell_length_c   10.26868151
_cell_angle_alpha   85.59301185
_cell_angle_beta   90.00000000
_cell_angle_gamma   90.00000000
_symmetry_Int_Tables_number   1
_chemical_formula_structural   V3(PO4)4
_chemical_formula_sum   'V6 P8 O32'
_cell_volume   610.33995420
_cell_formula_units_Z   2
loop_
 _symmetry_equiv_pos_site_id
 _symmetry_equiv_pos_as_xyz
  1  'x, y, z'
loop_
 _atom_site_type_symbol
 _atom_site_label
 _atom_site_symmetry_multiplicity
 _atom_site_fract_x
 _atom_site_fract_y
 _atom_site_fract_z
 _atom_site_occupancy
  V  V0  1  0.47861700  0.73028400  0.87517200  1
  V  V1  1  0.03425500  0.27232200  0.63338800  1
  V  V2  1  0.14102700  0.83968200  0.32085400  1
  V  V3  1  0.97861700  0.26971600  0.12482800  1
  V  V4  1  0.53425500  0.72767800  0.36661200  1
  V  V5  1  0.64102700  0.16031800  0.67914600  1
  P  P6  1  0.82909600  0.04837700  0.89735000  1
  P  P7  1  0.29980300  0.94045100  0.60722900  1
  P  P8  1  0.20043900  0.45078100  0.35115600  1
  P  P9  1  0.67210300  0.54083100  0.12585700  1
  P  P10  1  0.32909600  0.95162300  0.10265000  1
  P  P11  1  0.17210300  0.45916900  0.87414300  1
  P  P12  1  0.70043900  0.54921900  0.64884400  1
  P  P13  1  0.79980300  0.05954900  0.39277100  1
  O  O14  1  0.62950700  0.96337000  0.37217000  1
  O  O15  1  0.95076800  0.90390100  0.91060000  1
  O  O16  1  0.45076800  0.09609900  0.08940000  1
  O  O17  1  0.45240300  0.07215400  0.59156400  1
  O  O18  1  0.36379600  0.81253000  0.22824400  1
  O  O19  1  0.13352500  0.31119200  0.98123900  1
  O  O20  1  0.07602700  0.61708500  0.32972100  1
  O  O21  1  0.13410100  0.99089600  0.16035100  1
  O  O22  1  0.36809100  0.51431700  0.89282100  1
  O  O23  1  0.63410100  0.00910400  0.83964900  1
  O  O24  1  0.86379600  0.18747000  0.77175600  1
  O  O25  1  0.81881300  0.15861700  0.01765600  1
  O  O26  1  0.95240300  0.92784600  0.40843600  1
  O  O27  1  0.29626900  0.85411300  0.46991100  1
  O  O28  1  0.86809100  0.48568300  0.10717900  1
  O  O29  1  0.16956000  0.34741800  0.23284200  1
  O  O30  1  0.34293300  0.79984400  0.71308000  1
  O  O31  1  0.88534300  0.48422700  0.62313900  1
  O  O32  1  0.63352500  0.68880800  0.01876100  1
  O  O33  1  0.84293300  0.20015600  0.28692000  1
  O  O34  1  0.57602700  0.38291500  0.67027900  1
  O  O35  1  0.54055100  0.40487000  0.14925400  1
  O  O36  1  0.31881300  0.84138300  0.98234400  1
  O  O37  1  0.66956000  0.65258200  0.76715800  1
  O  O38  1  0.18629100  0.34732900  0.74434800  1
  O  O39  1  0.63819700  0.66078400  0.52835800  1
  O  O40  1  0.38534300  0.51577300  0.37686100  1
  O  O41  1  0.04055100  0.59513000  0.85074600  1
  O  O42  1  0.68629100  0.65267100  0.25565200  1
  O  O43  1  0.13819700  0.33921600  0.47164200  1
  O  O44  1  0.79626900  0.14588700  0.53008900  1
  O  O45  1  0.12950700  0.03663000  0.62783000  1
