# generated using pymatgen
data_Sm2S3
_symmetry_space_group_name_H-M   'P 1'
_cell_length_a   14.04784053
_cell_length_b   14.04784053
_cell_length_c   14.04784053
_cell_angle_alpha   144.80879738
_cell_angle_beta   144.80879738
_cell_angle_gamma   50.61955136
_symmetry_Int_Tables_number   1
_chemical_formula_structural   Sm2S3
_chemical_formula_sum   'Sm16 S24'
_cell_volume   916.06986325
_cell_formula_units_Z   8
loop_
 _symmetry_equiv_pos_site_id
 _symmetry_equiv_pos_as_xyz
  1  'x, y, z'
loop_
 _atom_site_type_symbol
 _atom_site_label
 _atom_site_symmetry_multiplicity
 _atom_site_fract_x
 _atom_site_fract_y
 _atom_site_fract_z
 _atom_site_occupancy
  Sm  Sm0  1  0.41585700  0.91585700  0.50000000  1
  Sm  Sm1  1  0.99450600  0.62500000  0.86950600  1
  Sm  Sm2  1  0.33414300  0.33414300  0.00000000  1
  Sm  Sm3  1  0.03087500  0.92677600  0.37930300  1
  Sm  Sm4  1  0.54747300  0.65157200  0.62069700  1
  Sm  Sm5  1  0.75549400  0.12500000  0.13049400  1
  Sm  Sm6  1  0.34842800  0.96912500  0.89590100  1
  Sm  Sm7  1  0.37500000  0.24450600  0.36950600  1
  Sm  Sm8  1  0.66585700  0.66585700  0.00000000  1
  Sm  Sm9  1  0.87500000  0.00549400  0.63049400  1
  Sm  Sm10  1  0.07322400  0.45252700  0.10409900  1
  Sm  Sm11  1  0.08414300  0.58414300  0.50000000  1
  Sm  Sm12  1  0.67677600  0.28087500  0.87930300  1
  Sm  Sm13  1  0.71912500  0.59842800  0.39590100  1
  Sm  Sm14  1  0.20252700  0.32322400  0.60409900  1
  Sm  Sm15  1  0.40157200  0.79747300  0.12069700  1
  S  S16  1  0.50371400  0.25666100  0.89358000  1
  S  S17  1  0.71308800  0.82239000  0.74548200  1
  S  S18  1  0.36308100  0.61013400  0.10642000  1
  S  S19  1  0.24628600  0.63986600  0.25294700  1
  S  S20  1  0.38691900  0.99333900  0.74705300  1
  S  S21  1  0.67309200  0.42761000  0.39069800  1
  S  S22  1  0.07690800  0.96760500  0.25451800  1
  S  S23  1  0.84664600  0.59610500  0.90971800  1
  S  S24  1  0.03691200  0.28239500  0.60930200  1
  S  S25  1  0.06307200  0.15335400  0.74945800  1
  S  S26  1  0.68638700  0.93692800  0.09028200  1
  S  S27  1  0.57239000  0.96308800  0.24548200  1
  S  S28  1  0.71760500  0.32690800  0.75451800  1
  S  S29  1  0.40389500  0.31361300  0.25054200  1
  S  S30  1  0.00666100  0.75371400  0.39358000  1
  S  S31  1  0.17761000  0.92309200  0.89069800  1
  S  S32  1  0.36013400  0.61308100  0.60642000  1
  S  S33  1  0.38986600  0.49628600  0.75294700  1
  S  S34  1  0.03239500  0.28691200  0.10930200  1
  S  S35  1  0.90335400  0.31307200  0.24945800  1
  S  S36  1  0.06361300  0.65389500  0.75054200  1
  S  S37  1  0.74333900  0.63691900  0.24705300  1
  S  S38  1  0.34610500  0.09664600  0.40971800  1
  S  S39  1  0.68692800  0.93638700  0.59028200  1
