# generated using pymatgen
data_LiMo2PO8
_symmetry_space_group_name_H-M   'P 1'
_cell_length_a   6.72749738
_cell_length_b   5.24858800
_cell_length_c   17.72715060
_cell_angle_alpha   90.00000000
_cell_angle_beta   89.98820598
_cell_angle_gamma   90.00000000
_symmetry_Int_Tables_number   1
_chemical_formula_structural   LiMo2PO8
_chemical_formula_sum   'Li4 Mo8 P4 O32'
_cell_volume   625.94322876
_cell_formula_units_Z   4
loop_
 _symmetry_equiv_pos_site_id
 _symmetry_equiv_pos_as_xyz
  1  'x, y, z'
loop_
 _atom_site_type_symbol
 _atom_site_label
 _atom_site_symmetry_multiplicity
 _atom_site_fract_x
 _atom_site_fract_y
 _atom_site_fract_z
 _atom_site_occupancy
  Li  Li0  1  0.23969300  0.24106900  0.79099500  1
  Li  Li1  1  0.26502400  0.29226500  0.29119000  1
  Li  Li2  1  0.73497700  0.79226400  0.70881000  1
  Li  Li3  1  0.76030600  0.74107000  0.20900500  1
  Mo  Mo4  1  0.15609700  0.26129800  0.45152900  1
  Mo  Mo5  1  0.34354900  0.27537900  0.95175100  1
  Mo  Mo6  1  0.49919700  0.26906900  0.62486500  1
  Mo  Mo7  1  0.00052500  0.26724700  0.12530200  1
  Mo  Mo8  1  0.50080400  0.76906900  0.37513500  1
  Mo  Mo9  1  0.65645100  0.77538000  0.04824900  1
  Mo  Mo10  1  0.84390200  0.76129900  0.54847100  1
  Mo  Mo11  1  0.99947400  0.76724800  0.87469800  1
  P  P12  1  0.79400200  0.25101300  0.30790500  1
  P  P13  1  0.70582400  0.28489200  0.80764500  1
  P  P14  1  0.29417700  0.78489100  0.19235500  1
  P  P15  1  0.20599700  0.75101200  0.69209500  1
  O  O16  1  0.15788500  0.25728500  0.04338600  1
  O  O17  1  0.95931100  0.47208900  0.51017400  1
  O  O18  1  0.84163900  0.35353000  0.22770400  1
  O  O19  1  0.84818600  0.96716300  0.11671100  1
  O  O20  1  0.86231300  0.11207200  0.84265500  1
  O  O21  1  0.84211600  0.75728400  0.95661500  1
  O  O22  1  0.78743200  0.47593300  0.08249400  1
  O  O23  1  0.78747400  0.56468400  0.80240600  1
  O  O24  1  0.99380800  0.25582400  0.35164000  1
  O  O25  1  0.04069000  0.97208800  0.48982600  1
  O  O26  1  0.15836000  0.85353000  0.77229600  1
  O  O27  1  0.15181300  0.46716200  0.88328900  1
  O  O28  1  0.13768600  0.61207300  0.15734500  1
  O  O29  1  0.00619200  0.75582300  0.64836000  1
  O  O30  1  0.21256800  0.97593400  0.91750600  1
  O  O31  1  0.21252700  0.06468500  0.19759400  1
  O  O32  1  0.36165300  0.92341100  0.65629400  1
  O  O33  1  0.28773100  0.47120100  0.69729700  1
  O  O34  1  0.28679600  0.56141600  0.41744300  1
  O  O35  1  0.34846900  0.06969000  0.38357300  1
  O  O36  1  0.63834800  0.42341200  0.34370600  1
  O  O37  1  0.34415300  0.68279500  0.27240800  1
  O  O38  1  0.45991500  0.56483500  0.98954800  1
  O  O39  1  0.50701400  0.27961900  0.85200700  1
  O  O40  1  0.49298500  0.77961800  0.14799300  1
  O  O41  1  0.54008600  0.06483400  0.01045200  1
  O  O42  1  0.65584700  0.18279400  0.72759200  1
  O  O43  1  0.65769900  0.78102300  0.45703500  1
  O  O44  1  0.65153000  0.56968900  0.61642700  1
  O  O45  1  0.71320400  0.06141500  0.58255700  1
  O  O46  1  0.71227000  0.97120100  0.30270300  1
  O  O47  1  0.34230000  0.28102200  0.54296500  1
