# generated using pymatgen
data_Sr11(CdSb2)6
_symmetry_space_group_name_H-M   'P 1'
_cell_length_a   16.85528955
_cell_length_b   16.85528955
_cell_length_c   12.76217451
_cell_angle_alpha   70.29066612
_cell_angle_beta   70.29066612
_cell_angle_gamma   16.47703724
_symmetry_Int_Tables_number   1
_chemical_formula_structural   Sr11(CdSb2)6
_chemical_formula_sum   'Sr11 Cd6 Sb12'
_cell_volume   966.82372662
_cell_formula_units_Z   1
loop_
 _symmetry_equiv_pos_site_id
 _symmetry_equiv_pos_as_xyz
  1  'x, y, z'
loop_
 _atom_site_type_symbol
 _atom_site_label
 _atom_site_symmetry_multiplicity
 _atom_site_fract_x
 _atom_site_fract_y
 _atom_site_fract_z
 _atom_site_occupancy
  Sr  Sr0  1  0.98102100  0.98102100  0.68111500  1
  Sr  Sr1  1  0.01897900  0.01897900  0.31888500  1
  Sr  Sr2  1  0.88641600  0.88641600  0.50606400  1
  Sr  Sr3  1  0.11358400  0.11358400  0.49393600  1
  Sr  Sr4  1  0.87379200  0.87379200  0.01553500  1
  Sr  Sr5  1  0.12620800  0.12620800  0.98446500  1
  Sr  Sr6  1  0.79941900  0.79941900  0.34313600  1
  Sr  Sr7  1  0.20058100  0.20058100  0.65686400  1
  Sr  Sr8  1  0.72187200  0.72187200  0.13324900  1
  Sr  Sr9  1  0.27812800  0.27812800  0.86675100  1
  Sr  Sr10  1  0.00000000  0.00000000  0.00000000  1
  Cd  Cd11  1  0.45247100  0.45247100  0.24480600  1
  Cd  Cd12  1  0.39963000  0.39963000  0.74513700  1
  Cd  Cd13  1  0.60037000  0.60037000  0.25486300  1
  Cd  Cd14  1  0.54752900  0.54752900  0.75519400  1
  Cd  Cd15  1  0.21906500  0.21906500  0.33335300  1
  Cd  Cd16  1  0.78093500  0.78093500  0.66664700  1
  Sb  Sb17  1  0.54655900  0.54655900  0.11558600  1
  Sb  Sb18  1  0.45344100  0.45344100  0.88441400  1
  Sb  Sb19  1  0.54300700  0.54300700  0.49964900  1
  Sb  Sb20  1  0.45699300  0.45699300  0.50035100  1
  Sb  Sb21  1  0.29515200  0.29515200  0.13479800  1
  Sb  Sb22  1  0.70484800  0.70484800  0.86520200  1
  Sb  Sb23  1  0.30921700  0.30921700  0.52955700  1
  Sb  Sb24  1  0.69078300  0.69078300  0.47044300  1
  Sb  Sb25  1  0.84997100  0.84997100  0.78359500  1
  Sb  Sb26  1  0.09005400  0.09005400  0.76731600  1
  Sb  Sb27  1  0.90994600  0.90994600  0.23268400  1
  Sb  Sb28  1  0.15002900  0.15002900  0.21640500  1
