# generated using pymatgen
data_Sr4Re2NiO12
_symmetry_space_group_name_H-M   'P 1'
_cell_length_a   9.60657907
_cell_length_b   11.18721570
_cell_length_c   9.68842085
_cell_angle_alpha   90.00002772
_cell_angle_beta   99.67648140
_cell_angle_gamma   106.92579891
_symmetry_Int_Tables_number   1
_chemical_formula_structural   Sr4Re2NiO12
_chemical_formula_sum   'Sr16 Re8 Ni4 O48'
_cell_volume   980.62485599
_cell_formula_units_Z   4
loop_
 _symmetry_equiv_pos_site_id
 _symmetry_equiv_pos_as_xyz
  1  'x, y, z'
loop_
 _atom_site_type_symbol
 _atom_site_label
 _atom_site_symmetry_multiplicity
 _atom_site_fract_x
 _atom_site_fract_y
 _atom_site_fract_z
 _atom_site_occupancy
  Sr  Sr0  1  0.60240800  0.40060200  0.93373500  1
  Sr  Sr1  1  0.60240800  0.90060200  0.93373500  1
  Sr  Sr2  1  0.60240800  0.15060200  0.43373400  1
  Sr  Sr3  1  0.60240800  0.65060200  0.43373500  1
  Sr  Sr4  1  0.39759200  0.84939800  0.56626600  1
  Sr  Sr5  1  0.39759200  0.34939900  0.56626600  1
  Sr  Sr6  1  0.39759200  0.59939800  0.06626500  1
  Sr  Sr7  1  0.39759200  0.09939800  0.06626600  1
  Sr  Sr8  1  0.87544800  0.96886200  0.64590800  1
  Sr  Sr9  1  0.87544900  0.46886300  0.64590800  1
  Sr  Sr10  1  0.87544900  0.71886200  0.14590900  1
  Sr  Sr11  1  0.87544800  0.21886300  0.14590800  1
  Sr  Sr12  1  0.12455200  0.28113800  0.85409200  1
  Sr  Sr13  1  0.12455200  0.78113700  0.85409100  1
  Sr  Sr14  1  0.12455200  0.03113700  0.35409200  1
  Sr  Sr15  1  0.12455100  0.53113800  0.35409100  1
  Re  Re16  1  0.73926600  0.18481700  0.78987700  1
  Re  Re17  1  0.73926700  0.68481600  0.78987700  1
  Re  Re18  1  0.73926600  0.93481600  0.28987700  1
  Re  Re19  1  0.73926600  0.43481600  0.28987700  1
  Re  Re20  1  0.26073400  0.06518300  0.71012300  1
  Re  Re21  1  0.26073300  0.56518400  0.71012300  1
  Re  Re22  1  0.26073500  0.81518300  0.21012300  1
  Re  Re23  1  0.26073400  0.31518400  0.21012300  1
  Ni  Ni24  1  0.00000000  0.75000000  0.50000000  1
  Ni  Ni25  1  0.00000000  0.50000000  0.00000000  1
  Ni  Ni26  1  0.00000000  0.25000000  0.50000000  1
  Ni  Ni27  1  0.00000000  0.00000000  0.00000000  1
  O  O28  1  0.63104200  0.15776100  0.93434000  1
  O  O29  1  0.63104200  0.65776100  0.93433900  1
  O  O30  1  0.63104200  0.90776100  0.43434000  1
  O  O31  1  0.63104200  0.40776100  0.43434000  1
  O  O32  1  0.63104100  0.27963500  0.69059100  1
  O  O33  1  0.63104100  0.77963600  0.69059000  1
  O  O34  1  0.63104100  0.02963600  0.19059000  1
  O  O35  1  0.63104200  0.52963500  0.19059100  1
  O  O36  1  0.63104100  0.03588600  0.69059000  1
  O  O37  1  0.63104200  0.53588700  0.69059100  1
  O  O38  1  0.63104200  0.78588700  0.19059000  1
  O  O39  1  0.63104100  0.28588600  0.19059000  1
  O  O40  1  0.36895900  0.21411400  0.80941000  1
  O  O41  1  0.36895800  0.71411300  0.80940900  1
  O  O42  1  0.36895900  0.96411400  0.30941000  1
  O  O43  1  0.36895800  0.46411300  0.30941000  1
  O  O44  1  0.36895800  0.09223900  0.56566000  1
  O  O45  1  0.36895800  0.59223900  0.56566000  1
  O  O46  1  0.36895800  0.84223900  0.06566000  1
  O  O47  1  0.36895800  0.34223900  0.06566000  1
  O  O48  1  0.36895900  0.97036500  0.80940900  1
  O  O49  1  0.36895900  0.47036400  0.80941000  1
  O  O50  1  0.36895900  0.72036500  0.30941000  1
  O  O51  1  0.36895900  0.22036400  0.30941000  1
  O  O52  1  0.13016900  0.03254200  0.84802900  1
  O  O53  1  0.13017100  0.53254200  0.84802700  1
  O  O54  1  0.13017000  0.78254100  0.34802800  1
  O  O55  1  0.13017000  0.28254100  0.34802900  1
  O  O56  1  0.86983100  0.09770700  0.89147200  1
  O  O57  1  0.86982900  0.59770800  0.89147000  1
  O  O58  1  0.86982900  0.84770800  0.39147200  1
  O  O59  1  0.86983100  0.34770700  0.39147200  1
  O  O60  1  0.86983000  0.21745800  0.65197100  1
  O  O61  1  0.86982900  0.71745800  0.65197300  1
  O  O62  1  0.86983000  0.96745900  0.15197100  1
  O  O63  1  0.86982900  0.46745900  0.15197200  1
  O  O64  1  0.86983000  0.33720800  0.89147100  1
  O  O65  1  0.86983000  0.83720800  0.89147200  1
  O  O66  1  0.86983100  0.08720900  0.39147200  1
  O  O67  1  0.86983000  0.58720800  0.39147100  1
  O  O68  1  0.13017000  0.91279200  0.60852800  1
  O  O69  1  0.13017000  0.41279200  0.60852800  1
  O  O70  1  0.13017000  0.66279200  0.10852900  1
  O  O71  1  0.13016900  0.16279100  0.10852800  1
  O  O72  1  0.13016900  0.15229300  0.60852800  1
  O  O73  1  0.13017100  0.65229200  0.60853000  1
  O  O74  1  0.13016900  0.90229300  0.10852800  1
  O  O75  1  0.13017100  0.40229200  0.10852900  1
