# generated using pymatgen
data_Ce5O9
_symmetry_space_group_name_H-M   'P 1'
_cell_length_a   6.77584700
_cell_length_b   7.80957539
_cell_length_c   8.72884714
_cell_angle_alpha   76.88047976
_cell_angle_beta   74.69325951
_cell_angle_gamma   73.26513492
_symmetry_Int_Tables_number   1
_chemical_formula_structural   Ce5O9
_chemical_formula_sum   'Ce10 O18'
_cell_volume   420.90866509
_cell_formula_units_Z   2
loop_
 _symmetry_equiv_pos_site_id
 _symmetry_equiv_pos_as_xyz
  1  'x, y, z'
loop_
 _atom_site_type_symbol
 _atom_site_label
 _atom_site_symmetry_multiplicity
 _atom_site_fract_x
 _atom_site_fract_y
 _atom_site_fract_z
 _atom_site_occupancy
  Ce  Ce0  1  0.89649600  0.85435400  0.70101200  1
  Ce  Ce1  1  0.86952400  0.35927000  0.68894000  1
  Ce  Ce2  1  0.13047600  0.64073000  0.31106000  1
  Ce  Ce3  1  0.29523700  0.93393100  0.91594100  1
  Ce  Ce4  1  0.10350400  0.14564600  0.29898800  1
  Ce  Ce5  1  0.52196400  0.24501000  0.48031800  1
  Ce  Ce6  1  0.28990000  0.46278900  0.91262300  1
  Ce  Ce7  1  0.71010000  0.53721100  0.08737700  1
  Ce  Ce8  1  0.47803600  0.75499000  0.51968200  1
  Ce  Ce9  1  0.70476300  0.06606900  0.08405900  1
  O  O10  1  0.03196000  0.47557900  0.16518800  1
  O  O11  1  0.02869000  0.92468800  0.16137200  1
  O  O12  1  0.97131000  0.07531200  0.83862800  1
  O  O13  1  0.17293400  0.34053800  0.46905100  1
  O  O14  1  0.48474500  0.56692100  0.34057800  1
  O  O15  1  0.96804000  0.52442100  0.83481200  1
  O  O16  1  0.35954800  0.64641500  0.05379700  1
  O  O17  1  0.23869600  0.75138800  0.76302200  1
  O  O18  1  0.14891400  0.84833000  0.46030100  1
  O  O19  1  0.67652800  0.83969500  0.96720700  1
  O  O20  1  0.52226400  0.97502800  0.66690500  1
  O  O21  1  0.47773600  0.02497200  0.33309500  1
  O  O22  1  0.32347200  0.16030500  0.03279300  1
  O  O23  1  0.85108600  0.15167000  0.53969900  1
  O  O24  1  0.64045200  0.35358500  0.94620300  1
  O  O25  1  0.51525500  0.43307900  0.65942200  1
  O  O26  1  0.82706600  0.65946200  0.53094900  1
  O  O27  1  0.76130400  0.24861200  0.23697800  1
