# generated using pymatgen
data_TaMn2O3
_symmetry_space_group_name_H-M   'P 1'
_cell_length_a   5.10243806
_cell_length_b   5.10243806
_cell_length_c   3.07148600
_cell_angle_alpha   90.00000000
_cell_angle_beta   90.00000000
_cell_angle_gamma   120.00000079
_symmetry_Int_Tables_number   1
_chemical_formula_structural   TaMn2O3
_chemical_formula_sum   'Ta1 Mn2 O3'
_cell_volume   69.25237170
_cell_formula_units_Z   1
loop_
 _symmetry_equiv_pos_site_id
 _symmetry_equiv_pos_as_xyz
  1  'x, y, z'
loop_
 _atom_site_type_symbol
 _atom_site_label
 _atom_site_symmetry_multiplicity
 _atom_site_fract_x
 _atom_site_fract_y
 _atom_site_fract_z
 _atom_site_occupancy
  Ta  Ta0  1  0.00000000  0.00000000  0.00000000  1
  Mn  Mn1  1  0.66666700  0.33333300  0.50000000  1
  Mn  Mn2  1  0.33333300  0.66666700  0.50000000  1
  O  O3  1  0.00000000  0.50000000  0.00000000  1
  O  O4  1  0.50000000  0.50000000  0.00000000  1
  O  O5  1  0.50000000  0.00000000  0.00000000  1
