# generated using pymatgen
data_La4Ti3O12
_symmetry_space_group_name_H-M   'P 1'
_cell_length_a   9.36623491
_cell_length_b   9.36623491
_cell_length_c   9.36623510
_cell_angle_alpha   34.80245318
_cell_angle_beta   34.80245318
_cell_angle_gamma   34.80245775
_symmetry_Int_Tables_number   1
_chemical_formula_structural   La4Ti3O12
_chemical_formula_sum   'La4 Ti3 O12'
_cell_volume   238.90888169
_cell_formula_units_Z   1
loop_
 _symmetry_equiv_pos_site_id
 _symmetry_equiv_pos_as_xyz
  1  'x, y, z'
loop_
 _atom_site_type_symbol
 _atom_site_label
 _atom_site_symmetry_multiplicity
 _atom_site_fract_x
 _atom_site_fract_y
 _atom_site_fract_z
 _atom_site_occupancy
  La  La0  1  0.13425600  0.13425600  0.13425600  1
  La  La1  1  0.86574400  0.86574400  0.86574400  1
  La  La2  1  0.28739000  0.28739000  0.28739000  1
  La  La3  1  0.71261000  0.71261000  0.71261000  1
  Ti  Ti4  1  0.00000000  0.00000000  0.00000000  1
  Ti  Ti5  1  0.42437700  0.42437700  0.42437700  1
  Ti  Ti6  1  0.57562300  0.57562300  0.57562300  1
  O  O7  1  0.69752600  0.55253600  0.11658200  1
  O  O8  1  0.55253600  0.11658200  0.69752600  1
  O  O9  1  0.11658200  0.69752600  0.55253600  1
  O  O10  1  0.30247400  0.44746400  0.88341800  1
  O  O11  1  0.44746400  0.88341800  0.30247400  1
  O  O12  1  0.88341800  0.30247400  0.44746400  1
  O  O13  1  0.85668000  0.72845800  0.29115600  1
  O  O14  1  0.70884400  0.14332000  0.27154200  1
  O  O15  1  0.27154200  0.70884400  0.14332000  1
  O  O16  1  0.14332000  0.27154200  0.70884400  1
  O  O17  1  0.29115600  0.85668000  0.72845800  1
  O  O18  1  0.72845800  0.29115600  0.85668000  1
