# generated using pymatgen
data_V(HO)2
_symmetry_space_group_name_H-M   'P 1'
_cell_length_a   3.32437300
_cell_length_b   4.92531400
_cell_length_c   5.41033400
_cell_angle_alpha   90.00000000
_cell_angle_beta   90.00000000
_cell_angle_gamma   90.00000000
_symmetry_Int_Tables_number   1
_chemical_formula_structural   V(HO)2
_chemical_formula_sum   'V2 H4 O4'
_cell_volume   88.58654133
_cell_formula_units_Z   2
loop_
 _symmetry_equiv_pos_site_id
 _symmetry_equiv_pos_as_xyz
  1  'x, y, z'
loop_
 _atom_site_type_symbol
 _atom_site_label
 _atom_site_symmetry_multiplicity
 _atom_site_fract_x
 _atom_site_fract_y
 _atom_site_fract_z
 _atom_site_occupancy
  V  V0  1  0.50000000  0.00000000  0.50000000  1
  V  V1  1  0.00000000  0.50000000  0.00000000  1
  H  H2  1  0.50000000  0.49386200  0.66633900  1
  H  H3  1  0.50000000  0.50613800  0.33366100  1
  H  H4  1  0.00000000  0.00613800  0.16633900  1
  H  H5  1  0.00000000  0.99386200  0.83366100  1
  O  O6  1  0.50000000  0.34228500  0.23137100  1
  O  O7  1  0.00000000  0.15771500  0.73137100  1
  O  O8  1  0.00000000  0.84228500  0.26862900  1
  O  O9  1  0.50000000  0.65771500  0.76862900  1
