# generated using pymatgen
data_V(PO3)4
_symmetry_space_group_name_H-M   'P 1'
_cell_length_a   7.40318542
_cell_length_b   7.40318542
_cell_length_c   9.94436410
_cell_angle_alpha   67.87654760
_cell_angle_beta   67.87654760
_cell_angle_gamma   66.98758536
_symmetry_Int_Tables_number   1
_chemical_formula_structural   V(PO3)4
_chemical_formula_sum   'V2 P8 O24'
_cell_volume   447.58392338
_cell_formula_units_Z   2
loop_
 _symmetry_equiv_pos_site_id
 _symmetry_equiv_pos_as_xyz
  1  'x, y, z'
loop_
 _atom_site_type_symbol
 _atom_site_label
 _atom_site_symmetry_multiplicity
 _atom_site_fract_x
 _atom_site_fract_y
 _atom_site_fract_z
 _atom_site_occupancy
  V  V0  1  0.50000000  0.00000000  0.00000000  1
  V  V1  1  0.00000000  0.50000000  0.50000000  1
  P  P2  1  0.75269500  0.25830400  0.46713700  1
  P  P3  1  0.74169600  0.24730400  0.03286300  1
  P  P4  1  0.69493700  0.66204300  0.81148700  1
  P  P5  1  0.25830400  0.75269600  0.96713700  1
  P  P6  1  0.24730400  0.74169600  0.53286300  1
  P  P7  1  0.33795700  0.30506300  0.68851300  1
  P  P8  1  0.66204300  0.69493700  0.31148700  1
  P  P9  1  0.30506300  0.33795700  0.18851300  1
  O  O10  1  0.66071900  0.46735000  0.34493800  1
  O  O11  1  0.19492700  0.34375100  0.34928100  1
  O  O12  1  0.80507300  0.65624900  0.65071900  1
  O  O13  1  0.82565600  0.33621200  0.55736500  1
  O  O14  1  0.33621200  0.82565600  0.05736500  1
  O  O15  1  0.46735000  0.66071900  0.84493800  1
  O  O16  1  0.31011600  0.15739200  0.14879600  1
  O  O17  1  0.20392800  0.54443500  0.07909100  1
  O  O18  1  0.54443500  0.20392800  0.57909100  1
  O  O19  1  0.09641800  0.88604700  0.89570600  1
  O  O20  1  0.33928100  0.53265000  0.65506200  1
  O  O21  1  0.34375100  0.19492700  0.84928100  1
  O  O22  1  0.84260800  0.68988400  0.35120400  1
  O  O23  1  0.11395200  0.90358200  0.60429400  1
  O  O24  1  0.88604800  0.09641800  0.39570600  1
  O  O25  1  0.66378800  0.17434400  0.94263500  1
  O  O26  1  0.65624900  0.80507300  0.15071900  1
  O  O27  1  0.17434400  0.66378800  0.44263500  1
  O  O28  1  0.90358200  0.11395200  0.10429400  1
  O  O29  1  0.45556500  0.79607200  0.42090900  1
  O  O30  1  0.79607200  0.45556500  0.92090900  1
  O  O31  1  0.68988400  0.84260800  0.85120400  1
  O  O32  1  0.53265000  0.33928100  0.15506200  1
  O  O33  1  0.15739200  0.31011600  0.64879600  1
