# generated using pymatgen
data_Fe5(P3O11)2
_symmetry_space_group_name_H-M   'P 1'
_cell_length_a   6.68116800
_cell_length_b   10.54907700
_cell_length_c   12.66144369
_cell_angle_alpha   75.46188096
_cell_angle_beta   90.00000000
_cell_angle_gamma   90.00000000
_symmetry_Int_Tables_number   1
_chemical_formula_structural   Fe5(P3O11)2
_chemical_formula_sum   'Fe10 P12 O44'
_cell_volume   863.80725484
_cell_formula_units_Z   2
loop_
 _symmetry_equiv_pos_site_id
 _symmetry_equiv_pos_as_xyz
  1  'x, y, z'
loop_
 _atom_site_type_symbol
 _atom_site_label
 _atom_site_symmetry_multiplicity
 _atom_site_fract_x
 _atom_site_fract_y
 _atom_site_fract_z
 _atom_site_occupancy
  Fe  Fe0  1  0.50156100  0.70259100  0.33530500  1
  Fe  Fe1  1  0.99843900  0.20259100  0.33530500  1
  Fe  Fe2  1  0.23899500  0.71083500  0.13943000  1
  Fe  Fe3  1  0.73899500  0.78916500  0.86057000  1
  Fe  Fe4  1  0.50000000  0.50000000  0.00000000  1
  Fe  Fe5  1  0.76100500  0.28916500  0.86057000  1
  Fe  Fe6  1  0.00156100  0.79740900  0.66469500  1
  Fe  Fe7  1  0.26100500  0.21083500  0.13943000  1
  Fe  Fe8  1  0.00000000  0.00000000  0.00000000  1
  Fe  Fe9  1  0.49843900  0.29740900  0.66469500  1
  P  P10  1  0.80066400  0.91091300  0.41867200  1
  P  P11  1  0.30066400  0.58908700  0.58132800  1
  P  P12  1  0.19933600  0.08908700  0.58132800  1
  P  P13  1  0.88247900  0.07294600  0.74203200  1
  P  P14  1  0.11752100  0.92705400  0.25796800  1
  P  P15  1  0.24189100  0.27597100  0.91315400  1
  P  P16  1  0.61752100  0.57294600  0.74203200  1
  P  P17  1  0.25810900  0.77597100  0.91315400  1
  P  P18  1  0.74189100  0.22402900  0.08684600  1
  P  P19  1  0.75810900  0.72402900  0.08684600  1
  P  P20  1  0.69933600  0.41091300  0.41867200  1
  P  P21  1  0.38247900  0.42705400  0.25796800  1
  O  O22  1  0.02193500  0.05297000  0.83979200  1
  O  O23  1  0.32091800  0.64820500  0.45976900  1
  O  O24  1  0.00039400  0.86104800  0.36663500  1
  O  O25  1  0.70023800  0.44182700  0.72886600  1
  O  O26  1  0.55325800  0.17840900  0.15168900  1
  O  O27  1  0.37616900  0.14590300  0.63041800  1
  O  O28  1  0.21238100  0.86231000  0.99637900  1
  O  O29  1  0.50039400  0.63895200  0.63336500  1
  O  O30  1  0.69571400  0.56101700  0.38495400  1
  O  O31  1  0.77999600  0.67382300  0.75075400  1
  O  O32  1  0.22000400  0.32617700  0.24924600  1
  O  O33  1  0.72000400  0.17382300  0.75075400  1
  O  O34  1  0.97806500  0.94703000  0.16020800  1
  O  O35  1  0.44674200  0.82159100  0.84831100  1
  O  O36  1  0.21114100  0.14018900  0.00126400  1
  O  O37  1  0.71238100  0.63769000  0.00362100  1
  O  O38  1  0.78885900  0.85981100  0.99873600  1
  O  O39  1  0.57686800  0.72953800  0.16167100  1
  O  O40  1  0.27999600  0.82617700  0.24924600  1
  O  O41  1  0.94674200  0.67840900  0.15168900  1
  O  O42  1  0.28761900  0.36231000  0.99637900  1
  O  O43  1  0.05325800  0.32159100  0.84831100  1
  O  O44  1  0.47806500  0.55297000  0.83979200  1
  O  O45  1  0.67908200  0.35179500  0.54023100  1
  O  O46  1  0.29976200  0.55817300  0.27113400  1
  O  O47  1  0.62383100  0.85409700  0.36958200  1
  O  O48  1  0.80428600  0.06101700  0.38495400  1
  O  O49  1  0.78761900  0.13769000  0.00362100  1
  O  O50  1  0.19571400  0.93898300  0.61504600  1
  O  O51  1  0.71114100  0.35981100  0.99873600  1
  O  O52  1  0.17908200  0.14820500  0.45976900  1
  O  O53  1  0.42313200  0.27046200  0.83832900  1
  O  O54  1  0.07686800  0.77046200  0.83832900  1
  O  O55  1  0.92313200  0.22953800  0.16167100  1
  O  O56  1  0.87616900  0.35409700  0.36958200  1
  O  O57  1  0.99960600  0.13895200  0.63336500  1
  O  O58  1  0.79976200  0.94182700  0.72886600  1
  O  O59  1  0.20023800  0.05817300  0.27113400  1
  O  O60  1  0.49960600  0.36104800  0.36663500  1
  O  O61  1  0.82091800  0.85179500  0.54023100  1
  O  O62  1  0.12383100  0.64590300  0.63041800  1
  O  O63  1  0.30428600  0.43898300  0.61504600  1
  O  O64  1  0.28885900  0.64018900  0.00126400  1
  O  O65  1  0.52193500  0.44703000  0.16020800  1
