# generated using pymatgen
data_CaZn3Se4
_symmetry_space_group_name_H-M   'P 1'
_cell_length_a   5.96286000
_cell_length_b   5.96286000
_cell_length_c   5.96286000
_cell_angle_alpha   90.00000000
_cell_angle_beta   90.00000000
_cell_angle_gamma   90.00000000
_symmetry_Int_Tables_number   1
_chemical_formula_structural   CaZn3Se4
_chemical_formula_sum   'Ca1 Zn3 Se4'
_cell_volume   212.01365760
_cell_formula_units_Z   1
loop_
 _symmetry_equiv_pos_site_id
 _symmetry_equiv_pos_as_xyz
  1  'x, y, z'
loop_
 _atom_site_type_symbol
 _atom_site_label
 _atom_site_symmetry_multiplicity
 _atom_site_fract_x
 _atom_site_fract_y
 _atom_site_fract_z
 _atom_site_occupancy
  Ca  Ca0  1  0.00000000  0.00000000  0.00000000  1
  Zn  Zn1  1  0.00000000  0.50000000  0.50000000  1
  Zn  Zn2  1  0.50000000  0.50000000  0.00000000  1
  Zn  Zn3  1  0.50000000  0.00000000  0.50000000  1
  Se  Se4  1  0.73076600  0.73076600  0.26923400  1
  Se  Se5  1  0.73076600  0.26923400  0.73076600  1
  Se  Se6  1  0.26923400  0.73076600  0.73076600  1
  Se  Se7  1  0.26923400  0.26923400  0.26923400  1
