# generated using pymatgen
data_Ag2Se
_symmetry_space_group_name_H-M   'P 1'
_cell_length_a   4.40168001
_cell_length_b   4.40168001
_cell_length_c   7.22081800
_cell_angle_alpha   90.00000000
_cell_angle_beta   90.00000000
_cell_angle_gamma   111.42414885
_symmetry_Int_Tables_number   1
_chemical_formula_structural   Ag2Se
_chemical_formula_sum   'Ag4 Se2'
_cell_volume   130.23486745
_cell_formula_units_Z   2
loop_
 _symmetry_equiv_pos_site_id
 _symmetry_equiv_pos_as_xyz
  1  'x, y, z'
loop_
 _atom_site_type_symbol
 _atom_site_label
 _atom_site_symmetry_multiplicity
 _atom_site_fract_x
 _atom_site_fract_y
 _atom_site_fract_z
 _atom_site_occupancy
  Ag  Ag0  1  0.85061900  0.14938100  0.35978700  1
  Ag  Ag1  1  0.64938100  0.35061900  0.85978700  1
  Ag  Ag2  1  0.35061900  0.64938100  0.14021300  1
  Ag  Ag3  1  0.14938100  0.85061900  0.64021300  1
  Se  Se4  1  0.50000000  0.50000000  0.50000000  1
  Se  Se5  1  0.00000000  0.00000000  0.00000000  1
