# generated using pymatgen
data_Ce2Te3
_symmetry_space_group_name_H-M   'P 1'
_cell_length_a   15.80955503
_cell_length_b   15.80955503
_cell_length_c   15.80955503
_cell_angle_alpha   145.04732882
_cell_angle_beta   145.04732882
_cell_angle_gamma   50.26399935
_symmetry_Int_Tables_number   1
_chemical_formula_structural   Ce2Te3
_chemical_formula_sum   'Ce16 Te24'
_cell_volume   1290.54059141
_cell_formula_units_Z   8
loop_
 _symmetry_equiv_pos_site_id
 _symmetry_equiv_pos_as_xyz
  1  'x, y, z'
loop_
 _atom_site_type_symbol
 _atom_site_label
 _atom_site_symmetry_multiplicity
 _atom_site_fract_x
 _atom_site_fract_y
 _atom_site_fract_z
 _atom_site_occupancy
  Ce  Ce0  1  0.83938600  0.95502700  0.37537600  1
  Ce  Ce1  1  0.16729800  0.16729800  0.00000000  1
  Ce  Ce2  1  0.87500000  0.50434100  0.12934100  1
  Ce  Ce3  1  0.58270200  0.08270200  0.50000000  1
  Ce  Ce4  1  0.17035000  0.29497300  0.38435900  1
  Ce  Ce5  1  0.91061400  0.78599000  0.61564100  1
  Ce  Ce6  1  0.37500000  0.74565900  0.87065900  1
  Ce  Ce7  1  0.21401000  0.82965000  0.12462400  1
  Ce  Ce8  1  0.91729800  0.41729800  0.50000000  1
  Ce  Ce9  1  0.49565900  0.62500000  0.37065900  1
  Ce  Ce10  1  0.25434100  0.12500000  0.62934100  1
  Ce  Ce11  1  0.70502700  0.08938600  0.87537600  1
  Ce  Ce12  1  0.83270200  0.83270200  0.00000000  1
  Ce  Ce13  1  0.53599000  0.16061400  0.11564100  1
  Ce  Ce14  1  0.04497300  0.42035000  0.88435900  1
  Ce  Ce15  1  0.57965000  0.46401000  0.62462400  1
  Te  Te16  1  0.50977500  0.10717100  0.25160700  1
  Te  Te17  1  0.07248500  0.82535800  0.60200100  1
  Te  Te18  1  0.85556400  0.25816800  0.74839300  1
  Te  Te19  1  0.89443600  0.14282900  0.90260400  1
  Te  Te20  1  0.24022500  0.99183200  0.09739600  1
  Te  Te21  1  0.22335600  0.47048400  0.39799900  1
  Te  Te22  1  0.84138400  0.43664300  0.24651400  1
  Te  Te23  1  0.52664400  0.42464200  0.74712800  1
  Te  Te24  1  0.40513000  0.15861600  0.59526000  1
  Te  Te25  1  0.19013000  0.59487000  0.75348600  1
  Te  Te26  1  0.67751500  0.77951600  0.25287200  1
  Te  Te27  1  0.22048400  0.47335600  0.89799900  1
  Te  Te28  1  0.57535800  0.32248500  0.10200100  1
  Te  Te29  1  0.56335700  0.80987000  0.40474000  1
  Te  Te30  1  0.17464200  0.77664400  0.24712800  1
  Te  Te31  1  0.85717100  0.75977500  0.75160700  1
  Te  Te32  1  0.74183200  0.49022500  0.59739600  1
  Te  Te33  1  0.52951600  0.92751500  0.75287200  1
  Te  Te34  1  0.00816800  0.10556400  0.24839300  1
  Te  Te35  1  0.55987000  0.81335700  0.90474000  1
  Te  Te36  1  0.90861600  0.65513000  0.09526000  1
  Te  Te37  1  0.89282900  0.14443600  0.40260400  1
  Te  Te38  1  0.18664300  0.09138400  0.74651400  1
  Te  Te39  1  0.34487000  0.44013000  0.25348600  1
