# generated using pymatgen
data_Tb3Fe5O12
_symmetry_space_group_name_H-M   'P 1'
_cell_length_a   10.82214658
_cell_length_b   10.82214658
_cell_length_c   10.82214704
_cell_angle_alpha   109.45336983
_cell_angle_beta   109.45336983
_cell_angle_gamma   109.45336533
_symmetry_Int_Tables_number   1
_chemical_formula_structural   Tb3Fe5O12
_chemical_formula_sum   'Tb12 Fe20 O48'
_cell_volume   976.34899737
_cell_formula_units_Z   4
loop_
 _symmetry_equiv_pos_site_id
 _symmetry_equiv_pos_as_xyz
  1  'x, y, z'
loop_
 _atom_site_type_symbol
 _atom_site_label
 _atom_site_symmetry_multiplicity
 _atom_site_fract_x
 _atom_site_fract_y
 _atom_site_fract_z
 _atom_site_occupancy
  Tb  Tb0  1  0.62435900  0.74949200  0.87569600  1
  Tb  Tb1  1  0.74949200  0.87569600  0.62435900  1
  Tb  Tb2  1  0.87569600  0.62435900  0.74949200  1
  Tb  Tb3  1  0.37564100  0.25050800  0.12430400  1
  Tb  Tb4  1  0.25050800  0.12430400  0.37564100  1
  Tb  Tb5  1  0.12430400  0.37564100  0.25050800  1
  Tb  Tb6  1  0.12301400  0.74969200  0.37692400  1
  Tb  Tb7  1  0.74969200  0.37692400  0.12301400  1
  Tb  Tb8  1  0.37692400  0.12301400  0.74969200  1
  Tb  Tb9  1  0.87698600  0.25030800  0.62307600  1
  Tb  Tb10  1  0.25030800  0.62307600  0.87698600  1
  Tb  Tb11  1  0.62307600  0.87698600  0.25030800  1
  Fe  Fe12  1  0.00000000  0.00000000  0.00000000  1
  Fe  Fe13  1  0.50000000  0.50000000  0.50000000  1
  Fe  Fe14  1  0.00000000  0.50000000  0.50000000  1
  Fe  Fe15  1  0.50000000  0.50000000  0.00000000  1
  Fe  Fe16  1  0.50000000  0.00000000  0.50000000  1
  Fe  Fe17  1  0.50000000  0.00000000  0.00000000  1
  Fe  Fe18  1  0.00000000  0.00000000  0.50000000  1
  Fe  Fe19  1  0.00000000  0.50000000  0.00000000  1
  Fe  Fe20  1  0.37447700  0.75273800  0.62667700  1
  Fe  Fe21  1  0.75273800  0.62667700  0.37447700  1
  Fe  Fe22  1  0.62667700  0.37447700  0.75273800  1
  Fe  Fe23  1  0.62552300  0.24726200  0.37332300  1
  Fe  Fe24  1  0.24726200  0.37332300  0.62552300  1
  Fe  Fe25  1  0.37332300  0.62552300  0.24726200  1
  Fe  Fe26  1  0.12697100  0.24929300  0.87283200  1
  Fe  Fe27  1  0.24929300  0.87283200  0.12697100  1
  Fe  Fe28  1  0.87283200  0.12697100  0.24929300  1
  Fe  Fe29  1  0.87302900  0.75070700  0.12716800  1
  Fe  Fe30  1  0.75070700  0.12716800  0.87302900  1
  Fe  Fe31  1  0.12716800  0.87302900  0.75070700  1
  O  O32  1  0.79393500  0.97249700  0.87678500  1
  O  O33  1  0.97249700  0.87678500  0.79393500  1
  O  O34  1  0.87678500  0.79393500  0.97249700  1
  O  O35  1  0.20606500  0.02750300  0.12321500  1
  O  O36  1  0.02750300  0.12321500  0.20606500  1
  O  O37  1  0.12321500  0.20606500  0.02750300  1
  O  O38  1  0.41789100  0.79732600  0.82660700  1
  O  O39  1  0.79732600  0.82660700  0.41789100  1
  O  O40  1  0.82660700  0.41789100  0.79732600  1
  O  O41  1  0.58210900  0.20267400  0.17339300  1
  O  O42  1  0.20267400  0.17339300  0.58210900  1
  O  O43  1  0.17339300  0.58210900  0.20267400  1
  O  O44  1  0.87142800  0.08538600  0.40361900  1
  O  O45  1  0.08538600  0.40361900  0.87142800  1
  O  O46  1  0.40361900  0.87142800  0.08538600  1
  O  O47  1  0.12857200  0.91461400  0.59638100  1
  O  O48  1  0.91461400  0.59638100  0.12857200  1
  O  O49  1  0.59638100  0.12857200  0.91461400  1
  O  O50  1  0.09091500  0.67225300  0.97059500  1
  O  O51  1  0.67225300  0.97059500  0.09091500  1
  O  O52  1  0.97059500  0.09091500  0.67225300  1
  O  O53  1  0.90908500  0.32774700  0.02940500  1
  O  O54  1  0.32774700  0.02940500  0.90908500  1
  O  O55  1  0.02940500  0.90908500  0.32774700  1
  O  O56  1  0.62623400  0.52976900  0.70796500  1
  O  O57  1  0.52976900  0.70796500  0.62623400  1
  O  O58  1  0.70796500  0.62623400  0.52976900  1
  O  O59  1  0.37376600  0.47023100  0.29203500  1
  O  O60  1  0.47023100  0.29203500  0.37376600  1
  O  O61  1  0.29203500  0.37376600  0.47023100  1
  O  O62  1  0.67293300  0.70492200  0.08145600  1
  O  O63  1  0.70492200  0.08145600  0.67293300  1
  O  O64  1  0.08145600  0.67293300  0.70492200  1
  O  O65  1  0.32706700  0.29507800  0.91854400  1
  O  O66  1  0.29507800  0.91854400  0.32706700  1
  O  O67  1  0.91854400  0.32706700  0.29507800  1
  O  O68  1  0.09317700  0.41977500  0.62137600  1
  O  O69  1  0.41977500  0.62137600  0.09317700  1
  O  O70  1  0.62137600  0.09317700  0.41977500  1
  O  O71  1  0.90682300  0.58022500  0.37862400  1
  O  O72  1  0.58022500  0.37862400  0.90682300  1
  O  O73  1  0.37862400  0.90682300  0.58022500  1
  O  O74  1  0.52872400  0.82488300  0.40482800  1
  O  O75  1  0.82488300  0.40482800  0.52872400  1
  O  O76  1  0.40482800  0.52872400  0.82488300  1
  O  O77  1  0.47127600  0.17511700  0.59517200  1
  O  O78  1  0.17511700  0.59517200  0.47127600  1
  O  O79  1  0.59517200  0.47127600  0.17511700  1
