# generated using pymatgen
data_La3Al
_symmetry_space_group_name_H-M   'P 1'
_cell_length_a   7.26543004
_cell_length_b   7.26543004
_cell_length_c   5.46261900
_cell_angle_alpha   90.00000000
_cell_angle_beta   90.00000000
_cell_angle_gamma   120.00000040
_symmetry_Int_Tables_number   1
_chemical_formula_structural   La3Al
_chemical_formula_sum   'La6 Al2'
_cell_volume   249.72049770
_cell_formula_units_Z   2
loop_
 _symmetry_equiv_pos_site_id
 _symmetry_equiv_pos_as_xyz
  1  'x, y, z'
loop_
 _atom_site_type_symbol
 _atom_site_label
 _atom_site_symmetry_multiplicity
 _atom_site_fract_x
 _atom_site_fract_y
 _atom_site_fract_z
 _atom_site_occupancy
  La  La0  1  0.81896300  0.18103700  0.25000000  1
  La  La1  1  0.81896300  0.63792600  0.25000000  1
  La  La2  1  0.36207400  0.18103700  0.25000000  1
  La  La3  1  0.18103700  0.81896300  0.75000000  1
  La  La4  1  0.18103700  0.36207400  0.75000000  1
  La  La5  1  0.63792600  0.81896300  0.75000000  1
  Al  Al6  1  0.33333300  0.66666700  0.25000000  1
  Al  Al7  1  0.66666700  0.33333300  0.75000000  1
