# generated using pymatgen
data_CuI
_symmetry_space_group_name_H-M   'P 1'
_cell_length_a   14.26864808
_cell_length_b   14.26864808
_cell_length_c   14.26864802
_cell_angle_alpha   17.24992121
_cell_angle_beta   17.24992121
_cell_angle_gamma   17.24991992
_symmetry_Int_Tables_number   1
_chemical_formula_structural   CuI
_chemical_formula_sum   'Cu4 I4'
_cell_volume   222.90203789
_cell_formula_units_Z   4
loop_
 _symmetry_equiv_pos_site_id
 _symmetry_equiv_pos_as_xyz
  1  'x, y, z'
loop_
 _atom_site_type_symbol
 _atom_site_label
 _atom_site_symmetry_multiplicity
 _atom_site_fract_x
 _atom_site_fract_y
 _atom_site_fract_z
 _atom_site_occupancy
  Cu  Cu0  1  0.72966800  0.72966800  0.72966800  1
  Cu  Cu1  1  0.56251700  0.56251700  0.56251700  1
  Cu  Cu2  1  0.31286900  0.31286900  0.31286900  1
  Cu  Cu3  1  0.14607600  0.14607600  0.14607600  1
  I  I4  1  0.79177300  0.79177300  0.79177300  1
  I  I5  1  0.62492400  0.62492400  0.62492400  1
  I  I6  1  0.37512100  0.37512100  0.37512100  1
  I  I7  1  0.20825100  0.20825100  0.20825100  1
