# generated using pymatgen
data_Pr5AgS8
_symmetry_space_group_name_H-M   'P 1'
_cell_length_a   7.48605104
_cell_length_b   7.48605104
_cell_length_c   7.48605104
_cell_angle_alpha   109.75368060
_cell_angle_beta   109.75368060
_cell_angle_gamma   108.90776576
_symmetry_Int_Tables_number   1
_chemical_formula_structural   Pr5AgS8
_chemical_formula_sum   'Pr5 Ag1 S8'
_cell_volume   322.92747414
_cell_formula_units_Z   1
loop_
 _symmetry_equiv_pos_site_id
 _symmetry_equiv_pos_as_xyz
  1  'x, y, z'
loop_
 _atom_site_type_symbol
 _atom_site_label
 _atom_site_symmetry_multiplicity
 _atom_site_fract_x
 _atom_site_fract_y
 _atom_site_fract_z
 _atom_site_occupancy
  Pr  Pr0  1  0.23587700  0.61973500  0.11866000  1
  Pr  Pr1  1  0.38026500  0.49892600  0.61614300  1
  Pr  Pr2  1  0.50107400  0.11721700  0.88134000  1
  Pr  Pr3  1  0.88278300  0.76412300  0.38385700  1
  Pr  Pr4  1  0.75000000  0.25000000  0.50000000  1
  Ag  Ag5  1  0.00000000  0.00000000  0.00000000  1
  S  S6  1  0.27495700  0.02356300  0.39062400  1
  S  S7  1  0.63293900  0.88433300  0.60937600  1
  S  S8  1  0.49758200  0.39286800  0.25984100  1
  S  S9  1  0.76225900  0.50241800  0.89528600  1
  S  S10  1  0.60713200  0.86697300  0.10471400  1
  S  S11  1  0.11566700  0.72504300  0.74860600  1
  S  S12  1  0.97643700  0.36706100  0.25139400  1
  S  S13  1  0.13302700  0.23774100  0.74015900  1
