# generated using pymatgen
data_Na2TbO3
_symmetry_space_group_name_H-M   'P 1'
_cell_length_a   5.90616174
_cell_length_b   5.90616174
_cell_length_c   5.91680117
_cell_angle_alpha   79.26935892
_cell_angle_beta   79.26935892
_cell_angle_gamma   118.56335300
_symmetry_Int_Tables_number   1
_chemical_formula_structural   Na2TbO3
_chemical_formula_sum   'Na4 Tb2 O6'
_cell_volume   168.80293542
_cell_formula_units_Z   2
loop_
 _symmetry_equiv_pos_site_id
 _symmetry_equiv_pos_as_xyz
  1  'x, y, z'
loop_
 _atom_site_type_symbol
 _atom_site_label
 _atom_site_symmetry_multiplicity
 _atom_site_fract_x
 _atom_site_fract_y
 _atom_site_fract_z
 _atom_site_occupancy
  Na  Na0  1  0.91956400  0.08043600  0.75000000  1
  Na  Na1  1  0.24573100  0.75426900  0.75000000  1
  Na  Na2  1  0.08043600  0.91956400  0.25000000  1
  Na  Na3  1  0.75426900  0.24573100  0.25000000  1
  Tb  Tb4  1  0.59450800  0.40549200  0.75000000  1
  Tb  Tb5  1  0.40549200  0.59450800  0.25000000  1
  O  O6  1  0.64476900  0.78502600  0.49223100  1
  O  O7  1  0.35523100  0.21497400  0.50776900  1
  O  O8  1  0.21497400  0.35523100  0.00776900  1
  O  O9  1  0.00000000  0.50000000  0.50000000  1
  O  O10  1  0.78502600  0.64476900  0.99223100  1
  O  O11  1  0.50000000  0.00000000  0.00000000  1
