# generated using pymatgen
data_SiO2
_symmetry_space_group_name_H-M   'P 1'
_cell_length_a   11.48936772
_cell_length_b   11.48936772
_cell_length_c   10.07745070
_cell_angle_alpha   87.18326785
_cell_angle_beta   87.18326785
_cell_angle_gamma   132.37966176
_symmetry_Int_Tables_number   1
_chemical_formula_structural   SiO2
_chemical_formula_sum   'Si16 O32'
_cell_volume   975.36313525
_cell_formula_units_Z   16
loop_
 _symmetry_equiv_pos_site_id
 _symmetry_equiv_pos_as_xyz
  1  'x, y, z'
loop_
 _atom_site_type_symbol
 _atom_site_label
 _atom_site_symmetry_multiplicity
 _atom_site_fract_x
 _atom_site_fract_y
 _atom_site_fract_z
 _atom_site_occupancy
  Si  Si0  1  0.01090400  0.47692100  0.22000400  1
  Si  Si1  1  0.96917900  0.28657900  0.98546000  1
  Si  Si2  1  0.31890100  0.47193600  0.88816500  1
  Si  Si3  1  0.32882000  0.67252400  0.34506200  1
  Si  Si4  1  0.32747600  0.67118000  0.65493800  1
  Si  Si5  1  0.52806400  0.68109900  0.11183500  1
  Si  Si6  1  0.28657900  0.96917900  0.98546000  1
  Si  Si7  1  0.47692100  0.01090400  0.22000400  1
  Si  Si8  1  0.52307900  0.98909600  0.77999600  1
  Si  Si9  1  0.71342100  0.03082100  0.01454000  1
  Si  Si10  1  0.47193600  0.31890100  0.88816500  1
  Si  Si11  1  0.67252400  0.32882000  0.34506200  1
  Si  Si12  1  0.67118000  0.32747600  0.65493800  1
  Si  Si13  1  0.68109900  0.52806400  0.11183500  1
  Si  Si14  1  0.03082100  0.71342100  0.01454000  1
  Si  Si15  1  0.98909600  0.52307900  0.77999600  1
  O  O16  1  0.65697800  0.43567200  0.25136100  1
  O  O17  1  0.84542900  0.38547000  0.31161500  1
  O  O18  1  0.43567200  0.65697800  0.25136100  1
  O  O19  1  0.38547000  0.84542900  0.31161500  1
  O  O20  1  0.59714500  0.40285500  0.00000000  1
  O  O21  1  0.59724700  0.59724700  0.13287000  1
  O  O22  1  0.35586000  0.99943800  0.13037800  1
  O  O23  1  0.67486500  0.86999800  0.06842200  1
  O  O24  1  0.99943800  0.35586000  0.13037800  1
  O  O25  1  0.86999800  0.67486500  0.06842200  1
  O  O26  1  0.62329800  0.06003400  0.11993200  1
  O  O27  1  0.53865400  0.14352500  0.32137100  1
  O  O28  1  0.06003400  0.62329800  0.11993200  1
  O  O29  1  0.65054800  0.34945200  0.50000000  1
  O  O30  1  0.86946200  0.13053800  0.50000000  1
  O  O31  1  0.14352500  0.53865400  0.32137100  1
  O  O32  1  0.85647500  0.46134600  0.67862900  1
  O  O33  1  0.13053800  0.86946200  0.50000000  1
  O  O34  1  0.34945200  0.65054800  0.50000000  1
  O  O35  1  0.93996600  0.37670200  0.88006800  1
  O  O36  1  0.46134600  0.85647500  0.67862900  1
  O  O37  1  0.37670200  0.93996600  0.88006800  1
  O  O38  1  0.13000200  0.32513500  0.93157800  1
  O  O39  1  0.00056200  0.64414000  0.86962200  1
  O  O40  1  0.32513500  0.13000200  0.93157800  1
  O  O41  1  0.64414000  0.00056200  0.86962200  1
  O  O42  1  0.40275300  0.40275300  0.86713000  1
  O  O43  1  0.40285500  0.59714500  0.00000000  1
  O  O44  1  0.61453000  0.15457100  0.68838500  1
  O  O45  1  0.56432800  0.34302200  0.74863900  1
  O  O46  1  0.15457100  0.61453000  0.68838500  1
  O  O47  1  0.34302200  0.56432800  0.74863900  1
