# generated using pymatgen
data_Mn3Cu3O8
_symmetry_space_group_name_H-M   'P 1'
_cell_length_a   5.96402799
_cell_length_b   5.96402884
_cell_length_c   5.96402862
_cell_angle_alpha   60.51260346
_cell_angle_beta   60.51259811
_cell_angle_gamma   60.51260114
_symmetry_Int_Tables_number   1
_chemical_formula_structural   Mn3Cu3O8
_chemical_formula_sum   'Mn3 Cu3 O8'
_cell_volume   151.74206220
_cell_formula_units_Z   1
loop_
 _symmetry_equiv_pos_site_id
 _symmetry_equiv_pos_as_xyz
  1  'x, y, z'
loop_
 _atom_site_type_symbol
 _atom_site_label
 _atom_site_symmetry_multiplicity
 _atom_site_fract_x
 _atom_site_fract_y
 _atom_site_fract_z
 _atom_site_occupancy
  Mn  Mn0  1  0.12500000  0.62500000  0.62500000  1
  Mn  Mn1  1  0.62500000  0.12500000  0.62500000  1
  Mn  Mn2  1  0.62500000  0.62500000  0.12500000  1
  Cu  Cu3  1  0.00142300  0.00142300  0.00142300  1
  Cu  Cu4  1  0.24857700  0.24857700  0.24857700  1
  Cu  Cu5  1  0.62500000  0.62500000  0.62500000  1
  O  O6  1  0.38349600  0.38349600  0.38349600  1
  O  O7  1  0.38181700  0.38181700  0.83733200  1
  O  O8  1  0.38181700  0.83733200  0.38181700  1
  O  O9  1  0.83733200  0.38181700  0.38181700  1
  O  O10  1  0.41266800  0.86818300  0.86818300  1
  O  O11  1  0.86818300  0.41266800  0.86818300  1
  O  O12  1  0.86818300  0.86818300  0.41266800  1
  O  O13  1  0.86650400  0.86650400  0.86650400  1
