# generated using pymatgen
data_Lu4V4O13
_symmetry_space_group_name_H-M   'P 1'
_cell_length_a   7.04527478
_cell_length_b   7.04527478
_cell_length_c   12.47600752
_cell_angle_alpha   72.19429550
_cell_angle_beta   72.19429550
_cell_angle_gamma   61.28819784
_symmetry_Int_Tables_number   1
_chemical_formula_structural   Lu4V4O13
_chemical_formula_sum   'Lu8 V8 O26'
_cell_volume   507.65528388
_cell_formula_units_Z   2
loop_
 _symmetry_equiv_pos_site_id
 _symmetry_equiv_pos_as_xyz
  1  'x, y, z'
loop_
 _atom_site_type_symbol
 _atom_site_label
 _atom_site_symmetry_multiplicity
 _atom_site_fract_x
 _atom_site_fract_y
 _atom_site_fract_z
 _atom_site_occupancy
  Lu  Lu0  1  0.25374300  0.25374300  0.75574400  1
  Lu  Lu1  1  0.74847200  0.26655700  0.72949000  1
  Lu  Lu2  1  0.26655700  0.74847200  0.72949000  1
  Lu  Lu3  1  0.74625700  0.74625700  0.24425600  1
  Lu  Lu4  1  0.73344300  0.25152800  0.27051000  1
  Lu  Lu5  1  0.50000000  0.50000000  0.00000000  1
  Lu  Lu6  1  0.25152800  0.73344300  0.27051000  1
  Lu  Lu7  1  0.00000000  0.00000000  0.00000000  1
  V  V8  1  0.25697900  0.25697900  0.24590900  1
  V  V9  1  0.00000000  0.50000000  0.00000000  1
  V  V10  1  0.50000000  0.50000000  0.50000000  1
  V  V11  1  0.50000000  0.00000000  0.00000000  1
  V  V12  1  0.00000000  0.00000000  0.50000000  1
  V  V13  1  0.74302100  0.74302100  0.75409100  1
  V  V14  1  0.50000000  0.00000000  0.50000000  1
  V  V15  1  0.00000000  0.50000000  0.50000000  1
  O  O16  1  0.56381400  0.95479000  0.84245500  1
  O  O17  1  0.78061200  0.78061200  0.05839700  1
  O  O18  1  0.95479000  0.56381400  0.84245500  1
  O  O19  1  0.29706700  0.81912300  0.07800600  1
  O  O20  1  0.56602700  0.56602700  0.32220100  1
  O  O21  1  0.57769200  0.57769200  0.80380000  1
  O  O22  1  0.81912300  0.29706700  0.07800600  1
  O  O23  1  0.03649500  0.56189300  0.32811300  1
  O  O24  1  0.42230800  0.42230800  0.19620000  1
  O  O25  1  0.18087700  0.70293300  0.92199400  1
  O  O26  1  0.30390600  0.30390600  0.50525700  1
  O  O27  1  0.70293300  0.18087700  0.92199400  1
  O  O28  1  0.56189300  0.03649500  0.32811300  1
  O  O29  1  0.04521000  0.43618600  0.15754500  1
  O  O30  1  0.86269700  0.30093900  0.53553000  1
  O  O31  1  0.07873800  0.07873800  0.32071800  1
  O  O32  1  0.21938800  0.21938800  0.94160300  1
  O  O33  1  0.43618600  0.04521000  0.15754500  1
  O  O34  1  0.30093900  0.86269700  0.53553000  1
  O  O35  1  0.69906100  0.13730300  0.46447000  1
  O  O36  1  0.92126200  0.92126200  0.67928200  1
  O  O37  1  0.13730300  0.69906100  0.46447000  1
  O  O38  1  0.43810700  0.96350500  0.67188700  1
  O  O39  1  0.69609400  0.69609400  0.49474300  1
  O  O40  1  0.96350500  0.43810700  0.67188700  1
  O  O41  1  0.43397300  0.43397300  0.67779900  1
