# generated using pymatgen
data_Mg(FeO2)2
_symmetry_space_group_name_H-M   'P 1'
_cell_length_a   5.98783400
_cell_length_b   6.00067051
_cell_length_c   14.64181903
_cell_angle_alpha   90.39303112
_cell_angle_beta   89.93047878
_cell_angle_gamma   119.73812598
_symmetry_Int_Tables_number   1
_chemical_formula_structural   Mg(FeO2)2
_chemical_formula_sum   'Mg6 Fe12 O24'
_cell_volume   456.79736123
_cell_formula_units_Z   6
loop_
 _symmetry_equiv_pos_site_id
 _symmetry_equiv_pos_as_xyz
  1  'x, y, z'
loop_
 _atom_site_type_symbol
 _atom_site_label
 _atom_site_symmetry_multiplicity
 _atom_site_fract_x
 _atom_site_fract_y
 _atom_site_fract_z
 _atom_site_occupancy
  Mg  Mg0  1  0.83786600  0.66304100  0.95918300  1
  Mg  Mg1  1  0.16434700  0.33023800  0.66769900  1
  Mg  Mg2  1  0.66680900  0.83323800  0.16623000  1
  Mg  Mg3  1  0.33485000  0.16519000  0.83424400  1
  Mg  Mg4  1  0.83571400  0.66992300  0.33320100  1
  Mg  Mg5  1  0.00018800  0.49965500  0.49995700  1
  Fe  Fe6  1  0.50236300  0.99263100  0.62123400  1
  Fe  Fe7  1  0.83006000  0.16477300  0.83435000  1
  Fe  Fe8  1  0.49950400  0.99949700  0.99740700  1
  Fe  Fe9  1  0.33551700  0.67005500  0.83398300  1
  Fe  Fe10  1  0.17225600  0.33070200  0.29024400  1
  Fe  Fe11  1  0.50109200  0.50052500  0.50054400  1
  Fe  Fe12  1  0.99968700  0.99958400  0.50018300  1
  Fe  Fe13  1  0.16432400  0.83289200  0.16601500  1
  Fe  Fe14  1  0.82783100  0.66862900  0.71110400  1
  Fe  Fe15  1  0.66773500  0.33766600  0.16522000  1
  Fe  Fe16  1  0.49767900  0.00727900  0.37700700  1
  Fe  Fe17  1  0.16252800  0.33762300  0.04049500  1
  O  O18  1  0.65564500  0.29690900  0.91718500  1
  O  O19  1  0.50204100  0.99754900  0.75353200  1
  O  O20  1  0.20291200  0.84522700  0.91634100  1
  O  O21  1  0.65281100  0.84840300  0.91562900  1
  O  O22  1  0.00307700  0.49338600  0.75642400  1
  O  O23  1  0.32584300  0.64493900  0.58091600  1
  O  O24  1  0.48279500  0.49729500  0.75566300  1
  O  O25  1  0.17660500  0.34279700  0.42167300  1
  O  O26  1  0.16596700  0.33662800  0.91032300  1
  O  O27  1  0.85083600  0.16234100  0.57781100  1
  O  O28  1  0.99975000  0.01480800  0.75529500  1
  O  O29  1  0.31982300  0.16804100  0.57797600  1
  O  O30  1  0.67963700  0.83228000  0.42176300  1
  O  O31  1  0.00131200  0.98787700  0.24564000  1
  O  O32  1  0.14995700  0.83798700  0.42201900  1
  O  O33  1  0.83708700  0.66082000  0.09486400  1
  O  O34  1  0.82170100  0.65779700  0.57961900  1
  O  O35  1  0.51808200  0.50567900  0.24563300  1
  O  O36  1  0.99899100  0.50907600  0.24488100  1
  O  O37  1  0.67327200  0.35382500  0.41892700  1
  O  O38  1  0.34052300  0.15364100  0.08255600  1
  O  O39  1  0.80611700  0.15611900  0.08198800  1
  O  O40  1  0.49541000  0.00301600  0.24349000  1
  O  O41  1  0.33945500  0.69041700  0.08154900  1
