# generated using pymatgen
data_Rb6Fe2O5
_symmetry_space_group_name_H-M   'P 1'
_cell_length_a   7.05061196
_cell_length_b   7.05061196
_cell_length_c   7.10451798
_cell_angle_alpha   87.80900930
_cell_angle_beta   87.80900930
_cell_angle_gamma   117.65020189
_symmetry_Int_Tables_number   1
_chemical_formula_structural   Rb6Fe2O5
_chemical_formula_sum   'Rb6 Fe2 O5'
_cell_volume   311.98588496
_cell_formula_units_Z   1
loop_
 _symmetry_equiv_pos_site_id
 _symmetry_equiv_pos_as_xyz
  1  'x, y, z'
loop_
 _atom_site_type_symbol
 _atom_site_label
 _atom_site_symmetry_multiplicity
 _atom_site_fract_x
 _atom_site_fract_y
 _atom_site_fract_z
 _atom_site_occupancy
  Rb  Rb0  1  0.20957000  0.78858200  0.00371600  1
  Rb  Rb1  1  0.24277300  0.75562500  0.49770900  1
  Rb  Rb2  1  0.36089500  0.36089500  0.82502100  1
  Rb  Rb3  1  0.64800100  0.64800100  0.18040500  1
  Rb  Rb4  1  0.75562500  0.24277300  0.49770900  1
  Rb  Rb5  1  0.78858200  0.20957000  0.00371600  1
  Fe  Fe6  1  0.18812500  0.18812500  0.30596200  1
  Fe  Fe7  1  0.79465000  0.79465000  0.67118400  1
  O  O8  1  0.16483600  0.43769100  0.22853500  1
  O  O9  1  0.56834600  0.84065700  0.77882700  1
  O  O10  1  0.43769100  0.16483600  0.22853500  1
  O  O11  1  0.94175000  0.94175000  0.43085500  1
  O  O12  1  0.84065700  0.56834600  0.77882700  1
