# generated using pymatgen
data_TiNbS4
_symmetry_space_group_name_H-M   'P 1'
_cell_length_a   7.00096804
_cell_length_b   7.00096804
_cell_length_c   5.88204437
_cell_angle_alpha   65.39353603
_cell_angle_beta   65.39353603
_cell_angle_gamma   27.98344402
_symmetry_Int_Tables_number   1
_chemical_formula_structural   TiNbS4
_chemical_formula_sum   'Ti1 Nb1 S4'
_cell_volume   122.18716875
_cell_formula_units_Z   1
loop_
 _symmetry_equiv_pos_site_id
 _symmetry_equiv_pos_as_xyz
  1  'x, y, z'
loop_
 _atom_site_type_symbol
 _atom_site_label
 _atom_site_symmetry_multiplicity
 _atom_site_fract_x
 _atom_site_fract_y
 _atom_site_fract_z
 _atom_site_occupancy
  Ti  Ti0  1  0.00000000  0.00000000  0.00000000  1
  Nb  Nb1  1  0.50000000  0.50000000  0.50000000  1
  S  S2  1  0.87703100  0.87703100  0.79527400  1
  S  S3  1  0.61998100  0.61998100  0.71820200  1
  S  S4  1  0.38001900  0.38001900  0.28179800  1
  S  S5  1  0.12296900  0.12296900  0.20472600  1
