# generated using pymatgen
data_NaYF4
_symmetry_space_group_name_H-M   'P 1'
_cell_length_a   6.07675011
_cell_length_b   6.07675011
_cell_length_c   7.09244900
_cell_angle_alpha   90.00000000
_cell_angle_beta   90.00000000
_cell_angle_gamma   120.00000120
_symmetry_Int_Tables_number   1
_chemical_formula_structural   NaYF4
_chemical_formula_sum   'Na3 Y3 F12'
_cell_volume   226.81386705
_cell_formula_units_Z   3
loop_
 _symmetry_equiv_pos_site_id
 _symmetry_equiv_pos_as_xyz
  1  'x, y, z'
loop_
 _atom_site_type_symbol
 _atom_site_label
 _atom_site_symmetry_multiplicity
 _atom_site_fract_x
 _atom_site_fract_y
 _atom_site_fract_z
 _atom_site_occupancy
  Na  Na0  1  0.00000000  0.00000000  0.39167000  1
  Na  Na1  1  0.00000000  0.00000000  0.82097400  1
  Na  Na2  1  0.66666700  0.33333300  0.61799100  1
  Y  Y3  1  0.33333300  0.66666700  0.37179900  1
  Y  Y4  1  0.33333300  0.66666700  0.86500900  1
  Y  Y5  1  0.66666700  0.33333300  0.11771600  1
  F  F6  1  0.08822600  0.69429700  0.11864100  1
  F  F7  1  0.10898500  0.72420500  0.61795700  1
  F  F8  1  0.30570300  0.39392900  0.11864100  1
  F  F9  1  0.27579500  0.38478000  0.61795700  1
  F  F10  1  0.60607100  0.91177400  0.11864100  1
  F  F11  1  0.61522000  0.89101500  0.61795700  1
  F  F12  1  0.39874900  0.07366200  0.35370600  1
  F  F13  1  0.39759800  0.07321100  0.88264300  1
  F  F14  1  0.67491400  0.60125100  0.35370600  1
  F  F15  1  0.67561300  0.60240200  0.88264300  1
  F  F16  1  0.92633800  0.32508600  0.35370600  1
  F  F17  1  0.92678900  0.32438700  0.88264300  1
