# generated using pymatgen
data_Na3UF7
_symmetry_space_group_name_H-M   'P 1'
_cell_length_a   5.62744087
_cell_length_b   5.62744087
_cell_length_c   6.61814283
_cell_angle_alpha   65.64229432
_cell_angle_beta   65.64229432
_cell_angle_gamma   88.75699810
_symmetry_Int_Tables_number   1
_chemical_formula_structural   Na3UF7
_chemical_formula_sum   'Na3 U1 F7'
_cell_volume   171.12999486
_cell_formula_units_Z   1
loop_
 _symmetry_equiv_pos_site_id
 _symmetry_equiv_pos_as_xyz
  1  'x, y, z'
loop_
 _atom_site_type_symbol
 _atom_site_label
 _atom_site_symmetry_multiplicity
 _atom_site_fract_x
 _atom_site_fract_y
 _atom_site_fract_z
 _atom_site_occupancy
  Na  Na0  1  0.22389100  0.75976200  0.51649900  1
  Na  Na1  1  0.50176800  0.50176800  0.96321300  1
  Na  Na2  1  0.75976200  0.22389100  0.51649900  1
  U  U3  1  0.03682700  0.03682700  0.98069400  1
  F  F4  1  0.83643400  0.83643400  0.84660700  1
  F  F5  1  0.36836500  0.89555100  0.74985700  1
  F  F6  1  0.06418700  0.65209700  0.24428500  1
  F  F7  1  0.89555100  0.36836500  0.74985700  1
  F  F8  1  0.38948700  0.38948700  0.70819800  1
  F  F9  1  0.65209700  0.06418700  0.24428500  1
  F  F10  1  0.14663000  0.14663000  0.23000700  1
