# generated using pymatgen
data_Er(Fe2Ge)2
_symmetry_space_group_name_H-M   'P 1'
_cell_length_a   7.20436200
_cell_length_b   7.20436200
_cell_length_c   3.87609200
_cell_angle_alpha   90.00000000
_cell_angle_beta   90.00000000
_cell_angle_gamma   90.00000000
_symmetry_Int_Tables_number   1
_chemical_formula_structural   Er(Fe2Ge)2
_chemical_formula_sum   'Er2 Fe8 Ge4'
_cell_volume   201.18015122
_cell_formula_units_Z   2
loop_
 _symmetry_equiv_pos_site_id
 _symmetry_equiv_pos_as_xyz
  1  'x, y, z'
loop_
 _atom_site_type_symbol
 _atom_site_label
 _atom_site_symmetry_multiplicity
 _atom_site_fract_x
 _atom_site_fract_y
 _atom_site_fract_z
 _atom_site_occupancy
  Er  Er0  1  0.50000000  0.50000000  0.00000000  1
  Er  Er1  1  0.00000000  0.00000000  0.50000000  1
  Fe  Fe2  1  0.40777400  0.85573200  0.50000000  1
  Fe  Fe3  1  0.85573200  0.40777400  0.50000000  1
  Fe  Fe4  1  0.64426800  0.90777400  0.00000000  1
  Fe  Fe5  1  0.35573200  0.09222600  0.00000000  1
  Fe  Fe6  1  0.90777400  0.64426800  0.00000000  1
  Fe  Fe7  1  0.14426800  0.59222600  0.50000000  1
  Fe  Fe8  1  0.59222600  0.14426800  0.50000000  1
  Fe  Fe9  1  0.09222600  0.35573200  0.00000000  1
  Ge  Ge10  1  0.21496700  0.78503300  0.00000000  1
  Ge  Ge11  1  0.71496700  0.71496700  0.50000000  1
  Ge  Ge12  1  0.78503300  0.21496700  0.00000000  1
  Ge  Ge13  1  0.28503300  0.28503300  0.50000000  1
