# generated using pymatgen
data_Ca4Sb2S
_symmetry_space_group_name_H-M   'P 1'
_cell_length_a   8.05137636
_cell_length_b   8.05137636
_cell_length_c   8.05137636
_cell_angle_alpha   110.54950673
_cell_angle_beta   110.54950673
_cell_angle_gamma   107.33552681
_symmetry_Int_Tables_number   1
_chemical_formula_structural   Ca4Sb2S
_chemical_formula_sum   'Ca8 Sb4 S2'
_cell_volume   401.36342742
_cell_formula_units_Z   2
loop_
 _symmetry_equiv_pos_site_id
 _symmetry_equiv_pos_as_xyz
  1  'x, y, z'
loop_
 _atom_site_type_symbol
 _atom_site_label
 _atom_site_symmetry_multiplicity
 _atom_site_fract_x
 _atom_site_fract_y
 _atom_site_fract_z
 _atom_site_occupancy
  Ca  Ca0  1  0.61350800  0.87571000  0.87826500  1
  Ca  Ca1  1  0.26475700  0.38649200  0.26220200  1
  Ca  Ca2  1  0.12429000  0.00255500  0.73779800  1
  Ca  Ca3  1  0.48524300  0.24744500  0.62173500  1
  Ca  Ca4  1  0.13649200  0.51475700  0.76220200  1
  Ca  Ca5  1  0.75255500  0.37429000  0.23779800  1
  Ca  Ca6  1  0.99744500  0.73524300  0.12173500  1
  Ca  Ca7  1  0.62571000  0.86350800  0.37826500  1
  Sb  Sb8  1  0.37500000  0.99735500  0.12235500  1
  Sb  Sb9  1  0.00264500  0.12500000  0.37764500  1
  Sb  Sb10  1  0.87500000  0.25264500  0.87764500  1
  Sb  Sb11  1  0.74735500  0.62500000  0.62235500  1
  S  S12  1  0.50000000  0.50000000  0.00000000  1
  S  S13  1  0.25000000  0.75000000  0.50000000  1
