# generated using pymatgen
data_Ca(LaTe2)2
_symmetry_space_group_name_H-M   'P 1'
_cell_length_a   8.38272551
_cell_length_b   8.38272551
_cell_length_c   8.38272551
_cell_angle_alpha   109.78790596
_cell_angle_beta   109.78790596
_cell_angle_gamma   108.83968979
_symmetry_Int_Tables_number   1
_chemical_formula_structural   Ca(LaTe2)2
_chemical_formula_sum   'Ca2 La4 Te8'
_cell_volume   453.41337261
_cell_formula_units_Z   2
loop_
 _symmetry_equiv_pos_site_id
 _symmetry_equiv_pos_as_xyz
  1  'x, y, z'
loop_
 _atom_site_type_symbol
 _atom_site_label
 _atom_site_symmetry_multiplicity
 _atom_site_fract_x
 _atom_site_fract_y
 _atom_site_fract_z
 _atom_site_occupancy
  Ca  Ca0  1  0.75000000  0.25000000  0.50000000  1
  Ca  Ca1  1  0.00000000  0.00000000  0.00000000  1
  La  La2  1  0.24806200  0.62500000  0.12306200  1
  La  La3  1  0.37500000  0.49806200  0.62306200  1
  La  La4  1  0.50193800  0.12500000  0.87693800  1
  La  La5  1  0.87500000  0.75193800  0.37693800  1
  Te  Te6  1  0.27071100  0.02323900  0.39682000  1
  Te  Te7  1  0.47928900  0.37610900  0.25252900  1
  Te  Te8  1  0.77323900  0.52071100  0.89682000  1
  Te  Te9  1  0.62389100  0.87642000  0.10318000  1
  Te  Te10  1  0.62642000  0.87389100  0.60318000  1
  Te  Te11  1  0.12610900  0.72928900  0.75252900  1
  Te  Te12  1  0.97676100  0.37358000  0.24747100  1
  Te  Te13  1  0.12358000  0.22676100  0.74747100  1
