# generated using pymatgen
data_Ba(PrS2)2
_symmetry_space_group_name_H-M   'P 1'
_cell_length_a   7.70912695
_cell_length_b   7.70912695
_cell_length_c   7.70912695
_cell_angle_alpha   109.44357417
_cell_angle_beta   109.44357417
_cell_angle_gamma   109.52652773
_symmetry_Int_Tables_number   1
_chemical_formula_structural   Ba(PrS2)2
_chemical_formula_sum   'Ba2 Pr4 S8'
_cell_volume   352.69020437
_cell_formula_units_Z   2
loop_
 _symmetry_equiv_pos_site_id
 _symmetry_equiv_pos_as_xyz
  1  'x, y, z'
loop_
 _atom_site_type_symbol
 _atom_site_label
 _atom_site_symmetry_multiplicity
 _atom_site_fract_x
 _atom_site_fract_y
 _atom_site_fract_z
 _atom_site_occupancy
  Ba  Ba0  1  0.50000000  0.50000000  0.00000000  1
  Ba  Ba1  1  0.75000000  0.25000000  0.50000000  1
  Pr  Pr2  1  0.62500000  0.99836200  0.87336200  1
  Pr  Pr3  1  0.00163800  0.87500000  0.62663800  1
  Pr  Pr4  1  0.12500000  0.75163800  0.12663800  1
  Pr  Pr5  1  0.24836200  0.37500000  0.37336200  1
  S  S6  1  0.89165500  0.98135000  0.24597900  1
  S  S7  1  0.51462800  0.76865000  0.41030500  1
  S  S8  1  0.89567600  0.48537200  0.25402100  1
  S  S9  1  0.23135000  0.64165500  0.74597900  1
  S  S10  1  0.73537200  0.64567600  0.75402100  1
  S  S11  1  0.35432400  0.10834500  0.08969500  1
  S  S12  1  0.01865000  0.26462800  0.91030500  1
  S  S13  1  0.35834500  0.10432400  0.58969500  1
