# generated using pymatgen
data_Nd5AgSe8
_symmetry_space_group_name_H-M   'P 1'
_cell_length_a   7.74477606
_cell_length_b   7.74477606
_cell_length_c   7.74477606
_cell_angle_alpha   109.81549626
_cell_angle_beta   109.81549626
_cell_angle_gamma   108.78484202
_symmetry_Int_Tables_number   1
_chemical_formula_structural   Nd5AgSe8
_chemical_formula_sum   'Nd5 Ag1 Se8'
_cell_volume   357.56748872
_cell_formula_units_Z   1
loop_
 _symmetry_equiv_pos_site_id
 _symmetry_equiv_pos_as_xyz
  1  'x, y, z'
loop_
 _atom_site_type_symbol
 _atom_site_label
 _atom_site_symmetry_multiplicity
 _atom_site_fract_x
 _atom_site_fract_y
 _atom_site_fract_z
 _atom_site_occupancy
  Nd  Nd0  1  0.62228400  0.50047500  0.38229900  1
  Nd  Nd1  1  0.49952500  0.88182400  0.12180900  1
  Nd  Nd2  1  0.11817600  0.23998500  0.61770100  1
  Nd  Nd3  1  0.25000000  0.75000000  0.50000000  1
  Nd  Nd4  1  0.76001500  0.37771600  0.87819100  1
  Ag  Ag5  1  0.00000000  0.00000000  0.00000000  1
  Se  Se6  1  0.72592100  0.97528500  0.60840700  1
  Se  Se7  1  0.23611900  0.49307300  0.10435100  1
  Se  Se8  1  0.86823200  0.76388100  0.25695400  1
  Se  Se9  1  0.02471500  0.63312200  0.75063600  1
  Se  Se10  1  0.38872200  0.13176800  0.89564900  1
  Se  Se11  1  0.50692700  0.61127800  0.74304600  1
  Se  Se12  1  0.88248600  0.27407900  0.24936400  1
  Se  Se13  1  0.36687800  0.11751400  0.39159300  1
