# generated using pymatgen
data_Na3ZrF7
_symmetry_space_group_name_H-M   'P 1'
_cell_length_a   5.49777023
_cell_length_b   5.49777023
_cell_length_c   6.33845010
_cell_angle_alpha   66.44740429
_cell_angle_beta   66.44740429
_cell_angle_gamma   89.80527585
_symmetry_Int_Tables_number   1
_chemical_formula_structural   Na3ZrF7
_chemical_formula_sum   'Na3 Zr1 F7'
_cell_volume   158.18376040
_cell_formula_units_Z   1
loop_
 _symmetry_equiv_pos_site_id
 _symmetry_equiv_pos_as_xyz
  1  'x, y, z'
loop_
 _atom_site_type_symbol
 _atom_site_label
 _atom_site_symmetry_multiplicity
 _atom_site_fract_x
 _atom_site_fract_y
 _atom_site_fract_z
 _atom_site_occupancy
  Na  Na0  1  0.22659000  0.76063200  0.50871300  1
  Na  Na1  1  0.50780800  0.50780800  0.96713100  1
  Na  Na2  1  0.76063200  0.22659000  0.50871300  1
  Zr  Zr3  1  0.04851600  0.04851600  0.97025700  1
  F  F4  1  0.84395100  0.84395100  0.85537200  1
  F  F5  1  0.35762000  0.89900800  0.75953200  1
  F  F6  1  0.03600100  0.66982700  0.24220500  1
  F  F7  1  0.89900800  0.35762000  0.75953200  1
  F  F8  1  0.37637800  0.37637800  0.71702100  1
  F  F9  1  0.66982700  0.03600100  0.24220500  1
  F  F10  1  0.14866800  0.14866800  0.21931700  1
