# generated using pymatgen
data_Ho10Ti6O27
_symmetry_space_group_name_H-M   'P 1'
_cell_length_a   7.39899491
_cell_length_b   7.39899491
_cell_length_c   12.49936372
_cell_angle_alpha   72.14272887
_cell_angle_beta   72.14272887
_cell_angle_gamma   58.69490587
_symmetry_Int_Tables_number   1
_chemical_formula_structural   Ho10Ti6O27
_chemical_formula_sum   'Ho10 Ti6 O27'
_cell_volume   547.28386144
_cell_formula_units_Z   1
loop_
 _symmetry_equiv_pos_site_id
 _symmetry_equiv_pos_as_xyz
  1  'x, y, z'
loop_
 _atom_site_type_symbol
 _atom_site_label
 _atom_site_symmetry_multiplicity
 _atom_site_fract_x
 _atom_site_fract_y
 _atom_site_fract_z
 _atom_site_occupancy
  Ho  Ho0  1  0.51900700  0.51900700  0.99595200  1
  Ho  Ho1  1  0.74502400  0.74502400  0.23530800  1
  Ho  Ho2  1  0.25903900  0.74937400  0.25252800  1
  Ho  Ho3  1  0.24966000  0.24966000  0.76817200  1
  Ho  Ho4  1  0.51569800  0.51569800  0.50336600  1
  Ho  Ho5  1  0.74937400  0.25903900  0.25252800  1
  Ho  Ho6  1  0.77191400  0.27885600  0.73162400  1
  Ho  Ho7  1  0.25775000  0.25775000  0.27403100  1
  Ho  Ho8  1  0.27885600  0.77191400  0.73162400  1
  Ho  Ho9  1  0.98198000  0.98198000  0.99050000  1
  Ti  Ti10  1  0.02013600  0.49514700  0.00506800  1
  Ti  Ti11  1  0.49514700  0.02013600  0.00506800  1
  Ti  Ti12  1  0.00738400  0.51909600  0.49363100  1
  Ti  Ti13  1  0.51909600  0.00738400  0.49363100  1
  Ti  Ti14  1  0.74786900  0.74786900  0.75617000  1
  Ti  Ti15  1  0.00129600  0.00129600  0.50601700  1
  O  O16  1  0.60920900  0.02729900  0.31628700  1
  O  O17  1  0.79041800  0.79041800  0.04299500  1
  O  O18  1  0.83497100  0.27865900  0.06407400  1
  O  O19  1  0.02729900  0.60920900  0.31628700  1
  O  O20  1  0.14398400  0.67875200  0.47752100  1
  O  O21  1  0.43599100  0.43599100  0.18570600  1
  O  O22  1  0.26719600  0.26719600  0.45538200  1
  O  O23  1  0.92060500  0.55657200  0.86318100  1
  O  O24  1  0.27865900  0.83497100  0.06407400  1
  O  O25  1  0.05864900  0.05864900  0.34098500  1
  O  O26  1  0.42233900  0.99689400  0.16562600  1
  O  O27  1  0.56931000  0.56931000  0.31552900  1
  O  O28  1  0.28366000  0.87981600  0.53811200  1
  O  O29  1  0.67875200  0.14398400  0.47752100  1
  O  O30  1  0.55657200  0.92060500  0.86318100  1
  O  O31  1  0.43148400  0.43148400  0.68963800  1
  O  O32  1  0.62797700  0.19796200  0.94301600  1
  O  O33  1  0.90667400  0.90667400  0.67478600  1
  O  O34  1  0.69635000  0.69635000  0.49704400  1
  O  O35  1  0.99689400  0.42233900  0.16562600  1
  O  O36  1  0.87981600  0.28366000  0.53811200  1
  O  O37  1  0.58609600  0.58609600  0.79592700  1
  O  O38  1  0.06485900  0.06485900  0.81083900  1
  O  O39  1  0.97279200  0.46636000  0.66050000  1
  O  O40  1  0.19796200  0.62797700  0.94301600  1
  O  O41  1  0.46636000  0.97279200  0.66050000  1
  O  O42  1  0.23839500  0.23839500  0.95181500  1
