# generated using pymatgen
data_AlPO4
_symmetry_space_group_name_H-M   'P 1'
_cell_length_a   9.79762348
_cell_length_b   9.79762348
_cell_length_c   9.79762348
_cell_angle_alpha   60.00000000
_cell_angle_beta   60.00000000
_cell_angle_gamma   60.00000000
_symmetry_Int_Tables_number   1
_chemical_formula_structural   AlPO4
_chemical_formula_sum   'Al5 P5 O20'
_cell_volume   665.03919013
_cell_formula_units_Z   5
loop_
 _symmetry_equiv_pos_site_id
 _symmetry_equiv_pos_as_xyz
  1  'x, y, z'
loop_
 _atom_site_type_symbol
 _atom_site_label
 _atom_site_symmetry_multiplicity
 _atom_site_fract_x
 _atom_site_fract_y
 _atom_site_fract_z
 _atom_site_occupancy
  Al  Al0  1  0.75000000  0.75000000  0.75000000  1
  Al  Al1  1  0.65817900  0.11394000  0.11394000  1
  Al  Al2  1  0.11394000  0.65817900  0.11394000  1
  Al  Al3  1  0.11394000  0.11394000  0.11394000  1
  Al  Al4  1  0.11394000  0.11394000  0.65817900  1
  P  P5  1  0.88525400  0.88525400  0.34423800  1
  P  P6  1  0.88525400  0.34423800  0.88525400  1
  P  P7  1  0.88525400  0.88525400  0.88525400  1
  P  P8  1  0.34423800  0.88525400  0.88525400  1
  P  P9  1  0.25000000  0.25000000  0.25000000  1
  O  O10  1  0.99184700  0.99184700  0.28234800  1
  O  O11  1  0.73395700  0.99184700  0.28234800  1
  O  O12  1  0.99184700  0.28234800  0.73395700  1
  O  O13  1  0.82207900  0.82207900  0.53376200  1
  O  O14  1  0.82207900  0.82207900  0.82207900  1
  O  O15  1  0.82207900  0.53376200  0.82207900  1
  O  O16  1  0.99184700  0.28234800  0.99184700  1
  O  O17  1  0.53376200  0.82207900  0.82207900  1
  O  O18  1  0.73395700  0.28234800  0.99184700  1
  O  O19  1  0.28234800  0.99184700  0.73395700  1
  O  O20  1  0.28234800  0.99184700  0.99184700  1
  O  O21  1  0.28234800  0.73395700  0.99184700  1
  O  O22  1  0.99184700  0.73395700  0.28234800  1
  O  O23  1  0.73395700  0.99184700  0.99184700  1
  O  O24  1  0.44135300  0.18621600  0.18621600  1
  O  O25  1  0.99184700  0.73395700  0.99184700  1
  O  O26  1  0.18621600  0.44135300  0.18621600  1
  O  O27  1  0.18621600  0.18621600  0.18621600  1
  O  O28  1  0.18621600  0.18621600  0.44135300  1
  O  O29  1  0.99184700  0.99184700  0.73395700  1
