data_image0
_chemical_formula_structural       Ce2Te6
_chemical_formula_sum              "Ce2 Te6"
_cell_length_a       13.8482
_cell_length_b       4.42047
_cell_length_c       4.41645
_cell_angle_alpha    90
_cell_angle_beta     90
_cell_angle_gamma    99.1839

_space_group_name_H-M_alt    "P 1"
_space_group_IT_number       1

loop_
  _space_group_symop_operation_xyz
  'x, y, z'

loop_
  _atom_site_type_symbol
  _atom_site_label
  _atom_site_symmetry_multiplicity
  _atom_site_fract_x
  _atom_site_fract_y
  _atom_site_fract_z
  _atom_site_occupancy
  Ce  Ce1       1.0  0.66000  0.75100  0.25000  1.0000
  Ce  Ce2       1.0  0.34000  0.09160  0.75000  1.0000
  Te  Te1       1.0  0.85100  0.34600  0.25000  1.0000
  Te  Te2       1.0  0.41300  0.62800  0.25000  1.0000
  Te  Te3       1.0  0.14900  0.99400  0.25000  1.0000
  Te  Te4       1.0  0.58700  0.21500  0.75000  1.0000
  Te  Te5       1.0  0.14900  0.49500  0.75000  1.0000
  Te  Te6       1.0  0.85100  0.84600  0.75000  1.0000
