# generated using pymatgen
data_SrFe12O19
_symmetry_space_group_name_H-M   'P 1'
_cell_length_a   5.99773846
_cell_length_b   5.99773846
_cell_length_c   23.34821500
_cell_angle_alpha   90.00000000
_cell_angle_beta   90.00000000
_cell_angle_gamma   120.00000503
_symmetry_Int_Tables_number   1
_chemical_formula_structural   SrFe12O19
_chemical_formula_sum   'Sr2 Fe24 O38'
_cell_volume   727.37662517
_cell_formula_units_Z   2
loop_
 _symmetry_equiv_pos_site_id
 _symmetry_equiv_pos_as_xyz
  1  'x, y, z'
loop_
 _atom_site_type_symbol
 _atom_site_label
 _atom_site_symmetry_multiplicity
 _atom_site_fract_x
 _atom_site_fract_y
 _atom_site_fract_z
 _atom_site_occupancy
  Sr  Sr0  1  0.66666700  0.33333300  0.25000000  1
  Sr  Sr1  1  0.33333300  0.66666700  0.75000000  1
  Fe  Fe2  1  0.00000000  0.00000000  0.50000000  1
  Fe  Fe3  1  0.00000000  0.00000000  0.00000000  1
  Fe  Fe4  1  0.00000000  0.00000000  0.25000000  1
  Fe  Fe5  1  0.00000000  0.00000000  0.75000000  1
  Fe  Fe6  1  0.33333300  0.66666700  0.47251500  1
  Fe  Fe7  1  0.66666700  0.33333300  0.52748500  1
  Fe  Fe8  1  0.66666700  0.33333300  0.97251500  1
  Fe  Fe9  1  0.33333300  0.66666700  0.02748500  1
  Fe  Fe10  1  0.33333300  0.66666700  0.30895700  1
  Fe  Fe11  1  0.66666700  0.33333300  0.69104300  1
  Fe  Fe12  1  0.66666700  0.33333300  0.80895700  1
  Fe  Fe13  1  0.33333300  0.66666700  0.19104300  1
  Fe  Fe14  1  0.16815400  0.83184600  0.60967400  1
  Fe  Fe15  1  0.16815400  0.33630800  0.60967400  1
  Fe  Fe16  1  0.66369200  0.83184600  0.60967400  1
  Fe  Fe17  1  0.83184600  0.16815400  0.39032600  1
  Fe  Fe18  1  0.83184600  0.66369200  0.39032600  1
  Fe  Fe19  1  0.33630800  0.16815400  0.39032600  1
  Fe  Fe20  1  0.83184600  0.16815400  0.10967400  1
  Fe  Fe21  1  0.83184600  0.66369200  0.10967400  1
  Fe  Fe22  1  0.33630800  0.16815400  0.10967400  1
  Fe  Fe23  1  0.16815400  0.83184600  0.89032600  1
  Fe  Fe24  1  0.16815400  0.33630800  0.89032600  1
  Fe  Fe25  1  0.66369200  0.83184600  0.89032600  1
  O  O26  1  0.00000000  0.00000000  0.34726200  1
  O  O27  1  0.00000000  0.00000000  0.65273800  1
  O  O28  1  0.00000000  0.00000000  0.84726200  1
  O  O29  1  0.00000000  0.00000000  0.15273800  1
  O  O30  1  0.33333300  0.66666700  0.55571600  1
  O  O31  1  0.66666700  0.33333300  0.44428400  1
  O  O32  1  0.66666700  0.33333300  0.05571600  1
  O  O33  1  0.33333300  0.66666700  0.94428400  1
  O  O34  1  0.18286500  0.81713500  0.25000000  1
  O  O35  1  0.18286500  0.36573000  0.25000000  1
  O  O36  1  0.63427000  0.81713500  0.25000000  1
  O  O37  1  0.81713500  0.18286500  0.75000000  1
  O  O38  1  0.81713500  0.63427000  0.75000000  1
  O  O39  1  0.36573000  0.18286500  0.75000000  1
  O  O40  1  0.15533300  0.84466700  0.44704700  1
  O  O41  1  0.15533300  0.31066500  0.44704700  1
  O  O42  1  0.68933500  0.84466700  0.44704700  1
  O  O43  1  0.84466700  0.15533300  0.55295300  1
  O  O44  1  0.84466700  0.68933500  0.55295300  1
  O  O45  1  0.31066500  0.15533300  0.55295300  1
  O  O46  1  0.84466700  0.15533300  0.94704700  1
  O  O47  1  0.84466700  0.68933500  0.94704700  1
  O  O48  1  0.31066500  0.15533300  0.94704700  1
  O  O49  1  0.15533300  0.84466700  0.05295300  1
  O  O50  1  0.15533300  0.31066500  0.05295300  1
  O  O51  1  0.68933500  0.84466700  0.05295300  1
  O  O52  1  0.50578600  0.49421400  0.34861600  1
  O  O53  1  0.50578600  0.01157200  0.34861600  1
  O  O54  1  0.98842800  0.49421400  0.34861600  1
  O  O55  1  0.49421400  0.50578600  0.65138400  1
  O  O56  1  0.49421400  0.98842800  0.65138400  1
  O  O57  1  0.01157200  0.50578600  0.65138400  1
  O  O58  1  0.49421400  0.50578600  0.84861600  1
  O  O59  1  0.49421400  0.98842800  0.84861600  1
  O  O60  1  0.01157200  0.50578600  0.84861600  1
  O  O61  1  0.50578600  0.49421400  0.15138400  1
  O  O62  1  0.50578600  0.01157200  0.15138400  1
  O  O63  1  0.98842800  0.49421400  0.15138400  1
