# generated using pymatgen
data_PrClO2
_symmetry_space_group_name_H-M   'P 1'
_cell_length_a   3.81339000
_cell_length_b   6.54915000
_cell_length_c   6.69915132
_cell_angle_alpha   69.42014960
_cell_angle_beta   90.00000000
_cell_angle_gamma   90.00000000
_symmetry_Int_Tables_number   1
_chemical_formula_structural   PrClO2
_chemical_formula_sum   'Pr2 Cl2 O4'
_cell_volume   156.63066705
_cell_formula_units_Z   2
loop_
 _symmetry_equiv_pos_site_id
 _symmetry_equiv_pos_as_xyz
  1  'x, y, z'
loop_
 _atom_site_type_symbol
 _atom_site_label
 _atom_site_symmetry_multiplicity
 _atom_site_fract_x
 _atom_site_fract_y
 _atom_site_fract_z
 _atom_site_occupancy
  Pr  Pr0  1  0.25000000  0.69116400  0.16417900  1
  Pr  Pr1  1  0.75000000  0.30883600  0.83582100  1
  Cl  Cl2  1  0.75000000  0.73596900  0.47738600  1
  Cl  Cl3  1  0.25000000  0.26403100  0.52261400  1
  O  O4  1  0.75000000  0.91523900  0.95671200  1
  O  O5  1  0.25000000  0.08476100  0.04328800  1
  O  O6  1  0.75000000  0.45538000  0.11829100  1
  O  O7  1  0.25000000  0.54462000  0.88170900  1
