# generated using pymatgen
data_Ca(PrTe2)2
_symmetry_space_group_name_H-M   'P 1'
_cell_length_a   8.32624583
_cell_length_b   8.32624583
_cell_length_c   8.32624583
_cell_angle_alpha   109.73736210
_cell_angle_beta   109.73736210
_cell_angle_gamma   108.94023898
_symmetry_Int_Tables_number   1
_chemical_formula_structural   Ca(PrTe2)2
_chemical_formula_sum   'Ca2 Pr4 Te8'
_cell_volume   444.32203679
_cell_formula_units_Z   2
loop_
 _symmetry_equiv_pos_site_id
 _symmetry_equiv_pos_as_xyz
  1  'x, y, z'
loop_
 _atom_site_type_symbol
 _atom_site_label
 _atom_site_symmetry_multiplicity
 _atom_site_fract_x
 _atom_site_fract_y
 _atom_site_fract_z
 _atom_site_occupancy
  Ca  Ca0  1  0.75000000  0.25000000  0.50000000  1
  Ca  Ca1  1  0.00000000  0.00000000  0.00000000  1
  Pr  Pr2  1  0.50073400  0.12500000  0.87573400  1
  Pr  Pr3  1  0.87500000  0.75073400  0.37573400  1
  Pr  Pr4  1  0.24926600  0.62500000  0.12426600  1
  Pr  Pr5  1  0.37500000  0.49926600  0.62426600  1
  Te  Te6  1  0.97618300  0.37488400  0.24780100  1
  Te  Te7  1  0.47838200  0.37708200  0.25219900  1
  Te  Te8  1  0.62511600  0.87291800  0.60130000  1
  Te  Te9  1  0.12488400  0.22618300  0.74780100  1
  Te  Te10  1  0.77381700  0.52161800  0.89870000  1
  Te  Te11  1  0.62291800  0.87511600  0.10130000  1
  Te  Te12  1  0.27161800  0.02381700  0.39870000  1
  Te  Te13  1  0.12708200  0.72838200  0.75219900  1
