# generated using pymatgen
data_Sr(GdS2)2
_symmetry_space_group_name_H-M   'P 1'
_cell_length_a   7.43067490
_cell_length_b   7.43067490
_cell_length_c   7.43067490
_cell_angle_alpha   109.32772983
_cell_angle_beta   109.32772983
_cell_angle_gamma   109.75858499
_symmetry_Int_Tables_number   1
_chemical_formula_structural   Sr(GdS2)2
_chemical_formula_sum   'Sr2 Gd4 S8'
_cell_volume   315.83095556
_cell_formula_units_Z   2
loop_
 _symmetry_equiv_pos_site_id
 _symmetry_equiv_pos_as_xyz
  1  'x, y, z'
loop_
 _atom_site_type_symbol
 _atom_site_label
 _atom_site_symmetry_multiplicity
 _atom_site_fract_x
 _atom_site_fract_y
 _atom_site_fract_z
 _atom_site_occupancy
  Sr  Sr0  1  0.50000000  0.50000000  0.00000000  1
  Sr  Sr1  1  0.75000000  0.25000000  0.50000000  1
  Gd  Gd2  1  0.62500000  0.99930800  0.87430800  1
  Gd  Gd3  1  0.12500000  0.75069200  0.12569200  1
  Gd  Gd4  1  0.00069200  0.87500000  0.62569200  1
  Gd  Gd5  1  0.24930800  0.37500000  0.37430800  1
  S  S6  1  0.35955600  0.11262600  0.09746400  1
  S  S7  1  0.36262600  0.10955600  0.59746400  1
  S  S8  1  0.51209200  0.76516200  0.40253600  1
  S  S9  1  0.73790800  0.64044400  0.75307000  1
  S  S10  1  0.01516200  0.26209200  0.90253600  1
  S  S11  1  0.89044400  0.48790800  0.25307000  1
  S  S12  1  0.88737400  0.98483800  0.24693000  1
  S  S13  1  0.23483800  0.63737400  0.74693000  1
