# generated using pymatgen
data_La12Ni6O25
_symmetry_space_group_name_H-M   'P 1'
_cell_length_a   5.48932600
_cell_length_b   5.59190833
_cell_length_c   19.23555145
_cell_angle_alpha   81.68123712
_cell_angle_beta   89.97985546
_cell_angle_gamma   89.98044001
_symmetry_Int_Tables_number   1
_chemical_formula_structural   La12Ni6O25
_chemical_formula_sum   'La12 Ni6 O25'
_cell_volume   584.23827852
_cell_formula_units_Z   1
loop_
 _symmetry_equiv_pos_site_id
 _symmetry_equiv_pos_as_xyz
  1  'x, y, z'
loop_
 _atom_site_type_symbol
 _atom_site_label
 _atom_site_symmetry_multiplicity
 _atom_site_fract_x
 _atom_site_fract_y
 _atom_site_fract_z
 _atom_site_occupancy
  La  La0  1  0.48985100  0.61742300  0.76032800  1
  La  La1  1  0.99668700  0.57391200  0.90923500  1
  La  La2  1  0.49100100  0.31411900  0.42753900  1
  La  La3  1  0.99220900  0.20952500  0.57634900  1
  La  La4  1  0.00946600  0.14404700  0.76034300  1
  La  La5  1  0.49242700  0.04186500  0.90929400  1
  La  La6  1  0.49462800  0.97045400  0.09894600  1
  La  La7  1  0.99692900  0.90078100  0.23778900  1
  La  La8  1  0.01311900  0.78315300  0.42760700  1
  La  La9  1  0.51200100  0.73665200  0.57640900  1
  La  La10  1  0.99551800  0.46296800  0.09908600  1
  La  La11  1  0.49339700  0.39504200  0.23755400  1
  Ni  Ni12  1  0.50171700  0.17676300  0.66831400  1
  Ni  Ni13  1  0.98991500  0.01824700  0.00235700  1
  Ni  Ni14  1  0.50507400  0.85211900  0.33458400  1
  Ni  Ni15  1  0.00064700  0.67639800  0.66834900  1
  Ni  Ni16  1  0.49906500  0.50781500  0.00241400  1
  Ni  Ni17  1  0.99476700  0.34118900  0.33463100  1
  O  O18  1  0.02642100  0.56722800  0.78493800  1
  O  O19  1  0.50369800  0.62722000  0.87918500  1
  O  O20  1  0.75208300  0.42757800  0.66458000  1
  O  O21  1  0.25198400  0.43416100  0.65453000  1
  O  O22  1  0.53429800  0.18584400  0.55178000  1
  O  O23  1  0.47235500  0.17023200  0.78483900  1
  O  O24  1  0.99356600  0.01934000  0.87935200  1
  O  O25  1  0.75292500  0.08128600  0.35970800  1
  O  O26  1  0.25257400  0.09561900  0.34188200  1
  O  O27  1  0.94516400  0.02911600  0.11035500  1
  O  O28  1  0.75045600  0.91880200  0.68257500  1
  O  O29  1  0.25082900  0.92527400  0.67169400  1
  O  O30  1  0.55137200  0.96637300  0.22654900  1
  O  O31  1  0.46880700  0.73465100  0.45755300  1
  O  O32  1  0.96946800  0.78476200  0.55190600  1
  O  O33  1  0.24492400  0.68381300  0.16782400  1
  O  O34  1  0.74433000  0.76183300  0.00492900  1
  O  O35  1  0.24417800  0.76202100  0.00339000  1
  O  O36  1  0.03335900  0.33334900  0.45758100  1
  O  O37  1  0.74746300  0.59326100  0.33636300  1
  O  O38  1  0.24798700  0.60091300  0.32978900  1
  O  O39  1  0.54170300  0.39258700  0.11075300  1
  O  O40  1  0.94656400  0.33660400  0.22647500  1
  O  O41  1  0.74382700  0.27355500  0.97965100  1
  O  O42  1  0.24424600  0.26844200  0.99202200  1
