# generated using pymatgen
data_Dy10Ti6O27
_symmetry_space_group_name_H-M   'P 1'
_cell_length_a   7.42739033
_cell_length_b   7.42739033
_cell_length_c   12.55316637
_cell_angle_alpha   72.04427981
_cell_angle_beta   72.04427981
_cell_angle_gamma   58.67671621
_symmetry_Int_Tables_number   1
_chemical_formula_structural   Dy10Ti6O27
_chemical_formula_sum   'Dy10 Ti6 O27'
_cell_volume   553.34825365
_cell_formula_units_Z   1
loop_
 _symmetry_equiv_pos_site_id
 _symmetry_equiv_pos_as_xyz
  1  'x, y, z'
loop_
 _atom_site_type_symbol
 _atom_site_label
 _atom_site_symmetry_multiplicity
 _atom_site_fract_x
 _atom_site_fract_y
 _atom_site_fract_z
 _atom_site_occupancy
  Dy  Dy0  1  0.51994800  0.51994800  0.99628100  1
  Dy  Dy1  1  0.98159100  0.98159100  0.99059300  1
  Dy  Dy2  1  0.25752400  0.25752400  0.27493700  1
  Dy  Dy3  1  0.25820000  0.74968900  0.25317000  1
  Dy  Dy4  1  0.74968900  0.25820000  0.25317000  1
  Dy  Dy5  1  0.51629100  0.51629100  0.50312800  1
  Dy  Dy6  1  0.74572800  0.74572800  0.23397700  1
  Dy  Dy7  1  0.77187700  0.27907600  0.73135400  1
  Dy  Dy8  1  0.27907600  0.77187700  0.73135400  1
  Dy  Dy9  1  0.24960600  0.24960600  0.76774600  1
  Ti  Ti10  1  0.02145100  0.49521200  0.00432000  1
  Ti  Ti11  1  0.49521200  0.02145100  0.00432000  1
  Ti  Ti12  1  0.74783800  0.74783800  0.75686700  1
  Ti  Ti13  1  0.00152700  0.00152700  0.50628400  1
  Ti  Ti14  1  0.00781400  0.51961000  0.49414200  1
  Ti  Ti15  1  0.51961000  0.00781400  0.49414200  1
  O  O16  1  0.60776600  0.02651000  0.31721700  1
  O  O17  1  0.78918700  0.78918700  0.04130200  1
  O  O18  1  0.83397500  0.27658600  0.06486700  1
  O  O19  1  0.02651000  0.60776600  0.31721700  1
  O  O20  1  0.91994800  0.55649400  0.86330400  1
  O  O21  1  0.43647500  0.43647500  0.18672200  1
  O  O22  1  0.14340700  0.67959400  0.47678100  1
  O  O23  1  0.26767500  0.26767500  0.45689200  1
  O  O24  1  0.05929600  0.05929600  0.34183500  1
  O  O25  1  0.27658600  0.83397500  0.06486700  1
  O  O26  1  0.42275100  0.99865800  0.16405100  1
  O  O27  1  0.43183500  0.43183500  0.68971200  1
  O  O28  1  0.28293900  0.88012400  0.53767300  1
  O  O29  1  0.57016700  0.57016700  0.31511400  1
  O  O30  1  0.67959400  0.14340700  0.47678100  1
  O  O31  1  0.55649400  0.91994800  0.86330400  1
  O  O32  1  0.62671500  0.19843400  0.94262700  1
  O  O33  1  0.90596900  0.90596900  0.67419600  1
  O  O34  1  0.58692400  0.58692400  0.79565000  1
  O  O35  1  0.99865800  0.42275100  0.16405100  1
  O  O36  1  0.69686700  0.69686700  0.49903700  1
  O  O37  1  0.88012400  0.28293900  0.53767300  1
  O  O38  1  0.97364900  0.46578900  0.66019800  1
  O  O39  1  0.06440600  0.06440600  0.81085700  1
  O  O40  1  0.19843400  0.62671500  0.94262700  1
  O  O41  1  0.23737800  0.23737800  0.95196400  1
  O  O42  1  0.46578900  0.97364900  0.66019800  1
