# generated using pymatgen
data_Na3(W2O3)2
_symmetry_space_group_name_H-M   'P 1'
_cell_length_a   6.64618289
_cell_length_b   6.64618289
_cell_length_c   6.64618289
_cell_angle_alpha   112.67953280
_cell_angle_beta   108.48415333
_cell_angle_gamma   107.30037789
_symmetry_Int_Tables_number   1
_chemical_formula_structural   Na3(W2O3)2
_chemical_formula_sum   'Na3 W4 O6'
_cell_volume   225.43562978
_cell_formula_units_Z   1
loop_
 _symmetry_equiv_pos_site_id
 _symmetry_equiv_pos_as_xyz
  1  'x, y, z'
loop_
 _atom_site_type_symbol
 _atom_site_label
 _atom_site_symmetry_multiplicity
 _atom_site_fract_x
 _atom_site_fract_y
 _atom_site_fract_z
 _atom_site_occupancy
  Na  Na0  1  0.02113100  0.50000000  0.52113100  1
  Na  Na1  1  0.53438900  0.00000000  0.53438900  1
  Na  Na2  1  0.45509500  0.50000000  0.95509500  1
  W  W3  1  0.49263900  0.47065700  0.46382400  1
  W  W4  1  0.49263900  0.02881500  0.02198200  1
  W  W5  1  0.99316800  0.52934300  0.02198200  1
  W  W6  1  0.99316800  0.97118500  0.46382400  1
  O  O7  1  0.72620100  0.71172400  0.43792600  1
  O  O8  1  0.72620100  0.28827600  0.01447700  1
  O  O9  1  0.26205300  0.21260200  0.47465400  1
  O  O10  1  0.45965200  0.73802100  0.72163100  1
  O  O11  1  0.98361000  0.26197900  0.72163100  1
  O  O12  1  0.26205300  0.78739800  0.04945100  1
