# generated using pymatgen
data_Ca2B2O5
_symmetry_space_group_name_H-M   'P 1'
_cell_length_a   5.21980600
_cell_length_b   7.27516400
_cell_length_c   11.64361342
_cell_angle_alpha   87.51762957
_cell_angle_beta   90.00000000
_cell_angle_gamma   90.00000000
_symmetry_Int_Tables_number   1
_chemical_formula_structural   Ca2B2O5
_chemical_formula_sum   'Ca8 B8 O20'
_cell_volume   441.75064552
_cell_formula_units_Z   4
loop_
 _symmetry_equiv_pos_site_id
 _symmetry_equiv_pos_as_xyz
  1  'x, y, z'
loop_
 _atom_site_type_symbol
 _atom_site_label
 _atom_site_symmetry_multiplicity
 _atom_site_fract_x
 _atom_site_fract_y
 _atom_site_fract_z
 _atom_site_occupancy
  Ca  Ca0  1  0.56668100  0.38266300  0.36628300  1
  Ca  Ca1  1  0.06668100  0.61733700  0.13371700  1
  Ca  Ca2  1  0.43331900  0.61733700  0.63371700  1
  Ca  Ca3  1  0.93331900  0.38266300  0.86628300  1
  Ca  Ca4  1  0.60089300  0.87747700  0.33480000  1
  Ca  Ca5  1  0.10089300  0.12252300  0.16520000  1
  Ca  Ca6  1  0.39910700  0.12252300  0.66520000  1
  Ca  Ca7  1  0.89910700  0.87747700  0.83480000  1
  B  B8  1  0.43713800  0.66450000  0.91120800  1
  B  B9  1  0.93713800  0.33550000  0.58879200  1
  B  B10  1  0.56286200  0.33550000  0.08879200  1
  B  B11  1  0.06286200  0.66450000  0.41120800  1
  B  B12  1  0.57771900  0.84441100  0.09598300  1
  B  B13  1  0.07771900  0.15558900  0.40401700  1
  B  B14  1  0.42228100  0.15558900  0.90401700  1
  B  B15  1  0.92228100  0.84441100  0.59598300  1
  O  O16  1  0.90728900  0.77442400  0.48420000  1
  O  O17  1  0.40728900  0.22557600  0.01580000  1
  O  O18  1  0.09271100  0.22557600  0.51580000  1
  O  O19  1  0.59271100  0.77442400  0.98420000  1
  O  O20  1  0.17928200  0.64419200  0.92909000  1
  O  O21  1  0.67928200  0.35580800  0.57091000  1
  O  O22  1  0.82071800  0.35580800  0.07091000  1
  O  O23  1  0.32071800  0.64419200  0.42909000  1
  O  O24  1  0.58010300  0.59350600  0.82506100  1
  O  O25  1  0.08010300  0.40649400  0.67493900  1
  O  O26  1  0.41989700  0.40649400  0.17493900  1
  O  O27  1  0.91989700  0.59350600  0.32506100  1
  O  O28  1  0.19252100  0.10986000  0.85687200  1
  O  O29  1  0.69252100  0.89014000  0.64312800  1
  O  O30  1  0.80747900  0.89014000  0.14312800  1
  O  O31  1  0.30747900  0.10986000  0.35687200  1
  O  O32  1  0.14402200  0.85313500  0.65720500  1
  O  O33  1  0.64402200  0.14686500  0.84279500  1
  O  O34  1  0.85597800  0.14686500  0.34279500  1
  O  O35  1  0.35597800  0.85313500  0.15720500  1
