# generated using pymatgen
data_MgAl2O4
_symmetry_space_group_name_H-M   'P 1'
_cell_length_a   5.74062195
_cell_length_b   5.74062195
_cell_length_c   5.74062195
_cell_angle_alpha   120.35480776
_cell_angle_beta   119.49419866
_cell_angle_gamma   90.13242624
_symmetry_Int_Tables_number   1
_chemical_formula_structural   MgAl2O4
_chemical_formula_sum   'Mg2 Al4 O8'
_cell_volume   133.91380763
_cell_formula_units_Z   2
loop_
 _symmetry_equiv_pos_site_id
 _symmetry_equiv_pos_as_xyz
  1  'x, y, z'
loop_
 _atom_site_type_symbol
 _atom_site_label
 _atom_site_symmetry_multiplicity
 _atom_site_fract_x
 _atom_site_fract_y
 _atom_site_fract_z
 _atom_site_occupancy
  Mg  Mg0  1  0.50000000  0.50000000  0.50000000  1
  Mg  Mg1  1  0.50000000  0.00000000  0.00000000  1
  Al  Al2  1  0.11459800  0.86459800  0.25000000  1
  Al  Al3  1  0.00000000  0.50000000  0.50000000  1
  Al  Al4  1  0.50000000  0.50000000  0.00000000  1
  Al  Al5  1  0.88540200  0.13540200  0.75000000  1
  O  O6  1  0.23563400  0.73459800  0.50103600  1
  O  O7  1  0.73356200  0.73459800  0.99896400  1
  O  O8  1  0.24600300  0.26055200  0.51454900  1
  O  O9  1  0.24600300  0.73145400  0.98545100  1
  O  O10  1  0.75399700  0.26854600  0.01454900  1
  O  O11  1  0.26643800  0.26540200  0.00103600  1
  O  O12  1  0.75399700  0.73944800  0.48545100  1
  O  O13  1  0.76436600  0.26540200  0.49896400  1
