# generated using pymatgen
data_Mg3Al14O24
_symmetry_space_group_name_H-M   'P 1'
_cell_length_a   9.80858368
_cell_length_b   9.80858368
_cell_length_c   8.10599317
_cell_angle_alpha   66.50865455
_cell_angle_beta   66.50865455
_cell_angle_gamma   34.01790589
_symmetry_Int_Tables_number   1
_chemical_formula_structural   Mg3Al14O24
_chemical_formula_sum   'Mg3 Al14 O24'
_cell_volume   396.58392137
_cell_formula_units_Z   1
loop_
 _symmetry_equiv_pos_site_id
 _symmetry_equiv_pos_as_xyz
  1  'x, y, z'
loop_
 _atom_site_type_symbol
 _atom_site_label
 _atom_site_symmetry_multiplicity
 _atom_site_fract_x
 _atom_site_fract_y
 _atom_site_fract_z
 _atom_site_occupancy
  Mg  Mg0  1  0.41981500  0.41981500  0.45650000  1
  Mg  Mg1  1  0.08573700  0.08573700  0.79425300  1
  Mg  Mg2  1  0.91338500  0.91338500  0.21116400  1
  Al  Al3  1  0.32950100  0.32950100  0.16463700  1
  Al  Al4  1  0.83286200  0.83286200  0.66641600  1
  Al  Al5  1  0.00480100  0.00480100  0.50083800  1
  Al  Al6  1  0.66905700  0.16515200  0.83095700  1
  Al  Al7  1  0.50112400  0.50112400  0.00391600  1
  Al  Al8  1  0.66513100  0.66513100  0.83777100  1
  Al  Al9  1  0.75293700  0.75293700  0.12631300  1
  Al  Al10  1  0.33200100  0.84105500  0.17373500  1
  Al  Al11  1  0.16515200  0.66905700  0.83095700  1
  Al  Al12  1  0.84105500  0.33200100  0.17373500  1
  Al  Al13  1  0.00488300  0.48888800  0.48804200  1
  Al  Al14  1  0.58096400  0.58096400  0.53917700  1
  Al  Al15  1  0.48888800  0.00488300  0.48804200  1
  Al  Al16  1  0.24638600  0.24638600  0.87233000  1
  O  O17  1  0.32659200  0.32659200  0.40293000  1
  O  O18  1  0.13520100  0.69221600  0.60349600  1
  O  O19  1  0.97821800  0.51985600  0.74959900  1
  O  O20  1  0.81965200  0.81965200  0.45109800  1
  O  O21  1  0.99056900  0.99056900  0.74933400  1
  O  O22  1  0.83736200  0.83736200  0.90673200  1
  O  O23  1  0.51985600  0.97821800  0.74959900  1
  O  O24  1  0.69221600  0.13520100  0.60349600  1
  O  O25  1  0.63833900  0.19823100  0.06011900  1
  O  O26  1  0.80323200  0.36531400  0.93252200  1
  O  O27  1  0.33636300  0.33636300  0.91253600  1
  O  O28  1  0.49482000  0.49482000  0.75860000  1
  O  O29  1  0.51115400  0.51115400  0.22395300  1
  O  O30  1  0.66508300  0.66508300  0.08511000  1
  O  O31  1  0.19823100  0.63833900  0.06011900  1
  O  O32  1  0.36531400  0.80323200  0.93252200  1
  O  O33  1  0.32677700  0.82271900  0.41736400  1
  O  O34  1  0.51337000  0.00723800  0.24619800  1
  O  O35  1  0.00981500  0.00981500  0.25846800  1
  O  O36  1  0.15990000  0.15990000  0.07476200  1
  O  O37  1  0.18023700  0.18023700  0.57813700  1
  O  O38  1  0.82271900  0.32677700  0.41736400  1
  O  O39  1  0.00723800  0.51337000  0.24619800  1
  O  O40  1  0.66864600  0.66864600  0.58743500  1
