# generated using pymatgen
data_GaCuSe2
_symmetry_space_group_name_H-M   'P 1'
_cell_length_a   6.52400245
_cell_length_b   6.52400245
_cell_length_c   6.52400245
_cell_angle_alpha   132.05248122
_cell_angle_beta   132.05248122
_cell_angle_gamma   70.14615114
_symmetry_Int_Tables_number   1
_chemical_formula_structural   GaCuSe2
_chemical_formula_sum   'Ga2 Cu2 Se4'
_cell_volume   150.07593482
_cell_formula_units_Z   2
loop_
 _symmetry_equiv_pos_site_id
 _symmetry_equiv_pos_as_xyz
  1  'x, y, z'
loop_
 _atom_site_type_symbol
 _atom_site_label
 _atom_site_symmetry_multiplicity
 _atom_site_fract_x
 _atom_site_fract_y
 _atom_site_fract_z
 _atom_site_occupancy
  Ga  Ga0  1  0.00000000  0.00000000  0.00000000  1
  Ga  Ga1  1  0.75000000  0.25000000  0.50000000  1
  Cu  Cu2  1  0.25000000  0.75000000  0.50000000  1
  Cu  Cu3  1  0.50000000  0.50000000  0.00000000  1
  Se  Se4  1  0.74973700  0.74973700  0.00000000  1
  Se  Se5  1  0.25026300  0.25026300  0.00000000  1
  Se  Se6  1  0.00026300  0.50026300  0.50000000  1
  Se  Se7  1  0.49973700  0.99973700  0.50000000  1
