# generated using pymatgen
data_Ba(Mo3S4)2
_symmetry_space_group_name_H-M   'P 1'
_cell_length_a   6.71311851
_cell_length_b   6.71311851
_cell_length_c   6.71311821
_cell_angle_alpha   88.69753750
_cell_angle_beta   88.69753750
_cell_angle_gamma   88.69752840
_symmetry_Int_Tables_number   1
_chemical_formula_structural   Ba(Mo3S4)2
_chemical_formula_sum   'Ba1 Mo6 S8'
_cell_volume   302.30211864
_cell_formula_units_Z   1
loop_
 _symmetry_equiv_pos_site_id
 _symmetry_equiv_pos_as_xyz
  1  'x, y, z'
loop_
 _atom_site_type_symbol
 _atom_site_label
 _atom_site_symmetry_multiplicity
 _atom_site_fract_x
 _atom_site_fract_y
 _atom_site_fract_z
 _atom_site_occupancy
  Ba  Ba0  1  0.00000000  0.00000000  0.00000000  1
  Mo  Mo1  1  0.56516200  0.23516300  0.41688000  1
  Mo  Mo2  1  0.23516300  0.41688000  0.56516200  1
  Mo  Mo3  1  0.41688000  0.56516200  0.23516300  1
  Mo  Mo4  1  0.43483800  0.76483700  0.58312000  1
  Mo  Mo5  1  0.76483700  0.58312000  0.43483800  1
  Mo  Mo6  1  0.58312000  0.43483800  0.76483700  1
  S  S7  1  0.25221400  0.25221400  0.25221400  1
  S  S8  1  0.74778600  0.74778600  0.74778600  1
  S  S9  1  0.39117500  0.12485100  0.73387500  1
  S  S10  1  0.12485100  0.73387500  0.39117500  1
  S  S11  1  0.73387500  0.39117500  0.12485100  1
  S  S12  1  0.60882500  0.87514900  0.26612500  1
  S  S13  1  0.87514900  0.26612500  0.60882500  1
  S  S14  1  0.26612500  0.60882500  0.87514900  1
