# generated using pymatgen
data_ZnC2S2(OF)6
_symmetry_space_group_name_H-M   'P 1'
_cell_length_a   10.90774368
_cell_length_b   10.90774368
_cell_length_c   10.90774393
_cell_angle_alpha   26.92081098
_cell_angle_beta   26.92081098
_cell_angle_gamma   26.92081087
_symmetry_Int_Tables_number   1
_chemical_formula_structural   ZnC2S2(OF)6
_chemical_formula_sum   'Zn1 C2 S2 O6 F6'
_cell_volume   234.62736283
_cell_formula_units_Z   1
loop_
 _symmetry_equiv_pos_site_id
 _symmetry_equiv_pos_as_xyz
  1  'x, y, z'
loop_
 _atom_site_type_symbol
 _atom_site_label
 _atom_site_symmetry_multiplicity
 _atom_site_fract_x
 _atom_site_fract_y
 _atom_site_fract_z
 _atom_site_occupancy
  Zn  Zn0  1  0.00000000  0.00000000  0.00000000  1
  C  C1  1  0.77693200  0.77693200  0.77693200  1
  C  C2  1  0.22306800  0.22306800  0.22306800  1
  S  S3  1  0.71741400  0.71741400  0.71741400  1
  S  S4  1  0.28258600  0.28258600  0.28258600  1
  O  O5  1  0.03817600  0.24977200  0.59312000  1
  O  O6  1  0.24977200  0.59312000  0.03817600  1
  O  O7  1  0.59312000  0.03817600  0.24977200  1
  O  O8  1  0.40688000  0.96182400  0.75022800  1
  O  O9  1  0.75022800  0.40688000  0.96182400  1
  O  O10  1  0.96182400  0.75022800  0.40688000  1
  F  F11  1  0.05127100  0.55226600  0.77029700  1
  F  F12  1  0.55226600  0.77029700  0.05127100  1
  F  F13  1  0.77029700  0.05127100  0.55226600  1
  F  F14  1  0.22970300  0.94872900  0.44773400  1
  F  F15  1  0.44773400  0.22970300  0.94872900  1
  F  F16  1  0.94872900  0.44773400  0.22970300  1
