# generated using pymatgen
data_Na6TiMn(SiO3)6
_symmetry_space_group_name_H-M   'P 1'
_cell_length_a   7.34874765
_cell_length_b   7.34874765
_cell_length_c   7.34874721
_cell_angle_alpha   88.09530908
_cell_angle_beta   88.09530908
_cell_angle_gamma   88.09530853
_symmetry_Int_Tables_number   1
_chemical_formula_structural   Na6TiMn(SiO3)6
_chemical_formula_sum   'Na6 Ti1 Mn1 Si6 O18'
_cell_volume   396.21885052
_cell_formula_units_Z   1
loop_
 _symmetry_equiv_pos_site_id
 _symmetry_equiv_pos_as_xyz
  1  'x, y, z'
loop_
 _atom_site_type_symbol
 _atom_site_label
 _atom_site_symmetry_multiplicity
 _atom_site_fract_x
 _atom_site_fract_y
 _atom_site_fract_z
 _atom_site_occupancy
  Na  Na0  1  0.01036800  0.01036800  0.48185500  1
  Na  Na1  1  0.01036800  0.48185500  0.01036800  1
  Na  Na2  1  0.03248700  0.46851100  0.46851000  1
  Na  Na3  1  0.46851000  0.46851100  0.03248700  1
  Na  Na4  1  0.48185500  0.01036800  0.01036800  1
  Na  Na5  1  0.46851000  0.03248700  0.46851000  1
  Ti  Ti6  1  0.00836700  0.00836700  0.00836700  1
  Mn  Mn7  1  0.75323800  0.75323800  0.75323800  1
  Si  Si8  1  0.27913100  0.27913100  0.73282300  1
  Si  Si9  1  0.73282300  0.27913100  0.27913100  1
  Si  Si10  1  0.72391600  0.26693600  0.72391600  1
  Si  Si11  1  0.27913100  0.73282300  0.27913100  1
  Si  Si12  1  0.26693600  0.72391600  0.72391600  1
  Si  Si13  1  0.72391600  0.72391600  0.26693600  1
  O  O14  1  0.81791000  0.08362400  0.81791000  1
  O  O15  1  0.91007000  0.17934900  0.17934900  1
  O  O16  1  0.17934900  0.17934900  0.91007000  1
  O  O17  1  0.54180300  0.21675700  0.21675700  1
  O  O18  1  0.21675700  0.21675700  0.54180300  1
  O  O19  1  0.50152800  0.24317100  0.76370300  1
  O  O20  1  0.76370300  0.24317100  0.50152800  1
  O  O21  1  0.78609900  0.46411000  0.78609900  1
  O  O22  1  0.24317100  0.50152800  0.76370300  1
  O  O23  1  0.76370300  0.50152800  0.24317100  1
  O  O24  1  0.21675700  0.54180300  0.21675700  1
  O  O25  1  0.24317100  0.76370300  0.50152800  1
  O  O26  1  0.50152800  0.76370300  0.24317100  1
  O  O27  1  0.78609900  0.78609900  0.46411000  1
  O  O28  1  0.46411000  0.78609900  0.78609900  1
  O  O29  1  0.08362400  0.81791000  0.81791000  1
  O  O30  1  0.81791000  0.81791000  0.08362400  1
  O  O31  1  0.17934900  0.91007000  0.17934900  1
