# generated using pymatgen
data_KZrTl2OF5
_symmetry_space_group_name_H-M   'P 1'
_cell_length_a   6.59698922
_cell_length_b   6.59698922
_cell_length_c   6.59698922
_cell_angle_alpha   120.89517340
_cell_angle_beta   120.89517340
_cell_angle_gamma   88.45638337
_symmetry_Int_Tables_number   1
_chemical_formula_structural   KZrTl2OF5
_chemical_formula_sum   'K1 Zr1 Tl2 O1 F5'
_cell_volume   200.18658242
_cell_formula_units_Z   1
loop_
 _symmetry_equiv_pos_site_id
 _symmetry_equiv_pos_as_xyz
  1  'x, y, z'
loop_
 _atom_site_type_symbol
 _atom_site_label
 _atom_site_symmetry_multiplicity
 _atom_site_fract_x
 _atom_site_fract_y
 _atom_site_fract_z
 _atom_site_occupancy
  K  K0  1  0.50081500  0.50081500  0.00000000  1
  Zr  Zr1  1  0.01826600  0.01826600  0.00000000  1
  Tl  Tl2  1  0.75762600  0.25762600  0.50000000  1
  Tl  Tl3  1  0.25762600  0.75762600  0.50000000  1
  O  O4  1  0.22023000  0.22023000  0.00000000  1
  F  F5  1  0.21600500  0.76665800  0.00000000  1
  F  F6  1  0.21600500  0.21600500  0.44934700  1
  F  F7  1  0.76665800  0.76665800  0.55065300  1
  F  F8  1  0.76665800  0.21600500  0.00000000  1
  F  F9  1  0.78011000  0.78011000  0.00000000  1
