# generated using pymatgen
data_BaCu3O4
_symmetry_space_group_name_H-M   'P 1'
_cell_length_a   6.20705325
_cell_length_b   6.20705325
_cell_length_c   4.03736900
_cell_angle_alpha   90.00000000
_cell_angle_beta   90.00000000
_cell_angle_gamma   126.86778405
_symmetry_Int_Tables_number   1
_chemical_formula_structural   BaCu3O4
_chemical_formula_sum   'Ba1 Cu3 O4'
_cell_volume   124.44326247
_cell_formula_units_Z   1
loop_
 _symmetry_equiv_pos_site_id
 _symmetry_equiv_pos_as_xyz
  1  'x, y, z'
loop_
 _atom_site_type_symbol
 _atom_site_label
 _atom_site_symmetry_multiplicity
 _atom_site_fract_x
 _atom_site_fract_y
 _atom_site_fract_z
 _atom_site_occupancy
  Ba  Ba0  1  0.00000000  0.00000000  0.50000000  1
  Cu  Cu1  1  0.50000000  0.50000000  0.00000000  1
  Cu  Cu2  1  0.75236100  0.24763900  0.00000000  1
  Cu  Cu3  1  0.24763900  0.75236100  0.00000000  1
  O  O4  1  0.12567300  0.38421200  0.00000000  1
  O  O5  1  0.87432700  0.61578800  0.00000000  1
  O  O6  1  0.38421200  0.12567300  0.00000000  1
  O  O7  1  0.61578800  0.87432700  0.00000000  1
