# generated using pymatgen
data_CeSe2
_symmetry_space_group_name_H-M   'P 1'
_cell_length_a   8.34947200
_cell_length_b   14.69205100
_cell_length_c   17.62941800
_cell_angle_alpha   90.00000000
_cell_angle_beta   90.00000000
_cell_angle_gamma   90.00000000
_symmetry_Int_Tables_number   1
_chemical_formula_structural   CeSe2
_chemical_formula_sum   'Ce12 Se24'
_cell_volume   2162.61601628
_cell_formula_units_Z   12
loop_
 _symmetry_equiv_pos_site_id
 _symmetry_equiv_pos_as_xyz
  1  'x, y, z'
loop_
 _atom_site_type_symbol
 _atom_site_label
 _atom_site_symmetry_multiplicity
 _atom_site_fract_x
 _atom_site_fract_y
 _atom_site_fract_z
 _atom_site_occupancy
  Ce  Ce0  1  0.75000000  0.50000000  0.70826800  1
  Ce  Ce1  1  0.75000000  0.00000000  0.20826800  1
  Ce  Ce2  1  0.25000000  0.50000000  0.29173200  1
  Ce  Ce3  1  0.25000000  0.00000000  0.79173200  1
  Ce  Ce4  1  0.93077600  0.69927300  0.08452700  1
  Ce  Ce5  1  0.56922400  0.30072700  0.08452700  1
  Ce  Ce6  1  0.56922400  0.19927300  0.58452700  1
  Ce  Ce7  1  0.93077600  0.80072700  0.58452700  1
  Ce  Ce8  1  0.06922400  0.19927300  0.41547300  1
  Ce  Ce9  1  0.43077600  0.80072700  0.41547300  1
  Ce  Ce10  1  0.43077600  0.69927300  0.91547300  1
  Ce  Ce11  1  0.06922400  0.30072700  0.91547300  1
  Se  Se12  1  0.87522800  0.33552600  0.03681000  1
  Se  Se13  1  0.62477200  0.66447400  0.03681000  1
  Se  Se14  1  0.62477200  0.83552600  0.53681000  1
  Se  Se15  1  0.87522800  0.16447400  0.53681000  1
  Se  Se16  1  0.12477200  0.83552600  0.46319000  1
  Se  Se17  1  0.37522800  0.16447400  0.46319000  1
  Se  Se18  1  0.37522800  0.33552600  0.96319000  1
  Se  Se19  1  0.12477200  0.66447400  0.96319000  1
  Se  Se20  1  0.95359100  0.10255600  0.29413500  1
  Se  Se21  1  0.54640900  0.89744400  0.29413500  1
  Se  Se22  1  0.54640900  0.60255600  0.79413500  1
  Se  Se23  1  0.95359100  0.39744400  0.79413500  1
  Se  Se24  1  0.07159900  0.37974500  0.37500200  1
  Se  Se25  1  0.42840100  0.62025500  0.37500200  1
  Se  Se26  1  0.42840100  0.87974500  0.87500200  1
  Se  Se27  1  0.07159900  0.12025500  0.87500200  1
  Se  Se28  1  0.92840100  0.87974500  0.12499800  1
  Se  Se29  1  0.57159900  0.12025500  0.12499800  1
  Se  Se30  1  0.57159900  0.37974500  0.62499800  1
  Se  Se31  1  0.92840100  0.62025500  0.62499800  1
  Se  Se32  1  0.04640900  0.60255600  0.20586500  1
  Se  Se33  1  0.45359100  0.39744400  0.20586500  1
  Se  Se34  1  0.45359100  0.10255600  0.70586500  1
  Se  Se35  1  0.04640900  0.89744400  0.70586500  1
