# generated using pymatgen
data_ErFeGe2
_symmetry_space_group_name_H-M   'P 1'
_cell_length_a   8.53267640
_cell_length_b   8.53267640
_cell_length_c   4.19475700
_cell_angle_alpha   90.00000000
_cell_angle_beta   90.00000000
_cell_angle_gamma   151.89906478
_symmetry_Int_Tables_number   1
_chemical_formula_structural   ErFeGe2
_chemical_formula_sum   'Er2 Fe2 Ge4'
_cell_volume   143.85418371
_cell_formula_units_Z   2
loop_
 _symmetry_equiv_pos_site_id
 _symmetry_equiv_pos_as_xyz
  1  'x, y, z'
loop_
 _atom_site_type_symbol
 _atom_site_label
 _atom_site_symmetry_multiplicity
 _atom_site_fract_x
 _atom_site_fract_y
 _atom_site_fract_z
 _atom_site_occupancy
  Er  Er0  1  0.89061300  0.10938700  0.25000000  1
  Er  Er1  1  0.10938700  0.89061300  0.75000000  1
  Fe  Fe2  1  0.68116700  0.31883300  0.25000000  1
  Fe  Fe3  1  0.31883300  0.68116700  0.75000000  1
  Ge  Ge4  1  0.54465700  0.45534300  0.25000000  1
  Ge  Ge5  1  0.45534300  0.54465700  0.75000000  1
  Ge  Ge6  1  0.25083100  0.74916900  0.25000000  1
  Ge  Ge7  1  0.74916900  0.25083100  0.75000000  1
