# generated using pymatgen
data_Ba10Ta10(N3O7)3
_symmetry_space_group_name_H-M   'P 1'
_cell_length_a   4.13157600
_cell_length_b   4.13789900
_cell_length_c   41.51311700
_cell_angle_alpha   90.00000000
_cell_angle_beta   90.00000000
_cell_angle_gamma   90.00000000
_symmetry_Int_Tables_number   1
_chemical_formula_structural   Ba10Ta10(N3O7)3
_chemical_formula_sum   'Ba10 Ta10 N9 O21'
_cell_volume   709.71008306
_cell_formula_units_Z   1
loop_
 _symmetry_equiv_pos_site_id
 _symmetry_equiv_pos_as_xyz
  1  'x, y, z'
loop_
 _atom_site_type_symbol
 _atom_site_label
 _atom_site_symmetry_multiplicity
 _atom_site_fract_x
 _atom_site_fract_y
 _atom_site_fract_z
 _atom_site_occupancy
  Ba  Ba0  1  0.00000000  0.00000000  0.79846500  1
  Ba  Ba1  1  0.00000000  0.00000000  0.90028500  1
  Ba  Ba2  1  0.00000000  0.00000000  0.00000000  1
  Ba  Ba3  1  0.00000000  0.00000000  0.20153500  1
  Ba  Ba4  1  0.00000000  0.00000000  0.30031800  1
  Ba  Ba5  1  0.00000000  0.00000000  0.59993000  1
  Ba  Ba6  1  0.00000000  0.00000000  0.09971500  1
  Ba  Ba7  1  0.00000000  0.00000000  0.50000000  1
  Ba  Ba8  1  0.00000000  0.00000000  0.40007000  1
  Ba  Ba9  1  0.00000000  0.00000000  0.69968200  1
  Ta  Ta10  1  0.50000000  0.50000000  0.85258600  1
  Ta  Ta11  1  0.50000000  0.50000000  0.04880700  1
  Ta  Ta12  1  0.50000000  0.50000000  0.95119300  1
  Ta  Ta13  1  0.50000000  0.50000000  0.14741400  1
  Ta  Ta14  1  0.50000000  0.50000000  0.34994800  1
  Ta  Ta15  1  0.50000000  0.50000000  0.24966500  1
  Ta  Ta16  1  0.50000000  0.50000000  0.55000400  1
  Ta  Ta17  1  0.50000000  0.50000000  0.44999600  1
  Ta  Ta18  1  0.50000000  0.50000000  0.75033500  1
  Ta  Ta19  1  0.50000000  0.50000000  0.65005200  1
  N  N20  1  0.50000000  0.50000000  0.00000000  1
  N  N21  1  0.50000000  0.50000000  0.89888800  1
  N  N22  1  0.50000000  0.50000000  0.10111200  1
  N  N23  1  0.50000000  0.00000000  0.35001200  1
  N  N24  1  0.50000000  0.00000000  0.45001500  1
  N  N25  1  0.50000000  0.00000000  0.54998500  1
  N  N26  1  0.50000000  0.00000000  0.24978200  1
  N  N27  1  0.50000000  0.00000000  0.64998800  1
  N  N28  1  0.50000000  0.00000000  0.75021800  1
  O  O29  1  0.00000000  0.50000000  0.84885500  1
  O  O30  1  0.00000000  0.50000000  0.94979300  1
  O  O31  1  0.00000000  0.50000000  0.05020700  1
  O  O32  1  0.00000000  0.50000000  0.15114500  1
  O  O33  1  0.00000000  0.50000000  0.35002800  1
  O  O34  1  0.00000000  0.50000000  0.45001600  1
  O  O35  1  0.00000000  0.50000000  0.54998400  1
  O  O36  1  0.00000000  0.50000000  0.64997200  1
  O  O37  1  0.50000000  0.00000000  0.84936500  1
  O  O38  1  0.50000000  0.50000000  0.79946400  1
  O  O39  1  0.50000000  0.00000000  0.05017200  1
  O  O40  1  0.50000000  0.50000000  0.20053600  1
  O  O41  1  0.50000000  0.00000000  0.94982800  1
  O  O42  1  0.50000000  0.50000000  0.40004200  1
  O  O43  1  0.50000000  0.50000000  0.30012400  1
  O  O44  1  0.50000000  0.00000000  0.15063500  1
  O  O45  1  0.50000000  0.50000000  0.50000000  1
  O  O46  1  0.50000000  0.50000000  0.59995800  1
  O  O47  1  0.50000000  0.50000000  0.69987600  1
  O  O48  1  0.00000000  0.50000000  0.25008500  1
  O  O49  1  0.00000000  0.50000000  0.74991500  1
