# generated using pymatgen
data_Cu2SO5
_symmetry_space_group_name_H-M   'P 1'
_cell_length_a   5.72965583
_cell_length_b   5.72965583
_cell_length_c   7.85891285
_cell_angle_alpha   62.74351566
_cell_angle_beta   62.74351566
_cell_angle_gamma   68.10021961
_symmetry_Int_Tables_number   1
_chemical_formula_structural   Cu2SO5
_chemical_formula_sum   'Cu4 S2 O10'
_cell_volume   199.48938179
_cell_formula_units_Z   2
loop_
 _symmetry_equiv_pos_site_id
 _symmetry_equiv_pos_as_xyz
  1  'x, y, z'
loop_
 _atom_site_type_symbol
 _atom_site_label
 _atom_site_symmetry_multiplicity
 _atom_site_fract_x
 _atom_site_fract_y
 _atom_site_fract_z
 _atom_site_occupancy
  Cu  Cu0  1  0.08014000  0.08014000  0.78111200  1
  Cu  Cu1  1  0.91986000  0.91986000  0.21888800  1
  Cu  Cu2  1  0.00000000  0.50000000  0.00000000  1
  Cu  Cu3  1  0.50000000  0.00000000  0.00000000  1
  S  S4  1  0.59594600  0.59594600  0.68598600  1
  S  S5  1  0.40405400  0.40405400  0.31401400  1
  O  O6  1  0.70864700  0.32540800  0.24520600  1
  O  O7  1  0.67459200  0.29135300  0.75479400  1
  O  O8  1  0.29135300  0.67459200  0.75479400  1
  O  O9  1  0.32540800  0.70864700  0.24520600  1
  O  O10  1  0.14943000  0.14943000  0.98229900  1
  O  O11  1  0.85057000  0.85057000  0.01770100  1
  O  O12  1  0.29993600  0.29993600  0.23020500  1
  O  O13  1  0.70006400  0.70006400  0.76979500  1
  O  O14  1  0.69452700  0.69452700  0.46013700  1
  O  O15  1  0.30547300  0.30547300  0.53986300  1
