data_image0
_chemical_formula_structural       Bi2Cs2O4
_chemical_formula_sum              "Bi2 Cs2 O4"
_cell_length_a       6.00975
_cell_length_b       6.15254
_cell_length_c       6.15254
_cell_angle_alpha    95.3649
_cell_angle_beta     111.423
_cell_angle_gamma    111.423

_space_group_name_H-M_alt    "P 1"
_space_group_IT_number       1

loop_
  _space_group_symop_operation_xyz
  'x, y, z'

loop_
  _atom_site_type_symbol
  _atom_site_label
  _atom_site_symmetry_multiplicity
  _atom_site_fract_x
  _atom_site_fract_y
  _atom_site_fract_z
  _atom_site_occupancy
  Bi  Bi1       1.0  0.25000  0.90900  0.09090  1.0000
  Bi  Bi2       1.0  0.75000  0.09090  0.90900  1.0000
  Cs  Cs1       1.0  0.75000  0.64000  0.36000  1.0000
  Cs  Cs2       1.0  0.25000  0.36000  0.64000  1.0000
  O   O1        1.0  0.21000  0.23500  0.12400  1.0000
  O   O2        1.0  0.71000  0.12400  0.23500  1.0000
  O   O3        1.0  0.29000  0.87600  0.76500  1.0000
  O   O4        1.0  0.79000  0.76500  0.87600  1.0000
