# generated using pymatgen
data_CaSiO3
_symmetry_space_group_name_H-M   'P 1'
_cell_length_a   6.25055221
_cell_length_b   6.25055221
_cell_length_c   6.25055221
_cell_angle_alpha   109.47122063
_cell_angle_beta   109.47122063
_cell_angle_gamma   109.47122063
_symmetry_Int_Tables_number   1
_chemical_formula_structural   CaSiO3
_chemical_formula_sum   'Ca4 Si4 O12'
_cell_volume   187.98936040
_cell_formula_units_Z   4
loop_
 _symmetry_equiv_pos_site_id
 _symmetry_equiv_pos_as_xyz
  1  'x, y, z'
loop_
 _atom_site_type_symbol
 _atom_site_label
 _atom_site_symmetry_multiplicity
 _atom_site_fract_x
 _atom_site_fract_y
 _atom_site_fract_z
 _atom_site_occupancy
  Ca  Ca0  1  0.00000000  0.50000000  0.50000000  1
  Ca  Ca1  1  0.50000000  0.50000000  0.00000000  1
  Ca  Ca2  1  0.50000000  0.00000000  0.50000000  1
  Ca  Ca3  1  0.00000000  0.00000000  0.00000000  1
  Si  Si4  1  0.50000000  0.00000000  0.00000000  1
  Si  Si5  1  0.50000000  0.50000000  0.50000000  1
  Si  Si6  1  0.00000000  0.50000000  0.00000000  1
  Si  Si7  1  0.00000000  0.00000000  0.50000000  1
  O  O8  1  0.24059500  0.98148400  0.74088900  1
  O  O9  1  0.24059500  0.49970600  0.25911100  1
  O  O10  1  0.75940500  0.50029400  0.74088900  1
  O  O11  1  0.25911100  0.24059500  0.49970600  1
  O  O12  1  0.98148400  0.74088900  0.24059500  1
  O  O13  1  0.01851600  0.25911100  0.75940500  1
  O  O14  1  0.25911100  0.75940500  0.01851600  1
  O  O15  1  0.49970600  0.25911100  0.24059500  1
  O  O16  1  0.75940500  0.01851600  0.25911100  1
  O  O17  1  0.74088900  0.24059500  0.98148400  1
  O  O18  1  0.50029400  0.74088900  0.75940500  1
  O  O19  1  0.74088900  0.75940500  0.50029400  1
