# generated using pymatgen
data_Cs2ZrTlOF5
_symmetry_space_group_name_H-M   'P 1'
_cell_length_a   6.81961677
_cell_length_b   6.81961677
_cell_length_c   6.81961677
_cell_angle_alpha   119.61822145
_cell_angle_beta   119.61822145
_cell_angle_gamma   90.66254167
_symmetry_Int_Tables_number   1
_chemical_formula_structural   Cs2ZrTlOF5
_chemical_formula_sum   'Cs2 Zr1 Tl1 O1 F5'
_cell_volume   225.54458419
_cell_formula_units_Z   1
loop_
 _symmetry_equiv_pos_site_id
 _symmetry_equiv_pos_as_xyz
  1  'x, y, z'
loop_
 _atom_site_type_symbol
 _atom_site_label
 _atom_site_symmetry_multiplicity
 _atom_site_fract_x
 _atom_site_fract_y
 _atom_site_fract_z
 _atom_site_occupancy
  Cs  Cs0  1  0.74834600  0.24834600  0.50000000  1
  Cs  Cs1  1  0.24834600  0.74834600  0.50000000  1
  Zr  Zr2  1  0.98099800  0.98099800  0.00000000  1
  Tl  Tl3  1  0.51306700  0.51306700  0.00000000  1
  O  O4  1  0.78117000  0.78117000  0.00000000  1
  F  F5  1  0.21947500  0.21947500  0.42971200  1
  F  F6  1  0.78976300  0.21947500  0.00000000  1
  F  F7  1  0.21947500  0.78976300  0.00000000  1
  F  F8  1  0.78976300  0.78976300  0.57028800  1
  F  F9  1  0.20959800  0.20959800  0.00000000  1
