# generated using pymatgen
data_Cu2Ag2O3
_symmetry_space_group_name_H-M   'P 1'
_cell_length_a   6.84254195
_cell_length_b   6.84254195
_cell_length_c   6.84254195
_cell_angle_alpha   128.04426632
_cell_angle_beta   128.04426632
_cell_angle_gamma   76.55332942
_symmetry_Int_Tables_number   1
_chemical_formula_structural   Cu2Ag2O3
_chemical_formula_sum   'Cu4 Ag4 O6'
_cell_volume   193.01612308
_cell_formula_units_Z   2
loop_
 _symmetry_equiv_pos_site_id
 _symmetry_equiv_pos_as_xyz
  1  'x, y, z'
loop_
 _atom_site_type_symbol
 _atom_site_label
 _atom_site_symmetry_multiplicity
 _atom_site_fract_x
 _atom_site_fract_y
 _atom_site_fract_z
 _atom_site_occupancy
  Cu  Cu0  1  0.37500000  0.62500000  0.25000000  1
  Cu  Cu1  1  0.87500000  0.62500000  0.25000000  1
  Cu  Cu2  1  0.37500000  0.62500000  0.75000000  1
  Cu  Cu3  1  0.37500000  0.12500000  0.75000000  1
  Ag  Ag4  1  0.37500000  0.12500000  0.25000000  1
  Ag  Ag5  1  0.87500000  0.12500000  0.25000000  1
  Ag  Ag6  1  0.87500000  0.62500000  0.75000000  1
  Ag  Ag7  1  0.87500000  0.12500000  0.75000000  1
  O  O8  1  0.25000000  0.75000000  0.50000000  1
  O  O9  1  0.50000000  0.50000000  0.00000000  1
  O  O10  1  0.73663300  0.73663300  0.00000000  1
  O  O11  1  0.48663300  0.98663300  0.50000000  1
  O  O12  1  0.26336700  0.26336700  0.00000000  1
  O  O13  1  0.01336700  0.51336700  0.50000000  1
