# generated using pymatgen
data_K2MnH4(Cl2O)2
_symmetry_space_group_name_H-M   'P 1'
_cell_length_a   6.71163200
_cell_length_b   6.71166168
_cell_length_c   21.05724920
_cell_angle_alpha   90.00009378
_cell_angle_beta   89.99952124
_cell_angle_gamma   76.58747674
_symmetry_Int_Tables_number   1
_chemical_formula_structural   K2MnH4(Cl2O)2
_chemical_formula_sum   'K8 Mn4 H16 Cl16 O8'
_cell_volume   922.67764248
_cell_formula_units_Z   4
loop_
 _symmetry_equiv_pos_site_id
 _symmetry_equiv_pos_as_xyz
  1  'x, y, z'
loop_
 _atom_site_type_symbol
 _atom_site_label
 _atom_site_symmetry_multiplicity
 _atom_site_fract_x
 _atom_site_fract_y
 _atom_site_fract_z
 _atom_site_occupancy
  K  K0  1  0.99991400  0.50004700  0.62500800  1
  K  K1  1  0.99993200  0.50009200  0.12501900  1
  K  K2  1  0.49990900  0.00010600  0.87503200  1
  K  K3  1  0.49985500  0.00001100  0.37499100  1
  K  K4  1  0.00007400  0.50009600  0.37498400  1
  K  K5  1  0.99987700  0.50001400  0.87503000  1
  K  K6  1  0.49993400  0.00005700  0.62500500  1
  K  K7  1  0.49982800  0.00011200  0.12500700  1
  Mn  Mn8  1  0.00019200  0.99981500  0.49983800  1
  Mn  Mn9  1  0.50000400  0.49998100  0.75000400  1
  Mn  Mn10  1  0.99991900  0.00005000  0.99999000  1
  Mn  Mn11  1  0.50052800  0.49979100  0.25000800  1
  H  H12  1  0.73811300  0.41182600  0.49999700  1
  H  H13  1  0.73819900  0.41172300  0.00000400  1
  H  H14  1  0.23805300  0.91189400  0.75001000  1
  H  H15  1  0.23826300  0.91165300  0.25000900  1
  H  H16  1  0.33675500  0.66323100  0.53752100  1
  H  H17  1  0.33672600  0.66325500  0.03751000  1
  H  H18  1  0.83670400  0.16327400  0.78751200  1
  H  H19  1  0.83698100  0.16302100  0.28754700  1
  H  H20  1  0.33678900  0.66320000  0.46249200  1
  H  H21  1  0.33689900  0.66307700  0.96247400  1
  H  H22  1  0.83670200  0.16327900  0.71249400  1
  H  H23  1  0.83692700  0.16307400  0.21248900  1
  H  H24  1  0.58818600  0.26187100  0.49999700  1
  H  H25  1  0.58824900  0.26179900  0.00000300  1
  H  H26  1  0.08809100  0.76193000  0.75001100  1
  H  H27  1  0.08843900  0.76166900  0.25000900  1
  Cl  Cl28  1  0.49170700  0.50831800  0.37180900  1
  Cl  Cl29  1  0.49157300  0.50840800  0.87178900  1
  Cl  Cl30  1  0.99162800  0.00835500  0.62180300  1
  Cl  Cl31  1  0.99158700  0.00837700  0.12174000  1
  Cl  Cl32  1  0.76484400  0.74816600  0.50000700  1
  Cl  Cl33  1  0.76483400  0.74813100  0.99996800  1
  Cl  Cl34  1  0.26480400  0.24818100  0.75002100  1
  Cl  Cl35  1  0.26497900  0.24820700  0.25002100  1
  Cl  Cl36  1  0.25182300  0.23514200  0.50000600  1
  Cl  Cl37  1  0.25182200  0.23511800  0.99996900  1
  Cl  Cl38  1  0.75180700  0.73517300  0.75002100  1
  Cl  Cl39  1  0.75191500  0.73517400  0.25002100  1
  Cl  Cl40  1  0.49159500  0.50839200  0.62822200  1
  Cl  Cl41  1  0.49170500  0.50833700  0.12820900  1
  Cl  Cl42  1  0.99164600  0.00832200  0.87815000  1
  Cl  Cl43  1  0.99157100  0.00840200  0.37821800  1
  O  O44  1  0.26613500  0.73385100  0.49999700  1
  O  O45  1  0.26620200  0.73379200  0.99997500  1
  O  O46  1  0.76604400  0.23393700  0.75000900  1
  O  O47  1  0.76637000  0.23362600  0.25002100  1
  O  O48  1  0.73378100  0.26621500  0.50001700  1
  O  O49  1  0.73385900  0.26611100  0.99997800  1
  O  O50  1  0.23368600  0.76629900  0.75001300  1
  O  O51  1  0.23403700  0.76601900  0.25002200  1
