# generated using pymatgen
data_NaCaNb2O6F
_symmetry_space_group_name_H-M   'P 1'
_cell_length_a   7.48147943
_cell_length_b   7.48147943
_cell_length_c   7.48147943
_cell_angle_alpha   120.37760819
_cell_angle_beta   119.56328333
_cell_angle_gamma   90.05264248
_symmetry_Int_Tables_number   1
_chemical_formula_structural   NaCaNb2O6F
_chemical_formula_sum   'Na2 Ca2 Nb4 O12 F2'
_cell_volume   296.21963222
_cell_formula_units_Z   2
loop_
 _symmetry_equiv_pos_site_id
 _symmetry_equiv_pos_as_xyz
  1  'x, y, z'
loop_
 _atom_site_type_symbol
 _atom_site_label
 _atom_site_symmetry_multiplicity
 _atom_site_fract_x
 _atom_site_fract_y
 _atom_site_fract_z
 _atom_site_occupancy
  Na  Na0  1  0.50000000  0.00000000  0.00000000  1
  Na  Na1  1  0.50000000  0.50000000  0.50000000  1
  Ca  Ca2  1  0.50000000  0.50000000  0.00000000  1
  Ca  Ca3  1  0.00000000  0.50000000  0.50000000  1
  Nb  Nb4  1  0.50000000  0.00000000  0.50000000  1
  Nb  Nb5  1  0.00000000  0.00000000  0.50000000  1
  Nb  Nb6  1  0.00000000  0.00000000  0.00000000  1
  Nb  Nb7  1  0.00000000  0.50000000  0.00000000  1
  O  O8  1  0.68305500  0.92665900  0.36317000  1
  O  O9  1  0.68660600  0.93660600  0.75000000  1
  O  O10  1  0.68305500  0.31988400  0.75639500  1
  O  O11  1  0.06348900  0.92665900  0.74360500  1
  O  O12  1  0.31694500  0.07334100  0.63683000  1
  O  O13  1  0.31339400  0.06339400  0.25000000  1
  O  O14  1  0.06348900  0.31988400  0.13683000  1
  O  O15  1  0.07258400  0.32258400  0.75000000  1
  O  O16  1  0.31694500  0.68011600  0.24360500  1
  O  O17  1  0.93651100  0.07334100  0.25639500  1
  O  O18  1  0.93651100  0.68011600  0.86317000  1
  O  O19  1  0.92741600  0.67741600  0.25000000  1
  F  F20  1  0.63178200  0.38178200  0.25000000  1
  F  F21  1  0.36821800  0.61821800  0.75000000  1
