# generated using pymatgen
data_NaNbO3
_symmetry_space_group_name_H-M   'P 1'
_cell_length_a   5.67893950
_cell_length_b   5.67893950
_cell_length_c   5.67893904
_cell_angle_alpha   58.78131820
_cell_angle_beta   58.78131820
_cell_angle_gamma   58.78131634
_symmetry_Int_Tables_number   1
_chemical_formula_structural   NaNbO3
_chemical_formula_sum   'Na2 Nb2 O6'
_cell_volume   125.90041224
_cell_formula_units_Z   2
loop_
 _symmetry_equiv_pos_site_id
 _symmetry_equiv_pos_as_xyz
  1  'x, y, z'
loop_
 _atom_site_type_symbol
 _atom_site_label
 _atom_site_symmetry_multiplicity
 _atom_site_fract_x
 _atom_site_fract_y
 _atom_site_fract_z
 _atom_site_occupancy
  Na  Na0  1  0.72546600  0.72546600  0.72546600  1
  Na  Na1  1  0.22546600  0.22546600  0.22546600  1
  Nb  Nb2  1  0.98616500  0.98616500  0.98616500  1
  Nb  Nb3  1  0.48616500  0.48616500  0.48616500  1
  O  O4  1  0.18340900  0.32025400  0.75620600  1
  O  O5  1  0.32025400  0.75620600  0.18340900  1
  O  O6  1  0.75620600  0.18340900  0.32025400  1
  O  O7  1  0.68340900  0.25620600  0.82025400  1
  O  O8  1  0.82025400  0.68340900  0.25620600  1
  O  O9  1  0.25620600  0.82025400  0.68340900  1
