# generated using pymatgen
data_ScOF
_symmetry_space_group_name_H-M   'P 1'
_cell_length_a   4.93825800
_cell_length_b   5.33998400
_cell_length_c   5.81576340
_cell_angle_alpha   89.54622102
_cell_angle_beta   90.00000000
_cell_angle_gamma   90.00000000
_symmetry_Int_Tables_number   1
_chemical_formula_structural   ScOF
_chemical_formula_sum   'Sc4 O4 F4'
_cell_volume   153.35814288
_cell_formula_units_Z   4
loop_
 _symmetry_equiv_pos_site_id
 _symmetry_equiv_pos_as_xyz
  1  'x, y, z'
loop_
 _atom_site_type_symbol
 _atom_site_label
 _atom_site_symmetry_multiplicity
 _atom_site_fract_x
 _atom_site_fract_y
 _atom_site_fract_z
 _atom_site_occupancy
  Sc  Sc0  1  0.48446700  0.21850000  0.67054900  1
  Sc  Sc1  1  0.98446700  0.78150000  0.82945100  1
  Sc  Sc2  1  0.51553300  0.78150000  0.32945100  1
  Sc  Sc3  1  0.01553300  0.21850000  0.17054900  1
  O  O4  1  0.72242400  0.91951700  0.60357400  1
  O  O5  1  0.77757600  0.91951700  0.10357400  1
  O  O6  1  0.27757600  0.08048300  0.39642600  1
  O  O7  1  0.22242400  0.08048300  0.89642600  1
  F  F8  1  0.22645500  0.57522500  0.11789100  1
  F  F9  1  0.27354500  0.57522500  0.61789100  1
  F  F10  1  0.77354500  0.42477500  0.88210900  1
  F  F11  1  0.72645500  0.42477500  0.38210900  1
