# generated using pymatgen
data_Tl2SeO4
_symmetry_space_group_name_H-M   'P 1'
_cell_length_a   5.98999600
_cell_length_b   8.14918700
_cell_length_c   11.68176100
_cell_angle_alpha   90.00000000
_cell_angle_beta   90.00000000
_cell_angle_gamma   90.00000000
_symmetry_Int_Tables_number   1
_chemical_formula_structural   Tl2SeO4
_chemical_formula_sum   'Tl8 Se4 O16'
_cell_volume   570.22877993
_cell_formula_units_Z   4
loop_
 _symmetry_equiv_pos_site_id
 _symmetry_equiv_pos_as_xyz
  1  'x, y, z'
loop_
 _atom_site_type_symbol
 _atom_site_label
 _atom_site_symmetry_multiplicity
 _atom_site_fract_x
 _atom_site_fract_y
 _atom_site_fract_z
 _atom_site_occupancy
  Tl  Tl0  1  0.25000000  0.18311300  0.91791100  1
  Tl  Tl1  1  0.75000000  0.81688700  0.08208900  1
  Tl  Tl2  1  0.25000000  0.68311300  0.58208900  1
  Tl  Tl3  1  0.75000000  0.31688700  0.41791100  1
  Tl  Tl4  1  0.25000000  0.97581100  0.27667600  1
  Tl  Tl5  1  0.75000000  0.02418900  0.72332400  1
  Tl  Tl6  1  0.25000000  0.47581100  0.22332400  1
  Tl  Tl7  1  0.75000000  0.52418900  0.77667600  1
  Se  Se8  1  0.25000000  0.21243500  0.57091200  1
  Se  Se9  1  0.75000000  0.78756500  0.42908800  1
  Se  Se10  1  0.25000000  0.71243500  0.92908800  1
  Se  Se11  1  0.75000000  0.28756500  0.07091200  1
  O  O12  1  0.25000000  0.01777000  0.61685300  1
  O  O13  1  0.75000000  0.98223000  0.38314700  1
  O  O14  1  0.25000000  0.51777000  0.88314700  1
  O  O15  1  0.75000000  0.48223000  0.11685300  1
  O  O16  1  0.25000000  0.22495200  0.42646200  1
  O  O17  1  0.75000000  0.77504800  0.57353800  1
  O  O18  1  0.25000000  0.72495200  0.07353800  1
  O  O19  1  0.75000000  0.27504800  0.92646200  1
  O  O20  1  0.51742800  0.69262800  0.38194100  1
  O  O21  1  0.01742800  0.30737200  0.61805900  1
  O  O22  1  0.98257200  0.19262800  0.11805900  1
  O  O23  1  0.48257200  0.80737200  0.88194100  1
  O  O24  1  0.51742800  0.19262800  0.11805900  1
  O  O25  1  0.01742800  0.80737200  0.88194100  1
  O  O26  1  0.98257200  0.69262800  0.38194100  1
  O  O27  1  0.48257200  0.30737200  0.61805900  1
