# generated using pymatgen
data_NaNbO3
_symmetry_space_group_name_H-M   'P 1'
_cell_length_a   5.58105351
_cell_length_b   5.58105351
_cell_length_c   7.94425600
_cell_angle_alpha   90.00000000
_cell_angle_beta   90.00000000
_cell_angle_gamma   90.60105371
_symmetry_Int_Tables_number   1
_chemical_formula_structural   NaNbO3
_chemical_formula_sum   'Na4 Nb4 O12'
_cell_volume   247.43532826
_cell_formula_units_Z   4
loop_
 _symmetry_equiv_pos_site_id
 _symmetry_equiv_pos_as_xyz
  1  'x, y, z'
loop_
 _atom_site_type_symbol
 _atom_site_label
 _atom_site_symmetry_multiplicity
 _atom_site_fract_x
 _atom_site_fract_y
 _atom_site_fract_z
 _atom_site_occupancy
  Na  Na0  1  0.48910400  0.51089600  0.75000000  1
  Na  Na1  1  0.51089600  0.48910400  0.25000000  1
  Na  Na2  1  0.99650500  0.00349500  0.75000000  1
  Na  Na3  1  0.00349500  0.99650500  0.25000000  1
  Nb  Nb4  1  0.00000000  0.50000000  0.00000000  1
  Nb  Nb5  1  0.00000000  0.50000000  0.50000000  1
  Nb  Nb6  1  0.50000000  0.00000000  0.00000000  1
  Nb  Nb7  1  0.50000000  0.00000000  0.50000000  1
  O  O8  1  0.95332500  0.46635800  0.25000000  1
  O  O9  1  0.04667500  0.53364200  0.75000000  1
  O  O10  1  0.46635800  0.95332500  0.75000000  1
  O  O11  1  0.53364200  0.04667500  0.25000000  1
  O  O12  1  0.29113500  0.70886500  0.03923300  1
  O  O13  1  0.70886500  0.29113500  0.53923300  1
  O  O14  1  0.70886500  0.29113500  0.96076700  1
  O  O15  1  0.29113500  0.70886500  0.46076700  1
  O  O16  1  0.20703400  0.20703400  0.50000000  1
  O  O17  1  0.79296600  0.79296600  0.00000000  1
  O  O18  1  0.79296600  0.79296600  0.50000000  1
  O  O19  1  0.20703400  0.20703400  0.00000000  1
