# generated using pymatgen
data_Sr2SnO4
_symmetry_space_group_name_H-M   'P 1'
_cell_length_a   6.92674954
_cell_length_b   6.92674954
_cell_length_c   5.91903600
_cell_angle_alpha   90.00000000
_cell_angle_beta   90.00000000
_cell_angle_gamma   130.49971115
_symmetry_Int_Tables_number   1
_chemical_formula_structural   Sr2SnO4
_chemical_formula_sum   'Sr4 Sn2 O8'
_cell_volume   215.95205222
_cell_formula_units_Z   2
loop_
 _symmetry_equiv_pos_site_id
 _symmetry_equiv_pos_as_xyz
  1  'x, y, z'
loop_
 _atom_site_type_symbol
 _atom_site_label
 _atom_site_symmetry_multiplicity
 _atom_site_fract_x
 _atom_site_fract_y
 _atom_site_fract_z
 _atom_site_occupancy
  Sr  Sr0  1  0.14721600  0.85278400  0.48540400  1
  Sr  Sr1  1  0.85278400  0.14721600  0.51459600  1
  Sr  Sr2  1  0.35278400  0.64721600  0.98540400  1
  Sr  Sr3  1  0.64721600  0.35278400  0.01459600  1
  Sn  Sn4  1  0.50000000  0.50000000  0.50000000  1
  Sn  Sn5  1  0.00000000  0.00000000  0.00000000  1
  O  O6  1  0.33682100  0.66317900  0.55719700  1
  O  O7  1  0.66317900  0.33682100  0.44280300  1
  O  O8  1  0.16317900  0.83682100  0.05719700  1
  O  O9  1  0.83682100  0.16317900  0.94280300  1
  O  O10  1  0.22835200  0.27164800  0.25000000  1
  O  O11  1  0.27164800  0.22835200  0.75000000  1
  O  O12  1  0.72835200  0.77164800  0.25000000  1
  O  O13  1  0.77164800  0.72835200  0.75000000  1
