# generated using pymatgen
data_V2Cu3O8
_symmetry_space_group_name_H-M   'P 1'
_cell_length_a   5.13805000
_cell_length_b   5.78183007
_cell_length_c   6.58290416
_cell_angle_alpha   109.97059076
_cell_angle_beta   87.36803449
_cell_angle_gamma   112.41300027
_symmetry_Int_Tables_number   1
_chemical_formula_structural   V2Cu3O8
_chemical_formula_sum   'V2 Cu3 O8'
_cell_volume   169.11500688
_cell_formula_units_Z   1
loop_
 _symmetry_equiv_pos_site_id
 _symmetry_equiv_pos_as_xyz
  1  'x, y, z'
loop_
 _atom_site_type_symbol
 _atom_site_label
 _atom_site_symmetry_multiplicity
 _atom_site_fract_x
 _atom_site_fract_y
 _atom_site_fract_z
 _atom_site_occupancy
  V  V0  1  0.35997300  0.67174100  0.78949900  1
  V  V1  1  0.64002700  0.32825900  0.21050100  1
  Cu  Cu2  1  0.26090200  0.82571200  0.33508700  1
  Cu  Cu3  1  0.73909800  0.17428800  0.66491300  1
  Cu  Cu4  1  0.00000000  0.00000000  0.00000000  1
  O  O5  1  0.37833200  0.87133000  0.62731700  1
  O  O6  1  0.62166800  0.12867000  0.37268300  1
  O  O7  1  0.21620800  0.80592800  0.03720300  1
  O  O8  1  0.78379200  0.19407200  0.96279700  1
  O  O9  1  0.31549900  0.33181600  0.15507200  1
  O  O10  1  0.13462100  0.35205000  0.65202200  1
  O  O11  1  0.68450100  0.66818400  0.84492800  1
  O  O12  1  0.86537900  0.64795000  0.34797800  1
