# generated using pymatgen
data_FePO4
_symmetry_space_group_name_H-M   'P 1'
_cell_length_a   5.35055200
_cell_length_b   8.73512500
_cell_length_c   8.80320400
_cell_angle_alpha   72.24379898
_cell_angle_beta   90.00000000
_cell_angle_gamma   90.00000000
_symmetry_Int_Tables_number   1
_chemical_formula_structural   FePO4
_chemical_formula_sum   'Fe4 P4 O16'
_cell_volume   391.84192559
_cell_formula_units_Z   4
loop_
 _symmetry_equiv_pos_site_id
 _symmetry_equiv_pos_as_xyz
  1  'x, y, z'
loop_
 _atom_site_type_symbol
 _atom_site_label
 _atom_site_symmetry_multiplicity
 _atom_site_fract_x
 _atom_site_fract_y
 _atom_site_fract_z
 _atom_site_occupancy
  Fe  Fe0  1  0.30690900  0.22404300  0.12984900  1
  Fe  Fe1  1  0.80510700  0.36792700  0.62969900  1
  Fe  Fe2  1  0.69309100  0.72404300  0.12984900  1
  Fe  Fe3  1  0.19489300  0.86792700  0.62969900  1
  P  P4  1  0.69227900  0.99250000  0.75815400  1
  P  P5  1  0.80373500  0.34797600  0.25737200  1
  P  P6  1  0.30772100  0.49250000  0.75815400  1
  P  P7  1  0.19626500  0.84797600  0.25737200  1
  O  O8  1  0.22932100  0.01353900  0.12891900  1
  O  O9  1  0.42225100  0.00182900  0.69350300  1
  O  O10  1  0.62876000  0.22466700  0.21736800  1
  O  O11  1  0.07622100  0.28892400  0.26044800  1
  O  O12  1  0.76371900  0.15887500  0.77342900  1
  O  O13  1  0.73728900  0.36393900  0.42235700  1
  O  O14  1  0.77067900  0.51353900  0.12891900  1
  O  O15  1  0.28720400  0.36635300  0.92312900  1
  O  O16  1  0.12964300  0.44689600  0.64028400  1
  O  O17  1  0.57774900  0.50182900  0.69350300  1
  O  O18  1  0.37124000  0.72466700  0.21736800  1
  O  O19  1  0.92377900  0.78892400  0.26044800  1
  O  O20  1  0.23628100  0.65887500  0.77342900  1
  O  O21  1  0.26271100  0.86393900  0.42235700  1
  O  O22  1  0.71279600  0.86635300  0.92312900  1
  O  O23  1  0.87035700  0.94689600  0.64028400  1
