# generated using pymatgen
data_Cr4(PO4)3
_symmetry_space_group_name_H-M   'P 1'
_cell_length_a   6.21497900
_cell_length_b   10.29561900
_cell_length_c   15.09141800
_cell_angle_alpha   90.00000000
_cell_angle_beta   90.00000000
_cell_angle_gamma   90.00000000
_symmetry_Int_Tables_number   1
_chemical_formula_structural   Cr4(PO4)3
_chemical_formula_sum   'Cr16 P12 O48'
_cell_volume   965.65540683
_cell_formula_units_Z   4
loop_
 _symmetry_equiv_pos_site_id
 _symmetry_equiv_pos_as_xyz
  1  'x, y, z'
loop_
 _atom_site_type_symbol
 _atom_site_label
 _atom_site_symmetry_multiplicity
 _atom_site_fract_x
 _atom_site_fract_y
 _atom_site_fract_z
 _atom_site_occupancy
  Cr  Cr0  1  0.91218300  0.14667400  0.12916800  1
  Cr  Cr1  1  0.41218300  0.35332600  0.12916800  1
  Cr  Cr2  1  0.13993200  0.43915600  0.88971000  1
  Cr  Cr3  1  0.91218300  0.14667400  0.37083200  1
  Cr  Cr4  1  0.63993200  0.06084400  0.88971000  1
  Cr  Cr5  1  0.58781700  0.64667400  0.87083200  1
  Cr  Cr6  1  0.41218300  0.35332600  0.37083200  1
  Cr  Cr7  1  0.08781700  0.85332600  0.62916800  1
  Cr  Cr8  1  0.58781700  0.64667400  0.62916800  1
  Cr  Cr9  1  0.36006800  0.93915600  0.11029000  1
  Cr  Cr10  1  0.36006800  0.93915600  0.38971000  1
  Cr  Cr11  1  0.86006800  0.56084400  0.11029000  1
  Cr  Cr12  1  0.08781700  0.85332600  0.87083200  1
  Cr  Cr13  1  0.13993200  0.43915600  0.61029000  1
  Cr  Cr14  1  0.86006800  0.56084400  0.38971000  1
  Cr  Cr15  1  0.63993200  0.06084400  0.61029000  1
  P  P16  1  0.49862600  0.09777800  0.25000000  1
  P  P17  1  0.13698300  0.13785000  0.57197100  1
  P  P18  1  0.99862600  0.40222200  0.25000000  1
  P  P19  1  0.36301700  0.63785000  0.42802900  1
  P  P20  1  0.63698300  0.36215000  0.92802900  1
  P  P21  1  0.86301700  0.86215000  0.42802900  1
  P  P22  1  0.63698300  0.36215000  0.57197100  1
  P  P23  1  0.86301700  0.86215000  0.07197100  1
  P  P24  1  0.36301700  0.63785000  0.07197100  1
  P  P25  1  0.50137400  0.90222200  0.75000000  1
  P  P26  1  0.00137400  0.59777800  0.75000000  1
  P  P27  1  0.13698300  0.13785000  0.92802900  1
  O  O28  1  0.03284800  0.95888700  0.11527700  1
  O  O29  1  0.24846400  0.38298900  0.25000000  1
  O  O30  1  0.09653700  0.65286400  0.66235400  1
  O  O31  1  0.18538200  0.25248500  0.86759200  1
  O  O32  1  0.18538200  0.25248500  0.63240800  1
  O  O33  1  0.09653700  0.65286400  0.83764600  1
  O  O34  1  0.59653700  0.84713600  0.66235400  1
  O  O35  1  0.25153600  0.88298900  0.75000000  1
  O  O36  1  0.53284800  0.54111300  0.11527700  1
  O  O37  1  0.05718100  0.19071100  0.01711300  1
  O  O38  1  0.46715200  0.45888700  0.88472300  1
  O  O39  1  0.59653700  0.84713600  0.83764600  1
  O  O40  1  0.68538200  0.24751500  0.86759200  1
  O  O41  1  0.90346300  0.34713600  0.33764600  1
  O  O42  1  0.83775000  0.45354900  0.56045200  1
  O  O43  1  0.46715200  0.45888700  0.61527700  1
  O  O44  1  0.66225000  0.95354900  0.43954800  1
  O  O45  1  0.94281900  0.80928900  0.51711300  1
  O  O46  1  0.33775000  0.04645100  0.93954800  1
  O  O47  1  0.66225000  0.95354900  0.06045200  1
  O  O48  1  0.75153600  0.61701100  0.75000000  1
  O  O49  1  0.96715200  0.04111300  0.61527700  1
  O  O50  1  0.56865200  0.04791500  0.75000000  1
  O  O51  1  0.55718100  0.30928900  0.01711300  1
  O  O52  1  0.90346300  0.34713600  0.16235400  1
  O  O53  1  0.53284800  0.54111300  0.38472300  1
  O  O54  1  0.40346300  0.15286400  0.33764600  1
  O  O55  1  0.81461800  0.74751500  0.13240800  1
  O  O56  1  0.06865200  0.45208500  0.75000000  1
  O  O57  1  0.55718100  0.30928900  0.48288700  1
  O  O58  1  0.44281900  0.69071100  0.51711300  1
  O  O59  1  0.43134800  0.95208500  0.25000000  1
  O  O60  1  0.31461800  0.75248500  0.13240800  1
  O  O61  1  0.44281900  0.69071100  0.98288700  1
  O  O62  1  0.40346300  0.15286400  0.16235400  1
  O  O63  1  0.81461800  0.74751500  0.36759200  1
  O  O64  1  0.94281900  0.80928900  0.98288700  1
  O  O65  1  0.83775000  0.45354900  0.93954800  1
  O  O66  1  0.05718100  0.19071100  0.48288700  1
  O  O67  1  0.33775000  0.04645100  0.56045200  1
  O  O68  1  0.03284800  0.95888700  0.38472300  1
  O  O69  1  0.96715200  0.04111300  0.88472300  1
  O  O70  1  0.68538200  0.24751500  0.63240800  1
  O  O71  1  0.74846400  0.11701100  0.25000000  1
  O  O72  1  0.16225000  0.54645100  0.43954800  1
  O  O73  1  0.31461800  0.75248500  0.36759200  1
  O  O74  1  0.16225000  0.54645100  0.06045200  1
  O  O75  1  0.93134800  0.54791500  0.25000000  1
