# generated using pymatgen
data_V(CO)6
_symmetry_space_group_name_H-M   'P 1'
_cell_length_a   6.82088800
_cell_length_b   11.29383000
_cell_length_c   12.79412800
_cell_angle_alpha   90.00000000
_cell_angle_beta   90.00000000
_cell_angle_gamma   90.00000000
_symmetry_Int_Tables_number   1
_chemical_formula_structural   V(CO)6
_chemical_formula_sum   'V4 C24 O24'
_cell_volume   985.58221052
_cell_formula_units_Z   4
loop_
 _symmetry_equiv_pos_site_id
 _symmetry_equiv_pos_as_xyz
  1  'x, y, z'
loop_
 _atom_site_type_symbol
 _atom_site_label
 _atom_site_symmetry_multiplicity
 _atom_site_fract_x
 _atom_site_fract_y
 _atom_site_fract_z
 _atom_site_occupancy
  V  V0  1  0.93845600  0.75000000  0.12697900  1
  V  V1  1  0.43845600  0.25000000  0.37302100  1
  V  V2  1  0.06154400  0.25000000  0.87302100  1
  V  V3  1  0.56154400  0.75000000  0.62697900  1
  C  C4  1  0.68888700  0.75000000  0.21471500  1
  C  C5  1  0.18888700  0.25000000  0.28528500  1
  C  C6  1  0.31111300  0.25000000  0.78528500  1
  C  C7  1  0.81111300  0.75000000  0.71471500  1
  C  C8  1  0.18982000  0.75000000  0.04041300  1
  C  C9  1  0.68982000  0.25000000  0.45958700  1
  C  C10  1  0.81018000  0.25000000  0.95958700  1
  C  C11  1  0.31018000  0.75000000  0.54041300  1
  C  C12  1  0.82033600  0.86872000  0.02838900  1
  C  C13  1  0.32033600  0.13128000  0.47161100  1
  C  C14  1  0.17966400  0.36872000  0.97161100  1
  C  C15  1  0.67966400  0.63128000  0.52838900  1
  C  C16  1  0.17966400  0.13128000  0.97161100  1
  C  C17  1  0.67966400  0.86872000  0.52838900  1
  C  C18  1  0.82033600  0.63128000  0.02838900  1
  C  C19  1  0.32033600  0.36872000  0.47161100  1
  C  C20  1  0.05807700  0.86999700  0.22427300  1
  C  C21  1  0.55807700  0.13000300  0.27572700  1
  C  C22  1  0.94192300  0.36999700  0.77572700  1
  C  C23  1  0.44192300  0.63000300  0.72427300  1
  C  C24  1  0.94192300  0.13000300  0.77572700  1
  C  C25  1  0.44192300  0.86999700  0.72427300  1
  C  C26  1  0.05807700  0.63000300  0.22427300  1
  C  C27  1  0.55807700  0.36999700  0.27572700  1
  O  O28  1  0.54782300  0.75000000  0.26479800  1
  O  O29  1  0.04782300  0.25000000  0.23520200  1
  O  O30  1  0.45217700  0.25000000  0.73520200  1
  O  O31  1  0.95217700  0.75000000  0.76479800  1
  O  O32  1  0.33272600  0.75000000  0.99197400  1
  O  O33  1  0.83272600  0.25000000  0.50802600  1
  O  O34  1  0.66727400  0.25000000  0.00802600  1
  O  O35  1  0.16727400  0.75000000  0.49197400  1
  O  O36  1  0.75282200  0.93554800  0.96966000  1
  O  O37  1  0.25282200  0.06445200  0.53034000  1
  O  O38  1  0.24717800  0.43554800  0.03034000  1
  O  O39  1  0.74717800  0.56445200  0.46966000  1
  O  O40  1  0.24717800  0.06445200  0.03034000  1
  O  O41  1  0.74717800  0.93554800  0.46966000  1
  O  O42  1  0.75282200  0.56445200  0.96966000  1
  O  O43  1  0.25282200  0.43554800  0.53034000  1
  O  O44  1  0.12833200  0.93809400  0.28078800  1
  O  O45  1  0.62833200  0.06190600  0.21921200  1
  O  O46  1  0.87166800  0.43809400  0.71921200  1
  O  O47  1  0.37166800  0.56190600  0.78078800  1
  O  O48  1  0.87166800  0.06190600  0.71921200  1
  O  O49  1  0.37166800  0.93809400  0.78078800  1
  O  O50  1  0.12833200  0.56190600  0.28078800  1
  O  O51  1  0.62833200  0.43809400  0.21921200  1
