# generated using pymatgen
data_Cr6P7O24
_symmetry_space_group_name_H-M   'P 1'
_cell_length_a   27.73758300
_cell_length_b   5.32482100
_cell_length_c   6.45322379
_cell_angle_alpha   73.04958133
_cell_angle_beta   90.00000000
_cell_angle_gamma   90.00000000
_symmetry_Int_Tables_number   1
_chemical_formula_structural   Cr6P7O24
_chemical_formula_sum   'Cr12 P14 O48'
_cell_volume   911.71981122
_cell_formula_units_Z   2
loop_
 _symmetry_equiv_pos_site_id
 _symmetry_equiv_pos_as_xyz
  1  'x, y, z'
loop_
 _atom_site_type_symbol
 _atom_site_label
 _atom_site_symmetry_multiplicity
 _atom_site_fract_x
 _atom_site_fract_y
 _atom_site_fract_z
 _atom_site_occupancy
  Cr  Cr0  1  0.59759000  0.80699100  0.07245300  1
  Cr  Cr1  1  0.40241000  0.19300900  0.92754700  1
  Cr  Cr2  1  0.90241000  0.80699100  0.07245300  1
  Cr  Cr3  1  0.04730600  0.80169300  0.69260200  1
  Cr  Cr4  1  0.31512400  0.85721400  0.28777800  1
  Cr  Cr5  1  0.68487600  0.14278600  0.71222200  1
  Cr  Cr6  1  0.54730600  0.19830700  0.30739800  1
  Cr  Cr7  1  0.45269400  0.80169300  0.69260200  1
  Cr  Cr8  1  0.95269400  0.19830700  0.30739800  1
  Cr  Cr9  1  0.81512400  0.14278600  0.71222200  1
  Cr  Cr10  1  0.09759000  0.19300900  0.92754700  1
  Cr  Cr11  1  0.18487600  0.85721400  0.28777800  1
  P  P12  1  0.11027300  0.30272700  0.38788600  1
  P  P13  1  0.16978700  0.71928600  0.82273700  1
  P  P14  1  0.66978700  0.28071400  0.17726300  1
  P  P15  1  0.88972700  0.69727300  0.61211400  1
  P  P16  1  0.02780200  0.69031700  0.20925000  1
  P  P17  1  0.83021300  0.28071400  0.17726300  1
  P  P18  1  0.38972700  0.30272700  0.38788600  1
  P  P19  1  0.97219800  0.30968300  0.79075000  1
  P  P20  1  0.25000000  0.43310800  0.10758600  1
  P  P21  1  0.61027300  0.69727300  0.61211400  1
  P  P22  1  0.33021300  0.71928600  0.82273700  1
  P  P23  1  0.75000000  0.56689200  0.89241400  1
  P  P24  1  0.52780200  0.30968300  0.79075000  1
  P  P25  1  0.47219800  0.69031700  0.20925000  1
  O  O26  1  0.30874900  0.85116500  0.60223300  1
  O  O27  1  0.25000000  0.14141200  0.23261400  1
  O  O28  1  0.02160800  0.42177600  0.82090500  1
  O  O29  1  0.69125100  0.14883500  0.39776700  1
  O  O30  1  0.37793500  0.57439900  0.81918200  1
  O  O31  1  0.66794300  0.09573400  0.03291700  1
  O  O32  1  0.97839200  0.57822400  0.17909500  1
  O  O33  1  0.75000000  0.36315100  0.76392900  1
  O  O34  1  0.52846200  0.16813600  0.61808300  1
  O  O35  1  0.59311000  0.86371400  0.38582600  1
  O  O36  1  0.04917300  0.86993800  0.99569400  1
  O  O37  1  0.56124100  0.56706900  0.72875900  1
  O  O38  1  0.93875900  0.56706900  0.72875900  1
  O  O39  1  0.16794300  0.90426600  0.96708300  1
  O  O40  1  0.47153800  0.83186400  0.38191700  1
  O  O41  1  0.29496600  0.47595200  0.95075800  1
  O  O42  1  0.97153800  0.16813600  0.61808300  1
  O  O43  1  0.75000000  0.85858800  0.76738600  1
  O  O44  1  0.12479700  0.12277500  0.24725800  1
  O  O45  1  0.09311000  0.13628600  0.61417400  1
  O  O46  1  0.79496600  0.52404800  0.04924200  1
  O  O47  1  0.70503400  0.52404800  0.04924200  1
  O  O48  1  0.33205700  0.90426600  0.96708300  1
  O  O49  1  0.90689000  0.86371400  0.38582600  1
  O  O50  1  0.83205700  0.09573400  0.03291700  1
  O  O51  1  0.19125100  0.85116500  0.60223300  1
  O  O52  1  0.87520300  0.87722500  0.75274200  1
  O  O53  1  0.25000000  0.63684900  0.23607100  1
  O  O54  1  0.85267400  0.49394600  0.60833300  1
  O  O55  1  0.40689000  0.13628600  0.61417400  1
  O  O56  1  0.62479700  0.87722500  0.75274200  1
  O  O57  1  0.06124100  0.43293100  0.27124100  1
  O  O58  1  0.64732600  0.49394600  0.60833300  1
  O  O59  1  0.14732600  0.50605400  0.39166700  1
  O  O60  1  0.12206500  0.57439900  0.81918200  1
  O  O61  1  0.95082700  0.13006200  0.00430600  1
  O  O62  1  0.43875900  0.43293100  0.27124100  1
  O  O63  1  0.20503400  0.47595200  0.95075800  1
  O  O64  1  0.45082700  0.86993800  0.99569400  1
  O  O65  1  0.02846200  0.83186400  0.38191700  1
  O  O66  1  0.37520300  0.12277500  0.24725800  1
  O  O67  1  0.35267400  0.50605400  0.39166700  1
  O  O68  1  0.62206500  0.42560100  0.18081800  1
  O  O69  1  0.47839200  0.42177600  0.82090500  1
  O  O70  1  0.52160800  0.57822400  0.17909500  1
  O  O71  1  0.87793500  0.42560100  0.18081800  1
  O  O72  1  0.80874900  0.14883500  0.39776700  1
  O  O73  1  0.54917300  0.13006200  0.00430600  1
