# generated using pymatgen
data_UFeO4
_symmetry_space_group_name_H-M   'P 1'
_cell_length_a   4.91505700
_cell_length_b   5.17717400
_cell_length_c   12.07030100
_cell_angle_alpha   90.00000000
_cell_angle_beta   90.00000000
_cell_angle_gamma   90.00000000
_symmetry_Int_Tables_number   1
_chemical_formula_structural   UFeO4
_chemical_formula_sum   'U4 Fe4 O16'
_cell_volume   307.14215036
_cell_formula_units_Z   4
loop_
 _symmetry_equiv_pos_site_id
 _symmetry_equiv_pos_as_xyz
  1  'x, y, z'
loop_
 _atom_site_type_symbol
 _atom_site_label
 _atom_site_symmetry_multiplicity
 _atom_site_fract_x
 _atom_site_fract_y
 _atom_site_fract_z
 _atom_site_occupancy
  U  U0  1  0.00000000  0.75000000  0.17019100  1
  U  U1  1  0.50000000  0.25000000  0.32980900  1
  U  U2  1  0.00000000  0.25000000  0.82980900  1
  U  U3  1  0.50000000  0.75000000  0.67019100  1
  Fe  Fe4  1  0.00000000  0.75000000  0.43794300  1
  Fe  Fe5  1  0.50000000  0.25000000  0.06205700  1
  Fe  Fe6  1  0.00000000  0.25000000  0.56205700  1
  Fe  Fe7  1  0.50000000  0.75000000  0.93794300  1
  O  O8  1  0.23126000  0.42574700  0.44529900  1
  O  O9  1  0.73126000  0.57425300  0.05470100  1
  O  O10  1  0.26874000  0.92574700  0.05470100  1
  O  O11  1  0.76874000  0.07425300  0.44529900  1
  O  O12  1  0.76874000  0.57425300  0.55470100  1
  O  O13  1  0.26874000  0.42574700  0.94529900  1
  O  O14  1  0.73126000  0.07425300  0.94529900  1
  O  O15  1  0.23126000  0.92574700  0.55470100  1
  O  O16  1  0.22149900  0.90721300  0.30957900  1
  O  O17  1  0.72149900  0.09278700  0.19042100  1
  O  O18  1  0.27850100  0.40721300  0.19042100  1
  O  O19  1  0.77850100  0.59278700  0.30957900  1
  O  O20  1  0.77850100  0.09278700  0.69042100  1
  O  O21  1  0.27850100  0.90721300  0.80957900  1
  O  O22  1  0.72149900  0.59278700  0.80957900  1
  O  O23  1  0.22149900  0.40721300  0.69042100  1
