# generated using pymatgen
data_VFeO4
_symmetry_space_group_name_H-M   'P 1'
_cell_length_a   6.77938400
_cell_length_b   8.09367344
_cell_length_c   9.39315606
_cell_angle_alpha   96.43399454
_cell_angle_beta   106.57167511
_cell_angle_gamma   101.55990902
_symmetry_Int_Tables_number   1
_chemical_formula_structural   VFeO4
_chemical_formula_sum   'V6 Fe6 O24'
_cell_volume   476.05245378
_cell_formula_units_Z   6
loop_
 _symmetry_equiv_pos_site_id
 _symmetry_equiv_pos_as_xyz
  1  'x, y, z'
loop_
 _atom_site_type_symbol
 _atom_site_label
 _atom_site_symmetry_multiplicity
 _atom_site_fract_x
 _atom_site_fract_y
 _atom_site_fract_z
 _atom_site_occupancy
  V  V0  1  0.00575700  0.99857600  0.26224700  1
  V  V1  1  0.99424300  0.00142400  0.73775300  1
  V  V2  1  0.19888200  0.59824500  0.34980300  1
  V  V3  1  0.80111800  0.40175500  0.65019700  1
  V  V4  1  0.52464900  0.30573600  0.12833300  1
  V  V5  1  0.47535100  0.69426400  0.87166700  1
  Fe  Fe6  1  0.75168700  0.70065300  0.40825700  1
  Fe  Fe7  1  0.24831300  0.29934700  0.59174300  1
  Fe  Fe8  1  0.46411500  0.88834200  0.21330500  1
  Fe  Fe9  1  0.53588500  0.11165800  0.78669500  1
  Fe  Fe10  1  0.97106900  0.30653500  0.01093800  1
  Fe  Fe11  1  0.02893100  0.69346500  0.98906200  1
  O  O12  1  0.64955900  0.49355600  0.25309800  1
  O  O13  1  0.35044100  0.50644400  0.74690200  1
  O  O14  1  0.25647400  0.43326400  0.43605200  1
  O  O15  1  0.74352600  0.56673600  0.56394800  1
  O  O16  1  0.04824300  0.69863200  0.43002100  1
  O  O17  1  0.95175700  0.30136800  0.56997900  1
  O  O18  1  0.16055700  0.09676900  0.43813500  1
  O  O19  1  0.83944300  0.90323100  0.56186500  1
  O  O20  1  0.45403600  0.73761600  0.36506700  1
  O  O21  1  0.54596400  0.26238400  0.63493300  1
  O  O22  1  0.75978300  0.86233500  0.26626700  1
  O  O23  1  0.24021700  0.13766500  0.73373300  1
  O  O24  1  0.52860300  0.12849300  0.21808400  1
  O  O25  1  0.47139700  0.87150700  0.78191600  1
  O  O26  1  0.15149000  0.87605200  0.17882000  1
  O  O27  1  0.84851000  0.12394800  0.82118000  1
  O  O28  1  0.35408400  0.72650300  0.01982200  1
  O  O29  1  0.64591600  0.27349700  0.98017800  1
  O  O30  1  0.26497800  0.30057200  0.03727600  1
  O  O31  1  0.73502200  0.69942800  0.96272400  1
  O  O32  1  0.94865400  0.14807900  0.15570700  1
  O  O33  1  0.05134600  0.85192100  0.84429300  1
  O  O34  1  0.05648100  0.52768000  0.15107300  1
  O  O35  1  0.94351900  0.47232000  0.84892700  1
