# generated using pymatgen
data_In5(BiS4)3
_symmetry_space_group_name_H-M   'P 1'
_cell_length_a   16.87289000
_cell_length_b   16.87289000
_cell_length_c   14.56597544
_cell_angle_alpha   89.42697089
_cell_angle_beta   89.42697089
_cell_angle_gamma   13.34558676
_symmetry_Int_Tables_number   1
_chemical_formula_structural   In5(BiS4)3
_chemical_formula_sum   'In10 Bi6 S24'
_cell_volume   957.14426215
_cell_formula_units_Z   2
loop_
 _symmetry_equiv_pos_site_id
 _symmetry_equiv_pos_as_xyz
  1  'x, y, z'
loop_
 _atom_site_type_symbol
 _atom_site_label
 _atom_site_symmetry_multiplicity
 _atom_site_fract_x
 _atom_site_fract_y
 _atom_site_fract_z
 _atom_site_occupancy
  In  In0  1  0.00000000  0.00000000  0.00000000  1
  In  In1  1  0.00000000  0.00000000  0.50000000  1
  In  In2  1  0.21677200  0.21677200  0.58224800  1
  In  In3  1  0.78322800  0.78322800  0.41775200  1
  In  In4  1  0.40236400  0.40236400  0.49645500  1
  In  In5  1  0.59763600  0.59763600  0.50354500  1
  In  In6  1  0.67342200  0.67342200  0.78028200  1
  In  In7  1  0.32657800  0.32657800  0.21971800  1
  In  In8  1  0.92838200  0.92838200  0.72183800  1
  In  In9  1  0.07161800  0.07161800  0.27816200  1
  Bi  Bi10  1  0.13496100  0.13496100  0.01466600  1
  Bi  Bi11  1  0.86503900  0.86503900  0.98533400  1
  Bi  Bi12  1  0.31979600  0.31979600  0.73280200  1
  Bi  Bi13  1  0.68020400  0.68020400  0.26719800  1
  Bi  Bi14  1  0.55285100  0.55285100  0.79006500  1
  Bi  Bi15  1  0.44714900  0.44714900  0.20993500  1
  S  S16  1  0.99402400  0.99402400  0.81835900  1
  S  S17  1  0.00597600  0.00597600  0.18164100  1
  S  S18  1  0.06211400  0.06211400  0.59858400  1
  S  S19  1  0.93788600  0.93788600  0.40141600  1
  S  S20  1  0.11441200  0.11441200  0.81911900  1
  S  S21  1  0.88558800  0.88558800  0.18088100  1
  S  S22  1  0.22209300  0.22209300  0.76092000  1
  S  S23  1  0.77790700  0.77790700  0.23908000  1
  S  S24  1  0.39501100  0.39501100  0.81289900  1
  S  S25  1  0.60498900  0.60498900  0.18710100  1
  S  S26  1  0.46543300  0.46543300  0.60634600  1
  S  S27  1  0.53456700  0.53456700  0.39365400  1
  S  S28  1  0.55313300  0.55313300  0.97290500  1
  S  S29  1  0.44686700  0.44686700  0.02709500  1
  S  S30  1  0.66195200  0.66195200  0.60180900  1
  S  S31  1  0.33804800  0.33804800  0.39819100  1
  S  S32  1  0.80467400  0.80467400  0.85224300  1
  S  S33  1  0.19532600  0.19532600  0.14775700  1
  S  S34  1  0.87325900  0.87325900  0.60448000  1
  S  S35  1  0.12674100  0.12674100  0.39552000  1
  S  S36  1  0.77201300  0.77201300  0.59115700  1
  S  S37  1  0.22798700  0.22798700  0.40884300  1
  S  S38  1  0.68260800  0.68260800  0.95844400  1
  S  S39  1  0.31739200  0.31739200  0.04155600  1
