# generated using pymatgen
data_Sb(PO3)4
_symmetry_space_group_name_H-M   'P 1'
_cell_length_a   14.05847200
_cell_length_b   5.38504200
_cell_length_c   7.38693575
_cell_angle_alpha   80.80770855
_cell_angle_beta   90.00000000
_cell_angle_gamma   90.00000000
_symmetry_Int_Tables_number   1
_chemical_formula_structural   Sb(PO3)4
_chemical_formula_sum   'Sb2 P8 O24'
_cell_volume   552.04960527
_cell_formula_units_Z   2
loop_
 _symmetry_equiv_pos_site_id
 _symmetry_equiv_pos_as_xyz
  1  'x, y, z'
loop_
 _atom_site_type_symbol
 _atom_site_label
 _atom_site_symmetry_multiplicity
 _atom_site_fract_x
 _atom_site_fract_y
 _atom_site_fract_z
 _atom_site_occupancy
  Sb  Sb0  1  0.73760000  0.51400100  0.48658200  1
  Sb  Sb1  1  0.23760000  0.48599900  0.51341800  1
  P  P2  1  0.88114900  0.99961600  0.55976900  1
  P  P3  1  0.09782700  0.97296200  0.56410800  1
  P  P4  1  0.38114900  0.00038400  0.44023100  1
  P  P5  1  0.66880700  0.87914300  0.08340700  1
  P  P6  1  0.32056700  0.77363900  0.11182700  1
  P  P7  1  0.59782700  0.02703800  0.43589200  1
  P  P8  1  0.16880700  0.12085700  0.91659300  1
  P  P9  1  0.82056700  0.22636100  0.88817300  1
  O  O10  1  0.76387700  0.04727100  0.04562700  1
  O  O11  1  0.32729100  0.79669100  0.56638900  1
  O  O12  1  0.36694400  0.26652600  0.47856500  1
  O  O13  1  0.74412800  0.37894000  0.76516000  1
  O  O14  1  0.15928100  0.17502100  0.45316100  1
  O  O15  1  0.36073800  0.98782800  0.23234800  1
  O  O16  1  0.10898300  0.71246900  0.51308400  1
  O  O17  1  0.86694400  0.73347400  0.52143500  1
  O  O18  1  0.82729100  0.20330900  0.43361100  1
  O  O19  1  0.70282300  0.63248200  0.20263800  1
  O  O20  1  0.86073800  0.01217200  0.76765200  1
  O  O21  1  0.26387700  0.95272900  0.95437300  1
  O  O22  1  0.61380800  0.04175100  0.22348000  1
  O  O23  1  0.20282300  0.36751800  0.79736200  1
  O  O24  1  0.11380800  0.95824900  0.77652000  1
  O  O25  1  0.60996400  0.86271400  0.92305600  1
  O  O26  1  0.89792100  0.35785000  0.96436800  1
  O  O27  1  0.65928100  0.82497900  0.54683900  1
  O  O28  1  0.60898300  0.28753100  0.48691600  1
  O  O29  1  0.10996400  0.13728600  0.07694400  1
  O  O30  1  0.24412800  0.62106000  0.23484000  1
  O  O31  1  0.99128900  0.06616600  0.52992600  1
  O  O32  1  0.49128900  0.93383400  0.47007400  1
  O  O33  1  0.39792100  0.64215000  0.03563200  1
