# generated using pymatgen
data_CeLuS3
_symmetry_space_group_name_H-M   'P 1'
_cell_length_a   6.58230837
_cell_length_b   6.58230837
_cell_length_c   9.48585800
_cell_angle_alpha   90.00000000
_cell_angle_beta   90.00000000
_cell_angle_gamma   145.87507313
_symmetry_Int_Tables_number   1
_chemical_formula_structural   CeLuS3
_chemical_formula_sum   'Ce2 Lu2 S6'
_cell_volume   230.56602089
_cell_formula_units_Z   2
loop_
 _symmetry_equiv_pos_site_id
 _symmetry_equiv_pos_as_xyz
  1  'x, y, z'
loop_
 _atom_site_type_symbol
 _atom_site_label
 _atom_site_symmetry_multiplicity
 _atom_site_fract_x
 _atom_site_fract_y
 _atom_site_fract_z
 _atom_site_occupancy
  Ce  Ce0  1  0.74802900  0.25197100  0.25000000  1
  Ce  Ce1  1  0.25197100  0.74802900  0.75000000  1
  Lu  Lu2  1  0.00000000  0.00000000  0.50000000  1
  Lu  Lu3  1  0.00000000  0.00000000  0.00000000  1
  S  S4  1  0.64171800  0.35828200  0.56423800  1
  S  S5  1  0.64171800  0.35828200  0.93576200  1
  S  S6  1  0.35828200  0.64171800  0.06423800  1
  S  S7  1  0.35828200  0.64171800  0.43576200  1
  S  S8  1  0.08753600  0.91246400  0.25000000  1
  S  S9  1  0.91246400  0.08753600  0.75000000  1
