# generated using pymatgen
data_Rb2V4O9
_symmetry_space_group_name_H-M   'P 1'
_cell_length_a   5.78066300
_cell_length_b   5.78066300
_cell_length_c   15.24357100
_cell_angle_alpha   90.00000000
_cell_angle_beta   90.00000000
_cell_angle_gamma   90.00000000
_symmetry_Int_Tables_number   1
_chemical_formula_structural   Rb2V4O9
_chemical_formula_sum   'Rb4 V8 O18'
_cell_volume   509.38015509
_cell_formula_units_Z   2
loop_
 _symmetry_equiv_pos_site_id
 _symmetry_equiv_pos_as_xyz
  1  'x, y, z'
loop_
 _atom_site_type_symbol
 _atom_site_label
 _atom_site_symmetry_multiplicity
 _atom_site_fract_x
 _atom_site_fract_y
 _atom_site_fract_z
 _atom_site_occupancy
  Rb  Rb0  1  0.26521000  0.24398700  0.50000000  1
  Rb  Rb1  1  0.75601300  0.26521000  0.00000000  1
  Rb  Rb2  1  0.24398700  0.73479000  0.00000000  1
  Rb  Rb3  1  0.73479000  0.75601300  0.50000000  1
  V  V4  1  0.28676200  0.14886600  0.20042800  1
  V  V5  1  0.85113400  0.28676200  0.70042800  1
  V  V6  1  0.14886600  0.71323800  0.70042800  1
  V  V7  1  0.71323800  0.85113400  0.20042800  1
  V  V8  1  0.71323800  0.85113400  0.79957200  1
  V  V9  1  0.14886600  0.71323800  0.29957200  1
  V  V10  1  0.85113400  0.28676200  0.29957200  1
  V  V11  1  0.28676200  0.14886600  0.79957200  1
  O  O12  1  0.00000000  0.00000000  0.25000000  1
  O  O13  1  0.00000000  0.00000000  0.75000000  1
  O  O14  1  0.22788300  0.22984100  0.09758700  1
  O  O15  1  0.77015900  0.22788300  0.59758700  1
  O  O16  1  0.22984100  0.77211700  0.59758700  1
  O  O17  1  0.77211700  0.77015900  0.09758700  1
  O  O18  1  0.77211700  0.77015900  0.90241300  1
  O  O19  1  0.22984100  0.77211700  0.40241300  1
  O  O20  1  0.77015900  0.22788300  0.40241300  1
  O  O21  1  0.22788300  0.22984100  0.90241300  1
  O  O22  1  0.18278400  0.37837200  0.28682400  1
  O  O23  1  0.62162800  0.18278400  0.78682400  1
  O  O24  1  0.37837200  0.81721600  0.78682400  1
  O  O25  1  0.81721600  0.62162800  0.28682400  1
  O  O26  1  0.81721600  0.62162800  0.71317600  1
  O  O27  1  0.37837200  0.81721600  0.21317600  1
  O  O28  1  0.62162800  0.18278400  0.21317600  1
  O  O29  1  0.18278400  0.37837200  0.71317600  1
