# generated using pymatgen
data_VAs2H4O9
_symmetry_space_group_name_H-M   'P 1'
_cell_length_a   9.31698100
_cell_length_b   9.31698100
_cell_length_c   8.25435600
_cell_angle_alpha   90.00000000
_cell_angle_beta   90.00000000
_cell_angle_gamma   90.00000000
_symmetry_Int_Tables_number   1
_chemical_formula_structural   VAs2H4O9
_chemical_formula_sum   'V4 As8 H16 O36'
_cell_volume   716.52874090
_cell_formula_units_Z   4
loop_
 _symmetry_equiv_pos_site_id
 _symmetry_equiv_pos_as_xyz
  1  'x, y, z'
loop_
 _atom_site_type_symbol
 _atom_site_label
 _atom_site_symmetry_multiplicity
 _atom_site_fract_x
 _atom_site_fract_y
 _atom_site_fract_z
 _atom_site_occupancy
  V  V0  1  0.00000000  0.50000000  0.19696400  1
  V  V1  1  0.50000000  0.00000000  0.30303600  1
  V  V2  1  0.50000000  0.00000000  0.80303600  1
  V  V3  1  0.00000000  0.50000000  0.69696400  1
  As  As4  1  0.28494000  0.71506000  0.25000000  1
  As  As5  1  0.21506000  0.21506000  0.25000000  1
  As  As6  1  0.78494000  0.78494000  0.25000000  1
  As  As7  1  0.71506000  0.28494000  0.25000000  1
  As  As8  1  0.21506000  0.78494000  0.75000000  1
  As  As9  1  0.28494000  0.28494000  0.75000000  1
  As  As10  1  0.71506000  0.71506000  0.75000000  1
  As  As11  1  0.78494000  0.21506000  0.75000000  1
  H  H12  1  0.45881500  0.67203000  0.05307800  1
  H  H13  1  0.17203000  0.04118500  0.05307800  1
  H  H14  1  0.82797000  0.95881500  0.05307800  1
  H  H15  1  0.54118500  0.32797000  0.05307800  1
  H  H16  1  0.04118500  0.17203000  0.44692200  1
  H  H17  1  0.95881500  0.82797000  0.44692200  1
  H  H18  1  0.67203000  0.45881500  0.44692200  1
  H  H19  1  0.32797000  0.54118500  0.44692200  1
  H  H20  1  0.04118500  0.82797000  0.94692200  1
  H  H21  1  0.32797000  0.45881500  0.94692200  1
  H  H22  1  0.67203000  0.54118500  0.94692200  1
  H  H23  1  0.95881500  0.17203000  0.94692200  1
  H  H24  1  0.45881500  0.32797000  0.55307800  1
  H  H25  1  0.54118500  0.67203000  0.55307800  1
  H  H26  1  0.82797000  0.04118500  0.55307800  1
  H  H27  1  0.17203000  0.95881500  0.55307800  1
  O  O28  1  0.36177200  0.63399700  0.07695300  1
  O  O29  1  0.13399700  0.13822800  0.07695300  1
  O  O30  1  0.86600300  0.86177200  0.07695300  1
  O  O31  1  0.63822800  0.36600300  0.07695300  1
  O  O32  1  0.13822800  0.13399700  0.42304700  1
  O  O33  1  0.86177200  0.86600300  0.42304700  1
  O  O34  1  0.63399700  0.36177200  0.42304700  1
  O  O35  1  0.36600300  0.63822800  0.42304700  1
  O  O36  1  0.13822800  0.86600300  0.92304700  1
  O  O37  1  0.36600300  0.36177200  0.92304700  1
  O  O38  1  0.63399700  0.63822800  0.92304700  1
  O  O39  1  0.86177200  0.13399700  0.92304700  1
  O  O40  1  0.36177200  0.36600300  0.57695300  1
  O  O41  1  0.63822800  0.63399700  0.57695300  1
  O  O42  1  0.86600300  0.13822800  0.57695300  1
  O  O43  1  0.13399700  0.86177200  0.57695300  1
  O  O44  1  0.10644500  0.68297500  0.24384500  1
  O  O45  1  0.18297500  0.39355500  0.24384500  1
  O  O46  1  0.81702500  0.60644500  0.24384500  1
  O  O47  1  0.89355500  0.31702500  0.24384500  1
  O  O48  1  0.39355500  0.18297500  0.25615500  1
  O  O49  1  0.60644500  0.81702500  0.25615500  1
  O  O50  1  0.68297500  0.10644500  0.25615500  1
  O  O51  1  0.31702500  0.89355500  0.25615500  1
  O  O52  1  0.39355500  0.81702500  0.75615500  1
  O  O53  1  0.31702500  0.10644500  0.75615500  1
  O  O54  1  0.68297500  0.89355500  0.75615500  1
  O  O55  1  0.60644500  0.18297500  0.75615500  1
  O  O56  1  0.10644500  0.31702500  0.74384500  1
  O  O57  1  0.89355500  0.68297500  0.74384500  1
  O  O58  1  0.81702500  0.39355500  0.74384500  1
  O  O59  1  0.18297500  0.60644500  0.74384500  1
  O  O60  1  0.00000000  0.50000000  0.99709200  1
  O  O61  1  0.50000000  0.00000000  0.50290800  1
  O  O62  1  0.50000000  0.00000000  0.00290800  1
  O  O63  1  0.00000000  0.50000000  0.49709200  1
