# generated using pymatgen
data_CrH9(CN2)3
_symmetry_space_group_name_H-M   'P 1'
_cell_length_a   7.52408728
_cell_length_b   7.52408728
_cell_length_c   7.52408763
_cell_angle_alpha   97.56832178
_cell_angle_beta   97.56832178
_cell_angle_gamma   97.56831809
_symmetry_Int_Tables_number   1
_chemical_formula_structural   CrH9(CN2)3
_chemical_formula_sum   'Cr2 H18 C6 N12'
_cell_volume   413.72041901
_cell_formula_units_Z   2
loop_
 _symmetry_equiv_pos_site_id
 _symmetry_equiv_pos_as_xyz
  1  'x, y, z'
loop_
 _atom_site_type_symbol
 _atom_site_label
 _atom_site_symmetry_multiplicity
 _atom_site_fract_x
 _atom_site_fract_y
 _atom_site_fract_z
 _atom_site_occupancy
  Cr  Cr0  1  0.00000000  0.00000000  0.00000000  1
  Cr  Cr1  1  0.50000000  0.50000000  0.50000000  1
  H  H2  1  0.39753100  0.73182800  0.75431600  1
  H  H3  1  0.75431600  0.39753100  0.73182800  1
  H  H4  1  0.73182800  0.75431600  0.39753100  1
  H  H5  1  0.60246900  0.26817200  0.24568400  1
  H  H6  1  0.24568400  0.60246900  0.26817200  1
  H  H7  1  0.26817200  0.24568400  0.60246900  1
  H  H8  1  0.66745100  0.55955500  0.84303500  1
  H  H9  1  0.84303500  0.66745100  0.55955500  1
  H  H10  1  0.55955500  0.84303500  0.66745100  1
  H  H11  1  0.33254900  0.44044500  0.15696500  1
  H  H12  1  0.15696500  0.33254900  0.44044500  1
  H  H13  1  0.44044500  0.15696500  0.33254900  1
  H  H14  1  0.55742400  0.35132800  0.80368000  1
  H  H15  1  0.80368000  0.55742400  0.35132800  1
  H  H16  1  0.35132800  0.80368000  0.55742400  1
  H  H17  1  0.44257600  0.64867200  0.19632000  1
  H  H18  1  0.19632000  0.44257600  0.64867200  1
  H  H19  1  0.64867200  0.19632000  0.44257600  1
  C  C20  1  0.05058400  0.76025500  0.86948200  1
  C  C21  1  0.86948200  0.05058400  0.76025500  1
  C  C22  1  0.76025500  0.86948200  0.05058400  1
  C  C23  1  0.94941600  0.23974500  0.13051800  1
  C  C24  1  0.13051800  0.94941600  0.23974500  1
  C  C25  1  0.23974500  0.13051800  0.94941600  1
  N  N26  1  0.07621400  0.62350700  0.78857600  1
  N  N27  1  0.78857600  0.07621400  0.62350700  1
  N  N28  1  0.62350700  0.78857600  0.07621400  1
  N  N29  1  0.92378600  0.37649300  0.21142400  1
  N  N30  1  0.21142400  0.92378600  0.37649300  1
  N  N31  1  0.37649300  0.21142400  0.92378600  1
  N  N32  1  0.63496500  0.44604800  0.74596600  1
  N  N33  1  0.74596600  0.63496500  0.44604800  1
  N  N34  1  0.44604800  0.74596600  0.63496500  1
  N  N35  1  0.36503500  0.55395200  0.25403400  1
  N  N36  1  0.25403400  0.36503500  0.55395200  1
  N  N37  1  0.55395200  0.25403400  0.36503500  1
