# generated using pymatgen
data_SiBr2
_symmetry_space_group_name_H-M   'P 1'
_cell_length_a   15.97561000
_cell_length_b   11.06144100
_cell_length_c   16.14496354
_cell_angle_alpha   60.09688619
_cell_angle_beta   90.00000000
_cell_angle_gamma   90.00000000
_symmetry_Int_Tables_number   1
_chemical_formula_structural   SiBr2
_chemical_formula_sum   'Si20 Br40'
_cell_volume   2473.20449500
_cell_formula_units_Z   20
loop_
 _symmetry_equiv_pos_site_id
 _symmetry_equiv_pos_as_xyz
  1  'x, y, z'
loop_
 _atom_site_type_symbol
 _atom_site_label
 _atom_site_symmetry_multiplicity
 _atom_site_fract_x
 _atom_site_fract_y
 _atom_site_fract_z
 _atom_site_occupancy
  Si  Si0  1  0.83062300  0.94740400  0.95997500  1
  Si  Si1  1  0.18036000  0.05323400  0.53612300  1
  Si  Si2  1  0.37266900  0.29202900  0.47759200  1
  Si  Si3  1  0.31964000  0.05323400  0.03612300  1
  Si  Si4  1  0.68036000  0.94676600  0.96387700  1
  Si  Si5  1  0.33062300  0.05259600  0.54002500  1
  Si  Si6  1  0.75313200  0.57282800  0.57275200  1
  Si  Si7  1  0.25313200  0.42717200  0.92724800  1
  Si  Si8  1  0.81964000  0.94676600  0.46387700  1
  Si  Si9  1  0.13878800  0.27048300  0.51997500  1
  Si  Si10  1  0.87266900  0.70797100  0.02240800  1
  Si  Si11  1  0.12733100  0.29202900  0.97759200  1
  Si  Si12  1  0.66937700  0.94740400  0.45997500  1
  Si  Si13  1  0.62733100  0.70797100  0.52240800  1
  Si  Si14  1  0.74686800  0.57282800  0.07275200  1
  Si  Si15  1  0.16937700  0.05259600  0.04002500  1
  Si  Si16  1  0.86121200  0.72951700  0.48002500  1
  Si  Si17  1  0.36121200  0.27048300  0.01997500  1
  Si  Si18  1  0.24686800  0.42717200  0.42724800  1
  Si  Si19  1  0.63878800  0.72951700  0.98002500  1
  Br  Br20  1  0.64584700  0.75287800  0.83448500  1
  Br  Br21  1  0.38030700  0.96680900  0.45063100  1
  Br  Br22  1  0.77607700  0.51124400  0.72535700  1
  Br  Br23  1  0.92965600  0.68615800  0.90429000  1
  Br  Br24  1  0.53768600  0.63495400  0.64396000  1
  Br  Br25  1  0.57034400  0.68615800  0.40429000  1
  Br  Br26  1  0.01164200  0.33870100  0.45743200  1
  Br  Br27  1  0.72392300  0.51124400  0.22535700  1
  Br  Br28  1  0.37474200  0.92344000  0.69036300  1
  Br  Br29  1  0.22392300  0.48875600  0.27464300  1
  Br  Br30  1  0.14068000  0.04974000  0.40472200  1
  Br  Br31  1  0.74607600  0.38542700  0.55532200  1
  Br  Br32  1  0.48835800  0.33870100  0.95743200  1
  Br  Br33  1  0.98835800  0.66129900  0.54256800  1
  Br  Br34  1  0.12605800  0.87342100  0.66635500  1
  Br  Br35  1  0.85932000  0.95026000  0.59527800  1
  Br  Br36  1  0.85415300  0.75287800  0.33448500  1
  Br  Br37  1  0.87474200  0.07656000  0.80963700  1
  Br  Br38  1  0.14584700  0.24712200  0.66551500  1
  Br  Br39  1  0.11969300  0.96680900  0.95063100  1
  Br  Br40  1  0.75392400  0.38542700  0.05532200  1
  Br  Br41  1  0.12525800  0.92344000  0.19036300  1
  Br  Br42  1  0.03768600  0.36504600  0.85604000  1
  Br  Br43  1  0.96231400  0.63495400  0.14396000  1
  Br  Br44  1  0.27607700  0.48875600  0.77464300  1
  Br  Br45  1  0.24607600  0.61457300  0.94467800  1
  Br  Br46  1  0.64068000  0.95026000  0.09527800  1
  Br  Br47  1  0.88030700  0.03319100  0.04936900  1
  Br  Br48  1  0.62605800  0.12657900  0.83364500  1
  Br  Br49  1  0.87394200  0.12657900  0.33364500  1
  Br  Br50  1  0.61969300  0.03319100  0.54936900  1
  Br  Br51  1  0.35415300  0.24712200  0.16551500  1
  Br  Br52  1  0.07034400  0.31384200  0.09571000  1
  Br  Br53  1  0.51164200  0.66129900  0.04256800  1
  Br  Br54  1  0.42965600  0.31384200  0.59571000  1
  Br  Br55  1  0.62525800  0.07656000  0.30963700  1
  Br  Br56  1  0.25392400  0.61457300  0.44467800  1
  Br  Br57  1  0.46231400  0.36504600  0.35604000  1
  Br  Br58  1  0.37394200  0.87342100  0.16635500  1
  Br  Br59  1  0.35932000  0.04974000  0.90472200  1
