# generated using pymatgen
data_U(MoO4)2
_symmetry_space_group_name_H-M   'P 1'
_cell_length_a   4.14283600
_cell_length_b   7.45515000
_cell_length_c   20.36956200
_cell_angle_alpha   90.00000000
_cell_angle_beta   90.00000000
_cell_angle_gamma   90.00000000
_symmetry_Int_Tables_number   1
_chemical_formula_structural   U(MoO4)2
_chemical_formula_sum   'U4 Mo8 O32'
_cell_volume   629.12336988
_cell_formula_units_Z   4
loop_
 _symmetry_equiv_pos_site_id
 _symmetry_equiv_pos_as_xyz
  1  'x, y, z'
loop_
 _atom_site_type_symbol
 _atom_site_label
 _atom_site_symmetry_multiplicity
 _atom_site_fract_x
 _atom_site_fract_y
 _atom_site_fract_z
 _atom_site_occupancy
  U  U0  1  0.00000000  0.50000000  0.76259500  1
  U  U1  1  0.00000000  0.50000000  0.23740500  1
  U  U2  1  0.00000000  0.00000000  0.73740500  1
  U  U3  1  0.00000000  0.00000000  0.26259500  1
  Mo  Mo4  1  0.91214400  0.25140400  0.58951300  1
  Mo  Mo5  1  0.91214400  0.74859600  0.41048700  1
  Mo  Mo6  1  0.08785600  0.25140400  0.41048700  1
  Mo  Mo7  1  0.08785600  0.74859600  0.58951300  1
  Mo  Mo8  1  0.08785600  0.24859600  0.91048700  1
  Mo  Mo9  1  0.08785600  0.75140400  0.08951300  1
  Mo  Mo10  1  0.91214400  0.24859600  0.08951300  1
  Mo  Mo11  1  0.91214400  0.75140400  0.91048700  1
  O  O12  1  0.00000000  0.50000000  0.12113100  1
  O  O13  1  0.00000000  0.50000000  0.87886900  1
  O  O14  1  0.00000000  0.00000000  0.37886900  1
  O  O15  1  0.00000000  0.00000000  0.62113100  1
  O  O16  1  0.00000000  0.31369700  0.00000000  1
  O  O17  1  0.00000000  0.68630300  0.00000000  1
  O  O18  1  0.00000000  0.18630300  0.50000000  1
  O  O19  1  0.00000000  0.81369700  0.50000000  1
  O  O20  1  0.50761200  0.25038500  0.40909700  1
  O  O21  1  0.50761200  0.74961500  0.59090300  1
  O  O22  1  0.49238800  0.25038500  0.59090300  1
  O  O23  1  0.49238800  0.74961500  0.40909700  1
  O  O24  1  0.49238800  0.24961500  0.09090300  1
  O  O25  1  0.49238800  0.75038500  0.90909700  1
  O  O26  1  0.50761200  0.24961500  0.90909700  1
  O  O27  1  0.50761200  0.75038500  0.09090300  1
  O  O28  1  0.00000000  0.50000000  0.42416400  1
  O  O29  1  0.00000000  0.50000000  0.57583600  1
  O  O30  1  0.00000000  0.00000000  0.07583600  1
  O  O31  1  0.00000000  0.00000000  0.92416400  1
  O  O32  1  0.50000000  0.50000000  0.23572000  1
  O  O33  1  0.50000000  0.50000000  0.76428000  1
  O  O34  1  0.50000000  0.00000000  0.26428000  1
  O  O35  1  0.50000000  0.00000000  0.73572000  1
  O  O36  1  0.99170100  0.71000800  0.31158800  1
  O  O37  1  0.99170100  0.28999200  0.68841200  1
  O  O38  1  0.00829900  0.71000800  0.68841200  1
  O  O39  1  0.00829900  0.28999200  0.31158800  1
  O  O40  1  0.00829900  0.78999200  0.18841200  1
  O  O41  1  0.00829900  0.21000800  0.81158800  1
  O  O42  1  0.99170100  0.78999200  0.81158800  1
  O  O43  1  0.99170100  0.21000800  0.18841200  1
