# generated using pymatgen
data_CeTa3O9
_symmetry_space_group_name_H-M   'P 1'
_cell_length_a   7.37260207
_cell_length_b   7.37260207
_cell_length_c   6.61783793
_cell_angle_alpha   86.70973742
_cell_angle_beta   86.70973742
_cell_angle_gamma   62.94240480
_symmetry_Int_Tables_number   1
_chemical_formula_structural   CeTa3O9
_chemical_formula_sum   'Ce2 Ta6 O18'
_cell_volume   319.61733880
_cell_formula_units_Z   2
loop_
 _symmetry_equiv_pos_site_id
 _symmetry_equiv_pos_as_xyz
  1  'x, y, z'
loop_
 _atom_site_type_symbol
 _atom_site_label
 _atom_site_symmetry_multiplicity
 _atom_site_fract_x
 _atom_site_fract_y
 _atom_site_fract_z
 _atom_site_occupancy
  Ce  Ce0  1  0.26304600  0.26304600  0.05005400  1
  Ce  Ce1  1  0.73695400  0.73695400  0.94994600  1
  Ta  Ta2  1  0.78188600  0.28396400  0.23748900  1
  Ta  Ta3  1  0.71603600  0.21811400  0.76251100  1
  Ta  Ta4  1  0.21811400  0.71603600  0.76251100  1
  Ta  Ta5  1  0.28396400  0.78188600  0.23748900  1
  Ta  Ta6  1  0.50000000  0.00000000  0.50000000  1
  Ta  Ta7  1  0.00000000  0.50000000  0.50000000  1
  O  O8  1  0.92157900  0.49245100  0.22005800  1
  O  O9  1  0.50754900  0.07842100  0.77994200  1
  O  O10  1  0.07842100  0.50754900  0.77994200  1
  O  O11  1  0.49245100  0.92157900  0.22005800  1
  O  O12  1  0.31074700  0.87262300  0.54730800  1
  O  O13  1  0.12737700  0.68925300  0.45269200  1
  O  O14  1  0.68925300  0.12737700  0.45269200  1
  O  O15  1  0.87262300  0.31074700  0.54730800  1
  O  O16  1  0.63835600  0.17954500  0.06676200  1
  O  O17  1  0.82045500  0.36164400  0.93323800  1
  O  O18  1  0.36164400  0.82045500  0.93323800  1
  O  O19  1  0.17954500  0.63835600  0.06676200  1
  O  O20  1  0.06849000  0.06849000  0.20454000  1
  O  O21  1  0.93151000  0.93151000  0.79546000  1
  O  O22  1  0.46101800  0.46101800  0.72852900  1
  O  O23  1  0.53898200  0.53898200  0.27147100  1
  O  O24  1  0.26750800  0.26750800  0.42468600  1
  O  O25  1  0.73249200  0.73249200  0.57531400  1
