# generated using pymatgen
data_Sc3IrC4
_symmetry_space_group_name_H-M   'P 1'
_cell_length_a   6.73933081
_cell_length_b   6.73933081
_cell_length_c   6.73933081
_cell_angle_alpha   150.15842017
_cell_angle_beta   141.55815618
_cell_angle_gamma   49.40981172
_symmetry_Int_Tables_number   1
_chemical_formula_structural   Sc3IrC4
_chemical_formula_sum   'Sc3 Ir1 C4'
_cell_volume   94.28580019
_cell_formula_units_Z   1
loop_
 _symmetry_equiv_pos_site_id
 _symmetry_equiv_pos_as_xyz
  1  'x, y, z'
loop_
 _atom_site_type_symbol
 _atom_site_label
 _atom_site_symmetry_multiplicity
 _atom_site_fract_x
 _atom_site_fract_y
 _atom_site_fract_z
 _atom_site_occupancy
  Sc  Sc0  1  0.50000000  0.50000000  0.00000000  1
  Sc  Sc1  1  0.80953900  0.30953900  0.50000000  1
  Sc  Sc2  1  0.19046100  0.69046100  0.50000000  1
  Ir  Ir3  1  0.00000000  0.00000000  0.00000000  1
  C  C4  1  0.20913000  0.87248300  0.33664700  1
  C  C5  1  0.79087000  0.12751700  0.66335300  1
  C  C6  1  0.46416400  0.12751700  0.33664700  1
  C  C7  1  0.53583600  0.87248300  0.66335300  1
