# generated using pymatgen
data_V2Cu3H24(OF)12
_symmetry_space_group_name_H-M   'P 1'
_cell_length_a   7.60920300
_cell_length_b   7.61330460
_cell_length_c   8.29588443
_cell_angle_alpha   91.77113934
_cell_angle_beta   90.09823163
_cell_angle_gamma   94.20481661
_symmetry_Int_Tables_number   1
_chemical_formula_structural   V2Cu3H24(OF)12
_chemical_formula_sum   'V2 Cu3 H24 O12 F12'
_cell_volume   479.06397775
_cell_formula_units_Z   1
loop_
 _symmetry_equiv_pos_site_id
 _symmetry_equiv_pos_as_xyz
  1  'x, y, z'
loop_
 _atom_site_type_symbol
 _atom_site_label
 _atom_site_symmetry_multiplicity
 _atom_site_fract_x
 _atom_site_fract_y
 _atom_site_fract_z
 _atom_site_occupancy
  V  V0  1  0.00000000  0.50000000  0.00000000  1
  V  V1  1  0.50000000  0.00000000  0.50000000  1
  Cu  Cu2  1  0.00000000  0.00000000  0.00000000  1
  Cu  Cu3  1  0.00000000  0.50000000  0.50000000  1
  Cu  Cu4  1  0.50000000  0.50000000  0.00000000  1
  H  H5  1  0.21322300  0.98769200  0.76156600  1
  H  H6  1  0.78677700  0.01230800  0.23843400  1
  H  H7  1  0.11108100  0.79548200  0.78390100  1
  H  H8  1  0.88891900  0.20451800  0.21609900  1
  H  H9  1  0.23481900  0.97664000  0.22399800  1
  H  H10  1  0.76518100  0.02336000  0.77600200  1
  H  H11  1  0.27871200  0.85394500  0.07327700  1
  H  H12  1  0.72128800  0.14605500  0.92672300  1
  H  H13  1  0.12065100  0.18348600  0.48651900  1
  H  H14  1  0.87934900  0.81651400  0.51348100  1
  H  H15  1  0.92688900  0.16410500  0.55633400  1
  H  H16  1  0.07311100  0.83589500  0.44366600  1
  H  H17  1  0.24456500  0.55186700  0.30196500  1
  H  H18  1  0.75543500  0.44813300  0.69803500  1
  H  H19  1  0.32675400  0.60804600  0.47785300  1
  H  H20  1  0.67324600  0.39195400  0.52214700  1
  H  H21  1  0.50822200  0.26340900  0.21281600  1
  H  H22  1  0.49177800  0.73659100  0.78718400  1
  H  H23  1  0.39074100  0.17081100  0.07168000  1
  H  H24  1  0.60925900  0.82918900  0.92832000  1
  H  H25  1  0.28305300  0.46302200  0.77860800  1
  H  H26  1  0.71694700  0.53697800  0.22139200  1
  H  H27  1  0.39828200  0.29248600  0.76100400  1
  H  H28  1  0.60171800  0.70751400  0.23899600  1
  O  O29  1  0.09762500  0.92562300  0.78878900  1
  O  O30  1  0.90237500  0.07437700  0.21121100  1
  O  O31  1  0.23958300  0.97153200  0.10209200  1
  O  O32  1  0.76041700  0.02846800  0.89790800  1
  O  O33  1  0.03344100  0.24647100  0.54890900  1
  O  O34  1  0.96655900  0.75352900  0.45109100  1
  O  O35  1  0.24410200  0.52107400  0.41837500  1
  O  O36  1  0.75589800  0.47892600  0.58162500  1
  O  O37  1  0.49177500  0.25824400  0.09332200  1
  O  O38  1  0.50822500  0.74175600  0.90667800  1
  O  O39  1  0.40393400  0.42179600  0.78903600  1
  O  O40  1  0.59606600  0.57820400  0.21096400  1
  F  F41  1  0.10164000  0.27941700  0.96957300  1
  F  F42  1  0.89836000  0.72058300  0.03042700  1
  F  F43  1  0.10759900  0.58135100  0.78837900  1
  F  F44  1  0.89240100  0.41864900  0.21162100  1
  F  F45  1  0.21846100  0.59623200  0.11249400  1
  F  F46  1  0.78153900  0.40376800  0.88750600  1
  F  F47  1  0.40640500  0.09317100  0.70563200  1
  F  F48  1  0.59359500  0.90682900  0.29436800  1
  F  F49  1  0.24978300  0.99163200  0.41102000  1
  F  F50  1  0.75021700  0.00836800  0.58898000  1
  F  F51  1  0.44975100  0.76486900  0.58351000  1
  F  F52  1  0.55024900  0.23513100  0.41649000  1
