# generated using pymatgen
data_BaTm2CoO5
_symmetry_space_group_name_H-M   'P 1'
_cell_length_a   5.69863900
_cell_length_b   7.04738200
_cell_length_c   12.22877900
_cell_angle_alpha   90.00000000
_cell_angle_beta   90.00000000
_cell_angle_gamma   90.00000000
_symmetry_Int_Tables_number   1
_chemical_formula_structural   BaTm2CoO5
_chemical_formula_sum   'Ba4 Tm8 Co4 O20'
_cell_volume   491.11370676
_cell_formula_units_Z   4
loop_
 _symmetry_equiv_pos_site_id
 _symmetry_equiv_pos_as_xyz
  1  'x, y, z'
loop_
 _atom_site_type_symbol
 _atom_site_label
 _atom_site_symmetry_multiplicity
 _atom_site_fract_x
 _atom_site_fract_y
 _atom_site_fract_z
 _atom_site_occupancy
  Ba  Ba0  1  0.25000000  0.92079900  0.89938500  1
  Ba  Ba1  1  0.75000000  0.07920100  0.10061500  1
  Ba  Ba2  1  0.75000000  0.42079900  0.60061500  1
  Ba  Ba3  1  0.25000000  0.57920100  0.39938500  1
  Tm  Tm4  1  0.25000000  0.11953200  0.29153300  1
  Tm  Tm5  1  0.75000000  0.88046800  0.70846700  1
  Tm  Tm6  1  0.75000000  0.61953200  0.20846700  1
  Tm  Tm7  1  0.25000000  0.38046800  0.79153300  1
  Tm  Tm8  1  0.25000000  0.40183000  0.07445800  1
  Tm  Tm9  1  0.75000000  0.59817000  0.92554200  1
  Tm  Tm10  1  0.75000000  0.90183000  0.42554200  1
  Tm  Tm11  1  0.25000000  0.09817000  0.57445800  1
  Co  Co12  1  0.25000000  0.69230100  0.65235800  1
  Co  Co13  1  0.75000000  0.30769900  0.34764200  1
  Co  Co14  1  0.75000000  0.19230100  0.84764200  1
  Co  Co15  1  0.25000000  0.80769900  0.15235800  1
  O  O16  1  0.99821800  0.16429800  0.43420200  1
  O  O17  1  0.49821800  0.83570200  0.56579800  1
  O  O18  1  0.00178200  0.66429800  0.06579800  1
  O  O19  1  0.50178200  0.33570200  0.93420200  1
  O  O20  1  0.00178200  0.83570200  0.56579800  1
  O  O21  1  0.50178200  0.16429800  0.43420200  1
  O  O22  1  0.99821800  0.33570200  0.93420200  1
  O  O23  1  0.49821800  0.66429800  0.06579800  1
  O  O24  1  0.49962600  0.36260500  0.22460600  1
  O  O25  1  0.99962600  0.63739500  0.77539400  1
  O  O26  1  0.50037400  0.86260500  0.27539400  1
  O  O27  1  0.00037400  0.13739500  0.72460600  1
  O  O28  1  0.50037400  0.63739500  0.77539400  1
  O  O29  1  0.00037400  0.36260500  0.22460600  1
  O  O30  1  0.49962600  0.13739500  0.72460600  1
  O  O31  1  0.99962600  0.86260500  0.27539400  1
  O  O32  1  0.25000000  0.07912300  0.10331700  1
  O  O33  1  0.75000000  0.92087700  0.89668300  1
  O  O34  1  0.75000000  0.57912300  0.39668300  1
  O  O35  1  0.25000000  0.42087700  0.60331700  1
