# generated using pymatgen
data_Ca3V2O8
_symmetry_space_group_name_H-M   'P 1'
_cell_length_a   7.10018852
_cell_length_b   7.10018852
_cell_length_c   7.10018867
_cell_angle_alpha   46.78191238
_cell_angle_beta   46.78191238
_cell_angle_gamma   46.78190697
_symmetry_Int_Tables_number   1
_chemical_formula_structural   Ca3V2O8
_chemical_formula_sum   'Ca3 V2 O8'
_cell_volume   173.68430976
_cell_formula_units_Z   1
loop_
 _symmetry_equiv_pos_site_id
 _symmetry_equiv_pos_as_xyz
  1  'x, y, z'
loop_
 _atom_site_type_symbol
 _atom_site_label
 _atom_site_symmetry_multiplicity
 _atom_site_fract_x
 _atom_site_fract_y
 _atom_site_fract_z
 _atom_site_occupancy
  Ca  Ca0  1  0.00000000  0.00000000  0.00000000  1
  Ca  Ca1  1  0.80478800  0.80478800  0.80478800  1
  Ca  Ca2  1  0.19521200  0.19521200  0.19521200  1
  V  V3  1  0.59623500  0.59623500  0.59623500  1
  V  V4  1  0.40376500  0.40376500  0.40376500  1
  O  O5  1  0.73705600  0.73705600  0.22641500  1
  O  O6  1  0.26294400  0.26294400  0.77358500  1
  O  O7  1  0.68656600  0.68656600  0.68656600  1
  O  O8  1  0.31343400  0.31343400  0.31343400  1
  O  O9  1  0.77358500  0.26294400  0.26294400  1
  O  O10  1  0.73705600  0.22641500  0.73705600  1
  O  O11  1  0.22641500  0.73705600  0.73705600  1
  O  O12  1  0.26294400  0.77358500  0.26294400  1
