# generated using pymatgen
data_Dy3Ge5
_symmetry_space_group_name_H-M   'P 1'
_cell_length_a   11.09534702
_cell_length_b   9.16798241
_cell_length_c   7.46639316
_cell_angle_alpha   82.99668557
_cell_angle_beta   55.09739476
_cell_angle_gamma   41.90591967
_symmetry_Int_Tables_number   1
_chemical_formula_structural   Dy3Ge5
_chemical_formula_sum   'Dy6 Ge10'
_cell_volume   346.12248417
_cell_formula_units_Z   2
loop_
 _symmetry_equiv_pos_site_id
 _symmetry_equiv_pos_as_xyz
  1  'x, y, z'
loop_
 _atom_site_type_symbol
 _atom_site_label
 _atom_site_symmetry_multiplicity
 _atom_site_fract_x
 _atom_site_fract_y
 _atom_site_fract_z
 _atom_site_occupancy
  Dy  Dy0  1  0.99623700  0.00376300  0.99623700  1
  Dy  Dy1  1  0.24623700  0.25376300  0.24623700  1
  Dy  Dy2  1  0.93952700  0.89564100  0.56753600  1
  Dy  Dy3  1  0.56753600  0.59729600  0.93952700  1
  Dy  Dy4  1  0.65270400  0.68246400  0.35435900  1
  Dy  Dy5  1  0.35435900  0.31047300  0.65270400  1
  Ge  Ge6  1  0.44154100  0.55845900  0.44154100  1
  Ge  Ge7  1  0.69154100  0.80845900  0.69154100  1
  Ge  Ge8  1  0.40289100  0.47044900  0.89652300  1
  Ge  Ge9  1  0.89652300  0.23013800  0.40289100  1
  Ge  Ge10  1  0.01986200  0.35347700  0.77955100  1
  Ge  Ge11  1  0.77955100  0.84710900  0.01986200  1
  Ge  Ge12  1  0.50042100  0.32502600  0.16518200  1
  Ge  Ge13  1  0.16518200  0.00937200  0.50042100  1
  Ge  Ge14  1  0.24062800  0.08481800  0.92497400  1
  Ge  Ge15  1  0.92497400  0.74957900  0.24062800  1
