# generated using pymatgen
data_Ba2AgHg
_symmetry_space_group_name_H-M   'P 1'
_cell_length_a   13.64729018
_cell_length_b   13.64729018
_cell_length_c   13.64729018
_cell_angle_alpha   120.71788957
_cell_angle_beta   117.82486891
_cell_angle_gamma   91.28456955
_symmetry_Int_Tables_number   1
_chemical_formula_structural   Ba2AgHg
_chemical_formula_sum   'Ba2 Ag1 Hg1'
_cell_volume   1815.20675536
_cell_formula_units_Z   1
loop_
 _symmetry_equiv_pos_site_id
 _symmetry_equiv_pos_as_xyz
  1  'x, y, z'
loop_
 _atom_site_type_symbol
 _atom_site_label
 _atom_site_symmetry_multiplicity
 _atom_site_fract_x
 _atom_site_fract_y
 _atom_site_fract_z
 _atom_site_occupancy
  Ba  Ba0  1  0.76454300  0.00000000  0.76454300  1
  Ba  Ba1  1  0.23545700  0.00000000  0.23545700  1
  Ag  Ag2  1  0.00000000  0.00000000  0.00000000  1
  Hg  Hg3  1  0.50000000  0.00000000  0.50000000  1
