# generated using pymatgen
data_Ca2MnFeO5
_symmetry_space_group_name_H-M   'P 1'
_cell_length_a   5.43713900
_cell_length_b   5.64741100
_cell_length_c   15.14717100
_cell_angle_alpha   90.00000000
_cell_angle_beta   90.00000000
_cell_angle_gamma   90.00000000
_symmetry_Int_Tables_number   1
_chemical_formula_structural   Ca2MnFeO5
_chemical_formula_sum   'Ca8 Mn4 Fe4 O20'
_cell_volume   465.10537616
_cell_formula_units_Z   4
loop_
 _symmetry_equiv_pos_site_id
 _symmetry_equiv_pos_as_xyz
  1  'x, y, z'
loop_
 _atom_site_type_symbol
 _atom_site_label
 _atom_site_symmetry_multiplicity
 _atom_site_fract_x
 _atom_site_fract_y
 _atom_site_fract_z
 _atom_site_occupancy
  Ca  Ca0  1  0.01955800  0.52674400  0.10854900  1
  Ca  Ca1  1  0.51955800  0.97325600  0.39145100  1
  Ca  Ca2  1  0.48044200  0.02674400  0.89145100  1
  Ca  Ca3  1  0.98044200  0.47325600  0.60854900  1
  Ca  Ca4  1  0.98044200  0.47325600  0.89145100  1
  Ca  Ca5  1  0.48044200  0.02674400  0.60854900  1
  Ca  Ca6  1  0.51955800  0.97325600  0.10854900  1
  Ca  Ca7  1  0.01955800  0.52674400  0.39145100  1
  Mn  Mn8  1  0.00000000  0.00000000  0.00000000  1
  Mn  Mn9  1  0.50000000  0.50000000  0.50000000  1
  Mn  Mn10  1  0.50000000  0.50000000  0.00000000  1
  Mn  Mn11  1  0.00000000  0.00000000  0.50000000  1
  Fe  Fe12  1  0.05223400  0.06651900  0.25000000  1
  Fe  Fe13  1  0.55223400  0.43348100  0.25000000  1
  Fe  Fe14  1  0.44776600  0.56651900  0.75000000  1
  Fe  Fe15  1  0.94776600  0.93348100  0.75000000  1
  O  O16  1  0.74309500  0.76423900  0.98433600  1
  O  O17  1  0.24309500  0.73576100  0.51566400  1
  O  O18  1  0.75690500  0.26423900  0.01566400  1
  O  O19  1  0.25690500  0.23576100  0.48433600  1
  O  O20  1  0.25690500  0.23576100  0.01566400  1
  O  O21  1  0.75690500  0.26423900  0.48433600  1
  O  O22  1  0.24309500  0.73576100  0.98433600  1
  O  O23  1  0.74309500  0.76423900  0.51566400  1
  O  O24  1  0.96805100  0.92530700  0.14273000  1
  O  O25  1  0.46805100  0.57469300  0.35727000  1
  O  O26  1  0.53194900  0.42530700  0.85727000  1
  O  O27  1  0.03194900  0.07469300  0.64273000  1
  O  O28  1  0.03194900  0.07469300  0.85727000  1
  O  O29  1  0.53194900  0.42530700  0.64273000  1
  O  O30  1  0.46805100  0.57469300  0.14273000  1
  O  O31  1  0.96805100  0.92530700  0.35727000  1
  O  O32  1  0.91029900  0.38321900  0.25000000  1
  O  O33  1  0.41029900  0.11678100  0.25000000  1
  O  O34  1  0.58970100  0.88321900  0.75000000  1
  O  O35  1  0.08970100  0.61678100  0.75000000  1
