data_image0
_chemical_formula_structural       CrRh2Se4
_chemical_formula_sum              "Cr1 Rh2 Se4"
_cell_length_a       3.68333
_cell_length_b       6.4993
_cell_length_c       6.59489
_cell_angle_alpha    118
_cell_angle_beta     106.216
_cell_angle_gamma    90

_space_group_name_H-M_alt    "P 1"
_space_group_IT_number       1

loop_
  _space_group_symop_operation_xyz
  'x, y, z'

loop_
  _atom_site_type_symbol
  _atom_site_label
  _atom_site_symmetry_multiplicity
  _atom_site_fract_x
  _atom_site_fract_y
  _atom_site_fract_z
  _atom_site_occupancy
  Cr  Cr1       1.0  0.00000  0.00000  0.00000  1.0000
  Rh  Rh1       1.0  0.74000  0.72400  0.48000  1.0000
  Rh  Rh2       1.0  0.26000  0.27600  0.52000  1.0000
  Se  Se1       1.0  0.12600  0.45600  0.25100  1.0000
  Se  Se2       1.0  0.63100  0.96800  0.26200  1.0000
  Se  Se3       1.0  0.36900  0.03190  0.73800  1.0000
  Se  Se4       1.0  0.87400  0.54400  0.74900  1.0000
