# generated using pymatgen
data_ZrMnRh2
_symmetry_space_group_name_H-M   'P 1'
_cell_length_a   10.68753439
_cell_length_b   10.68753439
_cell_length_c   10.68753439
_cell_angle_alpha   126.94404873
_cell_angle_beta   117.78727387
_cell_angle_gamma   86.14538456
_symmetry_Int_Tables_number   1
_chemical_formula_structural   ZrMnRh2
_chemical_formula_sum   'Zr1 Mn1 Rh2'
_cell_volume   823.06918560
_cell_formula_units_Z   1
loop_
 _symmetry_equiv_pos_site_id
 _symmetry_equiv_pos_as_xyz
  1  'x, y, z'
loop_
 _atom_site_type_symbol
 _atom_site_label
 _atom_site_symmetry_multiplicity
 _atom_site_fract_x
 _atom_site_fract_y
 _atom_site_fract_z
 _atom_site_occupancy
  Zr  Zr0  1  0.00000000  0.50000000  0.50000000  1
  Mn  Mn1  1  0.00000000  0.00000000  0.00000000  1
  Rh  Rh2  1  0.00000000  0.26685100  0.26685100  1
  Rh  Rh3  1  0.00000000  0.73314900  0.73314900  1
