# generated using pymatgen
data_VMoW2
_symmetry_space_group_name_H-M   'P 1'
_cell_length_a   12.61200190
_cell_length_b   12.61200190
_cell_length_c   12.61200190
_cell_angle_alpha   136.96382829
_cell_angle_beta   130.19635855
_cell_angle_gamma   67.89332865
_symmetry_Int_Tables_number   1
_chemical_formula_structural   VMoW2
_chemical_formula_sum   'V1 Mo1 W2'
_cell_volume   1028.08911651
_cell_formula_units_Z   1
loop_
 _symmetry_equiv_pos_site_id
 _symmetry_equiv_pos_as_xyz
  1  'x, y, z'
loop_
 _atom_site_type_symbol
 _atom_site_label
 _atom_site_symmetry_multiplicity
 _atom_site_fract_x
 _atom_site_fract_y
 _atom_site_fract_z
 _atom_site_occupancy
  V  V0  1  0.00000000  0.00000000  0.00000000  1
  Mo  Mo1  1  0.00000000  0.50000000  0.50000000  1
  W  W2  1  0.00000000  0.25578500  0.25578500  1
  W  W3  1  0.00000000  0.74421500  0.74421500  1
