# generated using pymatgen
data_Dy2In16Pt7
_symmetry_space_group_name_H-M   'P 1'
_cell_length_a   11.94626850
_cell_length_b   11.94626850
_cell_length_c   4.43649400
_cell_angle_alpha   90.00000000
_cell_angle_beta   90.00000000
_cell_angle_gamma   117.62381464
_symmetry_Int_Tables_number   1
_chemical_formula_structural   Dy2In16Pt7
_chemical_formula_sum   'Dy2 In16 Pt7'
_cell_volume   560.97502196
_cell_formula_units_Z   1
loop_
 _symmetry_equiv_pos_site_id
 _symmetry_equiv_pos_as_xyz
  1  'x, y, z'
loop_
 _atom_site_type_symbol
 _atom_site_label
 _atom_site_symmetry_multiplicity
 _atom_site_fract_x
 _atom_site_fract_y
 _atom_site_fract_z
 _atom_site_occupancy
  Dy  Dy0  1  0.17133500  0.17133500  0.50000000  1
  Dy  Dy1  1  0.82866500  0.82866500  0.50000000  1
  In  In2  1  0.36793600  0.36793600  0.00000000  1
  In  In3  1  0.63206400  0.63206400  0.00000000  1
  In  In4  1  0.48290800  0.25723900  0.50000000  1
  In  In5  1  0.51709200  0.74276100  0.50000000  1
  In  In6  1  0.25723900  0.48290800  0.50000000  1
  In  In7  1  0.74276100  0.51709200  0.50000000  1
  In  In8  1  0.58656700  0.14106900  0.00000000  1
  In  In9  1  0.41343300  0.85893100  0.00000000  1
  In  In10  1  0.14106900  0.58656700  0.00000000  1
  In  In11  1  0.85893100  0.41343300  0.00000000  1
  In  In12  1  0.71273000  0.03873700  0.50000000  1
  In  In13  1  0.28727000  0.96126300  0.50000000  1
  In  In14  1  0.03873700  0.71273000  0.50000000  1
  In  In15  1  0.96126300  0.28727000  0.50000000  1
  In  In16  1  0.07302500  0.92697500  0.00000000  1
  In  In17  1  0.92697500  0.07302500  0.00000000  1
  Pt  Pt18  1  0.50000000  0.50000000  0.50000000  1
  Pt  Pt19  1  0.72402800  0.27597200  0.50000000  1
  Pt  Pt20  1  0.27597200  0.72402800  0.50000000  1
  Pt  Pt21  1  0.33065800  0.11629900  0.00000000  1
  Pt  Pt22  1  0.66934200  0.88370100  0.00000000  1
  Pt  Pt23  1  0.11629900  0.33065800  0.00000000  1
  Pt  Pt24  1  0.88370100  0.66934200  0.00000000  1
