# generated using pymatgen
data_Si3Ru4
_symmetry_space_group_name_H-M   'P 1'
_cell_length_a   4.03416700
_cell_length_b   5.23473400
_cell_length_c   17.33926700
_cell_angle_alpha   90.00000000
_cell_angle_beta   90.00000000
_cell_angle_gamma   90.00000000
_symmetry_Int_Tables_number   1
_chemical_formula_structural   Si3Ru4
_chemical_formula_sum   'Si12 Ru16'
_cell_volume   366.16701931
_cell_formula_units_Z   4
loop_
 _symmetry_equiv_pos_site_id
 _symmetry_equiv_pos_as_xyz
  1  'x, y, z'
loop_
 _atom_site_type_symbol
 _atom_site_label
 _atom_site_symmetry_multiplicity
 _atom_site_fract_x
 _atom_site_fract_y
 _atom_site_fract_z
 _atom_site_occupancy
  Si  Si0  1  0.75000000  0.49696100  0.10355400  1
  Si  Si1  1  0.25000000  0.50303900  0.89644600  1
  Si  Si2  1  0.75000000  0.99696100  0.39644600  1
  Si  Si3  1  0.25000000  0.00303900  0.60355400  1
  Si  Si4  1  0.75000000  0.35021500  0.53398300  1
  Si  Si5  1  0.25000000  0.64978500  0.46601700  1
  Si  Si6  1  0.75000000  0.85021500  0.96601700  1
  Si  Si7  1  0.25000000  0.14978500  0.03398300  1
  Si  Si8  1  0.75000000  0.12072600  0.80901900  1
  Si  Si9  1  0.25000000  0.87927400  0.19098100  1
  Si  Si10  1  0.75000000  0.62072600  0.69098100  1
  Si  Si11  1  0.25000000  0.37927400  0.30901900  1
  Ru  Ru12  1  0.75000000  0.15462800  0.26434400  1
  Ru  Ru13  1  0.25000000  0.84537200  0.73565600  1
  Ru  Ru14  1  0.75000000  0.65462800  0.23565600  1
  Ru  Ru15  1  0.25000000  0.34537200  0.76434400  1
  Ru  Ru16  1  0.75000000  0.48958300  0.39299600  1
  Ru  Ru17  1  0.25000000  0.51041700  0.60700400  1
  Ru  Ru18  1  0.75000000  0.98958300  0.10700400  1
  Ru  Ru19  1  0.25000000  0.01041700  0.89299600  1
  Ru  Ru20  1  0.75000000  0.32609500  0.97116100  1
  Ru  Ru21  1  0.25000000  0.67390500  0.02883900  1
  Ru  Ru22  1  0.75000000  0.82609500  0.52883900  1
  Ru  Ru23  1  0.25000000  0.17390500  0.47116100  1
  Ru  Ru24  1  0.75000000  0.15848200  0.66352700  1
  Ru  Ru25  1  0.25000000  0.84151800  0.33647300  1
  Ru  Ru26  1  0.75000000  0.65848200  0.83647300  1
  Ru  Ru27  1  0.25000000  0.34151800  0.16352700  1
