# generated using pymatgen
data_BeVIr2
_symmetry_space_group_name_H-M   'P 1'
_cell_length_a   9.69141770
_cell_length_b   9.69141770
_cell_length_c   9.69141770
_cell_angle_alpha   126.96295517
_cell_angle_beta   117.79058557
_cell_angle_gamma   86.12730513
_symmetry_Int_Tables_number   1
_chemical_formula_structural   BeVIr2
_chemical_formula_sum   'Be1 V1 Ir2'
_cell_volume   613.57178519
_cell_formula_units_Z   1
loop_
 _symmetry_equiv_pos_site_id
 _symmetry_equiv_pos_as_xyz
  1  'x, y, z'
loop_
 _atom_site_type_symbol
 _atom_site_label
 _atom_site_symmetry_multiplicity
 _atom_site_fract_x
 _atom_site_fract_y
 _atom_site_fract_z
 _atom_site_occupancy
  Be  Be0  1  0.00000000  0.00000000  0.00000000  1
  V  V1  1  0.00000000  0.50000000  0.50000000  1
  Ir  Ir2  1  0.00000000  0.26231100  0.26231100  1
  Ir  Ir3  1  0.00000000  0.73768900  0.73768900  1
