# generated using pymatgen
data_CaZnF4
_symmetry_space_group_name_H-M   'P 1'
_cell_length_a   6.76691562
_cell_length_b   6.76691562
_cell_length_c   6.76691562
_cell_angle_alpha   133.41111846
_cell_angle_beta   133.41111846
_cell_angle_gamma   68.00924483
_symmetry_Int_Tables_number   1
_chemical_formula_structural   CaZnF4
_chemical_formula_sum   'Ca2 Zn2 F8'
_cell_volume   160.68674030
_cell_formula_units_Z   2
loop_
 _symmetry_equiv_pos_site_id
 _symmetry_equiv_pos_as_xyz
  1  'x, y, z'
loop_
 _atom_site_type_symbol
 _atom_site_label
 _atom_site_symmetry_multiplicity
 _atom_site_fract_x
 _atom_site_fract_y
 _atom_site_fract_z
 _atom_site_occupancy
  Ca  Ca0  1  0.25000000  0.75000000  0.50000000  1
  Ca  Ca1  1  0.50000000  0.50000000  0.00000000  1
  Zn  Zn2  1  0.75000000  0.25000000  0.50000000  1
  Zn  Zn3  1  0.00000000  0.00000000  0.00000000  1
  F  F4  1  0.10096400  0.51362800  0.94002300  1
  F  F5  1  0.91094100  0.35096400  0.08733600  1
  F  F6  1  0.26362800  0.82360500  0.91266400  1
  F  F7  1  0.57360500  0.16094100  0.05997700  1
  F  F8  1  0.17639500  0.08905900  0.44002300  1
  F  F9  1  0.48637200  0.42639500  0.58733600  1
  F  F10  1  0.83905900  0.89903600  0.41266400  1
  F  F11  1  0.64903600  0.73637200  0.55997700  1
