# generated using pymatgen
data_NaVBP2H3O10
_symmetry_space_group_name_H-M   'P 1'
_cell_length_a   6.73043801
_cell_length_b   6.73043801
_cell_length_c   9.28061230
_cell_angle_alpha   69.99879815
_cell_angle_beta   69.99879815
_cell_angle_gamma   77.19427150
_symmetry_Int_Tables_number   1
_chemical_formula_structural   NaVBP2H3O10
_chemical_formula_sum   'Na2 V2 B2 P4 H6 O20'
_cell_volume   368.60087855
_cell_formula_units_Z   2
loop_
 _symmetry_equiv_pos_site_id
 _symmetry_equiv_pos_as_xyz
  1  'x, y, z'
loop_
 _atom_site_type_symbol
 _atom_site_label
 _atom_site_symmetry_multiplicity
 _atom_site_fract_x
 _atom_site_fract_y
 _atom_site_fract_z
 _atom_site_occupancy
  Na  Na0  1  0.36980100  0.63019900  0.25000000  1
  Na  Na1  1  0.63019900  0.36980100  0.75000000  1
  V  V2  1  0.00000000  0.50000000  0.00000000  1
  V  V3  1  0.50000000  0.00000000  0.50000000  1
  B  B4  1  0.02761700  0.97238300  0.75000000  1
  B  B5  1  0.97238300  0.02761700  0.25000000  1
  P  P6  1  0.20829200  0.34537300  0.67681800  1
  P  P7  1  0.65462700  0.79170800  0.82318200  1
  P  P8  1  0.79170800  0.65462700  0.32318200  1
  P  P9  1  0.34537300  0.20829200  0.17681800  1
  H  H10  1  0.18734300  0.84048900  0.92407400  1
  H  H11  1  0.15951100  0.81265700  0.57592600  1
  H  H12  1  0.81265700  0.15951100  0.07592600  1
  H  H13  1  0.84048900  0.18734300  0.42407400  1
  H  H14  1  0.00000000  0.50000000  0.50000000  1
  H  H15  1  0.50000000  0.00000000  0.00000000  1
  O  O16  1  0.06662800  0.81502000  0.89830800  1
  O  O17  1  0.18498000  0.93337200  0.60169200  1
  O  O18  1  0.93337200  0.18498000  0.10169200  1
  O  O19  1  0.81502000  0.06662800  0.39830800  1
  O  O20  1  0.22084600  0.42946600  0.80746600  1
  O  O21  1  0.57053400  0.77915400  0.69253400  1
  O  O22  1  0.77915400  0.57053400  0.19253400  1
  O  O23  1  0.42946600  0.22084600  0.30746600  1
  O  O24  1  0.03185900  0.19001000  0.75016600  1
  O  O25  1  0.80999000  0.96814100  0.74983400  1
  O  O26  1  0.96814100  0.80999000  0.24983400  1
  O  O27  1  0.19001000  0.03185900  0.25016600  1
  O  O28  1  0.77014900  0.57148000  0.88812800  1
  O  O29  1  0.42852000  0.22985100  0.61187200  1
  O  O30  1  0.22985100  0.42852000  0.11187200  1
  O  O31  1  0.57148000  0.77014900  0.38812800  1
  O  O32  1  0.13809400  0.53326700  0.54247300  1
  O  O33  1  0.46673300  0.86190600  0.95752700  1
  O  O34  1  0.86190600  0.46673300  0.45752700  1
  O  O35  1  0.53326700  0.13809400  0.04247300  1
