data_image0
_chemical_formula_structural       La2Mg4Pd2
_chemical_formula_sum              "La2 Mg4 Pd2"
_cell_length_a       4.32185
_cell_length_b       5.68784
_cell_length_c       8.3337
_cell_angle_alpha    90
_cell_angle_beta     90
_cell_angle_gamma    67.6713

_space_group_name_H-M_alt    "P 1"
_space_group_IT_number       1

loop_
  _space_group_symop_operation_xyz
  'x, y, z'

loop_
  _atom_site_type_symbol
  _atom_site_label
  _atom_site_symmetry_multiplicity
  _atom_site_fract_x
  _atom_site_fract_y
  _atom_site_fract_z
  _atom_site_occupancy
  La  La1       1.0  0.56100  0.87800  0.25000  1.0000
  La  La2       1.0  0.43900  0.12200  0.75000  1.0000
  Mg  Mg1       1.0  0.84800  0.30400  0.05420  1.0000
  Mg  Mg2       1.0  0.84800  0.30400  0.44600  1.0000
  Mg  Mg3       1.0  0.15200  0.69600  0.55400  1.0000
  Mg  Mg4       1.0  0.15200  0.69600  0.94600  1.0000
  Pd  Pd1       1.0  0.27600  0.44800  0.25000  1.0000
  Pd  Pd2       1.0  0.72400  0.55200  0.75000  1.0000
