# generated using pymatgen
data_NaCu5C6
_symmetry_space_group_name_H-M   'P 1'
_cell_length_a   7.21222500
_cell_length_b   7.37401500
_cell_length_c   10.88064600
_cell_angle_alpha   90.00000000
_cell_angle_beta   90.00000000
_cell_angle_gamma   90.00000000
_symmetry_Int_Tables_number   1
_chemical_formula_structural   NaCu5C6
_chemical_formula_sum   'Na4 Cu20 C24'
_cell_volume   578.66599828
_cell_formula_units_Z   4
loop_
 _symmetry_equiv_pos_site_id
 _symmetry_equiv_pos_as_xyz
  1  'x, y, z'
loop_
 _atom_site_type_symbol
 _atom_site_label
 _atom_site_symmetry_multiplicity
 _atom_site_fract_x
 _atom_site_fract_y
 _atom_site_fract_z
 _atom_site_occupancy
  Na  Na0  1  0.32132800  0.05984400  0.75000000  1
  Na  Na1  1  0.82132800  0.44015600  0.25000000  1
  Na  Na2  1  0.17867200  0.55984400  0.75000000  1
  Na  Na3  1  0.67867200  0.94015600  0.25000000  1
  Cu  Cu4  1  0.07370000  0.09873900  0.25000000  1
  Cu  Cu5  1  0.57370000  0.40126100  0.75000000  1
  Cu  Cu6  1  0.42630000  0.59873900  0.25000000  1
  Cu  Cu7  1  0.92630000  0.90126100  0.75000000  1
  Cu  Cu8  1  0.18307000  0.05209900  0.46113000  1
  Cu  Cu9  1  0.68307000  0.44790100  0.53887000  1
  Cu  Cu10  1  0.31693000  0.55209900  0.03887000  1
  Cu  Cu11  1  0.81693000  0.94790100  0.96113000  1
  Cu  Cu12  1  0.81693000  0.94790100  0.53887000  1
  Cu  Cu13  1  0.31693000  0.55209900  0.46113000  1
  Cu  Cu14  1  0.68307000  0.44790100  0.96113000  1
  Cu  Cu15  1  0.18307000  0.05209900  0.03887000  1
  Cu  Cu16  1  0.49096800  0.19522800  0.44817900  1
  Cu  Cu17  1  0.99096800  0.30477200  0.55182100  1
  Cu  Cu18  1  0.00903200  0.69522800  0.05182100  1
  Cu  Cu19  1  0.50903200  0.80477200  0.94817900  1
  Cu  Cu20  1  0.50903200  0.80477200  0.55182100  1
  Cu  Cu21  1  0.00903200  0.69522800  0.44817900  1
  Cu  Cu22  1  0.99096800  0.30477200  0.94817900  1
  Cu  Cu23  1  0.49096800  0.19522800  0.05182100  1
  C  C24  1  0.76013500  0.19640500  0.06197300  1
  C  C25  1  0.26013500  0.30359500  0.93802700  1
  C  C26  1  0.73986500  0.69640500  0.43802700  1
  C  C27  1  0.23986500  0.80359500  0.56197300  1
  C  C28  1  0.23986500  0.80359500  0.93802700  1
  C  C29  1  0.73986500  0.69640500  0.06197300  1
  C  C30  1  0.26013500  0.30359500  0.56197300  1
  C  C31  1  0.76013500  0.19640500  0.43802700  1
  C  C32  1  0.91729700  0.13889700  0.10586900  1
  C  C33  1  0.41729700  0.36110300  0.89413100  1
  C  C34  1  0.58270300  0.63889700  0.39413100  1
  C  C35  1  0.08270300  0.86110300  0.60586900  1
  C  C36  1  0.08270300  0.86110300  0.89413100  1
  C  C37  1  0.58270300  0.63889700  0.10586900  1
  C  C38  1  0.41729700  0.36110300  0.60586900  1
  C  C39  1  0.91729700  0.13889700  0.39413100  1
  C  C40  1  0.35368200  0.08541800  0.19086200  1
  C  C41  1  0.85368200  0.41458200  0.80913800  1
  C  C42  1  0.14631800  0.58541800  0.30913800  1
  C  C43  1  0.64631800  0.91458200  0.69086200  1
  C  C44  1  0.64631800  0.91458200  0.80913800  1
  C  C45  1  0.14631800  0.58541800  0.19086200  1
  C  C46  1  0.85368200  0.41458200  0.69086200  1
  C  C47  1  0.35368200  0.08541800  0.30913800  1
