# generated using pymatgen
data_LaMg2Ni9
_symmetry_space_group_name_H-M   'P 1'
_cell_length_a   8.39359318
_cell_length_b   8.39359318
_cell_length_c   8.39359279
_cell_angle_alpha   33.92086253
_cell_angle_beta   33.92086253
_cell_angle_gamma   33.92085977
_symmetry_Int_Tables_number   1
_chemical_formula_structural   LaMg2Ni9
_chemical_formula_sum   'La1 Mg2 Ni9'
_cell_volume   164.13061024
_cell_formula_units_Z   1
loop_
 _symmetry_equiv_pos_site_id
 _symmetry_equiv_pos_as_xyz
  1  'x, y, z'
loop_
 _atom_site_type_symbol
 _atom_site_label
 _atom_site_symmetry_multiplicity
 _atom_site_fract_x
 _atom_site_fract_y
 _atom_site_fract_z
 _atom_site_occupancy
  La  La0  1  0.00000000  0.00000000  0.00000000  1
  Mg  Mg1  1  0.85506600  0.85506600  0.85506600  1
  Mg  Mg2  1  0.14493400  0.14493400  0.14493400  1
  Ni  Ni3  1  0.58699800  0.08279300  0.58699800  1
  Ni  Ni4  1  0.08279300  0.58699800  0.58699800  1
  Ni  Ni5  1  0.58699800  0.58699800  0.08279300  1
  Ni  Ni6  1  0.41300200  0.91720700  0.41300200  1
  Ni  Ni7  1  0.91720700  0.41300200  0.41300200  1
  Ni  Ni8  1  0.33351200  0.33351200  0.33351200  1
  Ni  Ni9  1  0.41300200  0.41300200  0.91720700  1
  Ni  Ni10  1  0.50000000  0.50000000  0.50000000  1
  Ni  Ni11  1  0.66648800  0.66648800  0.66648800  1
