# generated using pymatgen
data_ScNiSn
_symmetry_space_group_name_H-M   'P 1'
_cell_length_a   4.36737400
_cell_length_b   6.66807900
_cell_length_c   7.53292500
_cell_angle_alpha   90.00000000
_cell_angle_beta   90.00000000
_cell_angle_gamma   90.00000000
_symmetry_Int_Tables_number   1
_chemical_formula_structural   ScNiSn
_chemical_formula_sum   'Sc4 Ni4 Sn4'
_cell_volume   219.37380309
_cell_formula_units_Z   4
loop_
 _symmetry_equiv_pos_site_id
 _symmetry_equiv_pos_as_xyz
  1  'x, y, z'
loop_
 _atom_site_type_symbol
 _atom_site_label
 _atom_site_symmetry_multiplicity
 _atom_site_fract_x
 _atom_site_fract_y
 _atom_site_fract_z
 _atom_site_occupancy
  Sc  Sc0  1  0.75000000  0.98932800  0.70836600  1
  Sc  Sc1  1  0.25000000  0.01067200  0.29163400  1
  Sc  Sc2  1  0.75000000  0.48932800  0.79163400  1
  Sc  Sc3  1  0.25000000  0.51067200  0.20836600  1
  Ni  Ni4  1  0.75000000  0.70876600  0.41611700  1
  Ni  Ni5  1  0.25000000  0.29123400  0.58388300  1
  Ni  Ni6  1  0.75000000  0.20876600  0.08388300  1
  Ni  Ni7  1  0.25000000  0.79123400  0.91611700  1
  Sn  Sn8  1  0.75000000  0.80177000  0.08707700  1
  Sn  Sn9  1  0.25000000  0.19823000  0.91292300  1
  Sn  Sn10  1  0.75000000  0.30177000  0.41292300  1
  Sn  Sn11  1  0.25000000  0.69823000  0.58707700  1
