# generated using pymatgen
data_CrReW2
_symmetry_space_group_name_H-M   'P 1'
_cell_length_a   10.70871639
_cell_length_b   10.70871639
_cell_length_c   10.70871639
_cell_angle_alpha   121.82983875
_cell_angle_beta   119.39329775
_cell_angle_gamma   88.95714928
_symmetry_Int_Tables_number   1
_chemical_formula_structural   CrReW2
_chemical_formula_sum   'Cr1 Re1 W2'
_cell_volume   859.67613210
_cell_formula_units_Z   1
loop_
 _symmetry_equiv_pos_site_id
 _symmetry_equiv_pos_as_xyz
  1  'x, y, z'
loop_
 _atom_site_type_symbol
 _atom_site_label
 _atom_site_symmetry_multiplicity
 _atom_site_fract_x
 _atom_site_fract_y
 _atom_site_fract_z
 _atom_site_occupancy
  Cr  Cr0  1  0.00000000  0.00000000  0.00000000  1
  Re  Re1  1  0.00000000  0.50000000  0.50000000  1
  W  W2  1  0.00000000  0.27697400  0.27697400  1
  W  W3  1  0.00000000  0.72302600  0.72302600  1
