# generated using pymatgen
data_FeP(H2O3)2
_symmetry_space_group_name_H-M   'P 1'
_cell_length_a   9.92120000
_cell_length_b   5.36373400
_cell_length_c   10.30067895
_cell_angle_alpha   59.06278090
_cell_angle_beta   90.00000000
_cell_angle_gamma   90.00000000
_symmetry_Int_Tables_number   1
_chemical_formula_structural   FeP(H2O3)2
_chemical_formula_sum   'Fe4 P4 H16 O24'
_cell_volume   470.16301274
_cell_formula_units_Z   4
loop_
 _symmetry_equiv_pos_site_id
 _symmetry_equiv_pos_as_xyz
  1  'x, y, z'
loop_
 _atom_site_type_symbol
 _atom_site_label
 _atom_site_symmetry_multiplicity
 _atom_site_fract_x
 _atom_site_fract_y
 _atom_site_fract_z
 _atom_site_occupancy
  Fe  Fe0  1  0.82638700  0.90161800  0.19074000  1
  Fe  Fe1  1  0.32638700  0.09838200  0.30926000  1
  Fe  Fe2  1  0.17361300  0.09838200  0.80926000  1
  Fe  Fe3  1  0.67361300  0.90161800  0.69074000  1
  P  P4  1  0.14909600  0.72713300  0.18449700  1
  P  P5  1  0.64909600  0.27286700  0.31550300  1
  P  P6  1  0.85090400  0.27286700  0.81550300  1
  P  P7  1  0.35090400  0.72713300  0.68449700  1
  H  H8  1  0.44940900  0.59770400  0.32790500  1
  H  H9  1  0.94940900  0.40229600  0.17209500  1
  H  H10  1  0.55059100  0.40229600  0.67209500  1
  H  H11  1  0.05059100  0.59770400  0.82790500  1
  H  H12  1  0.33137000  0.25593300  0.01221900  1
  H  H13  1  0.83137000  0.74406700  0.48778100  1
  H  H14  1  0.66863000  0.74406700  0.98778100  1
  H  H15  1  0.16863000  0.25593300  0.51221900  1
  H  H16  1  0.54427000  0.87714500  0.28248900  1
  H  H17  1  0.04427000  0.12285500  0.21751100  1
  H  H18  1  0.45573000  0.12285500  0.71751100  1
  H  H19  1  0.95573000  0.87714500  0.78248900  1
  H  H20  1  0.34763800  0.54225200  0.01761700  1
  H  H21  1  0.84763800  0.45774800  0.48238300  1
  H  H22  1  0.65236200  0.45774800  0.98238300  1
  H  H23  1  0.15236200  0.54225200  0.51761700  1
  O  O24  1  0.70629000  0.58331400  0.21649700  1
  O  O25  1  0.20629000  0.41668600  0.28350300  1
  O  O26  1  0.29371000  0.41668600  0.78350300  1
  O  O27  1  0.79371000  0.58331400  0.71649700  1
  O  O28  1  0.99380100  0.70909700  0.16860600  1
  O  O29  1  0.49380100  0.29090300  0.33139400  1
  O  O30  1  0.00619900  0.29090300  0.83139400  1
  O  O31  1  0.50619900  0.70909700  0.66860600  1
  O  O32  1  0.67412400  0.10021700  0.23343200  1
  O  O33  1  0.17412400  0.89978300  0.26656800  1
  O  O34  1  0.32587600  0.89978300  0.76656800  1
  O  O35  1  0.82587600  0.10021700  0.73343200  1
  O  O36  1  0.77961900  0.11936100  0.97149500  1
  O  O37  1  0.27961900  0.88063900  0.52850500  1
  O  O38  1  0.22038100  0.88063900  0.02850500  1
  O  O39  1  0.72038100  0.11936100  0.47149500  1
  O  O40  1  0.36617000  0.33253500  0.07449200  1
  O  O41  1  0.86617000  0.66746500  0.42550800  1
  O  O42  1  0.63383000  0.66746500  0.92550800  1
  O  O43  1  0.13383000  0.33253500  0.57449200  1
  O  O44  1  0.95314900  0.20970300  0.17892900  1
  O  O45  1  0.45314900  0.79029700  0.32107100  1
  O  O46  1  0.04685100  0.79029700  0.82107100  1
  O  O47  1  0.54685100  0.20970300  0.67892900  1
