# generated using pymatgen
data_SrSm2Nb2O9
_symmetry_space_group_name_H-M   'P 1'
_cell_length_a   12.95737909
_cell_length_b   12.95737909
_cell_length_c   5.66322500
_cell_angle_alpha   90.00000000
_cell_angle_beta   90.00000000
_cell_angle_gamma   155.01436766
_symmetry_Int_Tables_number   1
_chemical_formula_structural   SrSm2Nb2O9
_chemical_formula_sum   'Sr2 Sm4 Nb4 O18'
_cell_volume   401.61764189
_cell_formula_units_Z   2
loop_
 _symmetry_equiv_pos_site_id
 _symmetry_equiv_pos_as_xyz
  1  'x, y, z'
loop_
 _atom_site_type_symbol
 _atom_site_label
 _atom_site_symmetry_multiplicity
 _atom_site_fract_x
 _atom_site_fract_y
 _atom_site_fract_z
 _atom_site_occupancy
  Sr  Sr0  1  0.24776500  0.24776500  0.87534200  1
  Sr  Sr1  1  0.75223500  0.75223500  0.37534200  1
  Sm  Sm2  1  0.98922300  0.57954300  0.51381900  1
  Sm  Sm3  1  0.01077700  0.42045700  0.01381900  1
  Sm  Sm4  1  0.42045700  0.01077700  0.01381900  1
  Sm  Sm5  1  0.57954300  0.98922300  0.51381900  1
  Nb  Nb6  1  0.16244000  0.33015600  0.39032600  1
  Nb  Nb7  1  0.83756000  0.66984400  0.89032600  1
  Nb  Nb8  1  0.66984400  0.83756000  0.89032600  1
  Nb  Nb9  1  0.33015600  0.16244000  0.39032600  1
  O  O10  1  0.31102900  0.31102900  0.41660100  1
  O  O11  1  0.68897100  0.68897100  0.91660100  1
  O  O12  1  0.98494500  0.29450400  0.38726400  1
  O  O13  1  0.01505500  0.70549600  0.88726400  1
  O  O14  1  0.70549600  0.01505500  0.88726400  1
  O  O15  1  0.29450400  0.98494500  0.38726400  1
  O  O16  1  0.25471500  0.73695800  0.75547500  1
  O  O17  1  0.74528500  0.26304200  0.25547500  1
  O  O18  1  0.26304200  0.74528500  0.25547500  1
  O  O19  1  0.73695800  0.25471500  0.75547500  1
  O  O20  1  0.91412400  0.04250700  0.63674900  1
  O  O21  1  0.08587600  0.95749300  0.13674900  1
  O  O22  1  0.95749300  0.08587600  0.13674900  1
  O  O23  1  0.04250700  0.91412400  0.63674900  1
  O  O24  1  0.56518500  0.38413800  0.68533900  1
  O  O25  1  0.43481500  0.61586200  0.18533900  1
  O  O26  1  0.61586200  0.43481500  0.18533900  1
  O  O27  1  0.38413800  0.56518500  0.68533900  1
