# generated using pymatgen
data_La4NiO8
_symmetry_space_group_name_H-M   'P 1'
_cell_length_a   6.90337339
_cell_length_b   6.90337339
_cell_length_c   5.33406700
_cell_angle_alpha   90.00000000
_cell_angle_beta   90.00000000
_cell_angle_gamma   134.59088637
_symmetry_Int_Tables_number   1
_chemical_formula_structural   La4NiO8
_chemical_formula_sum   'La4 Ni1 O8'
_cell_volume   181.02776367
_cell_formula_units_Z   1
loop_
 _symmetry_equiv_pos_site_id
 _symmetry_equiv_pos_as_xyz
  1  'x, y, z'
loop_
 _atom_site_type_symbol
 _atom_site_label
 _atom_site_symmetry_multiplicity
 _atom_site_fract_x
 _atom_site_fract_y
 _atom_site_fract_z
 _atom_site_occupancy
  La  La0  1  0.13388600  0.86611400  0.00000000  1
  La  La1  1  0.86611400  0.13388600  0.00000000  1
  La  La2  1  0.36735400  0.63264600  0.50000000  1
  La  La3  1  0.63264600  0.36735400  0.50000000  1
  Ni  Ni4  1  0.00000000  0.00000000  0.50000000  1
  O  O5  1  0.31186300  0.68813700  0.00000000  1
  O  O6  1  0.68813700  0.31186300  0.00000000  1
  O  O7  1  0.75080300  0.75080300  0.26202600  1
  O  O8  1  0.24919700  0.24919700  0.26202600  1
  O  O9  1  0.84123400  0.15876600  0.50000000  1
  O  O10  1  0.15876600  0.84123400  0.50000000  1
  O  O11  1  0.24919700  0.24919700  0.73797400  1
  O  O12  1  0.75080300  0.75080300  0.73797400  1
