# generated using pymatgen
data_Zn(CN)2
_symmetry_space_group_name_H-M   'P 1'
_cell_length_a   5.94645400
_cell_length_b   5.94645400
_cell_length_c   5.94645400
_cell_angle_alpha   90.00000000
_cell_angle_beta   90.00000000
_cell_angle_gamma   90.00000000
_symmetry_Int_Tables_number   1
_chemical_formula_structural   Zn(CN)2
_chemical_formula_sum   'Zn2 C4 N4'
_cell_volume   210.26848761
_cell_formula_units_Z   2
loop_
 _symmetry_equiv_pos_site_id
 _symmetry_equiv_pos_as_xyz
  1  'x, y, z'
loop_
 _atom_site_type_symbol
 _atom_site_label
 _atom_site_symmetry_multiplicity
 _atom_site_fract_x
 _atom_site_fract_y
 _atom_site_fract_z
 _atom_site_occupancy
  Zn  Zn0  1  0.50000000  0.50000000  0.50000000  1
  Zn  Zn1  1  0.00000000  0.00000000  0.00000000  1
  C  C2  1  0.19551400  0.80448600  0.80448600  1
  C  C3  1  0.80448600  0.80448600  0.19551400  1
  C  C4  1  0.19551400  0.19551400  0.19551400  1
  C  C5  1  0.80448600  0.19551400  0.80448600  1
  N  N6  1  0.69126400  0.69126400  0.30873600  1
  N  N7  1  0.30873600  0.69126400  0.69126400  1
  N  N8  1  0.30873600  0.30873600  0.30873600  1
  N  N9  1  0.69126400  0.30873600  0.69126400  1
