# generated using pymatgen
data_Sr16Fe16O45
_symmetry_space_group_name_H-M   'P 1'
_cell_length_a   5.55601300
_cell_length_b   9.59974675
_cell_length_c   18.36825513
_cell_angle_alpha   79.83942767
_cell_angle_beta   89.98810929
_cell_angle_gamma   89.96543660
_symmetry_Int_Tables_number   1
_chemical_formula_structural   Sr16Fe16O45
_chemical_formula_sum   'Sr16 Fe16 O45'
_cell_volume   964.33058284
_cell_formula_units_Z   1
loop_
 _symmetry_equiv_pos_site_id
 _symmetry_equiv_pos_as_xyz
  1  'x, y, z'
loop_
 _atom_site_type_symbol
 _atom_site_label
 _atom_site_symmetry_multiplicity
 _atom_site_fract_x
 _atom_site_fract_y
 _atom_site_fract_z
 _atom_site_occupancy
  Sr  Sr0  1  0.50019900  0.18759800  0.93754900  1
  Sr  Sr1  1  0.00039700  0.44014800  0.68735700  1
  Sr  Sr2  1  0.00008000  0.68696000  0.93439600  1
  Sr  Sr3  1  0.49831900  0.68463900  0.43869700  1
  Sr  Sr4  1  0.50449300  0.93275200  0.69081900  1
  Sr  Sr5  1  0.49966900  0.56628400  0.81149500  1
  Sr  Sr6  1  0.99558200  0.80112600  0.56266200  1
  Sr  Sr7  1  0.99426900  0.19277500  0.43291800  1
  Sr  Sr8  1  0.99492600  0.94918400  0.18916000  1
  Sr  Sr9  1  0.00162500  0.05659500  0.80893800  1
  Sr  Sr10  1  0.49844100  0.06583600  0.31196900  1
  Sr  Sr11  1  0.50466700  0.42483600  0.18926400  1
  Sr  Sr12  1  0.50376700  0.32291700  0.56215600  1
  Sr  Sr13  1  0.99981100  0.31461200  0.06728600  1
  Sr  Sr14  1  0.99326300  0.55705200  0.31773600  1
  Sr  Sr15  1  0.50677000  0.81391400  0.05751100  1
  Fe  Fe16  1  0.00283500  0.98617800  0.00542700  1
  Fe  Fe17  1  0.49463000  0.24875000  0.75199200  1
  Fe  Fe18  1  0.99675400  0.38625300  0.87111700  1
  Fe  Fe19  1  0.00127800  0.49962700  0.49959300  1
  Fe  Fe20  1  0.49458300  0.49684100  0.99998000  1
  Fe  Fe21  1  0.49780800  0.62570300  0.62620000  1
  Fe  Fe22  1  0.49910300  0.87667700  0.87385500  1
  Fe  Fe23  1  0.52277100  0.99585100  0.49579100  1
  Fe  Fe24  1  0.52007100  0.75494200  0.25377500  1
  Fe  Fe25  1  0.00186900  0.75412800  0.74723500  1
  Fe  Fe26  1  0.00962700  0.87486200  0.37534700  1
  Fe  Fe27  1  0.97999900  0.13122900  0.62819300  1
  Fe  Fe28  1  0.00144000  0.24816600  0.25166600  1
  Fe  Fe29  1  0.49619400  0.12461000  0.12301100  1
  Fe  Fe30  1  0.49500400  0.37499300  0.37525800  1
  Fe  Fe31  1  0.98157300  0.61816100  0.12213400  1
  O  O32  1  0.23732100  0.42465500  0.94112000  1
  O  O33  1  0.23754100  0.29770800  0.81919900  1
  O  O34  1  0.99929200  0.56541500  0.81130400  1
  O  O35  1  0.75936600  0.94511700  0.93822000  1
  O  O36  1  0.75865100  0.29748700  0.82194500  1
  O  O37  1  0.75599900  0.42127100  0.93896000  1
  O  O38  1  0.75071000  0.69008800  0.68683200  1
  O  O39  1  0.74967500  0.55950200  0.56344100  1
  O  O40  1  0.75569000  0.81782500  0.80925800  1
  O  O41  1  0.49529700  0.43680100  0.69379300  1
  O  O42  1  0.49404300  0.68699100  0.93616700  1
  O  O43  1  0.49688200  0.06123700  0.81118900  1
  O  O44  1  0.48427800  0.82338100  0.56485700  1
  O  O45  1  0.24122000  0.95185600  0.93577700  1
  O  O46  1  0.24943400  0.55985100  0.56381300  1
  O  O47  1  0.24872400  0.68654400  0.68841100  1
  O  O48  1  0.24722000  0.81449200  0.81102300  1
  O  O49  1  0.24665700  0.94355600  0.44336000  1
  O  O50  1  0.25990600  0.18133400  0.67876200  1
  O  O51  1  0.24307400  0.81069800  0.30724100  1
  O  O52  1  0.00761500  0.69050300  0.43762600  1
  O  O53  1  0.02326100  0.94037500  0.67691900  1
  O  O54  1  0.01722000  0.29937900  0.55757900  1
  O  O55  1  0.00631600  0.05951000  0.31391300  1
  O  O56  1  0.75923600  0.93671600  0.43638100  1
  O  O57  1  0.74596100  0.06406900  0.56366200  1
  O  O58  1  0.75137400  0.19256400  0.69056800  1
  O  O59  1  0.75112200  0.81616300  0.31397800  1
  O  O60  1  0.75112600  0.18536300  0.18864300  1
  O  O61  1  0.74731300  0.44239300  0.43560300  1
  O  O62  1  0.75918500  0.07470100  0.05519200  1
  O  O63  1  0.74663700  0.30852800  0.31455200  1
  O  O64  1  0.47818700  0.92532100  0.17821200  1
  O  O65  1  0.48220500  0.18600600  0.44602500  1
  O  O66  1  0.49887300  0.31458700  0.06404200  1
  O  O67  1  0.47473100  0.56347700  0.30318700  1
  O  O68  1  0.24846400  0.30678400  0.31415900  1
  O  O69  1  0.24955600  0.44124400  0.43636600  1
  O  O70  1  0.23821100  0.08271100  0.05183600  1
  O  O71  1  0.24909800  0.18580200  0.18790900  1
  O  O72  1  0.26266500  0.57001500  0.07163700  1
  O  O73  1  0.01440000  0.44708500  0.19078000  1
  O  O74  1  0.02744000  0.81083800  0.07388600  1
  O  O75  1  0.75347300  0.56278000  0.05752800  1
  O  O76  1  0.75353700  0.68557800  0.18716100  1
