# generated using pymatgen
data_TiFe11O16
_symmetry_space_group_name_H-M   'P 1'
_cell_length_a   6.03811717
_cell_length_b   12.06952541
_cell_length_c   18.08606874
_cell_angle_alpha   59.94584154
_cell_angle_beta   59.97921466
_cell_angle_gamma   59.96591849
_symmetry_Int_Tables_number   1
_chemical_formula_structural   TiFe11O16
_chemical_formula_sum   'Ti3 Fe33 O48'
_cell_volume   931.24244902
_cell_formula_units_Z   3
loop_
 _symmetry_equiv_pos_site_id
 _symmetry_equiv_pos_as_xyz
  1  'x, y, z'
loop_
 _atom_site_type_symbol
 _atom_site_label
 _atom_site_symmetry_multiplicity
 _atom_site_fract_x
 _atom_site_fract_y
 _atom_site_fract_z
 _atom_site_occupancy
  Ti  Ti0  1  0.50108600  0.25044000  0.16596500  1
  Ti  Ti1  1  0.49912200  0.50001600  0.50013200  1
  Ti  Ti2  1  0.00033000  0.74973400  0.83320000  1
  Fe  Fe3  1  0.12603600  0.06533900  0.04120600  1
  Fe  Fe4  1  0.49981400  0.24854800  0.99671700  1
  Fe  Fe5  1  0.12999900  0.05987800  0.37451100  1
  Fe  Fe6  1  0.12586400  0.56218300  0.04140400  1
  Fe  Fe7  1  0.50302300  0.99494800  0.16590300  1
  Fe  Fe8  1  0.00876700  0.24573900  0.49957800  1
  Fe  Fe9  1  0.49113000  0.75072100  0.00259200  1
  Fe  Fe10  1  0.11853600  0.06329200  0.71079800  1
  Fe  Fe11  1  0.49887500  0.00025400  0.50042200  1
  Fe  Fe12  1  0.49845200  0.25109300  0.33613000  1
  Fe  Fe13  1  0.49846400  0.50487400  0.16699700  1
  Fe  Fe14  1  0.12154800  0.56406400  0.37607800  1
  Fe  Fe15  1  0.99881700  0.25105800  0.16675800  1
  Fe  Fe16  1  0.50079600  0.74992800  0.16608100  1
  Fe  Fe17  1  0.49987600  0.24557600  0.50005200  1
  Fe  Fe18  1  0.50146800  0.24727300  0.66922700  1
  Fe  Fe19  1  0.12758200  0.56034100  0.70943900  1
  Fe  Fe20  1  0.50113300  0.75344400  0.33038200  1
  Fe  Fe21  1  0.49163000  0.00468400  0.83454900  1
  Fe  Fe22  1  0.87498700  0.43713600  0.29164000  1
  Fe  Fe23  1  0.49937100  0.25029200  0.83377400  1
  Fe  Fe24  1  0.00128500  0.75009600  0.16588400  1
  Fe  Fe25  1  0.49889300  0.75347300  0.50105000  1
  Fe  Fe26  1  0.50862600  0.74902600  0.66441300  1
  Fe  Fe27  1  0.87452100  0.43456600  0.62566500  1
  Fe  Fe28  1  0.50807000  0.49568100  0.83186700  1
  Fe  Fe29  1  0.87304800  0.93877800  0.29103600  1
  Fe  Fe30  1  0.99974500  0.25077000  0.83334100  1
  Fe  Fe31  1  0.99072200  0.75336900  0.50121300  1
  Fe  Fe32  1  0.50112600  0.74931600  0.83312700  1
  Fe  Fe33  1  0.87806800  0.43601100  0.95702700  1
  Fe  Fe34  1  0.87420400  0.93949500  0.62518600  1
  Fe  Fe35  1  0.87555600  0.93844500  0.95617200  1
  O  O36  1  0.25439700  0.12996000  0.08637000  1
  O  O37  1  0.26851700  0.13308600  0.24128600  1
  O  O38  1  0.26687900  0.36364800  0.08720200  1
  O  O39  1  0.72646500  0.13449500  0.08706800  1
  O  O40  1  0.27367200  0.36684800  0.24405600  1
  O  O41  1  0.25894900  0.62643400  0.08466800  1
  O  O42  1  0.25751800  0.12837600  0.41750400  1
  O  O43  1  0.25086600  0.12884900  0.57971500  1
  O  O44  1  0.25608900  0.86882400  0.08388200  1
  O  O45  1  0.73348300  0.13769600  0.24382600  1
  O  O46  1  0.25276100  0.36756500  0.41945800  1
  O  O47  1  0.25287100  0.62846600  0.24522500  1
  O  O48  1  0.73615900  0.36755600  0.08989900  1
  O  O49  1  0.74511300  0.37085300  0.24752100  1
  O  O50  1  0.73695400  0.12690900  0.41783800  1
  O  O51  1  0.73438200  0.62742600  0.08406200  1
  O  O52  1  0.26442000  0.87306900  0.24848600  1
  O  O53  1  0.25720100  0.12812700  0.75197000  1
  O  O54  1  0.27213000  0.37869100  0.58004700  1
  O  O55  1  0.26522800  0.62046300  0.42296700  1
  O  O56  1  0.74171900  0.13640800  0.58234800  1
  O  O57  1  0.26896600  0.13546400  0.90887200  1
  O  O58  1  0.26997300  0.36205000  0.75683400  1
  O  O59  1  0.74363200  0.63373600  0.24841400  1
  O  O60  1  0.26617800  0.61926000  0.57663300  1
  O  O61  1  0.25810500  0.86289400  0.41934800  1
  O  O62  1  0.73252100  0.37916600  0.42493700  1
  O  O63  1  0.74581900  0.87377400  0.08721300  1
  O  O64  1  0.73413100  0.37906700  0.57774800  1
  O  O65  1  0.74361100  0.87293100  0.24743200  1
  O  O66  1  0.72238200  0.13558600  0.75757800  1
  O  O67  1  0.72445700  0.62048800  0.42280300  1
  O  O68  1  0.26700200  0.87141900  0.58253800  1
  O  O69  1  0.27427900  0.36648400  0.90927000  1
  O  O70  1  0.24073400  0.63361200  0.75503800  1
  O  O71  1  0.74489800  0.63114200  0.58212100  1
  O  O72  1  0.73292500  0.13678700  0.90942400  1
  O  O73  1  0.73156900  0.36419300  0.75767700  1
  O  O74  1  0.24266600  0.63079000  0.90887500  1
  O  O75  1  0.23960300  0.86354800  0.75607500  1
  O  O76  1  0.74636800  0.87084600  0.42198200  1
  O  O77  1  0.74321500  0.87246100  0.58280900  1
  O  O78  1  0.73944500  0.37176500  0.91531800  1
  O  O79  1  0.73214200  0.62609500  0.75278100  1
  O  O80  1  0.27110500  0.87305700  0.91317000  1
  O  O81  1  0.76070600  0.63518500  0.91120000  1
  O  O82  1  0.75752800  0.86871300  0.75805700  1
  O  O83  1  0.75970200  0.86585400  0.91093800  1
