# generated using pymatgen
data_Li13Co11O24
_symmetry_space_group_name_H-M   'P 1'
_cell_length_a   11.42918345
_cell_length_b   20.60431260
_cell_length_c   15.11988851
_cell_angle_alpha   19.35948227
_cell_angle_beta   55.42237615
_cell_angle_gamma   46.06774282
_symmetry_Int_Tables_number   1
_chemical_formula_structural   Li13Co11O24
_chemical_formula_sum   'Li26 Co22 O48'
_cell_volume   791.48363193
_cell_formula_units_Z   2
loop_
 _symmetry_equiv_pos_site_id
 _symmetry_equiv_pos_as_xyz
  1  'x, y, z'
loop_
 _atom_site_type_symbol
 _atom_site_label
 _atom_site_symmetry_multiplicity
 _atom_site_fract_x
 _atom_site_fract_y
 _atom_site_fract_z
 _atom_site_occupancy
  Li  Li0  1  0.99931100  0.00052600  0.00019500  1
  Li  Li1  1  0.25313400  0.99363300  0.00969900  1
  Li  Li2  1  0.49907000  0.99389100  0.00939500  1
  Li  Li3  1  0.08523600  0.33283500  0.99967100  1
  Li  Li4  1  0.41678800  0.16655000  0.00013100  1
  Li  Li5  1  0.33437500  0.33929400  0.99074400  1
  Li  Li6  1  0.74799900  0.00068900  0.00018300  1
  Li  Li7  1  0.24800900  0.50159700  0.99937500  1
  Li  Li8  1  0.49941700  0.99915000  0.50150400  1
  Li  Li9  1  0.16215400  0.67615500  0.99023400  1
  Li  Li10  1  0.58032500  0.33947100  0.99053800  1
  Li  Li11  1  0.91667600  0.16657500  0.00010400  1
  Li  Li12  1  0.08021700  0.84008900  0.98975900  1
  Li  Li13  1  0.33407000  0.33408900  0.49850800  1
  Li  Li14  1  0.83389000  0.33286500  0.99983100  1
  Li  Li15  1  0.41669200  0.66662300  0.00002400  1
  Li  Li16  1  0.17109200  0.66626200  0.50068000  1
  Li  Li17  1  0.99890700  0.00170600  0.50179800  1
  Li  Li18  1  0.75307600  0.49331900  0.01014900  1
  Li  Li19  1  0.91662300  0.16675300  0.49988100  1
  Li  Li20  1  0.67120800  0.65724400  0.00965600  1
  Li  Li21  1  0.41674200  0.66653800  0.50011800  1
  Li  Li22  1  0.58531700  0.83172000  0.00062900  1
  Li  Li23  1  0.83425000  0.33175800  0.49813200  1
  Li  Li24  1  0.91655700  0.66681900  0.99980200  1
  Li  Li25  1  0.66230100  0.66703100  0.49938700  1
  Co  Co26  1  0.16968900  0.16117900  0.00504800  1
  Co  Co27  1  0.24660400  0.00079600  0.50091500  1
  Co  Co28  1  0.99898000  0.49683300  0.00470400  1
  Co  Co29  1  0.16377300  0.16637600  0.50071200  1
  Co  Co30  1  0.66363900  0.17215900  0.99497600  1
  Co  Co31  1  0.08286900  0.33421800  0.49894700  1
  Co  Co32  1  0.41664100  0.16669700  0.49995800  1
  Co  Co33  1  0.00008600  0.50001300  0.49997600  1
  Co  Co34  1  0.50011100  0.49981500  0.00014700  1
  Co  Co35  1  0.75043100  0.99917200  0.50098700  1
  Co  Co36  1  0.66953400  0.16700500  0.49921500  1
  Co  Co37  1  0.25041700  0.49963900  0.50053900  1
  Co  Co38  1  0.33319400  0.83353200  0.99982700  1
  Co  Co39  1  0.58669600  0.33262500  0.49900300  1
  Co  Co40  1  0.08691200  0.83063700  0.50089000  1
  Co  Co41  1  0.49885400  0.50226800  0.49937600  1
  Co  Co42  1  0.33445700  0.83108200  0.50060800  1
  Co  Co43  1  0.74643500  0.50271600  0.49910500  1
  Co  Co44  1  0.83439400  0.83650600  0.99528300  1
  Co  Co45  1  0.58292300  0.83364800  0.49952700  1
  Co  Co46  1  0.91666300  0.66665000  0.50003500  1
  Co  Co47  1  0.83326400  0.83329700  0.50006000  1
  O  O48  1  0.09858900  0.06385400  0.26165300  1
  O  O49  1  0.01529000  0.25113900  0.24588000  1
  O  O50  1  0.34091000  0.05598100  0.28549900  1
  O  O51  1  0.23480500  0.24537700  0.26241500  1
  O  O52  1  0.09718000  0.08745600  0.73894700  1
  O  O53  1  0.59714500  0.06543100  0.26102900  1
  O  O54  1  0.17496800  0.39008000  0.28383500  1
  O  O55  1  0.32531600  0.08797000  0.73785500  1
  O  O56  1  0.06866400  0.58049600  0.25990900  1
  O  O57  1  0.50800100  0.24540000  0.26208700  1
  O  O58  1  0.84023000  0.05671500  0.28492400  1
  O  O59  1  0.23620700  0.26777700  0.73916400  1
  O  O60  1  0.43143400  0.39756300  0.26148700  1
  O  O61  1  0.00798100  0.72351300  0.28405600  1
  O  O62  1  0.15829900  0.42106200  0.73841100  1
  O  O63  1  0.73612700  0.24593100  0.26098000  1
  O  O64  1  0.59853300  0.08800100  0.73751400  1
  O  O65  1  0.34004200  0.57975000  0.26194000  1
  O  O66  1  0.06916000  0.60210300  0.73783500  1
  O  O67  1  0.26455400  0.73205500  0.26096200  1
  O  O68  1  0.49241500  0.27728000  0.71460100  1
  O  O69  1  0.65819800  0.40265900  0.27290000  1
  O  O70  1  0.81798700  0.08226000  0.75405400  1
  O  O71  1  0.56897200  0.57973500  0.26037400  1
  O  O72  1  0.43506600  0.40367700  0.75363000  1
  O  O73  1  0.15818700  0.92985700  0.24570900  1
  O  O74  1  0.31802500  0.60909600  0.72721400  1
  O  O75  1  0.73474100  0.26947500  0.73838600  1
  O  O76  1  0.93501000  0.41164900  0.24563000  1
  O  O77  1  0.51538000  0.72414700  0.27285600  1
  O  O78  1  0.67520000  0.40342300  0.75434300  1
  O  O79  1  0.39829500  0.92961200  0.24641300  1
  O  O80  1  0.26435000  0.75366500  0.73952400  1
  O  O81  1  0.84085600  0.57903800  0.26254100  1
  O  O82  1  0.56872500  0.60129200  0.73900800  1
  O  O83  1  0.76420900  0.73126600  0.26210900  1
  O  O84  1  0.17513100  0.93071500  0.72704400  1
  O  O85  1  0.99317800  0.27657900  0.71510700  1
  O  O86  1  0.49326400  0.75357500  0.73808900  1
  O  O87  1  0.93154900  0.42126000  0.73787700  1
  O  O88  1  0.67502200  0.91220300  0.26169500  1
  O  O89  1  0.40187800  0.93582800  0.73842400  1
  O  O90  1  0.82533900  0.60979000  0.71602900  1
  O  O91  1  0.90182600  0.91199600  0.26223700  1
  O  O92  1  0.76469200  0.75282500  0.74010300  1
  O  O93  1  0.65830300  0.94331600  0.71607400  1
  O  O94  1  0.99246800  0.75435200  0.73737600  1
  O  O95  1  0.89830000  0.92173000  0.75430600  1
