# generated using pymatgen
data_Tb11S16
_symmetry_space_group_name_H-M   'P 1'
_cell_length_a   8.31163800
_cell_length_b   8.36931100
_cell_length_c   16.80289400
_cell_angle_alpha   90.00000000
_cell_angle_beta   90.00000000
_cell_angle_gamma   90.00000000
_symmetry_Int_Tables_number   1
_chemical_formula_structural   Tb11S16
_chemical_formula_sum   'Tb22 S32'
_cell_volume   1168.85439454
_cell_formula_units_Z   2
loop_
 _symmetry_equiv_pos_site_id
 _symmetry_equiv_pos_as_xyz
  1  'x, y, z'
loop_
 _atom_site_type_symbol
 _atom_site_label
 _atom_site_symmetry_multiplicity
 _atom_site_fract_x
 _atom_site_fract_y
 _atom_site_fract_z
 _atom_site_occupancy
  Tb  Tb0  1  0.25659000  0.36104600  0.87957900  1
  Tb  Tb1  1  0.50014600  0.75030100  0.81896700  1
  Tb  Tb2  1  0.73286100  0.12411800  0.87780300  1
  Tb  Tb3  1  0.01928600  0.75612100  0.93852400  1
  Tb  Tb4  1  0.73286100  0.87588200  0.12219700  1
  Tb  Tb5  1  0.62897000  0.50000000  0.00000000  1
  Tb  Tb6  1  0.01928600  0.24387900  0.06147600  1
  Tb  Tb7  1  0.25659000  0.63895400  0.12042100  1
  Tb  Tb8  1  0.50014600  0.24969900  0.18103300  1
  Tb  Tb9  1  0.26713900  0.37588200  0.37780300  1
  Tb  Tb10  1  0.87937900  0.49585000  0.25001300  1
  Tb  Tb11  1  0.12062100  0.99585000  0.24998700  1
  Tb  Tb12  1  0.49985400  0.74969900  0.31896700  1
  Tb  Tb13  1  0.74341000  0.13895400  0.37957900  1
  Tb  Tb14  1  0.98071400  0.74387900  0.43852400  1
  Tb  Tb15  1  0.74341000  0.86104600  0.62042100  1
  Tb  Tb16  1  0.37103000  0.00000000  0.50000000  1
  Tb  Tb17  1  0.98071400  0.25612100  0.56147600  1
  Tb  Tb18  1  0.26713900  0.62411800  0.62219700  1
  Tb  Tb19  1  0.49985400  0.25030100  0.68103300  1
  Tb  Tb20  1  0.87937900  0.50415000  0.74998700  1
  Tb  Tb21  1  0.12062100  0.00415000  0.75001300  1
  S  S22  1  0.18001300  0.68379300  0.78319500  1
  S  S23  1  0.42018200  0.07330800  0.83090000  1
  S  S24  1  0.93726300  0.43805500  0.90998700  1
  S  S25  1  0.57578400  0.42606700  0.84160200  1
  S  S26  1  0.05655900  0.07686200  0.90752300  1
  S  S27  1  0.81820100  0.82646200  0.78302600  1
  S  S28  1  0.69596400  0.18397700  0.03768000  1
  S  S29  1  0.69596400  0.81602300  0.96232000  1
  S  S30  1  0.93726300  0.56194500  0.09001300  1
  S  S31  1  0.33316700  0.67100100  0.96060500  1
  S  S32  1  0.42018200  0.92669200  0.16910000  1
  S  S33  1  0.05655900  0.92313800  0.09247700  1
  S  S34  1  0.57578400  0.57393300  0.15839800  1
  S  S35  1  0.33316700  0.32899900  0.03939500  1
  S  S36  1  0.18179900  0.67353800  0.28302600  1
  S  S37  1  0.18001300  0.31620700  0.21680500  1
  S  S38  1  0.42421600  0.07393300  0.34160200  1
  S  S39  1  0.81820100  0.17353800  0.21697400  1
  S  S40  1  0.94344100  0.42313800  0.40752300  1
  S  S41  1  0.57981800  0.42669200  0.33090000  1
  S  S42  1  0.06273700  0.06194500  0.40998700  1
  S  S43  1  0.81998700  0.81620700  0.28319500  1
  S  S44  1  0.66683300  0.17100100  0.53939500  1
  S  S45  1  0.66683300  0.82899900  0.46060500  1
  S  S46  1  0.94344100  0.57686200  0.59247700  1
  S  S47  1  0.30403600  0.68397700  0.46232000  1
  S  S48  1  0.42421600  0.92606700  0.65839800  1
  S  S49  1  0.06273700  0.93805500  0.59001300  1
  S  S50  1  0.57981800  0.57330800  0.66910000  1
  S  S51  1  0.30403600  0.31602300  0.53768000  1
  S  S52  1  0.18179900  0.32646200  0.71697400  1
  S  S53  1  0.81998700  0.18379300  0.71680500  1
