# generated using pymatgen
data_Ga23N5O27
_symmetry_space_group_name_H-M   'P 1'
_cell_length_a   5.91806300
_cell_length_b   5.92534622
_cell_length_c   19.61851901
_cell_angle_alpha   81.76149967
_cell_angle_beta   82.17131587
_cell_angle_gamma   60.53365848
_symmetry_Int_Tables_number   1
_chemical_formula_structural   Ga23N5O27
_chemical_formula_sum   'Ga23 N5 O27'
_cell_volume   591.05566383
_cell_formula_units_Z   1
loop_
 _symmetry_equiv_pos_site_id
 _symmetry_equiv_pos_as_xyz
  1  'x, y, z'
loop_
 _atom_site_type_symbol
 _atom_site_label
 _atom_site_symmetry_multiplicity
 _atom_site_fract_x
 _atom_site_fract_y
 _atom_site_fract_z
 _atom_site_occupancy
  Ga  Ga0  1  0.35775200  0.84278200  0.96531300  1
  Ga  Ga1  1  0.00414700  0.46978000  0.99406900  1
  Ga  Ga2  1  0.10546900  0.59837600  0.72486100  1
  Ga  Ga3  1  0.37806300  0.37234400  0.87424200  1
  Ga  Ga4  1  0.63929800  0.12196200  0.62285700  1
  Ga  Ga5  1  0.76447000  0.26407800  0.75612800  1
  Ga  Ga6  1  0.87880700  0.87484300  0.87598400  1
  Ga  Ga7  1  0.84854300  0.34444000  0.47301700  1
  Ga  Ga8  1  0.12154600  0.12929100  0.62429400  1
  Ga  Ga9  1  0.37555200  0.87275700  0.37028900  1
  Ga  Ga10  1  0.39861400  0.90294200  0.78183000  1
  Ga  Ga11  1  0.50992100  0.99557300  0.50146800  1
  Ga  Ga12  1  0.59969700  0.09516400  0.21685700  1
  Ga  Ga13  1  0.63706300  0.62088000  0.62183000  1
  Ga  Ga14  1  0.88210500  0.87906600  0.37306400  1
  Ga  Ga15  1  0.12502700  0.62052700  0.11974400  1
  Ga  Ga16  1  0.13425500  0.66353100  0.53448000  1
  Ga  Ga17  1  0.38064200  0.38036900  0.37353600  1
  Ga  Ga18  1  0.25387600  0.75446800  0.25294600  1
  Ga  Ga19  1  0.62698600  0.62439100  0.12305700  1
  Ga  Ga20  1  0.89209900  0.39546500  0.28545300  1
  Ga  Ga21  1  0.12663100  0.13104500  0.12201600  1
  Ga  Ga22  1  0.62564200  0.16103400  0.02722800  1
  N  N23  1  0.81453800  0.31022900  0.57043300  1
  N  N24  1  0.77939000  0.82847800  0.56595200  1
  N  N25  1  0.07007500  0.03665300  0.31485500  1
  N  N26  1  0.53507100  0.57029800  0.31522100  1
  N  N27  1  0.26912100  0.33057700  0.06372200  1
  O  O28  1  0.71275800  0.69191500  0.94174600  1
  O  O29  1  0.20078400  0.19227800  0.93622500  1
  O  O30  1  0.07071600  0.56967800  0.81964200  1
  O  O31  1  0.18540100  0.67719700  0.93616500  1
  O  O32  1  0.57256300  0.06935000  0.81284800  1
  O  O33  1  0.46402200  0.42849500  0.68587800  1
  O  O34  1  0.93228400  0.95935100  0.68838400  1
  O  O35  1  0.67990800  0.17812900  0.93195700  1
  O  O36  1  0.55154800  0.54957800  0.81044500  1
  O  O37  1  0.04813700  0.05251700  0.81190000  1
  O  O38  1  0.93797600  0.43219000  0.68966100  1
  O  O39  1  0.31531700  0.82338000  0.56331500  1
  O  O40  1  0.22044800  0.17662400  0.43519500  1
  O  O41  1  0.68210800  0.71192600  0.43330500  1
  O  O42  1  0.43220300  0.94618700  0.68120500  1
  O  O43  1  0.31634300  0.29821900  0.56428000  1
  O  O44  1  0.56250500  0.06115600  0.31559000  1
  O  O45  1  0.68035100  0.17962200  0.43605300  1
  O  O46  1  0.06542800  0.56557500  0.31468900  1
  O  O47  1  0.96394000  0.92533100  0.18315000  1
  O  O48  1  0.30962500  0.80921400  0.06882500  1
  O  O49  1  0.18631300  0.68388300  0.43515500  1
  O  O50  1  0.42759200  0.45932900  0.18479200  1
  O  O51  1  0.43206000  0.92902600  0.18441500  1
  O  O52  1  0.80472900  0.31895000  0.06486900  1
  O  O53  1  0.80582200  0.80340600  0.06795600  1
  O  O54  1  0.92971900  0.44115400  0.18260700  1
