# generated using pymatgen
data_Ho2CdSe4
_symmetry_space_group_name_H-M   'P 1'
_cell_length_a   34.26609100
_cell_length_b   34.26609100
_cell_length_c   34.26609136
_cell_angle_alpha   14.00929337
_cell_angle_beta   14.00929337
_cell_angle_gamma   14.00929249
_symmetry_Int_Tables_number   1
_chemical_formula_structural   Ho2CdSe4
_chemical_formula_sum   'Ho20 Cd10 Se40'
_cell_volume   2052.09603108
_cell_formula_units_Z   10
loop_
 _symmetry_equiv_pos_site_id
 _symmetry_equiv_pos_as_xyz
  1  'x, y, z'
loop_
 _atom_site_type_symbol
 _atom_site_label
 _atom_site_symmetry_multiplicity
 _atom_site_fract_x
 _atom_site_fract_y
 _atom_site_fract_z
 _atom_site_occupancy
  Ho  Ho0  1  0.00036300  0.00036300  0.00036300  1
  Ho  Ho1  1  0.12796900  0.12796900  0.61950100  1
  Ho  Ho2  1  0.60054600  0.60054600  0.60054600  1
  Ho  Ho3  1  0.12796900  0.61950100  0.12796900  1
  Ho  Ho4  1  0.61950100  0.12796900  0.12796900  1
  Ho  Ho5  1  0.72788600  0.72788600  0.21969500  1
  Ho  Ho6  1  0.20055600  0.20055600  0.20055600  1
  Ho  Ho7  1  0.72788600  0.21969500  0.72788600  1
  Ho  Ho8  1  0.21969500  0.72788600  0.72788600  1
  Ho  Ho9  1  0.32706000  0.32706000  0.82095600  1
  Ho  Ho10  1  0.32706000  0.82095600  0.32706000  1
  Ho  Ho11  1  0.82095600  0.32706000  0.32706000  1
  Ho  Ho12  1  0.92497500  0.92497500  0.42517300  1
  Ho  Ho13  1  0.92497500  0.42517300  0.92497500  1
  Ho  Ho14  1  0.12512200  0.12512200  0.12512200  1
  Ho  Ho15  1  0.52579100  0.52579100  0.02377700  1
  Ho  Ho16  1  0.42517300  0.92497500  0.92497500  1
  Ho  Ho17  1  0.52579100  0.02377700  0.52579100  1
  Ho  Ho18  1  0.72512800  0.72512800  0.72512800  1
  Ho  Ho19  1  0.02377700  0.52579100  0.52579100  1
  Cd  Cd20  1  0.64954400  0.64954400  0.64954400  1
  Cd  Cd21  1  0.24944800  0.24944800  0.24944800  1
  Cd  Cd22  1  0.32419600  0.32419600  0.32419600  1
  Cd  Cd23  1  0.84934300  0.84934300  0.84934300  1
  Cd  Cd24  1  0.92437000  0.92437000  0.92437000  1
  Cd  Cd25  1  0.44981600  0.44981600  0.44981600  1
  Cd  Cd26  1  0.52431400  0.52431400  0.52431400  1
  Cd  Cd27  1  0.80015900  0.80015900  0.80015900  1
  Cd  Cd28  1  0.40006000  0.40006000  0.40006000  1
  Cd  Cd29  1  0.05012500  0.05012500  0.05012500  1
  Se  Se30  1  0.99268500  0.46534700  0.46534700  1
  Se  Se31  1  0.46534700  0.99268500  0.46534700  1
  Se  Se32  1  0.27629700  0.27629700  0.27629700  1
  Se  Se33  1  0.46534700  0.46534700  0.99268500  1
  Se  Se34  1  0.78699200  0.78699200  0.25299100  1
  Se  Se35  1  0.59293500  0.06520300  0.06520300  1
  Se  Se36  1  0.97355400  0.97355400  0.97355400  1
  Se  Se37  1  0.06520300  0.59293500  0.06520300  1
  Se  Se38  1  0.78699200  0.25299100  0.78699200  1
  Se  Se39  1  0.87626100  0.87626100  0.87626100  1
  Se  Se40  1  0.25299100  0.78699200  0.78699200  1
  Se  Se41  1  0.06520300  0.06520300  0.59293500  1
  Se  Se42  1  0.19335800  0.66486700  0.66486700  1
  Se  Se43  1  0.38700300  0.38700300  0.85293600  1
  Se  Se44  1  0.57361800  0.57361800  0.57361800  1
  Se  Se45  1  0.38700300  0.85293600  0.38700300  1
  Se  Se46  1  0.47628600  0.47628600  0.47628600  1
  Se  Se47  1  0.66486700  0.19335800  0.66486700  1
  Se  Se48  1  0.66486700  0.66486700  0.19335800  1
  Se  Se49  1  0.85293600  0.38700300  0.38700300  1
  Se  Se50  1  0.98565500  0.98565500  0.45525500  1
  Se  Se51  1  0.79451200  0.26444700  0.26444700  1
  Se  Se52  1  0.17358900  0.17358900  0.17358900  1
  Se  Se53  1  0.26444700  0.79451200  0.26444700  1
  Se  Se54  1  0.98565500  0.45525500  0.98565500  1
  Se  Se55  1  0.07650100  0.07650100  0.07650100  1
  Se  Se56  1  0.26444700  0.26444700  0.79451200  1
  Se  Se57  1  0.45525500  0.98565500  0.98565500  1
  Se  Se58  1  0.58531600  0.58531600  0.05578700  1
  Se  Se59  1  0.39399000  0.86487600  0.86487600  1
  Se  Se60  1  0.77355600  0.77355600  0.77355600  1
  Se  Se61  1  0.86487600  0.39399000  0.86487600  1
  Se  Se62  1  0.58531600  0.05578700  0.58531600  1
  Se  Se63  1  0.67644500  0.67644500  0.67644500  1
  Se  Se64  1  0.86487600  0.86487600  0.39399000  1
  Se  Se65  1  0.05578700  0.58531600  0.58531600  1
  Se  Se66  1  0.18641200  0.18641200  0.65410900  1
  Se  Se67  1  0.37354300  0.37354300  0.37354300  1
  Se  Se68  1  0.18641200  0.65410900  0.18641200  1
  Se  Se69  1  0.65410900  0.18641200  0.18641200  1
