# generated using pymatgen
data_Ba2ZnPb
_symmetry_space_group_name_H-M   'P 1'
_cell_length_a   13.94460006
_cell_length_b   13.94460006
_cell_length_c   13.94460006
_cell_angle_alpha   126.50108358
_cell_angle_beta   117.93160366
_cell_angle_gamma   86.37332235
_symmetry_Int_Tables_number   1
_chemical_formula_structural   Ba2ZnPb
_chemical_formula_sum   'Ba2 Zn1 Pb1'
_cell_volume   1835.06629211
_cell_formula_units_Z   1
loop_
 _symmetry_equiv_pos_site_id
 _symmetry_equiv_pos_as_xyz
  1  'x, y, z'
loop_
 _atom_site_type_symbol
 _atom_site_label
 _atom_site_symmetry_multiplicity
 _atom_site_fract_x
 _atom_site_fract_y
 _atom_site_fract_z
 _atom_site_occupancy
  Ba  Ba0  1  0.00000000  0.25212600  0.25212600  1
  Ba  Ba1  1  0.00000000  0.74787400  0.74787400  1
  Zn  Zn2  1  0.00000000  0.00000000  0.00000000  1
  Pb  Pb3  1  0.00000000  0.50000000  0.50000000  1
