# generated using pymatgen
data_Ca12Al14O33
_symmetry_space_group_name_H-M   'P 1'
_cell_length_a   10.46641652
_cell_length_b   10.46641652
_cell_length_c   10.46641652
_cell_angle_alpha   109.23772551
_cell_angle_beta   109.23772551
_cell_angle_gamma   109.93922701
_symmetry_Int_Tables_number   1
_chemical_formula_structural   Ca12Al14O33
_chemical_formula_sum   'Ca12 Al14 O33'
_cell_volume   882.57251350
_cell_formula_units_Z   1
loop_
 _symmetry_equiv_pos_site_id
 _symmetry_equiv_pos_as_xyz
  1  'x, y, z'
loop_
 _atom_site_type_symbol
 _atom_site_label
 _atom_site_symmetry_multiplicity
 _atom_site_fract_x
 _atom_site_fract_y
 _atom_site_fract_z
 _atom_site_occupancy
  Ca  Ca0  1  0.32250700  0.32250700  0.00000000  1
  Ca  Ca1  1  0.98924500  0.12461500  0.35854900  1
  Ca  Ca2  1  0.87538500  0.23393500  0.86463000  1
  Ca  Ca3  1  0.51272600  0.13174100  0.88889300  1
  Ca  Ca4  1  0.36930500  0.01075500  0.13537000  1
  Ca  Ca5  1  0.67749300  0.67749300  0.00000000  1
  Ca  Ca6  1  0.76606500  0.63069500  0.64145100  1
  Ca  Ca7  1  0.86825900  0.75715300  0.38098600  1
  Ca  Ca8  1  0.48726800  0.98726800  0.50000000  1
  Ca  Ca9  1  0.37616700  0.48727400  0.61901400  1
  Ca  Ca10  1  0.01273200  0.51273200  0.50000000  1
  Ca  Ca11  1  0.24284700  0.62383300  0.11110700  1
  Al  Al12  1  0.75000000  0.25000000  0.50000000  1
  Al  Al13  1  0.00000000  0.00000000  0.00000000  1
  Al  Al14  1  0.24936100  0.12513700  0.62383600  1
  Al  Al15  1  0.62596600  0.33899200  0.74837100  1
  Al  Al16  1  0.08901300  0.87516600  0.24734300  1
  Al  Al17  1  0.62782300  0.84167000  0.75265700  1
  Al  Al18  1  0.37447500  0.75063900  0.87577700  1
  Al  Al19  1  0.15833000  0.91098700  0.78615300  1
  Al  Al20  1  0.59062100  0.87759500  0.25162900  1
  Al  Al21  1  0.50130100  0.62552500  0.37616400  1
  Al  Al22  1  0.12240500  0.37403400  0.71302600  1
  Al  Al23  1  0.12483400  0.37217700  0.21384700  1
  Al  Al24  1  0.87486300  0.49869900  0.12422300  1
  Al  Al25  1  0.66100800  0.40937900  0.28697400  1
  O  O26  1  0.20796100  0.27513100  0.62620500  1
  O  O27  1  0.93971300  0.28489500  0.54011000  1
  O  O28  1  0.02007900  0.18671600  0.04622200  1
  O  O29  1  0.02614300  0.97992100  0.16663700  1
  O  O30  1  0.24162400  0.08517600  0.77228500  1
  O  O31  1  0.14049400  0.97385700  0.95377800  1
  O  O32  1  0.60039800  0.06028700  0.34518300  1
  O  O33  1  0.72486900  0.35107400  0.93282900  1
  O  O34  1  0.50256500  0.23856700  0.12436000  1
  O  O35  1  0.71510500  0.25521500  0.65481700  1
  O  O36  1  0.81328400  0.85950600  0.83336300  1
  O  O37  1  0.10566500  0.96491900  0.43587200  1
  O  O38  1  0.62024100  0.00514900  0.74905200  1
  O  O39  1  0.43869200  0.16763100  0.65523700  1
  O  O40  1  0.41824400  0.79203900  0.06717100  1
  O  O41  1  0.53066100  0.75837600  0.84355200  1
  O  O42  1  0.33020800  0.89433500  0.85925400  1
  O  O43  1  0.76143300  0.88579400  0.26399800  1
  O  O44  1  0.62179500  0.49743500  0.73600200  1
  O  O45  1  0.52904700  0.66979200  0.56412800  1
  O  O46  1  0.91482400  0.68711000  0.15644800  1
  O  O47  1  0.51239400  0.78345500  0.34476300  1
  O  O48  1  0.64892600  0.58175600  0.37379500  1
  O  O49  1  0.21654500  0.56130800  0.72893900  1
  O  O50  1  0.25609700  0.87118900  0.25094800  1
  O  O51  1  0.99485100  0.74390300  0.61509200  1
  O  O52  1  0.31289000  0.46933900  0.22771500  1
  O  O53  1  0.50000000  0.50000000  0.00000000  1
  O  O54  1  0.12881100  0.37975900  0.38490800  1
  O  O55  1  0.03508100  0.47095300  0.14074600  1
  O  O56  1  0.83236900  0.48760600  0.27106100  1
  O  O57  1  0.74478500  0.39960200  0.45989000  1
  O  O58  1  0.11420600  0.37820500  0.87564000  1
