# generated using pymatgen
data_Y4Cu7O16
_symmetry_space_group_name_H-M   'P 1'
_cell_length_a   6.22581800
_cell_length_b   10.12436496
_cell_length_c   10.26329797
_cell_angle_alpha   101.39584497
_cell_angle_beta   96.95680919
_cell_angle_gamma   97.55230694
_symmetry_Int_Tables_number   1
_chemical_formula_structural   Y4Cu7O16
_chemical_formula_sum   'Y8 Cu14 O32'
_cell_volume   621.42275191
_cell_formula_units_Z   2
loop_
 _symmetry_equiv_pos_site_id
 _symmetry_equiv_pos_as_xyz
  1  'x, y, z'
loop_
 _atom_site_type_symbol
 _atom_site_label
 _atom_site_symmetry_multiplicity
 _atom_site_fract_x
 _atom_site_fract_y
 _atom_site_fract_z
 _atom_site_occupancy
  Y  Y0  1  0.39783900  0.31459600  0.96639800  1
  Y  Y1  1  0.60216100  0.68540400  0.03360200  1
  Y  Y2  1  0.15116100  0.80693200  0.21996700  1
  Y  Y3  1  0.91231300  0.30691100  0.47367000  1
  Y  Y4  1  0.34504500  0.18201000  0.28434200  1
  Y  Y5  1  0.08768700  0.69308900  0.52633000  1
  Y  Y6  1  0.65495500  0.81799000  0.71565800  1
  Y  Y7  1  0.84883900  0.19306800  0.78003300  1
  Cu  Cu8  1  0.13498000  0.75362300  0.87867300  1
  Cu  Cu9  1  0.00000000  0.00000000  0.00000000  1
  Cu  Cu10  1  0.86502000  0.24637700  0.12132700  1
  Cu  Cu11  1  0.74723500  0.50184400  0.25075700  1
  Cu  Cu12  1  0.63294900  0.74656300  0.37308000  1
  Cu  Cu13  1  0.50000000  0.00000000  0.00000000  1
  Cu  Cu14  1  0.23898000  0.49901000  0.24241700  1
  Cu  Cu15  1  0.76592200  0.99937300  0.26164200  1
  Cu  Cu16  1  0.50000000  0.50000000  0.50000000  1
  Cu  Cu17  1  0.50000000  0.00000000  0.50000000  1
  Cu  Cu18  1  0.36705100  0.25343700  0.62692000  1
  Cu  Cu19  1  0.25276500  0.49815600  0.74924300  1
  Cu  Cu20  1  0.76102000  0.50099000  0.75758300  1
  Cu  Cu21  1  0.23407800  0.00062700  0.73835800  1
  O  O22  1  0.22818500  0.68384000  0.02253100  1
  O  O23  1  0.73634700  0.01189900  0.90165900  1
  O  O24  1  0.77181500  0.31616000  0.97746900  1
  O  O25  1  0.48218900  0.51112500  0.14756800  1
  O  O26  1  0.56855900  0.17571300  0.10927700  1
  O  O27  1  0.13651400  0.10157600  0.88796600  1
  O  O28  1  0.32649300  0.67628200  0.35377700  1
  O  O29  1  0.87953600  0.61159500  0.15122100  1
  O  O30  1  0.86348600  0.89842400  0.11203400  1
  O  O31  1  0.43144100  0.82428700  0.89072300  1
  O  O32  1  0.61234200  0.39197900  0.35883600  1
  O  O33  1  0.16915500  0.31735800  0.14239600  1
  O  O34  1  0.26365300  0.98810100  0.09834100  1
  O  O35  1  0.95488800  0.16438900  0.26566300  1
  O  O36  1  0.01113200  0.48553400  0.34977100  1
  O  O37  1  0.70347500  0.66221600  0.51480000  1
  O  O38  1  0.55996800  0.83859300  0.23953400  1
  O  O39  1  0.26049500  0.00463500  0.37848300  1
  O  O40  1  0.29652500  0.33778400  0.48520000  1
  O  O41  1  0.98886800  0.51446600  0.65022900  1
  O  O42  1  0.07439200  0.18736900  0.60955800  1
  O  O43  1  0.65184300  0.10716600  0.39922900  1
  O  O44  1  0.83084500  0.68264200  0.85760400  1
  O  O45  1  0.38765800  0.60802100  0.64116400  1
  O  O46  1  0.34815700  0.89283400  0.60077100  1
  O  O47  1  0.92560800  0.81263100  0.39044200  1
  O  O48  1  0.12046400  0.38840500  0.84877900  1
  O  O49  1  0.67350700  0.32371800  0.64622300  1
  O  O50  1  0.73950500  0.99536500  0.62151700  1
  O  O51  1  0.44003200  0.16140700  0.76046600  1
  O  O52  1  0.51781100  0.48887500  0.85243200  1
  O  O53  1  0.04511200  0.83561100  0.73433700  1
