# generated using pymatgen
data_Ce6Y26O51
_symmetry_space_group_name_H-M   'P 1'
_cell_length_a   9.32005500
_cell_length_b   9.36940930
_cell_length_c   15.26306121
_cell_angle_alpha   90.09530159
_cell_angle_beta   90.05564010
_cell_angle_gamma   109.58734205
_symmetry_Int_Tables_number   1
_chemical_formula_structural   Ce6Y26O51
_chemical_formula_sum   'Ce6 Y26 O51'
_cell_volume   1255.69077111
_cell_formula_units_Z   1
loop_
 _symmetry_equiv_pos_site_id
 _symmetry_equiv_pos_as_xyz
  1  'x, y, z'
loop_
 _atom_site_type_symbol
 _atom_site_label
 _atom_site_symmetry_multiplicity
 _atom_site_fract_x
 _atom_site_fract_y
 _atom_site_fract_z
 _atom_site_occupancy
  Ce  Ce0  1  0.37903100  0.65589900  0.62789300  1
  Ce  Ce1  1  0.89995000  0.13960600  0.61278000  1
  Ce  Ce2  1  0.08804900  0.84231500  0.87420200  1
  Ce  Ce3  1  0.63817200  0.36581900  0.61076000  1
  Ce  Ce4  1  0.59711000  0.34656600  0.37271200  1
  Ce  Ce5  1  0.14129000  0.86277100  0.11124400  1
  Y  Y6  1  0.73759700  0.74727600  0.75449300  1
  Y  Y7  1  0.85928700  0.14651000  0.88906100  1
  Y  Y8  1  0.52787600  0.99795500  0.49850200  1
  Y  Y9  1  0.35850900  0.64137300  0.38685300  1
  Y  Y10  1  0.59905000  0.34385900  0.87672700  1
  Y  Y11  1  0.73098400  0.77072200  0.98481100  1
  Y  Y12  1  0.48413300  0.01656800  0.73579600  1
  Y  Y13  1  0.38174500  0.58876200  0.87295900  1
  Y  Y14  1  0.90381800  0.15852400  0.12768900  1
  Y  Y15  1  0.02649800  0.49399600  0.99842600  1
  Y  Y16  1  0.24597600  0.24788400  0.25196100  1
  Y  Y17  1  0.24496400  0.24070200  0.74934700  1
  Y  Y18  1  0.23440400  0.26204200  0.48250400  1
  Y  Y19  1  0.98497800  0.51264000  0.23678700  1
  Y  Y20  1  0.09270800  0.84226100  0.37428700  1
  Y  Y21  1  0.10980100  0.86609900  0.64069300  1
  Y  Y22  1  0.88503800  0.09738400  0.36944700  1
  Y  Y23  1  0.02648900  0.49047200  0.75641700  1
  Y  Y24  1  0.76645800  0.76123000  0.51472900  1
  Y  Y25  1  0.74398300  0.75167100  0.24567200  1
  Y  Y26  1  0.01712100  0.51894900  0.51211800  1
  Y  Y27  1  0.61203000  0.39185900  0.13968400  1
  Y  Y28  1  0.39839000  0.64329300  0.11225300  1
  Y  Y29  1  0.51500100  0.97968600  0.26409900  1
  Y  Y30  1  0.26984000  0.26186800  0.01713500  1
  Y  Y31  1  0.50473400  0.00740000  0.00014200  1
  O  O32  1  0.85894800  0.39259400  0.88017100  1
  O  O33  1  0.50695300  0.78574500  0.75388600  1
  O  O34  1  0.60455000  0.09775500  0.86559800  1
  O  O35  1  0.63575400  0.59691000  0.87410200  1
  O  O36  1  0.62541300  0.59652700  0.63640900  1
  O  O37  1  0.50636300  0.27739500  0.73220100  1
  O  O38  1  0.36394200  0.89836400  0.61099700  1
  O  O39  1  0.35704400  0.89215700  0.37932300  1
  O  O40  1  0.47366100  0.23661800  0.50203600  1
  O  O41  1  0.13682500  0.63539400  0.63692300  1
  O  O42  1  0.24701100  0.98422800  0.98055500  1
  O  O43  1  0.01801800  0.28748400  0.25692400  1
  O  O44  1  0.10507200  0.59830800  0.36790800  1
  O  O45  1  0.23714200  0.99111600  0.76946500  1
  O  O46  1  0.48865600  0.76720400  0.98036000  1
  O  O47  1  0.34766200  0.32597800  0.87903400  1
  O  O48  1  0.13738600  0.09605100  0.37152500  1
  O  O49  1  0.15375500  0.13958400  0.61037400  1
  O  O50  1  0.01754000  0.77068500  0.50923700  1
  O  O51  1  0.27427900  0.48611300  0.73796300  1
  O  O52  1  0.12597800  0.09431800  0.13641500  1
  O  O53  1  0.00492100  0.77884000  0.23083400  1
  O  O54  1  0.26332800  0.50312300  0.51590900  1
  O  O55  1  0.85204100  0.37749700  0.11520900  1
  O  O56  1  0.97065000  0.73657100  0.00422400  1
  O  O57  1  0.15526900  0.63983000  0.87431600  1
  O  O58  1  0.02328700  0.24622000  0.99562100  1
  O  O59  1  0.74884600  0.48832800  0.48123600  1
  O  O60  1  0.99534000  0.22253900  0.76132900  1
  O  O61  1  0.87063400  0.90744500  0.86670500  1
  O  O62  1  0.73985000  0.50063200  0.26979700  1
  O  O63  1  0.99264500  0.26970800  0.48342900  1
  O  O64  1  0.84168600  0.83626000  0.37462700  1
  O  O65  1  0.86768700  0.89512200  0.64437200  1
  O  O66  1  0.77459800  0.00309700  0.50079700  1
  O  O67  1  0.65541300  0.64182000  0.10996600  1
  O  O68  1  0.52856800  0.26086300  0.01639300  1
  O  O69  1  0.87760400  0.39163400  0.63437800  1
  O  O70  1  0.75911000  0.99852400  0.23085800  1
  O  O71  1  0.96407300  0.71049100  0.75832500  1
  O  O72  1  0.74781700  0.01307500  0.02368500  1
  O  O73  1  0.51804700  0.74997300  0.49641300  1
  O  O74  1  0.65577800  0.14002300  0.37587600  1
  O  O75  1  0.64984100  0.12207500  0.62802800  1
  O  O76  1  0.49354800  0.72148500  0.26256500  1
  O  O77  1  0.37898300  0.40257000  0.36315500  1
  O  O78  1  0.36784500  0.39799000  0.14409000  1
  O  O79  1  0.26910400  0.49936300  0.99950300  1
  O  O80  1  0.39325300  0.90862400  0.13365100  1
  O  O81  1  0.48580100  0.21245600  0.24605800  1
  O  O82  1  0.14696600  0.62323500  0.12896600  1
