# generated using pymatgen
data_Mg(GaO2)2
_symmetry_space_group_name_H-M   'P 1'
_cell_length_a   5.93022949
_cell_length_b   5.93022949
_cell_length_c   28.98331373
_cell_angle_alpha   89.87551805
_cell_angle_beta   89.87551805
_cell_angle_gamma   60.56344265
_symmetry_Int_Tables_number   1
_chemical_formula_structural   Mg(GaO2)2
_chemical_formula_sum   'Mg12 Ga24 O48'
_cell_volume   887.68352747
_cell_formula_units_Z   12
loop_
 _symmetry_equiv_pos_site_id
 _symmetry_equiv_pos_as_xyz
  1  'x, y, z'
loop_
 _atom_site_type_symbol
 _atom_site_label
 _atom_site_symmetry_multiplicity
 _atom_site_fract_x
 _atom_site_fract_y
 _atom_site_fract_z
 _atom_site_occupancy
  Mg  Mg0  1  0.99461900  0.99461900  0.99914000  1
  Mg  Mg1  1  0.66096300  0.66096300  0.16811600  1
  Mg  Mg2  1  0.16446100  0.16446100  0.10436400  1
  Mg  Mg3  1  0.83251200  0.83251200  0.27170600  1
  Mg  Mg4  1  0.50003800  0.50003800  0.43771700  1
  Mg  Mg5  1  0.66693800  0.66693800  0.35453500  1
  Mg  Mg6  1  0.16664300  0.16664300  0.60415600  1
  Mg  Mg7  1  0.33338400  0.33338400  0.52087800  1
  Mg  Mg8  1  0.83324500  0.83324500  0.77070400  1
  Mg  Mg9  1  0.00003200  0.00003200  0.68745400  1
  Mg  Mg10  1  0.49880500  0.49880500  0.93688000  1
  Mg  Mg11  1  0.66691300  0.66691300  0.85422000  1
  Ga  Ga12  1  0.67358800  0.67358800  0.04112900  1
  Ga  Ga13  1  0.34049800  0.34049800  0.20775700  1
  Ga  Ga14  1  0.33348000  0.33348000  0.01871500  1
  Ga  Ga15  1  0.32633700  0.32633700  0.33316200  1
  Ga  Ga16  1  0.16269200  0.67577200  0.10443900  1
  Ga  Ga17  1  0.67577200  0.16269200  0.10443900  1
  Ga  Ga18  1  0.83143100  0.33766600  0.27196700  1
  Ga  Ga19  1  0.00049800  0.00049800  0.18561300  1
  Ga  Ga20  1  0.00683000  0.00683000  0.37692900  1
  Ga  Ga21  1  0.99315400  0.99315400  0.49847000  1
  Ga  Ga22  1  0.33766600  0.83143100  0.27196700  1
  Ga  Ga23  1  0.67336600  0.67336600  0.54341600  1
  Ga  Ga24  1  0.65999800  0.65999800  0.66494100  1
  Ga  Ga25  1  0.49992300  0.99983800  0.43781000  1
  Ga  Ga26  1  0.99983800  0.49992300  0.43781000  1
  Ga  Ga27  1  0.32678100  0.32678100  0.83082100  1
  Ga  Ga28  1  0.34006900  0.34006900  0.70989500  1
  Ga  Ga29  1  0.16662100  0.66670800  0.60416000  1
  Ga  Ga30  1  0.66670800  0.16662100  0.60416000  1
  Ga  Ga31  1  0.83315600  0.33373300  0.77069400  1
  Ga  Ga32  1  0.00675300  0.00675300  0.87641200  1
  Ga  Ga33  1  0.33373300  0.83315600  0.77069400  1
  Ga  Ga34  1  0.49787600  0.00442700  0.93693900  1
  Ga  Ga35  1  0.00442700  0.49787600  0.93693900  1
  O  O36  1  0.02186400  0.49452600  0.06307300  1
  O  O37  1  0.33752600  0.33752600  0.14216800  1
  O  O38  1  0.49452600  0.02186400  0.06307300  1
  O  O39  1  0.49307700  0.49307700  0.06332200  1
  O  O40  1  0.84330300  0.84330300  0.14450500  1
  O  O41  1  0.68900900  0.16072900  0.22974600  1
  O  O42  1  0.99396000  0.99396000  0.06708300  1
  O  O43  1  0.00499600  0.00499600  0.30957900  1
  O  O44  1  0.83983300  0.30413200  0.14504800  1
  O  O45  1  0.16072900  0.68900900  0.22974600  1
  O  O46  1  0.15955000  0.15955000  0.22985300  1
  O  O47  1  0.30413200  0.83983300  0.14504800  1
  O  O48  1  0.35070000  0.83208500  0.39787800  1
  O  O49  1  0.50255600  0.50255600  0.31128000  1
  O  O50  1  0.65999500  0.65999500  0.23659600  1
  O  O51  1  0.67060000  0.67060000  0.47677800  1
  O  O52  1  0.50034500  0.98621300  0.31124400  1
  O  O53  1  0.83208500  0.35070000  0.39787800  1
  O  O54  1  0.98621300  0.50034500  0.31124400  1
  O  O55  1  0.82839700  0.82839700  0.39798700  1
  O  O56  1  0.01733400  0.49883400  0.56454200  1
  O  O57  1  0.17156400  0.17156400  0.47719600  1
  O  O58  1  0.32911600  0.32911600  0.39922000  1
  O  O59  1  0.33727900  0.33727900  0.64337200  1
  O  O60  1  0.16760800  0.64946100  0.47728200  1
  O  O61  1  0.49883400  0.01733400  0.56454200  1
  O  O62  1  0.64946100  0.16760800  0.47728200  1
  O  O63  1  0.49481900  0.49481900  0.56466000  1
  O  O64  1  0.83856200  0.83856200  0.64366300  1
  O  O65  1  0.68396200  0.16559900  0.73113300  1
  O  O66  1  0.99599300  0.99599300  0.56500200  1
  O  O67  1  0.00391600  0.00391600  0.80997200  1
  O  O68  1  0.83446400  0.31594800  0.64377800  1
  O  O69  1  0.16559900  0.68396200  0.73113300  1
  O  O70  1  0.31594800  0.83446400  0.64377800  1
  O  O71  1  0.16154300  0.16154300  0.73125800  1
  O  O72  1  0.50576300  0.50576300  0.81003700  1
  O  O73  1  0.34979300  0.83302900  0.89799100  1
  O  O74  1  0.66278000  0.66278000  0.73135600  1
  O  O75  1  0.66998100  0.66998100  0.97600500  1
  O  O76  1  0.50155000  0.98173900  0.81020000  1
  O  O77  1  0.83302900  0.34979300  0.89799100  1
  O  O78  1  0.98173900  0.50155000  0.81020000  1
  O  O79  1  0.82894700  0.82894700  0.89830400  1
  O  O80  1  0.17922100  0.17922100  0.97672500  1
  O  O81  1  0.17450200  0.63341000  0.97738800  1
  O  O82  1  0.33013600  0.33013600  0.89632600  1
  O  O83  1  0.63341000  0.17450200  0.97738800  1
