# generated using pymatgen
data_Er2TiO5
_symmetry_space_group_name_H-M   'P 1'
_cell_length_a   7.38853199
_cell_length_b   7.38853199
_cell_length_c   17.68892712
_cell_angle_alpha   89.53947370
_cell_angle_beta   89.53947370
_cell_angle_gamma   58.70657702
_symmetry_Int_Tables_number   1
_chemical_formula_structural   Er2TiO5
_chemical_formula_sum   'Er16 Ti8 O40'
_cell_volume   825.12698652
_cell_formula_units_Z   8
loop_
 _symmetry_equiv_pos_site_id
 _symmetry_equiv_pos_as_xyz
  1  'x, y, z'
loop_
 _atom_site_type_symbol
 _atom_site_label
 _atom_site_symmetry_multiplicity
 _atom_site_fract_x
 _atom_site_fract_y
 _atom_site_fract_z
 _atom_site_occupancy
  Er  Er0  1  0.34194000  0.34194000  0.17838800  1
  Er  Er1  1  0.51548200  0.51548200  0.99776900  1
  Er  Er2  1  0.82655200  0.82655200  0.15157300  1
  Er  Er3  1  0.82681300  0.33844900  0.16655900  1
  Er  Er4  1  0.01609700  0.01609700  0.51439100  1
  Er  Er5  1  0.98247300  0.98247300  0.99102600  1
  Er  Er6  1  0.33844900  0.82681300  0.16655900  1
  Er  Er7  1  0.49673100  0.49673100  0.50605000  1
  Er  Er8  1  0.50087500  0.01979500  0.50544900  1
  Er  Er9  1  0.68584300  0.68584300  0.32642300  1
  Er  Er10  1  0.18179600  0.18179600  0.34098600  1
  Er  Er11  1  0.01979500  0.50087500  0.50544900  1
  Er  Er12  1  0.17253300  0.17253300  0.84521100  1
  Er  Er13  1  0.19038500  0.68250800  0.82197300  1
  Er  Er14  1  0.34888000  0.34888000  0.67242800  1
  Er  Er15  1  0.68250800  0.19038500  0.82197300  1
  Ti  Ti16  1  0.02453300  0.50017600  0.99954600  1
  Ti  Ti17  1  0.50017600  0.02453300  0.99954600  1
  Ti  Ti18  1  0.16697400  0.67277000  0.33382600  1
  Ti  Ti19  1  0.83734100  0.83734100  0.67266700  1
  Ti  Ti20  1  0.67277000  0.16697400  0.33382600  1
  Ti  Ti21  1  0.84036200  0.34805000  0.66314400  1
  Ti  Ti22  1  0.66618600  0.66618600  0.83705800  1
  Ti  Ti23  1  0.34805000  0.84036200  0.66314400  1
  O  O24  1  0.80990100  0.80990100  0.02406300  1
  O  O25  1  0.69868100  0.13577100  0.20956700  1
  O  O26  1  0.13577100  0.69868100  0.20956700  1
  O  O27  1  0.84994100  0.29464000  0.04253700  1
  O  O28  1  0.33449100  0.78738100  0.31741400  1
  O  O29  1  0.49371900  0.49371900  0.12194300  1
  O  O30  1  0.36217500  0.36217500  0.30972100  1
  O  O31  1  0.37909400  0.81274000  0.54693200  1
  O  O32  1  0.16102200  0.16102200  0.21564800  1
  O  O33  1  0.29464000  0.84994100  0.04253700  1
  O  O34  1  0.78738100  0.33449100  0.31741400  1
  O  O35  1  0.48081700  0.05175400  0.10387800  1
  O  O36  1  0.67876700  0.67876700  0.20514200  1
  O  O37  1  0.81274000  0.37909400  0.54693200  1
  O  O38  1  0.51756900  0.98608100  0.38155600  1
  O  O39  1  0.96925500  0.50791400  0.65312600  1
  O  O40  1  0.16742500  0.16742500  0.46458200  1
  O  O41  1  0.87493400  0.50881600  0.90706300  1
  O  O42  1  0.08348200  0.08348200  0.63700900  1
  O  O43  1  0.88146000  0.88146000  0.32383400  1
  O  O44  1  0.98608100  0.51756900  0.38155600  1
  O  O45  1  0.05175400  0.48081700  0.10387800  1
  O  O46  1  0.84367900  0.84367900  0.55912100  1
  O  O47  1  0.50791400  0.96925500  0.65312600  1
  O  O48  1  0.18688300  0.69079200  0.44309200  1
  O  O49  1  0.50881600  0.87493400  0.90706300  1
  O  O50  1  0.32831400  0.32831400  0.79448400  1
  O  O51  1  0.13162700  0.72519600  0.69371800  1
  O  O52  1  0.34298300  0.34298300  0.55026900  1
  O  O53  1  0.79930200  0.79930200  0.78261900  1
  O  O54  1  0.60765500  0.18203100  0.95630500  1
  O  O55  1  0.52622500  0.52622500  0.65766200  1
  O  O56  1  0.69079200  0.18688300  0.44309200  1
  O  O57  1  0.51871800  0.51871800  0.86266800  1
  O  O58  1  0.72519600  0.13162700  0.69371800  1
  O  O59  1  0.18203100  0.60765500  0.95630500  1
  O  O60  1  0.85827800  0.35545700  0.77259600  1
  O  O61  1  0.00311100  0.00311100  0.87160600  1
  O  O62  1  0.21914700  0.21914700  0.96586000  1
  O  O63  1  0.35545700  0.85827800  0.77259600  1
