# generated using pymatgen
data_Ca4Nb2O9
_symmetry_space_group_name_H-M   'P 1'
_cell_length_a   8.13717300
_cell_length_b   9.84552602
_cell_length_c   11.41193018
_cell_angle_alpha   107.58997573
_cell_angle_beta   88.55074842
_cell_angle_gamma   113.03971150
_symmetry_Int_Tables_number   1
_chemical_formula_structural   Ca4Nb2O9
_chemical_formula_sum   'Ca16 Nb8 O36'
_cell_volume   797.48055485
_cell_formula_units_Z   4
loop_
 _symmetry_equiv_pos_site_id
 _symmetry_equiv_pos_as_xyz
  1  'x, y, z'
loop_
 _atom_site_type_symbol
 _atom_site_label
 _atom_site_symmetry_multiplicity
 _atom_site_fract_x
 _atom_site_fract_y
 _atom_site_fract_z
 _atom_site_occupancy
  Ca  Ca0  1  0.33529300  0.66809700  0.16535300  1
  Ca  Ca1  1  0.45633900  0.37163000  0.10201000  1
  Ca  Ca2  1  0.69374100  0.98710400  0.24376100  1
  Ca  Ca3  1  0.66470700  0.33190300  0.83464700  1
  Ca  Ca4  1  0.96370700  0.36469200  0.08779300  1
  Ca  Ca5  1  0.76904100  0.01115900  0.76929600  1
  Ca  Ca6  1  0.00000000  0.00000000  0.00000000  1
  Ca  Ca7  1  0.23095900  0.98884100  0.23070400  1
  Ca  Ca8  1  0.03629300  0.63530800  0.91220700  1
  Ca  Ca9  1  0.00000000  0.00000000  0.50000000  1
  Ca  Ca10  1  0.30625900  0.01289600  0.75623900  1
  Ca  Ca11  1  0.11704600  0.68876000  0.43643600  1
  Ca  Ca12  1  0.54366100  0.62837000  0.89799000  1
  Ca  Ca13  1  0.37093700  0.31031700  0.56901900  1
  Ca  Ca14  1  0.62906300  0.68968300  0.43098100  1
  Ca  Ca15  1  0.88295400  0.31124000  0.56356400  1
  Nb  Nb16  1  0.65986800  0.34181600  0.33549500  1
  Nb  Nb17  1  0.83732000  0.68578500  0.17335800  1
  Nb  Nb18  1  0.14697100  0.32451900  0.32635300  1
  Nb  Nb19  1  0.16268000  0.31421500  0.82664200  1
  Nb  Nb20  1  0.50000000  0.00000000  0.00000000  1
  Nb  Nb21  1  0.34013200  0.65818400  0.66450500  1
  Nb  Nb22  1  0.50000000  0.00000000  0.50000000  1
  Nb  Nb23  1  0.85302900  0.67548100  0.67364700  1
  O  O24  1  0.59250800  0.64941200  0.22293700  1
  O  O25  1  0.75471400  0.43404300  0.20869700  1
  O  O26  1  0.38263400  0.88694500  0.32700700  1
  O  O27  1  0.52903100  0.13031600  0.19038600  1
  O  O28  1  0.88821200  0.26079700  0.32701000  1
  O  O29  1  0.18749000  0.51327400  0.28584100  1
  O  O30  1  0.51062400  0.82842700  0.05367500  1
  O  O31  1  0.76787400  0.08660700  0.99809500  1
  O  O32  1  0.94659800  0.35197400  0.88324300  1
  O  O33  1  0.16558400  0.22022600  0.15974100  1
  O  O34  1  0.28118900  0.44849300  0.00002800  1
  O  O35  1  0.90846500  0.88794200  0.15657900  1
  O  O36  1  0.09153500  0.11205800  0.84342100  1
  O  O37  1  0.71881100  0.55150700  0.99997200  1
  O  O38  1  0.83441600  0.77977400  0.84025900  1
  O  O39  1  0.05340200  0.64802600  0.11675700  1
  O  O40  1  0.23212600  0.91339300  0.00190500  1
  O  O41  1  0.48937600  0.17157300  0.94632500  1
  O  O42  1  0.81251000  0.48672600  0.71415900  1
  O  O43  1  0.11178800  0.73920300  0.67299000  1
  O  O44  1  0.27303000  0.01209800  0.55732500  1
  O  O45  1  0.47096900  0.86968400  0.80961400  1
  O  O46  1  0.61736600  0.11305500  0.67299300  1
  O  O47  1  0.24528600  0.56595700  0.79130300  1
  O  O48  1  0.42107100  0.78945400  0.54142600  1
  O  O49  1  0.06529600  0.23455300  0.65162400  1
  O  O50  1  0.18892800  0.47676300  0.52228100  1
  O  O51  1  0.40749200  0.35058800  0.77706300  1
  O  O52  1  0.53899900  0.59877700  0.64784600  1
  O  O53  1  0.83514400  0.83318400  0.60838800  1
  O  O54  1  0.16485600  0.16681600  0.39161200  1
  O  O55  1  0.46100100  0.40122300  0.35215400  1
  O  O56  1  0.81107200  0.52323700  0.47771900  1
  O  O57  1  0.93470400  0.76544700  0.34837600  1
  O  O58  1  0.57892900  0.21054600  0.45857400  1
  O  O59  1  0.72697000  0.98790200  0.44267500  1
