# generated using pymatgen
data_Ca4Nb2O9
_symmetry_space_group_name_H-M   'P 1'
_cell_length_a   8.09693000
_cell_length_b   9.86572471
_cell_length_c   11.42548421
_cell_angle_alpha   107.31906827
_cell_angle_beta   88.56073995
_cell_angle_gamma   112.84671416
_symmetry_Int_Tables_number   1
_chemical_formula_structural   Ca4Nb2O9
_chemical_formula_sum   'Ca16 Nb8 O36'
_cell_volume   798.69798270
_cell_formula_units_Z   4
loop_
 _symmetry_equiv_pos_site_id
 _symmetry_equiv_pos_as_xyz
  1  'x, y, z'
loop_
 _atom_site_type_symbol
 _atom_site_label
 _atom_site_symmetry_multiplicity
 _atom_site_fract_x
 _atom_site_fract_y
 _atom_site_fract_z
 _atom_site_occupancy
  Ca  Ca0  1  0.16291000  0.82895200  0.83220100  1
  Ca  Ca1  1  0.29905300  0.52337400  0.76104700  1
  Ca  Ca2  1  0.78014500  0.53469100  0.78385600  1
  Ca  Ca3  1  0.50393100  0.50633200  0.50097000  1
  Ca  Ca4  1  0.53536800  0.12789300  0.90243700  1
  Ca  Ca5  1  0.05567000  0.15163200  0.90245400  1
  Ca  Ca6  1  0.83121600  0.16711900  0.66855200  1
  Ca  Ca7  1  0.60577300  0.17801400  0.43317600  1
  Ca  Ca8  1  0.13041300  0.20091700  0.44446300  1
  Ca  Ca9  1  0.83335700  0.16454400  0.16799800  1
  Ca  Ca10  1  0.89071700  0.80368100  0.55236600  1
  Ca  Ca11  1  0.36492100  0.81518700  0.57376600  1
  Ca  Ca12  1  0.95742900  0.84177700  0.09361600  1
  Ca  Ca13  1  0.45232200  0.85969700  0.09687000  1
  Ca  Ca14  1  0.20869400  0.46604100  0.23494700  1
  Ca  Ca15  1  0.70292400  0.47855600  0.24082600  1
  Nb  Nb16  1  0.00379700  0.48347700  0.99847300  1
  Nb  Nb17  1  0.67927800  0.83717400  0.82454700  1
  Nb  Nb18  1  0.34776400  0.18357700  0.67707400  1
  Nb  Nb19  1  0.98651500  0.49439200  0.50928300  1
  Nb  Nb20  1  0.66604100  0.85318600  0.33761000  1
  Nb  Nb21  1  0.15209700  0.82463400  0.33019000  1
  Nb  Nb22  1  0.32754100  0.16252500  0.17080500  1
  Nb  Nb23  1  0.51233500  0.50829000  0.01285800  1
  O  O24  1  0.21459900  0.43093800  0.99457700  1
  O  O25  1  0.50913800  0.66664800  0.94406300  1
  O  O26  1  0.88566700  0.81299400  0.89395800  1
  O  O27  1  0.61420700  0.63015800  0.70168700  1
  O  O28  1  0.48769300  0.36735700  0.81697400  1
  O  O29  1  0.24752200  0.05979000  0.78992300  1
  O  O30  1  0.07759100  0.59692100  0.87728600  1
  O  O31  1  0.84896400  0.29330200  0.88008300  1
  O  O32  1  0.69171600  0.00857800  0.97331600  1
  O  O33  1  0.52548900  0.08773700  0.64013900  1
  O  O34  1  0.43612500  0.82463900  0.77557500  1
  O  O35  1  0.84199800  0.37183200  0.60438800  1
  O  O36  1  0.82445900  0.96234800  0.73076400  1
  O  O37  1  0.23134200  0.50995800  0.55878000  1
  O  O38  1  0.13716700  0.24021800  0.67989900  1
  O  O39  1  0.97897400  0.32344100  0.36221900  1
  O  O40  1  0.81677300  0.04223800  0.45498600  1
  O  O41  1  0.58921100  0.73791400  0.45597900  1
  O  O42  1  0.41884500  0.27344400  0.53914900  1
  O  O43  1  0.18031800  0.96196500  0.50136300  1
  O  O44  1  0.05562500  0.70456300  0.63065200  1
  O  O45  1  0.89069200  0.76846400  0.31483900  1
  O  O46  1  0.78335400  0.52204500  0.44104200  1
  O  O47  1  0.19198600  0.02366100  0.26967300  1
  O  O48  1  0.15577000  0.66058200  0.38562500  1
  O  O49  1  0.56682800  0.17583500  0.22799200  1
  O  O50  1  0.45161400  0.90004000  0.33471000  1
  O  O51  1  0.30658700  0.98338400  0.02490700  1
  O  O52  1  0.14714600  0.71424800  0.14668500  1
  O  O53  1  0.92041500  0.41064600  0.13985000  1
  O  O54  1  0.74462100  0.91847600  0.19229300  1
  O  O55  1  0.51522900  0.61865200  0.18393900  1
  O  O56  1  0.37469200  0.35950900  0.30383700  1
  O  O57  1  0.10426000  0.16605600  0.10570700  1
  O  O58  1  0.47169800  0.31349400  0.05707900  1
  O  O59  1  0.77147400  0.56226200  0.01567700  1
