# generated using pymatgen
data_Mg2SiO4
_symmetry_space_group_name_H-M   'P 1'
_cell_length_a   24.01213359
_cell_length_b   24.01213359
_cell_length_c   24.01213314
_cell_angle_alpha   13.80726348
_cell_angle_beta   13.80726348
_cell_angle_gamma   13.80726433
_symmetry_Int_Tables_number   1
_chemical_formula_structural   Mg2SiO4
_chemical_formula_sum   'Mg20 Si10 O40'
_cell_volume   686.22445059
_cell_formula_units_Z   10
loop_
 _symmetry_equiv_pos_site_id
 _symmetry_equiv_pos_as_xyz
  1  'x, y, z'
loop_
 _atom_site_type_symbol
 _atom_site_label
 _atom_site_symmetry_multiplicity
 _atom_site_fract_x
 _atom_site_fract_y
 _atom_site_fract_z
 _atom_site_occupancy
  Mg  Mg0  1  0.65309300  0.65309300  0.65309300  1
  Mg  Mg1  1  0.12815600  0.61797300  0.12815600  1
  Mg  Mg2  1  0.12815600  0.12815600  0.61797300  1
  Mg  Mg3  1  0.25065700  0.25065700  0.25065700  1
  Mg  Mg4  1  0.61797300  0.12815600  0.12815600  1
  Mg  Mg5  1  0.72624000  0.21942600  0.72624000  1
  Mg  Mg6  1  0.72624000  0.72624000  0.21942600  1
  Mg  Mg7  1  0.21942600  0.72624000  0.72624000  1
  Mg  Mg8  1  0.32492500  0.82392500  0.32492500  1
  Mg  Mg9  1  0.32492500  0.32492500  0.82392500  1
  Mg  Mg10  1  0.52455900  0.52455900  0.52455900  1
  Mg  Mg11  1  0.82392500  0.32492500  0.32492500  1
  Mg  Mg12  1  0.92504900  0.42525500  0.92504900  1
  Mg  Mg13  1  0.92504900  0.92504900  0.42525500  1
  Mg  Mg14  1  0.12484300  0.12484300  0.12484300  1
  Mg  Mg15  1  0.42525500  0.92504900  0.92504900  1
  Mg  Mg16  1  0.52644600  0.02537900  0.52644600  1
  Mg  Mg17  1  0.72511500  0.72511500  0.72511500  1
  Mg  Mg18  1  0.52644600  0.52644600  0.02537900  1
  Mg  Mg19  1  0.02537900  0.52644600  0.52644600  1
  Si  Si20  1  0.99884100  0.99884100  0.99884100  1
  Si  Si21  1  0.59822300  0.59822300  0.59822300  1
  Si  Si22  1  0.32200500  0.32200500  0.32200500  1
  Si  Si23  1  0.19963800  0.19963800  0.19963800  1
  Si  Si24  1  0.92130400  0.92130400  0.92130400  1
  Si  Si25  1  0.84920900  0.84920900  0.84920900  1
  Si  Si26  1  0.45002900  0.45002900  0.45002900  1
  Si  Si27  1  0.40036200  0.40036200  0.40036200  1
  Si  Si28  1  0.05120300  0.05120300  0.05120300  1
  Si  Si29  1  0.79989500  0.79989500  0.79989500  1
  O  O30  1  0.01419400  0.45809000  0.45809000  1
  O  O31  1  0.45809000  0.45809000  0.01419400  1
  O  O32  1  0.27685300  0.27685300  0.27685300  1
  O  O33  1  0.76992500  0.27887700  0.76992500  1
  O  O34  1  0.61865800  0.05403300  0.05403300  1
  O  O35  1  0.45809000  0.01419400  0.45809000  1
  O  O36  1  0.97542500  0.97542500  0.97542500  1
  O  O37  1  0.76992500  0.76992500  0.27887700  1
  O  O38  1  0.87249600  0.87249600  0.87249600  1
  O  O39  1  0.05403300  0.05403300  0.61865800  1
  O  O40  1  0.36535500  0.89328900  0.36535500  1
  O  O41  1  0.16088500  0.68210100  0.68210100  1
  O  O42  1  0.05403300  0.61865800  0.05403300  1
  O  O43  1  0.27887700  0.76992500  0.76992500  1
  O  O44  1  0.57502600  0.57502600  0.57502600  1
  O  O45  1  0.36535500  0.36535500  0.89328900  1
  O  O46  1  0.68210100  0.68210100  0.16088500  1
  O  O47  1  0.47370400  0.47370400  0.47370400  1
  O  O48  1  0.96649400  0.49083000  0.96649400  1
  O  O49  1  0.75956900  0.28366900  0.28366900  1
  O  O50  1  0.68210100  0.16088500  0.68210100  1
  O  O51  1  0.89328900  0.36535500  0.36535500  1
  O  O52  1  0.96649400  0.96649400  0.49083000  1
  O  O53  1  0.17618600  0.17618600  0.17618600  1
  O  O54  1  0.28366900  0.28366900  0.75956900  1
  O  O55  1  0.07485600  0.07485600  0.07485600  1
  O  O56  1  0.56676200  0.09138800  0.56676200  1
  O  O57  1  0.35507500  0.88720400  0.88720400  1
  O  O58  1  0.28366900  0.75956900  0.28366900  1
  O  O59  1  0.49083000  0.96649400  0.96649400  1
  O  O60  1  0.56676200  0.56676200  0.09138800  1
  O  O61  1  0.77640100  0.77640100  0.77640100  1
  O  O62  1  0.88720400  0.88720400  0.35507500  1
  O  O63  1  0.67957600  0.67957600  0.67957600  1
  O  O64  1  0.17110700  0.67802100  0.17110700  1
  O  O65  1  0.88720400  0.35507500  0.88720400  1
  O  O66  1  0.09138800  0.56676200  0.56676200  1
  O  O67  1  0.37669000  0.37669000  0.37669000  1
  O  O68  1  0.17110700  0.17110700  0.67802100  1
  O  O69  1  0.67802100  0.17110700  0.17110700  1
