# generated using pymatgen
data_Ti5Fe7O18
_symmetry_space_group_name_H-M   'P 1'
_cell_length_a   11.10242503
_cell_length_b   20.40124088
_cell_length_c   15.01379539
_cell_angle_alpha   17.20895880
_cell_angle_beta   49.50211376
_cell_angle_gamma   41.31962209
_symmetry_Int_Tables_number   1
_chemical_formula_structural   Ti5Fe7O18
_chemical_formula_sum   'Ti10 Fe14 O36'
_cell_volume   622.75307949
_cell_formula_units_Z   2
loop_
 _symmetry_equiv_pos_site_id
 _symmetry_equiv_pos_as_xyz
  1  'x, y, z'
loop_
 _atom_site_type_symbol
 _atom_site_label
 _atom_site_symmetry_multiplicity
 _atom_site_fract_x
 _atom_site_fract_y
 _atom_site_fract_z
 _atom_site_occupancy
  Ti  Ti0  1  0.43990500  0.29776100  0.12622100  1
  Ti  Ti1  1  0.41902500  0.02715400  0.86950000  1
  Ti  Ti2  1  0.26407000  0.61102800  0.15695600  1
  Ti  Ti3  1  0.93482700  0.27699000  0.15495900  1
  Ti  Ti4  1  0.23593000  0.38897200  0.84304400  1
  Ti  Ti5  1  0.08097500  0.97284600  0.13050000  1
  Ti  Ti6  1  0.89156600  0.07247000  0.82592700  1
  Ti  Ti7  1  0.06009500  0.70223900  0.87377900  1
  Ti  Ti8  1  0.60843400  0.92753000  0.17407300  1
  Ti  Ti9  1  0.56517300  0.72301000  0.84504100  1
  Fe  Fe10  1  0.06301500  0.21782600  0.35550500  1
  Fe  Fe11  1  0.27691300  0.09000900  0.67955800  1
  Fe  Fe12  1  0.57817000  0.20768100  0.35658200  1
  Fe  Fe13  1  0.10145700  0.43924800  0.65810000  1
  Fe  Fe14  1  0.39854300  0.56075200  0.34190000  1
  Fe  Fe15  1  0.77091000  0.12845400  0.63121700  1
  Fe  Fe16  1  0.77571400  0.61273200  0.16075100  1
  Fe  Fe17  1  0.22308700  0.90999100  0.32044200  1
  Fe  Fe18  1  0.59258800  0.45376000  0.64865200  1
  Fe  Fe19  1  0.90741200  0.54624000  0.35134800  1
  Fe  Fe20  1  0.72428600  0.38726800  0.83924900  1
  Fe  Fe21  1  0.43698500  0.78217400  0.64449500  1
  Fe  Fe22  1  0.72909000  0.87154600  0.36878300  1
  Fe  Fe23  1  0.92183000  0.79231900  0.64341800  1
  O  O24  1  0.33246900  0.11382900  0.04735400  1
  O  O25  1  0.20269800  0.15952800  0.23125600  1
  O  O26  1  0.16551000  0.44099100  0.05644600  1
  O  O27  1  0.04292300  0.47071300  0.25937100  1
  O  O28  1  0.45668500  0.03373900  0.56617900  1
  O  O29  1  0.81860300  0.10618300  0.06344300  1
  O  O30  1  0.13437200  0.16778000  0.77229600  1
  O  O31  1  0.70325100  0.16155600  0.22736700  1
  O  O32  1  0.99373500  0.23826400  0.92935800  1
  O  O33  1  0.38242600  0.29349200  0.44072100  1
  O  O34  1  0.28970000  0.36128400  0.56982100  1
  O  O35  1  0.66242500  0.44360800  0.05388400  1
  O  O36  1  0.53352500  0.49512300  0.23151000  1
  O  O37  1  0.21030000  0.63871600  0.43017900  1
  O  O38  1  0.95816700  0.03109700  0.56509900  1
  O  O39  1  0.63191700  0.17270100  0.76988100  1
  O  O40  1  0.11757400  0.70650800  0.55927900  1
  O  O41  1  0.50626500  0.76173600  0.07064200  1
  O  O42  1  0.50449700  0.22210500  0.94917900  1
  O  O43  1  0.87999100  0.30597200  0.42800200  1
  O  O44  1  0.36562800  0.83222000  0.22770500  1
  O  O45  1  0.04331500  0.96626100  0.43382100  1
  O  O46  1  0.77939900  0.37956100  0.55669400  1
  O  O47  1  0.45707700  0.52928700  0.74062900  1
  O  O48  1  0.33449000  0.55900900  0.94355400  1
  O  O49  1  0.72060100  0.62043900  0.44330600  1
  O  O50  1  0.62000900  0.69402800  0.57199800  1
  O  O51  1  0.99550300  0.77789500  0.05082100  1
  O  O52  1  0.29730200  0.84047200  0.76874400  1
  O  O53  1  0.86808300  0.82729900  0.23011900  1
  O  O54  1  0.16753100  0.88617100  0.95264600  1
  O  O55  1  0.54183300  0.96890300  0.43490100  1
  O  O56  1  0.96647500  0.50487700  0.76849000  1
  O  O57  1  0.83757500  0.55639200  0.94611600  1
  O  O58  1  0.79674900  0.83844400  0.77263300  1
  O  O59  1  0.68139700  0.89381700  0.93655700  1
