# generated using pymatgen
data_Fe2NiO4
_symmetry_space_group_name_H-M   'P 1'
_cell_length_a   5.99315944
_cell_length_b   5.99315944
_cell_length_c   19.92552847
_cell_angle_alpha   81.01451646
_cell_angle_beta   81.01451646
_cell_angle_gamma   60.34735989
_symmetry_Int_Tables_number   1
_chemical_formula_structural   Fe2NiO4
_chemical_formula_sum   'Fe16 Ni8 O32'
_cell_volume   611.72455857
_cell_formula_units_Z   8
loop_
 _symmetry_equiv_pos_site_id
 _symmetry_equiv_pos_as_xyz
  1  'x, y, z'
loop_
 _atom_site_type_symbol
 _atom_site_label
 _atom_site_symmetry_multiplicity
 _atom_site_fract_x
 _atom_site_fract_y
 _atom_site_fract_z
 _atom_site_occupancy
  Fe  Fe0  1  0.69139800  0.69139800  0.93840000  1
  Fe  Fe1  1  0.72221300  0.21741000  0.84582800  1
  Fe  Fe2  1  0.43919500  0.43919500  0.68943000  1
  Fe  Fe3  1  0.49646800  0.49646800  0.49920000  1
  Fe  Fe4  1  0.34459500  0.34459500  0.97000100  1
  Fe  Fe5  1  0.21741000  0.72221300  0.84582800  1
  Fe  Fe6  1  0.47044900  0.96600600  0.59271500  1
  Fe  Fe7  1  0.19024200  0.19024200  0.43716600  1
  Fe  Fe8  1  0.24753800  0.24753800  0.24976900  1
  Fe  Fe9  1  0.09282200  0.09282200  0.72226700  1
  Fe  Fe10  1  0.96600600  0.47044900  0.59271500  1
  Fe  Fe11  1  0.21918000  0.71902700  0.34306800  1
  Fe  Fe12  1  0.94109700  0.94109700  0.18634500  1
  Fe  Fe13  1  0.71902700  0.21918000  0.34306800  1
  Fe  Fe14  1  0.97325000  0.46968300  0.09262000  1
  Fe  Fe15  1  0.46968300  0.97325000  0.09262000  1
  Ni  Ni16  1  0.99875600  0.99875600  0.00060700  1
  Ni  Ni17  1  0.74928600  0.74928600  0.74838100  1
  Ni  Ni18  1  0.21688400  0.21688400  0.84499700  1
  Ni  Ni19  1  0.96699200  0.96699200  0.59339000  1
  Ni  Ni20  1  0.71889100  0.71889100  0.34327300  1
  Ni  Ni21  1  0.84450400  0.84450400  0.46859700  1
  Ni  Ni22  1  0.46887900  0.46887900  0.09242300  1
  Ni  Ni23  1  0.59397200  0.59397200  0.21710700  1
  O  O24  1  0.52131600  0.05618500  0.90818000  1
  O  O25  1  0.05618500  0.52131600  0.90818000  1
  O  O26  1  0.40755500  0.40755500  0.78743000  1
  O  O27  1  0.27243200  0.80069000  0.65636200  1
  O  O28  1  0.52137100  0.52137100  0.90676700  1
  O  O29  1  0.91564900  0.91564900  0.78656600  1
  O  O30  1  0.80069000  0.27243200  0.65636200  1
  O  O31  1  0.38078600  0.91223800  0.78354600  1
  O  O32  1  0.15508100  0.15508100  0.53743500  1
  O  O33  1  0.02791700  0.02791700  0.90029300  1
  O  O34  1  0.66050400  0.66050400  0.53353400  1
  O  O35  1  0.27182700  0.27182700  0.65485400  1
  O  O36  1  0.03678100  0.54663200  0.40606300  1
  O  O37  1  0.91223800  0.38078600  0.78354600  1
  O  O38  1  0.54663200  0.03678100  0.40606300  1
  O  O39  1  0.90029800  0.90029800  0.28742100  1
  O  O40  1  0.77765000  0.77765000  0.64612500  1
  O  O41  1  0.14078600  0.65758800  0.53267200  1
  O  O42  1  0.02491000  0.02491000  0.40268600  1
  O  O43  1  0.65758800  0.14078600  0.53267200  1
  O  O44  1  0.78061900  0.29667700  0.15247000  1
  O  O45  1  0.41233500  0.41233500  0.28492100  1
  O  O46  1  0.89100200  0.40135300  0.28167100  1
  O  O47  1  0.65868500  0.65868500  0.03614200  1
  O  O48  1  0.29667700  0.78061900  0.15247000  1
  O  O49  1  0.53770700  0.53770700  0.39895200  1
  O  O50  1  0.17500800  0.17500800  0.03250200  1
  O  O51  1  0.40135300  0.89100200  0.28167100  1
  O  O52  1  0.77795100  0.77795100  0.15129000  1
  O  O53  1  0.62332300  0.16772600  0.02997500  1
  O  O54  1  0.28067800  0.28067800  0.15138800  1
  O  O55  1  0.16772600  0.62332300  0.02997500  1
