# generated using pymatgen
data_La5Mn6O18
_symmetry_space_group_name_H-M   'P 1'
_cell_length_a   7.83740800
_cell_length_b   9.48684652
_cell_length_c   11.05691518
_cell_angle_alpha   106.99518896
_cell_angle_beta   89.98636125
_cell_angle_gamma   113.70190048
_symmetry_Int_Tables_number   1
_chemical_formula_structural   La5Mn6O18
_chemical_formula_sum   'La10 Mn12 O36'
_cell_volume   713.40466123
_cell_formula_units_Z   2
loop_
 _symmetry_equiv_pos_site_id
 _symmetry_equiv_pos_as_xyz
  1  'x, y, z'
loop_
 _atom_site_type_symbol
 _atom_site_label
 _atom_site_symmetry_multiplicity
 _atom_site_fract_x
 _atom_site_fract_y
 _atom_site_fract_z
 _atom_site_occupancy
  La  La0  1  0.58425800  0.67345600  0.92282800  1
  La  La1  1  0.74973900  0.00019600  0.75317100  1
  La  La2  1  0.08316100  0.67141300  0.91261400  1
  La  La3  1  0.90868600  0.32381400  0.57745100  1
  La  La4  1  0.09131400  0.67618600  0.42254900  1
  La  La5  1  0.40928200  0.32592500  0.58340600  1
  La  La6  1  0.25026100  0.99980400  0.24682900  1
  La  La7  1  0.41574200  0.32654400  0.07717200  1
  La  La8  1  0.59071800  0.67407500  0.41659400  1
  La  La9  1  0.91683900  0.32858700  0.08738600  1
  Mn  Mn10  1  0.00000000  0.00000000  0.00000000  1
  Mn  Mn11  1  0.33275100  0.66941800  0.66790500  1
  Mn  Mn12  1  0.66234300  0.33071700  0.83124800  1
  Mn  Mn13  1  0.66724900  0.33058200  0.33209500  1
  Mn  Mn14  1  0.83628700  0.66939000  0.66616400  1
  Mn  Mn15  1  0.00000000  0.00000000  0.50000000  1
  Mn  Mn16  1  0.16618500  0.33094100  0.83322000  1
  Mn  Mn17  1  0.16371300  0.33061000  0.33383600  1
  Mn  Mn18  1  0.33765700  0.66928300  0.16875200  1
  Mn  Mn19  1  0.50000000  0.00000000  0.50000000  1
  Mn  Mn20  1  0.50000000  0.00000000  0.00000000  1
  Mn  Mn21  1  0.83381500  0.66905900  0.16678000  1
  O  O22  1  0.28678600  0.52133000  0.77130900  1
  O  O23  1  0.42642500  0.35336600  0.86319200  1
  O  O24  1  0.24951900  0.99896500  0.98928300  1
  O  O25  1  0.62359600  0.19001800  0.93814800  1
  O  O26  1  0.57414400  0.15878500  0.67274700  1
  O  O27  1  0.46018000  0.84160800  0.82824800  1
  O  O28  1  0.60359600  0.19361200  0.44208100  1
  O  O29  1  0.87725300  0.81068400  0.84277400  1
  O  O30  1  0.74992800  0.99959200  0.52598200  1
  O  O31  1  0.79068800  0.51883400  0.99172600  1
  O  O32  1  0.58040300  0.66103800  0.64024000  1
  O  O33  1  0.71205400  0.48265600  0.73293900  1
  O  O34  1  0.92566400  0.84244600  0.59427800  1
  O  O35  1  0.07138200  0.64506100  0.68403300  1
  O  O36  1  0.89494800  0.80516600  0.34641600  1
  O  O37  1  0.91853500  0.33882800  0.80763000  1
  O  O38  1  0.78291600  0.52000900  0.48907600  1
  O  O39  1  0.03993700  0.15977400  0.90756800  1
  O  O40  1  0.96006300  0.84022600  0.09243200  1
  O  O41  1  0.21708400  0.47999100  0.51092400  1
  O  O42  1  0.08146500  0.66117200  0.19237000  1
  O  O43  1  0.10505200  0.19483400  0.65358400  1
  O  O44  1  0.92861800  0.35493900  0.31596700  1
  O  O45  1  0.07433600  0.15755400  0.40572200  1
  O  O46  1  0.28794600  0.51734400  0.26706100  1
  O  O47  1  0.41959700  0.33896200  0.35976000  1
  O  O48  1  0.20931200  0.48116600  0.00827400  1
  O  O49  1  0.25007200  0.00040800  0.47401800  1
  O  O50  1  0.12274700  0.18931600  0.15722600  1
  O  O51  1  0.39640400  0.80638800  0.55791900  1
  O  O52  1  0.53982000  0.15839200  0.17175200  1
  O  O53  1  0.42585600  0.84121500  0.32725300  1
  O  O54  1  0.37640400  0.80998200  0.06185200  1
  O  O55  1  0.75048100  0.00103500  0.01071700  1
  O  O56  1  0.57357500  0.64663400  0.13680800  1
  O  O57  1  0.71321400  0.47867000  0.22869100  1
