# generated using pymatgen
data_Y5U2O12
_symmetry_space_group_name_H-M   'P 1'
_cell_length_a   6.59357200
_cell_length_b   6.59804100
_cell_length_c   25.78126387
_cell_angle_alpha   92.98314752
_cell_angle_beta   92.64184638
_cell_angle_gamma   99.01110435
_symmetry_Int_Tables_number   1
_chemical_formula_structural   Y5U2O12
_chemical_formula_sum   'Y20 U8 O48'
_cell_volume   1104.58683631
_cell_formula_units_Z   4
loop_
 _symmetry_equiv_pos_site_id
 _symmetry_equiv_pos_as_xyz
  1  'x, y, z'
loop_
 _atom_site_type_symbol
 _atom_site_label
 _atom_site_symmetry_multiplicity
 _atom_site_fract_x
 _atom_site_fract_y
 _atom_site_fract_z
 _atom_site_occupancy
  Y  Y0  1  0.75836700  0.59362100  0.90264400  1
  Y  Y1  1  0.52849500  0.06385400  0.92313900  1
  Y  Y2  1  0.50919500  0.34314300  0.65260500  1
  Y  Y3  1  0.47146900  0.17755100  0.78343000  1
  Y  Y4  1  0.27826100  0.81252100  0.67326800  1
  Y  Y5  1  0.25887300  0.09339600  0.40248200  1
  Y  Y6  1  0.22136400  0.92739200  0.53344800  1
  Y  Y7  1  0.02839300  0.56239000  0.42340300  1
  Y  Y8  1  0.00946300  0.83516300  0.15259500  1
  Y  Y9  1  0.27922300  0.57145400  0.96405200  1
  Y  Y10  1  0.97014000  0.67707900  0.28378100  1
  Y  Y11  1  0.22181000  0.68539700  0.82825100  1
  Y  Y12  1  0.78250200  0.31566100  0.17239300  1
  Y  Y13  1  0.02979700  0.32320400  0.71396300  1
  Y  Y14  1  0.73053800  0.42947600  0.03449400  1
  Y  Y15  1  0.97189200  0.43505200  0.57823700  1
  Y  Y16  1  0.77974700  0.07307100  0.46397600  1
  Y  Y17  1  0.72164000  0.18536300  0.32818600  1
  Y  Y18  1  0.52663800  0.82264400  0.21451600  1
  Y  Y19  1  0.23366400  0.41096400  0.09872000  1
  U  U20  1  0.50064100  0.49821700  0.50090600  1
  U  U21  1  0.24990200  0.24784400  0.25000800  1
  U  U22  1  0.00376400  0.00045500  0.00024700  1
  U  U23  1  0.98722300  0.15876000  0.84904900  1
  U  U24  1  0.73735100  0.90804000  0.59919100  1
  U  U25  1  0.75054700  0.74839500  0.75093400  1
  U  U26  1  0.48679000  0.65820100  0.34922100  1
  U  U27  1  0.47507000  0.93841900  0.07774600  1
  O  O28  1  0.86359100  0.99954900  0.92062700  1
  O  O29  1  0.91132600  0.67416400  0.98553100  1
  O  O30  1  0.61437600  0.74867200  0.67088200  1
  O  O31  1  0.68873300  0.26963900  0.85568900  1
  O  O32  1  0.65865800  0.42100500  0.73595800  1
  O  O33  1  0.36438400  0.49763400  0.42072500  1
  O  O34  1  0.45311800  0.82515400  0.76934500  1
  O  O35  1  0.54228000  0.38758200  0.95539800  1
  O  O36  1  0.43951800  0.01841900  0.60552700  1
  O  O37  1  0.40859300  0.17124000  0.48599000  1
  O  O38  1  0.11642100  0.24922500  0.17167600  1
  O  O39  1  0.46399800  0.72083100  0.89542800  1
  O  O40  1  0.20317200  0.57485300  0.51921500  1
  O  O41  1  0.29274500  0.13623900  0.70456300  1
  O  O42  1  0.18938800  0.76799700  0.35570600  1
  O  O43  1  0.15838100  0.92036800  0.23663400  1
  O  O44  1  0.27671900  0.04178100  0.85449100  1
  O  O45  1  0.21447200  0.47047100  0.64539700  1
  O  O46  1  0.95419600  0.32460200  0.26972000  1
  O  O47  1  0.04295100  0.88638600  0.45451600  1
  O  O48  1  0.92559500  0.52041900  0.10745300  1
  O  O49  1  0.20507800  0.36369100  0.79456100  1
  O  O50  1  0.30194100  0.92393700  0.98199700  1
  O  O51  1  0.02697100  0.79150300  0.60425500  1
  O  O52  1  0.96404400  0.22050600  0.39543900  1
  O  O53  1  0.70174700  0.07574900  0.01900100  1
  O  O54  1  0.78972900  0.63580800  0.20566000  1
  O  O55  1  0.07018600  0.46814000  0.89289100  1
  O  O56  1  0.95500700  0.11344000  0.54454900  1
  O  O57  1  0.04420500  0.67584300  0.73071500  1
  O  O58  1  0.77601500  0.54156300  0.35451900  1
  O  O59  1  0.71468700  0.96665900  0.14405000  1
  O  O60  1  0.84287300  0.07757700  0.76419200  1
  O  O61  1  0.81987900  0.21762000  0.64271700  1
  O  O62  1  0.70349200  0.86366800  0.29504900  1
  O  O63  1  0.79420600  0.42576200  0.48076700  1
  O  O64  1  0.52740800  0.26842800  0.10254400  1
  O  O65  1  0.88885100  0.75695300  0.83002600  1
  O  O66  1  0.59315700  0.82697000  0.51411800  1
  O  O67  1  0.56916100  0.96793000  0.39281400  1
  O  O68  1  0.46352700  0.62372600  0.04621500  1
  O  O69  1  0.54354700  0.17541700  0.22990700  1
  O  O70  1  0.63899000  0.50692000  0.57997600  1
  O  O71  1  0.34287100  0.57687000  0.26390900  1
  O  O72  1  0.32190500  0.72869900  0.14233300  1
  O  O73  1  0.38758100  0.25601200  0.32915800  1
  O  O74  1  0.09036300  0.32914500  0.01434200  1
  O  O75  1  0.13720200  0.99850500  0.07894100  1
