# generated using pymatgen
data_ScTlAg2
_symmetry_space_group_name_H-M   'P 1'
_cell_length_a   12.46447861
_cell_length_b   12.46447861
_cell_length_c   12.46447861
_cell_angle_alpha   125.35334139
_cell_angle_beta   124.38342569
_cell_angle_gamma   81.75851879
_symmetry_Int_Tables_number   1
_chemical_formula_structural   ScTlAg2
_chemical_formula_sum   'Sc1 Tl1 Ag2'
_cell_volume   1254.13623736
_cell_formula_units_Z   1
loop_
 _symmetry_equiv_pos_site_id
 _symmetry_equiv_pos_as_xyz
  1  'x, y, z'
loop_
 _atom_site_type_symbol
 _atom_site_label
 _atom_site_symmetry_multiplicity
 _atom_site_fract_x
 _atom_site_fract_y
 _atom_site_fract_z
 _atom_site_occupancy
  Sc  Sc0  1  0.00000000  0.00000000  0.00000000  1
  Tl  Tl1  1  0.00000000  0.50000000  0.50000000  1
  Ag  Ag2  1  0.00000000  0.24736500  0.24736500  1
  Ag  Ag3  1  0.00000000  0.75263500  0.75263500  1
