# generated using pymatgen
data_Ta2NbRe
_symmetry_space_group_name_H-M   'P 1'
_cell_length_a   10.67678158
_cell_length_b   10.67678158
_cell_length_c   10.67678158
_cell_angle_alpha   127.78841186
_cell_angle_beta   117.58778117
_cell_angle_gamma   85.64969208
_symmetry_Int_Tables_number   1
_chemical_formula_structural   Ta2NbRe
_chemical_formula_sum   'Ta2 Nb1 Re1'
_cell_volume   814.05532034
_cell_formula_units_Z   1
loop_
 _symmetry_equiv_pos_site_id
 _symmetry_equiv_pos_as_xyz
  1  'x, y, z'
loop_
 _atom_site_type_symbol
 _atom_site_label
 _atom_site_symmetry_multiplicity
 _atom_site_fract_x
 _atom_site_fract_y
 _atom_site_fract_z
 _atom_site_occupancy
  Ta  Ta0  1  0.00000000  0.25269600  0.25269600  1
  Ta  Ta1  1  0.00000000  0.74730400  0.74730400  1
  Nb  Nb2  1  0.00000000  0.00000000  0.00000000  1
  Re  Re3  1  0.00000000  0.50000000  0.50000000  1
