data_image0
_chemical_formula_structural       Ba2Cr2S4
_chemical_formula_sum              "Ba2 Cr2 S4"
_cell_length_a       4.58376
_cell_length_b       4.62603
_cell_length_c       9.16792
_cell_angle_alpha    90
_cell_angle_beta     90
_cell_angle_gamma    90

_space_group_name_H-M_alt    "P 1"
_space_group_IT_number       1

loop_
  _space_group_symop_operation_xyz
  'x, y, z'

loop_
  _atom_site_type_symbol
  _atom_site_label
  _atom_site_symmetry_multiplicity
  _atom_site_fract_x
  _atom_site_fract_y
  _atom_site_fract_z
  _atom_site_occupancy
  Ba  Ba1       1.0  0.25000  0.75000  0.31000  1.0000
  Ba  Ba2       1.0  0.75000  0.25000  0.69000  1.0000
  Cr  Cr1       1.0  0.75000  0.25000  0.08680  1.0000
  Cr  Cr2       1.0  0.25000  0.75000  0.91300  1.0000
  S   S1        1.0  0.75000  0.75000  0.00212  1.0000
  S   S2        1.0  0.75000  0.25000  0.34800  1.0000
  S   S3        1.0  0.25000  0.75000  0.65200  1.0000
  S   S4        1.0  0.25000  0.25000  0.99800  1.0000
