# generated using pymatgen
data_TiZn2O4
_symmetry_space_group_name_H-M   'P 1'
_cell_length_a   10.40996783
_cell_length_b   10.40996783
_cell_length_c   6.11163925
_cell_angle_alpha   89.86391624
_cell_angle_beta   89.86391624
_cell_angle_gamma   71.74855437
_symmetry_Int_Tables_number   1
_chemical_formula_structural   TiZn2O4
_chemical_formula_sum   'Ti8 Zn16 O32'
_cell_volume   628.98030379
_cell_formula_units_Z   8
loop_
 _symmetry_equiv_pos_site_id
 _symmetry_equiv_pos_as_xyz
  1  'x, y, z'
loop_
 _atom_site_type_symbol
 _atom_site_label
 _atom_site_symmetry_multiplicity
 _atom_site_fract_x
 _atom_site_fract_y
 _atom_site_fract_z
 _atom_site_occupancy
  Ti  Ti0  1  0.62434800  0.62669400  0.23658000  1
  Ti  Ti1  1  0.12600600  0.12270400  0.25052700  1
  Ti  Ti2  1  0.36809500  0.63190500  0.50000000  1
  Ti  Ti3  1  0.87843000  0.61754800  0.50197600  1
  Ti  Ti4  1  0.38245200  0.12157000  0.49802400  1
  Ti  Ti5  1  0.87729600  0.87399400  0.74947300  1
  Ti  Ti6  1  0.37330600  0.37565200  0.76342000  1
  Ti  Ti7  1  0.86880000  0.13120000  0.00000000  1
  Zn  Zn8  1  0.87948400  0.62118300  0.00096500  1
  Zn  Zn9  1  0.37881700  0.12051600  0.99903500  1
  Zn  Zn10  1  0.87531200  0.37431500  0.25032000  1
  Zn  Zn11  1  0.37599100  0.87525100  0.24265000  1
  Zn  Zn12  1  0.69128400  0.93715200  0.26189400  1
  Zn  Zn13  1  0.18860300  0.43548400  0.25627400  1
  Zn  Zn14  1  0.56013300  0.31499600  0.24688700  1
  Zn  Zn15  1  0.06010000  0.81321300  0.24380900  1
  Zn  Zn16  1  0.87194700  0.12805300  0.50000000  1
  Zn  Zn17  1  0.68500400  0.43986700  0.75311300  1
  Zn  Zn18  1  0.56451600  0.81139700  0.74372600  1
  Zn  Zn19  1  0.06284800  0.30871600  0.73810600  1
  Zn  Zn20  1  0.18678700  0.93990000  0.75619100  1
  Zn  Zn21  1  0.62568500  0.12468800  0.74968000  1
  Zn  Zn22  1  0.12474900  0.62400900  0.75735000  1
  Zn  Zn23  1  0.37128400  0.62871600  0.00000000  1
  O  O24  1  0.74378300  0.50742100  0.03092500  1
  O  O25  1  0.50977200  0.74224900  0.02400300  1
  O  O26  1  0.24612500  0.00769700  0.02803300  1
  O  O27  1  0.00387700  0.23340300  0.01175000  1
  O  O28  1  0.49933900  0.51709400  0.26597800  1
  O  O29  1  0.99969500  0.01611000  0.23415100  1
  O  O30  1  0.25112500  0.23309100  0.26205900  1
  O  O31  1  0.74922000  0.73399200  0.27033300  1
  O  O32  1  0.48870600  0.01321600  0.26803400  1
  O  O33  1  0.98752400  0.51507700  0.26793600  1
  O  O34  1  0.76123000  0.23545300  0.23125800  1
  O  O35  1  0.26188500  0.73656800  0.26571900  1
  O  O36  1  0.74893600  0.51610700  0.48750400  1
  O  O37  1  0.24573200  0.01737700  0.48436000  1
  O  O38  1  0.49926100  0.73447900  0.48207500  1
  O  O39  1  0.00273200  0.24088700  0.46619200  1
  O  O40  1  0.98262300  0.75426800  0.51564000  1
  O  O41  1  0.48389300  0.25106400  0.51249600  1
  O  O42  1  0.26552100  0.50073900  0.51792500  1
  O  O43  1  0.75911300  0.99726800  0.53380800  1
  O  O44  1  0.98678400  0.51129400  0.73196600  1
  O  O45  1  0.76454700  0.23877000  0.76874200  1
  O  O46  1  0.48492300  0.01247600  0.73206400  1
  O  O47  1  0.26343200  0.73811500  0.73428100  1
  O  O48  1  0.98389000  0.00030500  0.76584900  1
  O  O49  1  0.48290600  0.50066100  0.73402200  1
  O  O50  1  0.76690900  0.74887500  0.73794100  1
  O  O51  1  0.26600800  0.25078000  0.72966700  1
  O  O52  1  0.99230300  0.75387500  0.97196700  1
  O  O53  1  0.76659700  0.99612300  0.98825000  1
  O  O54  1  0.49257900  0.25621700  0.96907500  1
  O  O55  1  0.25775100  0.49022800  0.97599700  1
