# generated using pymatgen
data_MgAl2O4
_symmetry_space_group_name_H-M   'P 1'
_cell_length_a   5.78452937
_cell_length_b   5.78452937
_cell_length_c   33.17801425
_cell_angle_alpha   84.81009908
_cell_angle_beta   84.81009908
_cell_angle_gamma   59.73024688
_symmetry_Int_Tables_number   1
_chemical_formula_structural   MgAl2O4
_chemical_formula_sum   'Mg14 Al28 O56'
_cell_volume   953.57431412
_cell_formula_units_Z   14
loop_
 _symmetry_equiv_pos_site_id
 _symmetry_equiv_pos_as_xyz
  1  'x, y, z'
loop_
 _atom_site_type_symbol
 _atom_site_label
 _atom_site_symmetry_multiplicity
 _atom_site_fract_x
 _atom_site_fract_y
 _atom_site_fract_z
 _atom_site_occupancy
  Mg  Mg0  1  0.65652800  0.65652800  0.02030100  1
  Mg  Mg1  1  0.14252900  0.14252900  0.07171400  1
  Mg  Mg2  1  0.63007300  0.63007300  0.12515800  1
  Mg  Mg3  1  0.43026400  0.43026400  0.21437300  1
  Mg  Mg4  1  0.91569900  0.91569900  0.26871600  1
  Mg  Mg5  1  0.80347000  0.80347000  0.58680900  1
  Mg  Mg6  1  0.71629300  0.71629300  0.35702600  1
  Mg  Mg7  1  0.09006600  0.09006600  0.73158900  1
  Mg  Mg8  1  0.20132000  0.20132000  0.41165100  1
  Mg  Mg9  1  0.00205400  0.00205400  0.49970700  1
  Mg  Mg10  1  0.48619600  0.48619600  0.55408600  1
  Mg  Mg11  1  0.37584400  0.37584400  0.87448000  1
  Mg  Mg12  1  0.76763200  0.76763200  0.69550700  1
  Mg  Mg13  1  0.05299400  0.05299400  0.83936000  1
  Al  Al14  1  0.94002200  0.94002200  0.16097800  1
  Al  Al15  1  0.64303700  0.14268300  0.07236100  1
  Al  Al16  1  0.28564100  0.28564100  0.14119500  1
  Al  Al17  1  0.22530400  0.22530400  0.30270100  1
  Al  Al18  1  0.14268300  0.64303700  0.07236100  1
  Al  Al19  1  0.91897900  0.43363600  0.21493300  1
  Al  Al20  1  0.57106700  0.57106700  0.28427200  1
  Al  Al21  1  0.51107400  0.51107400  0.44435700  1
  Al  Al22  1  0.43363600  0.91897900  0.21493300  1
  Al  Al23  1  0.20391100  0.71932300  0.35762500  1
  Al  Al24  1  0.85679900  0.85679900  0.42676000  1
  Al  Al25  1  0.00401800  0.49274900  0.50017100  1
  Al  Al26  1  0.71932300  0.20391100  0.35762500  1
  Al  Al27  1  0.49274900  0.00401800  0.50017100  1
  Al  Al28  1  0.14539700  0.14539700  0.57124900  1
  Al  Al29  1  0.28539800  0.78713400  0.64258000  1
  Al  Al30  1  0.78713400  0.28539800  0.64258000  1
  Al  Al31  1  0.57109000  0.57109000  0.78536600  1
  Al  Al32  1  0.42906300  0.42906300  0.71366900  1
  Al  Al33  1  0.57113800  0.07254900  0.78536700  1
  Al  Al34  1  0.07254900  0.57113800  0.78536700  1
  Al  Al35  1  0.85397100  0.85397100  0.92857400  1
  Al  Al36  1  0.28599000  0.28599000  0.64287900  1
  Al  Al37  1  0.71430900  0.71430900  0.85636400  1
  Al  Al38  1  0.36239100  0.85485700  0.92882700  1
  Al  Al39  1  0.85485700  0.36239100  0.92882700  1
  Al  Al40  1  0.99564700  0.99564700  0.00354400  1
  Al  Al41  1  0.33981900  0.33981900  0.98291500  1
  O  O42  1  0.28065500  0.82360900  0.03617100  1
  O  O43  1  0.82360900  0.28065500  0.03617100  1
  O  O44  1  0.95826200  0.95826200  0.10594100  1
  O  O45  1  0.83576400  0.83576400  0.03840500  1
  O  O46  1  0.58466100  0.10742200  0.17750500  1
  O  O47  1  0.45139900  0.45139900  0.10349900  1
  O  O48  1  0.32684600  0.32684600  0.03606600  1
  O  O49  1  0.10742200  0.58466100  0.17750500  1
  O  O50  1  0.46079600  0.00399100  0.10515000  1
  O  O51  1  0.24285800  0.24285800  0.24639200  1
  O  O52  1  0.11359500  0.11359500  0.17832300  1
  O  O53  1  0.00399100  0.46079600  0.10515000  1
  O  O54  1  0.87171400  0.39229600  0.32016400  1
  O  O55  1  0.73832200  0.73832200  0.24765400  1
  O  O56  1  0.61593000  0.61593000  0.18332300  1
  O  O57  1  0.52846100  0.52846100  0.38840600  1
  O  O58  1  0.39229600  0.87171400  0.32016400  1
  O  O59  1  0.74698600  0.28715700  0.24877300  1
  O  O60  1  0.39817900  0.39817900  0.32071100  1
  O  O61  1  0.28715700  0.74698600  0.24877300  1
  O  O62  1  0.16047600  0.67679600  0.46259400  1
  O  O63  1  0.02390200  0.02390200  0.39069800  1
  O  O64  1  0.67679600  0.16047600  0.46259400  1
  O  O65  1  0.03277700  0.57219000  0.39170800  1
  O  O66  1  0.90150600  0.90150600  0.32655600  1
  O  O67  1  0.81385000  0.81385000  0.52721900  1
  O  O68  1  0.68133700  0.68133700  0.46293400  1
  O  O69  1  0.57219000  0.03277700  0.39170800  1
  O  O70  1  0.43055800  0.98228900  0.61041400  1
  O  O71  1  0.30917900  0.30917900  0.53452000  1
  O  O72  1  0.98228900  0.43055800  0.61041400  1
  O  O73  1  0.31836400  0.86007800  0.53657900  1
  O  O74  1  0.10844500  0.10844500  0.67320500  1
  O  O75  1  0.18660800  0.18660800  0.47014700  1
  O  O76  1  0.98064800  0.98064800  0.60970800  1
  O  O77  1  0.86007800  0.31836400  0.53657900  1
  O  O78  1  0.71438200  0.26642200  0.75301500  1
  O  O79  1  0.58872900  0.58872900  0.67777100  1
  O  O80  1  0.58911700  0.14468400  0.67788300  1
  O  O81  1  0.46261800  0.46261800  0.61408800  1
  O  O82  1  0.39458900  0.39458900  0.81613300  1
  O  O83  1  0.26642200  0.71438200  0.75301500  1
  O  O84  1  0.26673100  0.26673100  0.75301200  1
  O  O85  1  0.14468400  0.58911700  0.67788300  1
  O  O86  1  0.99920400  0.55231000  0.89560600  1
  O  O87  1  0.87463000  0.87463000  0.82061900  1
  O  O88  1  0.87485800  0.42939400  0.82063800  1
  O  O89  1  0.55231000  0.99920400  0.89560600  1
  O  O90  1  0.74785400  0.74785400  0.75649100  1
  O  O91  1  0.67967700  0.67967700  0.95935900  1
  O  O92  1  0.55269500  0.55269500  0.89579400  1
  O  O93  1  0.42939400  0.87485800  0.82063800  1
  O  O94  1  0.16974000  0.16974000  0.96384100  1
  O  O95  1  0.03332600  0.03332600  0.90130200  1
  O  O96  1  0.16677300  0.69645300  0.96323100  1
  O  O97  1  0.69645300  0.16677300  0.96323100  1
