# generated using pymatgen
data_MgAl2O4
_symmetry_space_group_name_H-M   'P 1'
_cell_length_a   23.84208970
_cell_length_b   23.84208970
_cell_length_c   23.84208979
_cell_angle_alpha   13.90222470
_cell_angle_beta   13.90222470
_cell_angle_gamma   13.90222410
_symmetry_Int_Tables_number   1
_chemical_formula_structural   MgAl2O4
_chemical_formula_sum   'Mg10 Al20 O40'
_cell_volume   680.88320622
_cell_formula_units_Z   10
loop_
 _symmetry_equiv_pos_site_id
 _symmetry_equiv_pos_as_xyz
  1  'x, y, z'
loop_
 _atom_site_type_symbol
 _atom_site_label
 _atom_site_symmetry_multiplicity
 _atom_site_fract_x
 _atom_site_fract_y
 _atom_site_fract_z
 _atom_site_occupancy
  Mg  Mg0  1  0.82418000  0.82418000  0.82418000  1
  Mg  Mg1  1  0.42401500  0.42401500  0.42401500  1
  Mg  Mg2  1  0.49968000  0.49968000  0.49968000  1
  Mg  Mg3  1  0.02481800  0.02481800  0.02481800  1
  Mg  Mg4  1  0.09932000  0.09932000  0.09932000  1
  Mg  Mg5  1  0.62518300  0.62518300  0.62518300  1
  Mg  Mg6  1  0.22504400  0.22504400  0.22504400  1
  Mg  Mg7  1  0.37579800  0.37579800  0.37579800  1
  Mg  Mg8  1  0.97511500  0.97511500  0.97511500  1
  Mg  Mg9  1  0.57479400  0.57479400  0.57479400  1
  Al  Al10  1  0.30476000  0.79060800  0.30476000  1
  Al  Al11  1  0.79060800  0.30476000  0.30476000  1
  Al  Al12  1  0.30476000  0.30476000  0.79060800  1
  Al  Al13  1  0.90272100  0.39420200  0.90272100  1
  Al  Al14  1  0.99995900  0.50027400  0.50027400  1
  Al  Al15  1  0.77603400  0.77603400  0.77603400  1
  Al  Al16  1  0.70018100  0.70018100  0.70018100  1
  Al  Al17  1  0.39420200  0.90272100  0.90272100  1
  Al  Al18  1  0.90272100  0.90272100  0.39420200  1
  Al  Al19  1  0.50027400  0.99995900  0.50027400  1
  Al  Al20  1  0.59937300  0.10049300  0.10049300  1
  Al  Al21  1  0.30019900  0.30019900  0.30019900  1
  Al  Al22  1  0.50027400  0.50027400  0.99995900  1
  Al  Al23  1  0.10049300  0.59937300  0.10049300  1
  Al  Al24  1  0.19488300  0.70282200  0.70282200  1
  Al  Al25  1  0.90039000  0.90039000  0.90039000  1
  Al  Al26  1  0.70282200  0.19488300  0.70282200  1
  Al  Al27  1  0.10049300  0.10049300  0.59937300  1
  Al  Al28  1  0.70282200  0.70282200  0.19488300  1
  Al  Al29  1  0.17529600  0.17529600  0.17529600  1
  O  O30  1  0.63403800  0.17594100  0.63403800  1
  O  O31  1  0.45202200  0.45202200  0.45202200  1
  O  O32  1  0.17594100  0.63403800  0.63403800  1
  O  O33  1  0.63403800  0.63403800  0.17594100  1
  O  O34  1  0.95844300  0.95844300  0.43830700  1
  O  O35  1  0.23461400  0.77321500  0.23461400  1
  O  O36  1  0.14909300  0.14909300  0.14909300  1
  O  O37  1  0.05204400  0.05204400  0.05204400  1
  O  O38  1  0.43830700  0.95844300  0.95844300  1
  O  O39  1  0.77321500  0.23461400  0.23461400  1
  O  O40  1  0.95844300  0.43830700  0.95844300  1
  O  O41  1  0.23461400  0.23461400  0.77321500  1
  O  O42  1  0.57194600  0.57194600  0.00931700  1
  O  O43  1  0.83078400  0.38536000  0.83078400  1
  O  O44  1  0.00931700  0.57194600  0.57194600  1
  O  O45  1  0.75006400  0.75006400  0.75006400  1
  O  O46  1  0.65269300  0.65269300  0.65269300  1
  O  O47  1  0.38536000  0.83078400  0.83078400  1
  O  O48  1  0.57194600  0.00931700  0.57194600  1
  O  O49  1  0.83078400  0.83078400  0.38536000  1
  O  O50  1  0.16920500  0.16920500  0.61414800  1
  O  O51  1  0.43097600  0.98504700  0.43097600  1
  O  O52  1  0.61414800  0.16920500  0.16920500  1
  O  O53  1  0.98504700  0.43097600  0.43097600  1
  O  O54  1  0.34750900  0.34750900  0.34750900  1
  O  O55  1  0.25265200  0.25265200  0.25265200  1
  O  O56  1  0.16920500  0.61414800  0.16920500  1
  O  O57  1  0.43097600  0.43097600  0.98504700  1
  O  O58  1  0.76860900  0.76860900  0.21526600  1
  O  O59  1  0.03025600  0.58749200  0.03025600  1
  O  O60  1  0.21526600  0.76860900  0.76860900  1
  O  O61  1  0.85256400  0.85256400  0.85256400  1
  O  O62  1  0.94719500  0.94719500  0.94719500  1
  O  O63  1  0.58749200  0.03025600  0.03025600  1
  O  O64  1  0.76860900  0.21526600  0.76860900  1
  O  O65  1  0.03025600  0.03025600  0.58749200  1
  O  O66  1  0.35448700  0.35448700  0.84577500  1
  O  O67  1  0.54636800  0.54636800  0.54636800  1
  O  O68  1  0.84577500  0.35448700  0.35448700  1
  O  O69  1  0.35448700  0.84577500  0.35448700  1
