# generated using pymatgen
data_Zn3Mo3O8
_symmetry_space_group_name_H-M   'P 1'
_cell_length_a   11.33058167
_cell_length_b   11.33058156
_cell_length_c   22.66090356
_cell_angle_alpha   29.88050889
_cell_angle_beta   29.88051033
_cell_angle_gamma   29.87941571
_symmetry_Int_Tables_number   1
_chemical_formula_structural   Zn3Mo3O8
_chemical_formula_sum   'Zn12 Mo12 O32'
_cell_volume   639.46495236
_cell_formula_units_Z   4
loop_
 _symmetry_equiv_pos_site_id
 _symmetry_equiv_pos_as_xyz
  1  'x, y, z'
loop_
 _atom_site_type_symbol
 _atom_site_label
 _atom_site_symmetry_multiplicity
 _atom_site_fract_x
 _atom_site_fract_y
 _atom_site_fract_z
 _atom_site_occupancy
  Zn  Zn0  1  0.00000000  0.00000000  0.00000000  1
  Zn  Zn1  1  0.17970300  0.17970300  0.08978400  1
  Zn  Zn2  1  0.30848900  0.30848900  0.15462600  1
  Zn  Zn3  1  0.00000000  0.00000000  0.50000000  1
  Zn  Zn4  1  0.49983100  0.49983100  0.24974900  1
  Zn  Zn5  1  0.17975500  0.17975500  0.58994900  1
  Zn  Zn6  1  0.30938900  0.30938900  0.65431000  1
  Zn  Zn7  1  0.69061100  0.69061100  0.34569000  1
  Zn  Zn8  1  0.82024500  0.82024500  0.41005100  1
  Zn  Zn9  1  0.50016900  0.50016900  0.75025100  1
  Zn  Zn10  1  0.69151100  0.69151100  0.84537400  1
  Zn  Zn11  1  0.82029700  0.82029700  0.91021600  1
  Mo  Mo12  1  0.27001400  0.27001400  0.35310400  1
  Mo  Mo13  1  0.26996200  0.70605700  0.13507600  1
  Mo  Mo14  1  0.70605700  0.26996200  0.13507600  1
  Mo  Mo15  1  0.29354500  0.72953000  0.36486100  1
  Mo  Mo16  1  0.72953000  0.29354500  0.36486100  1
  Mo  Mo17  1  0.72958700  0.72958700  0.14684400  1
  Mo  Mo18  1  0.27041300  0.27041300  0.85315600  1
  Mo  Mo19  1  0.27047000  0.70645500  0.63513900  1
  Mo  Mo20  1  0.70645500  0.27047000  0.63513900  1
  Mo  Mo21  1  0.29394300  0.73003800  0.86492400  1
  Mo  Mo22  1  0.73003800  0.29394300  0.86492400  1
  Mo  Mo23  1  0.72998600  0.72998600  0.64689600  1
  O  O24  1  0.11651700  0.11651700  0.05849600  1
  O  O25  1  0.10684400  0.10684400  0.32389100  1
  O  O26  1  0.10671200  0.64770300  0.05376600  1
  O  O27  1  0.64770300  0.10671200  0.05376600  1
  O  O28  1  0.36991700  0.36991700  0.18501800  1
  O  O29  1  0.11697300  0.11697300  0.55826300  1
  O  O30  1  0.14448300  0.61567600  0.30780800  1
  O  O31  1  0.61567600  0.14448300  0.30780800  1
  O  O32  1  0.61572200  0.61572200  0.07214500  1
  O  O33  1  0.38428400  0.38428400  0.42717400  1
  O  O34  1  0.38425100  0.85453700  0.19208600  1
  O  O35  1  0.85453700  0.38425100  0.19208600  1
  O  O36  1  0.10749400  0.10749400  0.82382500  1
  O  O37  1  0.10761500  0.64774500  0.55339900  1
  O  O38  1  0.64774500  0.10761500  0.55339900  1
  O  O39  1  0.62961900  0.62961900  0.31487900  1
  O  O40  1  0.37038100  0.37038100  0.68512100  1
  O  O41  1  0.35225500  0.89238500  0.44660100  1
  O  O42  1  0.89238500  0.35225500  0.44660100  1
  O  O43  1  0.89250600  0.89250600  0.17617500  1
  O  O44  1  0.14546300  0.61574900  0.80791400  1
  O  O45  1  0.61574900  0.14546300  0.80791400  1
  O  O46  1  0.61571600  0.61571600  0.57282600  1
  O  O47  1  0.38427800  0.38427800  0.92785500  1
  O  O48  1  0.38432400  0.85551700  0.69219200  1
  O  O49  1  0.85551700  0.38432400  0.69219200  1
  O  O50  1  0.88302700  0.88302700  0.44173700  1
  O  O51  1  0.63008300  0.63008300  0.81498200  1
  O  O52  1  0.35229700  0.89328800  0.94623400  1
  O  O53  1  0.89328800  0.35229700  0.94623400  1
  O  O54  1  0.89315600  0.89315600  0.67610900  1
  O  O55  1  0.88348300  0.88348300  0.94150400  1
