# generated using pymatgen
data_Er2CdS4
_symmetry_space_group_name_H-M   'P 1'
_cell_length_a   32.68307389
_cell_length_b   32.68307389
_cell_length_c   32.68307322
_cell_angle_alpha   13.99091066
_cell_angle_beta   13.99091066
_cell_angle_gamma   13.99091185
_symmetry_Int_Tables_number   1
_chemical_formula_structural   Er2CdS4
_chemical_formula_sum   'Er20 Cd10 S40'
_cell_volume   1776.02614799
_cell_formula_units_Z   10
loop_
 _symmetry_equiv_pos_site_id
 _symmetry_equiv_pos_as_xyz
  1  'x, y, z'
loop_
 _atom_site_type_symbol
 _atom_site_label
 _atom_site_symmetry_multiplicity
 _atom_site_fract_x
 _atom_site_fract_y
 _atom_site_fract_z
 _atom_site_occupancy
  Er  Er0  1  0.99980000  0.99980000  0.99980000  1
  Er  Er1  1  0.39960300  0.39960300  0.39960300  1
  Er  Er2  1  0.38023700  0.87218800  0.87218800  1
  Er  Er3  1  0.87218800  0.38023700  0.87218800  1
  Er  Er4  1  0.77896300  0.27291500  0.27291500  1
  Er  Er5  1  0.87218800  0.87218800  0.38023700  1
  Er  Er6  1  0.27291500  0.77896300  0.27291500  1
  Er  Er7  1  0.17496600  0.67497500  0.67497500  1
  Er  Er8  1  0.27291500  0.27291500  0.77896300  1
  Er  Er9  1  0.47489200  0.47489200  0.47489200  1
  Er  Er10  1  0.67497500  0.17496600  0.67497500  1
  Er  Er11  1  0.67497500  0.67497500  0.17496600  1
  Er  Er12  1  0.57498700  0.07494200  0.07494200  1
  Er  Er13  1  0.87496700  0.87496700  0.87496700  1
  Er  Er14  1  0.07494200  0.57498700  0.07494200  1
  Er  Er15  1  0.97588500  0.47447400  0.47447400  1
  Er  Er16  1  0.07494200  0.07494200  0.57498700  1
  Er  Er17  1  0.47447400  0.97588500  0.47447400  1
  Er  Er18  1  0.27489300  0.27489300  0.27489300  1
  Er  Er19  1  0.47447400  0.47447400  0.97588500  1
  Cd  Cd20  1  0.35039100  0.35039100  0.35039100  1
  Cd  Cd21  1  0.67569300  0.67569300  0.67569300  1
  Cd  Cd22  1  0.75053300  0.75053300  0.75053300  1
  Cd  Cd23  1  0.79984400  0.79984400  0.79984400  1
  Cd  Cd24  1  0.07557600  0.07557600  0.07557600  1
  Cd  Cd25  1  0.15012500  0.15012500  0.15012500  1
  Cd  Cd26  1  0.19991100  0.19991100  0.19991100  1
  Cd  Cd27  1  0.54997100  0.54997100  0.54997100  1
  Cd  Cd28  1  0.59991600  0.59991600  0.59991600  1
  Cd  Cd29  1  0.94986000  0.94986000  0.94986000  1
  S  S30  1  0.53489400  0.53489400  0.00725200  1
  S  S31  1  0.53489400  0.00725200  0.53489400  1
  S  S32  1  0.72351600  0.72351600  0.72351600  1
  S  S33  1  0.00725200  0.53489400  0.53489400  1
  S  S34  1  0.93506800  0.93506800  0.40698300  1
  S  S35  1  0.74504800  0.21380900  0.21380900  1
  S  S36  1  0.02659300  0.02659300  0.02659300  1
  S  S37  1  0.21380900  0.74504800  0.21380900  1
  S  S38  1  0.12349100  0.12349100  0.12349100  1
  S  S39  1  0.93506800  0.40698300  0.93506800  1
  S  S40  1  0.21380900  0.21380900  0.74504800  1
  S  S41  1  0.40698300  0.93506800  0.93506800  1
  S  S42  1  0.14660300  0.61332800  0.61332800  1
  S  S43  1  0.33624200  0.33624200  0.80419200  1
  S  S44  1  0.33624200  0.80419200  0.33624200  1
  S  S45  1  0.42649800  0.42649800  0.42649800  1
  S  S46  1  0.61332800  0.14660300  0.61332800  1
  S  S47  1  0.52339300  0.52339300  0.52339300  1
  S  S48  1  0.61332800  0.61332800  0.14660300  1
  S  S49  1  0.80419200  0.33624200  0.33624200  1
  S  S50  1  0.73625000  0.73625000  0.20422200  1
  S  S51  1  0.54600400  0.01374000  0.01374000  1
  S  S52  1  0.01374000  0.54600400  0.01374000  1
  S  S53  1  0.82659500  0.82659500  0.82659500  1
  S  S54  1  0.92339200  0.92339200  0.92339200  1
  S  S55  1  0.73625000  0.20422200  0.73625000  1
  S  S56  1  0.01374000  0.01374000  0.54600400  1
  S  S57  1  0.20422200  0.73625000  0.73625000  1
  S  S58  1  0.13617400  0.13617400  0.60424400  1
  S  S59  1  0.94598100  0.41376700  0.41376700  1
  S  S60  1  0.22663300  0.22663300  0.22663300  1
  S  S61  1  0.41376700  0.94598100  0.41376700  1
  S  S62  1  0.32341300  0.32341300  0.32341300  1
  S  S63  1  0.13617400  0.60424400  0.13617400  1
  S  S64  1  0.41376700  0.41376700  0.94598100  1
  S  S65  1  0.60424400  0.13617400  0.13617400  1
  S  S66  1  0.34366700  0.81453800  0.81453800  1
  S  S67  1  0.81453800  0.34366700  0.81453800  1
  S  S68  1  0.62665800  0.62665800  0.62665800  1
  S  S69  1  0.81453800  0.81453800  0.34366700  1
