# generated using pymatgen
data_YZr5Si5PO24
_symmetry_space_group_name_H-M   'P 1'
_cell_length_a   5.64987790
_cell_length_b   5.64987790
_cell_length_c   28.77259200
_cell_angle_alpha   90.00000000
_cell_angle_beta   90.00000000
_cell_angle_gamma   115.60064459
_symmetry_Int_Tables_number   1
_chemical_formula_structural   YZr5Si5PO24
_chemical_formula_sum   'Y2 Zr10 Si10 P2 O48'
_cell_volume   828.28665711
_cell_formula_units_Z   2
loop_
 _symmetry_equiv_pos_site_id
 _symmetry_equiv_pos_as_xyz
  1  'x, y, z'
loop_
 _atom_site_type_symbol
 _atom_site_label
 _atom_site_symmetry_multiplicity
 _atom_site_fract_x
 _atom_site_fract_y
 _atom_site_fract_z
 _atom_site_occupancy
  Y  Y0  1  0.00000000  0.50000000  0.58589300  1
  Y  Y1  1  0.50000000  0.00000000  0.41410700  1
  Zr  Zr2  1  0.50000000  0.50000000  0.50000000  1
  Zr  Zr3  1  0.00000000  0.00000000  0.32855700  1
  Zr  Zr4  1  0.50000000  0.50000000  0.16468600  1
  Zr  Zr5  1  0.00000000  0.00000000  0.00000000  1
  Zr  Zr6  1  0.50000000  0.50000000  0.83531400  1
  Zr  Zr7  1  0.00000000  0.00000000  0.67144300  1
  Zr  Zr8  1  0.00000000  0.50000000  0.24660100  1
  Zr  Zr9  1  0.50000000  0.00000000  0.08232700  1
  Zr  Zr10  1  0.00000000  0.50000000  0.91767300  1
  Zr  Zr11  1  0.50000000  0.00000000  0.75339900  1
  Si  Si12  1  0.00000000  0.00000000  0.50000000  1
  Si  Si13  1  0.50000000  0.00000000  0.24726200  1
  Si  Si14  1  0.50000000  0.50000000  0.32846500  1
  Si  Si15  1  0.00000000  0.50000000  0.08243900  1
  Si  Si16  1  0.00000000  0.00000000  0.16452200  1
  Si  Si17  1  0.50000000  0.00000000  0.91756100  1
  Si  Si18  1  0.50000000  0.50000000  0.00000000  1
  Si  Si19  1  0.00000000  0.50000000  0.75273800  1
  Si  Si20  1  0.00000000  0.00000000  0.83547800  1
  Si  Si21  1  0.50000000  0.50000000  0.67153500  1
  P  P22  1  0.50000000  0.00000000  0.58507200  1
  P  P23  1  0.00000000  0.50000000  0.41492800  1
  O  O24  1  0.25175500  0.93161100  0.61525800  1
  O  O25  1  0.56971000  0.24959200  0.55497100  1
  O  O26  1  0.43029000  0.75040800  0.55497100  1
  O  O27  1  0.75040800  0.43029000  0.44502900  1
  O  O28  1  0.74824500  0.06838900  0.61525800  1
  O  O29  1  0.06838900  0.74824500  0.38474200  1
  O  O30  1  0.72475700  0.90268500  0.47028500  1
  O  O31  1  0.93161100  0.25175500  0.38474200  1
  O  O32  1  0.22770800  0.91116300  0.27742100  1
  O  O33  1  0.09731500  0.27524300  0.52971500  1
  O  O34  1  0.24959200  0.56971000  0.44502900  1
  O  O35  1  0.90268500  0.72475700  0.52971500  1
  O  O36  1  0.58818100  0.27057300  0.21697600  1
  O  O37  1  0.22720800  0.41401000  0.29830700  1
  O  O38  1  0.41181900  0.72942700  0.21697600  1
  O  O39  1  0.72858000  0.41097400  0.11264700  1
  O  O40  1  0.27524300  0.09731500  0.47028500  1
  O  O41  1  0.59991700  0.77351200  0.35806100  1
  O  O42  1  0.77229200  0.08883700  0.27742100  1
  O  O43  1  0.40008300  0.22648800  0.35806100  1
  O  O44  1  0.08889700  0.77149100  0.05225000  1
  O  O45  1  0.72822600  0.91085000  0.13447900  1
  O  O46  1  0.91110300  0.22850900  0.05225000  1
  O  O47  1  0.22850900  0.91110300  0.94775000  1
  O  O48  1  0.77279200  0.58599000  0.29830700  1
  O  O49  1  0.08881300  0.27110400  0.19474700  1
  O  O50  1  0.27142000  0.58902600  0.11264700  1
  O  O51  1  0.91118700  0.72889600  0.19474700  1
  O  O52  1  0.58902600  0.27142000  0.88735300  1
  O  O53  1  0.22849200  0.41100700  0.96982000  1
  O  O54  1  0.41097400  0.72858000  0.88735300  1
  O  O55  1  0.72942700  0.41181900  0.78302400  1
  O  O56  1  0.27177400  0.08915000  0.13447900  1
  O  O57  1  0.58899300  0.77150800  0.03018000  1
  O  O58  1  0.77149100  0.08889700  0.94775000  1
  O  O59  1  0.41100700  0.22849200  0.03018000  1
  O  O60  1  0.08883700  0.77229200  0.72257900  1
  O  O61  1  0.72889600  0.91118700  0.80525300  1
  O  O62  1  0.91116300  0.22770800  0.72257900  1
  O  O63  1  0.77150800  0.58899300  0.96982000  1
  O  O64  1  0.08915000  0.27177400  0.86552100  1
  O  O65  1  0.27057300  0.58818100  0.78302400  1
  O  O66  1  0.91085000  0.72822600  0.86552100  1
  O  O67  1  0.22648800  0.40008300  0.64193900  1
  O  O68  1  0.27110400  0.08881300  0.80525300  1
  O  O69  1  0.58599000  0.77279200  0.70169300  1
  O  O70  1  0.41401000  0.22720800  0.70169300  1
  O  O71  1  0.77351200  0.59991700  0.64193900  1
