# generated using pymatgen
data_Li21V20O40
_symmetry_space_group_name_H-M   'P 1'
_cell_length_a   29.51687704
_cell_length_b   15.61730677
_cell_length_c   10.22668222
_cell_angle_alpha   29.20195992
_cell_angle_beta   29.99912710
_cell_angle_gamma   19.11291393
_symmetry_Int_Tables_number   1
_chemical_formula_structural   Li21V20O40
_chemical_formula_sum   'Li21 V20 O40'
_cell_volume   727.56444593
_cell_formula_units_Z   1
loop_
 _symmetry_equiv_pos_site_id
 _symmetry_equiv_pos_as_xyz
  1  'x, y, z'
loop_
 _atom_site_type_symbol
 _atom_site_label
 _atom_site_symmetry_multiplicity
 _atom_site_fract_x
 _atom_site_fract_y
 _atom_site_fract_z
 _atom_site_occupancy
  Li  Li0  1  0.99889700  0.00273300  0.00054200  1
  Li  Li1  1  0.09894400  0.00050600  0.00049700  1
  Li  Li2  1  0.19872600  0.99835800  0.99962700  1
  Li  Li3  1  0.26210300  0.03220800  0.03119100  1
  Li  Li4  1  0.38770100  0.03030200  0.03222700  1
  Li  Li5  1  0.19548400  0.51204500  0.99829900  1
  Li  Li6  1  0.50340600  0.99827000  0.99925000  1
  Li  Li7  1  0.60250600  0.99834200  0.99013900  1
  Li  Li8  1  0.39655200  0.51291800  0.98962000  1
  Li  Li9  1  0.70453900  0.99970800  0.98992200  1
  Li  Li10  1  0.09566000  0.99926100  0.51283600  1
  Li  Li11  1  0.80426900  0.98976800  0.99823800  1
  Li  Li12  1  0.63793500  0.40607700  0.03041600  1
  Li  Li13  1  0.90647100  0.99020900  0.99939700  1
  Li  Li14  1  0.29751000  0.99933500  0.51215000  1
  Li  Li15  1  0.80105000  0.49623700  0.00279000  1
  Li  Li16  1  0.51237200  0.03121600  0.40608100  1
  Li  Li17  1  0.45003600  0.87492300  0.87497500  1
  Li  Li18  1  0.99347400  0.51216800  0.99833700  1
  Li  Li19  1  0.70124100  0.98999700  0.51206700  1
  Li  Li20  1  0.90106700  0.00057700  0.49623400  1
  V  V21  1  0.09980600  0.49829800  0.00341800  1
  V  V22  1  0.09896400  0.50221200  0.49885900  1
  V  V23  1  0.29992500  0.50297200  0.99474100  1
  V  V24  1  0.20064400  0.49852300  0.49820200  1
  V  V25  1  0.00244100  0.99472700  0.50032100  1
  V  V26  1  0.29966900  0.49917700  0.50136800  1
  V  V27  1  0.50011400  0.50134500  0.99810200  1
  V  V28  1  0.39986100  0.50143800  0.49917600  1
  V  V29  1  0.19799400  0.00486400  0.49849000  1
  V  V30  1  0.50131900  0.49925400  0.49833000  1
  V  V31  1  0.69936300  0.49843500  0.00485200  1
  V  V32  1  0.60007100  0.50032100  0.50199000  1
  V  V33  1  0.39869000  0.00338200  0.49900600  1
  V  V34  1  0.70203700  0.49813600  0.49842600  1
  V  V35  1  0.90098500  0.49889700  0.99809700  1
  V  V36  1  0.80021700  0.49898400  0.49928100  1
  V  V37  1  0.60033000  0.99806100  0.50140200  1
  V  V38  1  0.89753300  0.50200300  0.50301000  1
  V  V39  1  0.99901300  0.50081100  0.50216800  1
  V  V40  1  0.80102800  0.99813300  0.50081600  1
  O  O41  1  0.09407200  0.25950900  0.25859100  1
  O  O42  1  0.00058800  0.25823600  0.73353400  1
  O  O43  1  0.19175500  0.25851600  0.25824500  1
  O  O44  1  0.09362600  0.26561300  0.74508700  1
  O  O45  1  0.29703800  0.25795600  0.25423000  1
  O  O46  1  0.19975300  0.25823300  0.73397100  1
  O  O47  1  0.10706800  0.73348200  0.25298400  1
  O  O48  1  0.39374700  0.25855200  0.24802600  1
  O  O49  1  0.00864900  0.73951000  0.74563800  1
  O  O50  1  0.29406400  0.26307400  0.74629000  1
  O  O51  1  0.19893300  0.74143400  0.26622800  1
  O  O52  1  0.10278200  0.74159700  0.74717100  1
  O  O53  1  0.49802700  0.25770700  0.25199700  1
  O  O54  1  0.30575100  0.73273700  0.25774000  1
  O  O55  1  0.40197800  0.25756800  0.73273000  1
  O  O56  1  0.59422900  0.25199200  0.25758100  1
  O  O57  1  0.20552600  0.74861000  0.74142000  1
  O  O58  1  0.49430400  0.26703800  0.74157100  1
  O  O59  1  0.39749900  0.74786700  0.26311700  1
  O  O60  1  0.30243600  0.74695900  0.73953000  1
  O  O61  1  0.70026700  0.24917300  0.25857100  1
  O  O62  1  0.60296200  0.25533900  0.73247100  1
  O  O63  1  0.50626200  0.73390100  0.25950200  1
  O  O64  1  0.79295700  0.25526600  0.25824100  1
  O  O65  1  0.40566800  0.74716800  0.74428700  1
  O  O66  1  0.69446300  0.26625400  0.74376000  1
  O  O67  1  0.59757100  0.74563600  0.26786800  1
  O  O68  1  0.50253000  0.74626900  0.74266900  1
  O  O69  1  0.89942800  0.25296000  0.25520900  1
  O  O70  1  0.80592300  0.24798300  0.73392000  1
  O  O71  1  0.70828300  0.73396900  0.24922300  1
  O  O72  1  0.99371400  0.25427100  0.25533000  1
  O  O73  1  0.60597900  0.74267300  0.74789900  1
  O  O74  1  0.89134800  0.26787600  0.74701000  1
  O  O75  1  0.79720100  0.74426600  0.26700800  1
  O  O76  1  0.70105100  0.74376000  0.74862200  1
  O  O77  1  0.90627700  0.73242100  0.25797700  1
  O  O78  1  0.80635800  0.74449000  0.74482800  1
  O  O79  1  0.99795700  0.74487700  0.26555700  1
  O  O80  1  0.90202700  0.74512600  0.74447400  1
