# generated using pymatgen
data_K10Zr3Mn(MoO4)12
_symmetry_space_group_name_H-M   'P 1'
_cell_length_a   14.28525591
_cell_length_b   14.28525591
_cell_length_c   14.28525630
_cell_angle_alpha   44.50957158
_cell_angle_beta   44.50957158
_cell_angle_gamma   44.50957374
_symmetry_Int_Tables_number   1
_chemical_formula_structural   K10Zr3Mn(MoO4)12
_chemical_formula_sum   'K10 Zr3 Mn1 Mo12 O48'
_cell_volume   1302.60707023
_cell_formula_units_Z   1
loop_
 _symmetry_equiv_pos_site_id
 _symmetry_equiv_pos_as_xyz
  1  'x, y, z'
loop_
 _atom_site_type_symbol
 _atom_site_label
 _atom_site_symmetry_multiplicity
 _atom_site_fract_x
 _atom_site_fract_y
 _atom_site_fract_z
 _atom_site_occupancy
  K  K0  1  0.89448600  0.89448600  0.89448600  1
  K  K1  1  0.60069900  0.60069900  0.60069900  1
  K  K2  1  0.87317100  0.12085000  0.50585100  1
  K  K3  1  0.50585100  0.87317100  0.12085000  1
  K  K4  1  0.12085000  0.50585100  0.87317100  1
  K  K5  1  0.40118500  0.40118500  0.40118500  1
  K  K6  1  0.60665200  0.38700700  0.00612200  1
  K  K7  1  0.38700700  0.00612200  0.60665200  1
  K  K8  1  0.00612200  0.60665200  0.38700700  1
  K  K9  1  0.10754000  0.10754000  0.10754000  1
  Zr  Zr10  1  0.00010200  0.00010200  0.00010200  1
  Zr  Zr11  1  0.75219000  0.75219000  0.75219000  1
  Zr  Zr12  1  0.24794800  0.24794800  0.24794800  1
  Mn  Mn13  1  0.50013000  0.50013000  0.50013000  1
  Mo  Mo14  1  0.98928100  0.22736000  0.63051400  1
  Mo  Mo15  1  0.63051400  0.98928100  0.22736000  1
  Mo  Mo16  1  0.86398200  0.51539100  0.27397200  1
  Mo  Mo17  1  0.22736000  0.63051400  0.98928100  1
  Mo  Mo18  1  0.51539100  0.27397200  0.86398200  1
  Mo  Mo19  1  0.27397200  0.86398200  0.51539100  1
  Mo  Mo20  1  0.72674600  0.48534800  0.13532400  1
  Mo  Mo21  1  0.48534800  0.13532400  0.72674600  1
  Mo  Mo22  1  0.77345200  0.01132200  0.36885500  1
  Mo  Mo23  1  0.13532400  0.72674600  0.48534800  1
  Mo  Mo24  1  0.36885500  0.77345200  0.01132200  1
  Mo  Mo25  1  0.01132200  0.36885500  0.77345200  1
  O  O26  1  0.95429200  0.74745400  0.64754300  1
  O  O27  1  0.74745400  0.64754300  0.95429200  1
  O  O28  1  0.64754300  0.95429200  0.74745400  1
  O  O29  1  0.85357300  0.54727500  0.75069800  1
  O  O30  1  0.95241300  0.21559600  0.92571200  1
  O  O31  1  0.92571200  0.95241300  0.21559600  1
  O  O32  1  0.75069800  0.85357300  0.54727500  1
  O  O33  1  0.54727500  0.75069800  0.85357300  1
  O  O34  1  0.86639400  0.39498500  0.64792800  1
  O  O35  1  0.21559600  0.92571200  0.95241300  1
  O  O36  1  0.64792800  0.86639400  0.39498500  1
  O  O37  1  0.86172500  0.60136100  0.32233700  1
  O  O38  1  0.90386400  0.17918300  0.63314600  1
  O  O39  1  0.39498500  0.64792800  0.86639400  1
  O  O40  1  0.60136100  0.32233700  0.86172500  1
  O  O41  1  0.63314600  0.90386400  0.17918300  1
  O  O42  1  0.84296500  0.64016900  0.10690000  1
  O  O43  1  0.32233700  0.86172500  0.60136100  1
  O  O44  1  0.71777700  0.45473600  0.42436500  1
  O  O45  1  0.64016900  0.10690000  0.84296500  1
  O  O46  1  0.17918300  0.63314600  0.90386400  1
  O  O47  1  0.45473600  0.42436500  0.71777700  1
  O  O48  1  0.89406600  0.36189100  0.15534600  1
  O  O49  1  0.42436500  0.71777700  0.45473600  1
  O  O50  1  0.57590100  0.54483400  0.28243600  1
  O  O51  1  0.10690000  0.84296500  0.64016900  1
  O  O52  1  0.54483400  0.28243600  0.57590100  1
  O  O53  1  0.82252900  0.09688500  0.36498700  1
  O  O54  1  0.36189100  0.15534600  0.89406600  1
  O  O55  1  0.28243600  0.57590100  0.54483400  1
  O  O56  1  0.67932200  0.39931100  0.13658100  1
  O  O57  1  0.15534600  0.89406600  0.36189100  1
  O  O58  1  0.36498700  0.82252900  0.09688500  1
  O  O59  1  0.39931100  0.13658100  0.67932200  1
  O  O60  1  0.60616200  0.13531500  0.35038400  1
  O  O61  1  0.09688500  0.36498700  0.82252900  1
  O  O62  1  0.13658100  0.67932200  0.39931100  1
  O  O63  1  0.35038400  0.60616200  0.13531500  1
  O  O64  1  0.78470200  0.04690500  0.07463100  1
  O  O65  1  0.13531500  0.35038400  0.60616200  1
  O  O66  1  0.45312100  0.14841300  0.24883900  1
  O  O67  1  0.24883900  0.45312100  0.14841300  1
  O  O68  1  0.07463100  0.78470200  0.04690500  1
  O  O69  1  0.04690500  0.07463100  0.78470200  1
  O  O70  1  0.14841300  0.24883900  0.45312100  1
  O  O71  1  0.35450400  0.25196700  0.04609500  1
  O  O72  1  0.25196700  0.04609500  0.35450400  1
  O  O73  1  0.04609500  0.35450400  0.25196700  1
