# generated using pymatgen
data_Li7Mn16O32
_symmetry_space_group_name_H-M   'P 1'
_cell_length_a   23.11388882
_cell_length_b   8.17173088
_cell_length_c   10.01009456
_cell_angle_alpha   65.90981246
_cell_angle_beta   30.01264540
_cell_angle_gamma   45.00184476
_symmetry_Int_Tables_number   1
_chemical_formula_structural   Li7Mn16O32
_chemical_formula_sum   'Li7 Mn16 O32'
_cell_volume   546.17218284
_cell_formula_units_Z   1
loop_
 _symmetry_equiv_pos_site_id
 _symmetry_equiv_pos_as_xyz
  1  'x, y, z'
loop_
 _atom_site_type_symbol
 _atom_site_label
 _atom_site_symmetry_multiplicity
 _atom_site_fract_x
 _atom_site_fract_y
 _atom_site_fract_z
 _atom_site_occupancy
  Li  Li0  1  0.05994900  0.13009200  0.75327700  1
  Li  Li1  1  0.18739000  0.87522100  0.25000000  1
  Li  Li2  1  0.31538000  0.12268600  0.74654600  1
  Li  Li3  1  0.43737400  0.87525300  0.25000000  1
  Li  Li4  1  0.56322600  0.12355800  0.74672300  1
  Li  Li5  1  0.81192600  0.12270300  0.75345400  1
  Li  Li6  1  0.93737400  0.87525300  0.25000000  1
  Mn  Mn7  1  0.12450900  0.00099200  0.00100800  1
  Mn  Mn8  1  0.25189000  0.49790100  0.99637100  1
  Mn  Mn9  1  0.37677000  0.99847100  0.99632000  1
  Mn  Mn10  1  0.12309000  0.50180800  0.50368000  1
  Mn  Mn11  1  0.25042000  0.50009100  0.49907900  1
  Mn  Mn12  1  0.49949900  0.50007200  0.00092100  1
  Mn  Mn13  1  0.62611100  0.99777700  0.99950500  1
  Mn  Mn14  1  0.37561600  0.49877000  0.50049500  1
  Mn  Mn15  1  0.50022000  0.49786500  0.49973200  1
  Mn  Mn16  1  0.87474900  0.99847200  0.00035400  1
  Mn  Mn17  1  0.74995200  0.50179200  0.00026800  1
  Mn  Mn18  1  0.62510400  0.50182200  0.49964600  1
  Mn  Mn19  1  0.74887700  0.50172100  0.50052300  1
  Mn  Mn20  1  0.99940000  0.50172300  0.99947700  1
  Mn  Mn21  1  0.87551700  0.49895700  0.49899200  1
  Mn  Mn22  1  0.99826100  0.50179800  0.50362900  1
  O  O23  1  0.10563400  0.26267700  0.02623600  1
  O  O24  1  0.24345500  0.26324800  0.02645800  1
  O  O25  1  0.01991300  0.71001400  0.47354200  1
  O  O26  1  0.13155600  0.26340500  0.47354900  1
  O  O27  1  0.35510400  0.26327500  0.02645100  1
  O  O28  1  0.23078600  0.28884500  0.52563700  1
  O  O29  1  0.11847500  0.73728400  0.52593700  1
  O  O30  1  0.00697900  0.73676800  0.97324000  1
  O  O31  1  0.49310600  0.26361200  0.02635400  1
  O  O32  1  0.38168600  0.26318000  0.47329800  1
  O  O33  1  0.26946000  0.71125500  0.47364600  1
  O  O34  1  0.60498400  0.26347800  0.02670200  1
  O  O35  1  0.14412000  0.73772500  0.97446900  1
  O  O36  1  0.47728400  0.29525400  0.53029400  1
  O  O37  1  0.36802200  0.73802200  0.52668700  1
  O  O38  1  0.25647400  0.73722100  0.97405400  1
  O  O39  1  0.74314000  0.26325400  0.02709300  1
  O  O40  1  0.63178700  0.26295200  0.47309600  1
  O  O41  1  0.52023300  0.70999900  0.47290700  1
  O  O42  1  0.85488300  0.26370800  0.02690400  1
  O  O43  1  0.39441200  0.73694300  0.97406300  1
  O  O44  1  0.61750300  0.73505800  0.53011700  1
  O  O45  1  0.73021900  0.28883500  0.52676000  1
  O  O46  1  0.50642300  0.73673600  0.97436300  1
  O  O47  1  0.99330000  0.26325300  0.02676600  1
  O  O48  1  0.88187000  0.26231600  0.47376400  1
  O  O49  1  0.77006600  0.71001400  0.47323400  1
  O  O50  1  0.64470800  0.73651800  0.97331300  1
  O  O51  1  0.98052800  0.28877500  0.52594600  1
  O  O52  1  0.86858900  0.73685700  0.52553100  1
  O  O53  1  0.75757800  0.73502100  0.96970600  1
  O  O54  1  0.89762000  0.73469700  0.96988300  1
