# generated using pymatgen
data_Na13Ca7S12(O16F)3
_symmetry_space_group_name_H-M   'P 1'
_cell_length_a   6.96955300
_cell_length_b   9.53247700
_cell_length_c   16.56412170
_cell_angle_alpha   89.89906894
_cell_angle_beta   90.00000000
_cell_angle_gamma   90.00000000
_symmetry_Int_Tables_number   1
_chemical_formula_structural   Na13Ca7S12(O16F)3
_chemical_formula_sum   'Na13 Ca7 S12 O48 F3'
_cell_volume   1100.47056320
_cell_formula_units_Z   1
loop_
 _symmetry_equiv_pos_site_id
 _symmetry_equiv_pos_as_xyz
  1  'x, y, z'
loop_
 _atom_site_type_symbol
 _atom_site_label
 _atom_site_symmetry_multiplicity
 _atom_site_fract_x
 _atom_site_fract_y
 _atom_site_fract_z
 _atom_site_occupancy
  Na  Na0  1  0.00000000  0.71163300  0.00493000  1
  Na  Na1  1  0.24240400  0.49577100  0.16766400  1
  Na  Na2  1  0.75759600  0.49577100  0.16766400  1
  Na  Na3  1  0.50000000  0.37347100  0.37805200  1
  Na  Na4  1  0.00000000  0.14466900  0.13422100  1
  Na  Na5  1  0.00000000  0.12872800  0.85828500  1
  Na  Na6  1  0.74707800  0.00723800  0.33137400  1
  Na  Na7  1  0.24015700  0.99507800  0.66912900  1
  Na  Na8  1  0.25292200  0.00723800  0.33137400  1
  Na  Na9  1  0.75984300  0.99507800  0.66912900  1
  Na  Na10  1  0.00000000  0.63115700  0.62347300  1
  Na  Na11  1  0.75465800  0.50039100  0.83174100  1
  Na  Na12  1  0.24534200  0.50039100  0.83174100  1
  Ca  Ca13  1  0.00000000  0.62001900  0.37465300  1
  Ca  Ca14  1  0.00000000  0.26215400  0.50261500  1
  Ca  Ca15  1  0.50000000  0.88028600  0.12427300  1
  Ca  Ca16  1  0.50000000  0.87459500  0.87882400  1
  Ca  Ca17  1  0.50000000  0.74509700  0.49918100  1
  Ca  Ca18  1  0.50000000  0.38430000  0.62196100  1
  Ca  Ca19  1  0.50000000  0.24341700  0.99820800  1
  S  S20  1  0.50000000  0.67445200  0.30560500  1
  S  S21  1  0.50000000  0.62242300  0.01257600  1
  S  S22  1  0.00000000  0.29039800  0.32168000  1
  S  S23  1  0.50000000  0.20897200  0.18103200  1
  S  S24  1  0.50000000  0.17071300  0.80436000  1
  S  S25  1  0.50000000  0.11977700  0.51259900  1
  S  S26  1  0.00000000  0.88123000  0.48759700  1
  S  S27  1  0.00000000  0.82843400  0.19292000  1
  S  S28  1  0.00000000  0.79717000  0.82158300  1
  S  S29  1  0.50000000  0.71053900  0.68253900  1
  S  S30  1  0.00000000  0.36395100  0.98795700  1
  S  S31  1  0.00000000  0.33167200  0.69046300  1
  O  O32  1  0.67113900  0.70146100  0.04199700  1
  O  O33  1  0.32886100  0.70146100  0.04199700  1
  O  O34  1  0.00000000  0.68299600  0.16089400  1
  O  O35  1  0.50000000  0.68568000  0.21572800  1
  O  O36  1  0.67291400  0.59459400  0.33198900  1
  O  O37  1  0.32708600  0.59459400  0.33198900  1
  O  O38  1  0.50000000  0.47875100  0.04818400  1
  O  O39  1  0.00000000  0.42060500  0.27119100  1
  O  O40  1  0.00000000  0.39499200  0.07593900  1
  O  O41  1  0.50000000  0.33627600  0.23205600  1
  O  O42  1  0.17216700  0.28890400  0.37549700  1
  O  O43  1  0.82783300  0.28890400  0.37549700  1
  O  O44  1  0.67127000  0.20947400  0.12637900  1
  O  O45  1  0.32873000  0.20947400  0.12637900  1
  O  O46  1  0.32890400  0.20255800  0.54006000  1
  O  O47  1  0.67109600  0.20255800  0.54006000  1
  O  O48  1  0.00000000  0.18754400  0.65500900  1
  O  O49  1  0.50000000  0.18897800  0.71501300  1
  O  O50  1  0.00000000  0.16279300  0.27066400  1
  O  O51  1  0.50000000  0.10103600  0.42427900  1
  O  O52  1  0.67106100  0.08682700  0.82924100  1
  O  O53  1  0.32893900  0.08682700  0.82924100  1
  O  O54  1  0.50000000  0.07789200  0.23068800  1
  O  O55  1  0.00000000  0.02092400  0.44715600  1
  O  O56  1  0.50000000  0.98131500  0.55494600  1
  O  O57  1  0.00000000  0.91830400  0.76485500  1
  O  O58  1  0.17202600  0.90738400  0.16421500  1
  O  O59  1  0.82797400  0.90738400  0.16421500  1
  O  O60  1  0.00000000  0.89601300  0.57609900  1
  O  O61  1  0.50000000  0.83468200  0.73725000  1
  O  O62  1  0.00000000  0.82549000  0.28346300  1
  O  O63  1  0.50000000  0.81605100  0.34404600  1
  O  O64  1  0.17142000  0.79915700  0.45926700  1
  O  O65  1  0.82858000  0.79915700  0.45926700  1
  O  O66  1  0.17219400  0.80337000  0.87564400  1
  O  O67  1  0.82780600  0.80337000  0.87564400  1
  O  O68  1  0.67176900  0.71704800  0.62891700  1
  O  O69  1  0.32823100  0.71704800  0.62891700  1
  O  O70  1  0.00000000  0.66210300  0.77649100  1
  O  O71  1  0.50000000  0.61535300  0.92259500  1
  O  O72  1  0.50000000  0.57763700  0.73034700  1
  O  O73  1  0.00000000  0.49691000  0.94023900  1
  O  O74  1  0.17262200  0.40946500  0.66121900  1
  O  O75  1  0.82737800  0.40946500  0.66121900  1
  O  O76  1  0.00000000  0.32771500  0.77997000  1
  O  O77  1  0.50000000  0.30966300  0.84582400  1
  O  O78  1  0.17190500  0.27874700  0.96542700  1
  O  O79  1  0.82809500  0.27874700  0.96542700  1
  F  F80  1  0.50000000  0.99818600  0.00009700  1
  F  F81  1  0.00000000  0.49726600  0.49027700  1
  F  F82  1  0.50000000  0.51064700  0.50760200  1
