# generated using pymatgen
data_Y2AgHg
_symmetry_space_group_name_H-M   'P 1'
_cell_length_a   12.34568167
_cell_length_b   12.34568167
_cell_length_c   12.34568167
_cell_angle_alpha   122.81942275
_cell_angle_beta   119.03604220
_cell_angle_gamma   88.43260269
_symmetry_Int_Tables_number   1
_chemical_formula_structural   Y2AgHg
_chemical_formula_sum   'Y2 Ag1 Hg1'
_cell_volume   1309.50730198
_cell_formula_units_Z   1
loop_
 _symmetry_equiv_pos_site_id
 _symmetry_equiv_pos_as_xyz
  1  'x, y, z'
loop_
 _atom_site_type_symbol
 _atom_site_label
 _atom_site_symmetry_multiplicity
 _atom_site_fract_x
 _atom_site_fract_y
 _atom_site_fract_z
 _atom_site_occupancy
  Y  Y0  1  0.00000000  0.25199700  0.25199700  1
  Y  Y1  1  0.00000000  0.74800300  0.74800300  1
  Ag  Ag2  1  0.00000000  0.00000000  0.00000000  1
  Hg  Hg3  1  0.00000000  0.50000000  0.50000000  1
