# generated using pymatgen
data_GaAsO4
_symmetry_space_group_name_H-M   'P 1'
_cell_length_a   9.44549631
_cell_length_b   9.44549631
_cell_length_c   8.93342937
_cell_angle_alpha   61.87568546
_cell_angle_beta   61.87568546
_cell_angle_gamma   52.20460937
_symmetry_Int_Tables_number   1
_chemical_formula_structural   GaAsO4
_chemical_formula_sum   'Ga9 As9 O36'
_cell_volume   536.05960365
_cell_formula_units_Z   9
loop_
 _symmetry_equiv_pos_site_id
 _symmetry_equiv_pos_as_xyz
  1  'x, y, z'
loop_
 _atom_site_type_symbol
 _atom_site_label
 _atom_site_symmetry_multiplicity
 _atom_site_fract_x
 _atom_site_fract_y
 _atom_site_fract_z
 _atom_site_occupancy
  Ga  Ga0  1  0.33895500  0.30520400  0.42571300  1
  Ga  Ga1  1  0.96357700  0.02049600  0.25776300  1
  Ga  Ga2  1  0.69479600  0.66104500  0.57428700  1
  Ga  Ga3  1  0.32680900  0.30575500  0.93802100  1
  Ga  Ga4  1  0.97950400  0.03642300  0.74223700  1
  Ga  Ga5  1  0.69424500  0.67319100  0.06197900  1
  Ga  Ga6  1  0.63890700  0.36109300  0.00000000  1
  Ga  Ga7  1  0.03669200  0.66685500  0.65197500  1
  Ga  Ga8  1  0.33314500  0.96330800  0.34802500  1
  As  As9  1  0.33261900  0.98030400  0.84661400  1
  As  As10  1  0.67313900  0.99654500  0.67627600  1
  As  As11  1  0.32799200  0.66095600  0.25381100  1
  As  As12  1  0.99605000  0.34158300  0.82640000  1
  As  As13  1  0.65841700  0.00395000  0.17360000  1
  As  As14  1  0.63812800  0.36187200  0.50000000  1
  As  As15  1  0.01969600  0.66738100  0.15338600  1
  As  As16  1  0.00345500  0.32686100  0.32372400  1
  As  As17  1  0.33904400  0.67200800  0.74618900  1
  O  O18  1  0.87844700  0.24627800  0.81926300  1
  O  O19  1  0.75372200  0.12155300  0.18073700  1
  O  O20  1  0.22110700  0.20097000  0.67218000  1
  O  O21  1  0.11440200  0.11231900  0.99399700  1
  O  O22  1  0.79903000  0.77889300  0.32782000  1
  O  O23  1  0.11436100  0.77418900  0.18151200  1
  O  O24  1  0.22581100  0.88563900  0.81848800  1
  O  O25  1  0.45056100  0.08493800  0.85157500  1
  O  O26  1  0.55948600  0.22133600  0.50732800  1
  O  O27  1  0.86258900  0.25117100  0.32311800  1
  O  O28  1  0.74882900  0.13741100  0.67688200  1
  O  O29  1  0.55370900  0.89682500  0.67112200  1
  O  O30  1  0.44417700  0.77020400  0.02553000  1
  O  O31  1  0.20755000  0.20553100  0.16993900  1
  O  O32  1  0.87554200  0.89795700  0.50514500  1
  O  O33  1  0.54762500  0.56970100  0.80474100  1
  O  O34  1  0.43029900  0.45237500  0.19525900  1
  O  O35  1  0.10204300  0.12445800  0.49485500  1
  O  O36  1  0.79446900  0.79245000  0.83006100  1
  O  O37  1  0.78910100  0.44549400  0.99684600  1
  O  O38  1  0.12494500  0.79194100  0.68713800  1
  O  O39  1  0.20805900  0.87505500  0.31286200  1
  O  O40  1  0.45467800  0.08704200  0.35227900  1
  O  O41  1  0.55450600  0.21089900  0.00315400  1
  O  O42  1  0.91295800  0.54532200  0.64772100  1
  O  O43  1  0.56488200  0.88627100  0.16466600  1
  O  O44  1  0.45492300  0.76438500  0.53049200  1
  O  O45  1  0.23561500  0.54507700  0.46950800  1
  O  O46  1  0.11372900  0.43511800  0.83533400  1
  O  O47  1  0.88768100  0.88559800  0.00600300  1
  O  O48  1  0.54604100  0.56622600  0.31297700  1
  O  O49  1  0.43377400  0.45395900  0.68702300  1
  O  O50  1  0.77866400  0.44051400  0.49267200  1
  O  O51  1  0.91506200  0.54943900  0.14842500  1
  O  O52  1  0.22979600  0.55582300  0.97447000  1
  O  O53  1  0.10317500  0.44629100  0.32887800  1
