# generated using pymatgen
data_KCa5Mg5Al(SiO3)12
_symmetry_space_group_name_H-M   'P 1'
_cell_length_a   6.66302055
_cell_length_b   6.66302055
_cell_length_c   15.95987558
_cell_angle_alpha   78.30423544
_cell_angle_beta   78.30423544
_cell_angle_gamma   85.14556226
_symmetry_Int_Tables_number   1
_chemical_formula_structural   KCa5Mg5Al(SiO3)12
_chemical_formula_sum   'K1 Ca5 Mg5 Al1 Si12 O36'
_cell_volume   678.73488545
_cell_formula_units_Z   1
loop_
 _symmetry_equiv_pos_site_id
 _symmetry_equiv_pos_as_xyz
  1  'x, y, z'
loop_
 _atom_site_type_symbol
 _atom_site_label
 _atom_site_symmetry_multiplicity
 _atom_site_fract_x
 _atom_site_fract_y
 _atom_site_fract_z
 _atom_site_occupancy
  K  K0  1  0.30560900  0.69439100  0.00000000  1
  Ca  Ca1  1  0.70088600  0.30529700  0.16763900  1
  Ca  Ca2  1  0.30313500  0.70093700  0.33216100  1
  Ca  Ca3  1  0.69962400  0.30037600  0.50000000  1
  Ca  Ca4  1  0.29906300  0.69686500  0.66783900  1
  Ca  Ca5  1  0.69470300  0.29911400  0.83236100  1
  Mg  Mg6  1  0.09440800  0.90381000  0.16588100  1
  Mg  Mg7  1  0.90770000  0.09086600  0.33392000  1
  Mg  Mg8  1  0.09370500  0.90629500  0.50000000  1
  Mg  Mg9  1  0.90913400  0.09230000  0.66608000  1
  Mg  Mg10  1  0.09619000  0.90559200  0.83411900  1
  Al  Al11  1  0.90565200  0.09434800  0.00000000  1
  Si  Si12  1  0.37809900  0.19571400  0.00949500  1
  Si  Si13  1  0.80428600  0.62190100  0.99050500  1
  Si  Si14  1  0.18855900  0.37609600  0.17633600  1
  Si  Si15  1  0.62420200  0.80626200  0.15666000  1
  Si  Si16  1  0.38102800  0.19240000  0.34041500  1
  Si  Si17  1  0.80924900  0.62172700  0.32630200  1
  Si  Si18  1  0.19467900  0.37916400  0.50638800  1
  Si  Si19  1  0.62083600  0.80532100  0.49361200  1
  Si  Si20  1  0.37827300  0.19075100  0.67369800  1
  Si  Si21  1  0.80760000  0.61897200  0.65958500  1
  Si  Si22  1  0.19373800  0.37579800  0.84334000  1
  Si  Si23  1  0.62390400  0.81144100  0.82366400  1
  O  O24  1  0.34636900  0.35666800  0.91602900  1
  O  O25  1  0.61706400  0.11556500  0.98213600  1
  O  O26  1  0.17835900  0.05312300  0.03467900  1
  O  O27  1  0.94687700  0.82164100  0.96532100  1
  O  O28  1  0.88443500  0.38293600  0.01786400  1
  O  O29  1  0.36895400  0.32245800  0.09061700  1
  O  O30  1  0.64333200  0.65363100  0.08397100  1
  O  O31  1  0.09115700  0.60262700  0.15280900  1
  O  O32  1  0.02617700  0.19494400  0.20393600  1
  O  O33  1  0.80030200  0.97877000  0.12118500  1
  O  O34  1  0.39152600  0.88582200  0.18439900  1
  O  O35  1  0.33108000  0.36883600  0.25342600  1
  O  O36  1  0.66816700  0.64296800  0.24800000  1
  O  O37  1  0.61242200  0.11237700  0.30812500  1
  O  O38  1  0.20476000  0.02592200  0.36964100  1
  O  O39  1  0.97510900  0.79850000  0.29784700  1
  O  O40  1  0.88427700  0.38808100  0.35627700  1
  O  O41  1  0.37194600  0.32961700  0.41892000  1
  O  O42  1  0.63291400  0.66824500  0.41476100  1
  O  O43  1  0.11638000  0.61120300  0.47509800  1
  O  O44  1  0.02762800  0.20312700  0.53564800  1
  O  O45  1  0.79687300  0.97237200  0.46435200  1
  O  O46  1  0.38879700  0.88362000  0.52490200  1
  O  O47  1  0.33175500  0.36708600  0.58523900  1
  O  O48  1  0.67038300  0.62805400  0.58108000  1
  O  O49  1  0.61191900  0.11572300  0.64372300  1
  O  O50  1  0.20150000  0.02489100  0.70215300  1
  O  O51  1  0.97407800  0.79524000  0.63035900  1
  O  O52  1  0.88762300  0.38757800  0.69187500  1
  O  O53  1  0.35703200  0.33183300  0.75200000  1
  O  O54  1  0.63116400  0.66892000  0.74657400  1
  O  O55  1  0.11417800  0.60847400  0.81560100  1
  O  O56  1  0.02123000  0.19969800  0.87881500  1
  O  O57  1  0.80505600  0.97382300  0.79606400  1
  O  O58  1  0.39737300  0.90884300  0.84719100  1
  O  O59  1  0.67754200  0.63104600  0.90938300  1
