# generated using pymatgen
data_MnSiO3
_symmetry_space_group_name_H-M   'P 1'
_cell_length_a   10.27450598
_cell_length_b   10.27450598
_cell_length_c   10.27450598
_cell_angle_alpha   109.12427508
_cell_angle_beta   109.12427508
_cell_angle_gamma   110.16736258
_symmetry_Int_Tables_number   1
_chemical_formula_structural   MnSiO3
_chemical_formula_sum   'Mn16 Si16 O48'
_cell_volume   834.85836589
_cell_formula_units_Z   16
loop_
 _symmetry_equiv_pos_site_id
 _symmetry_equiv_pos_as_xyz
  1  'x, y, z'
loop_
 _atom_site_type_symbol
 _atom_site_label
 _atom_site_symmetry_multiplicity
 _atom_site_fract_x
 _atom_site_fract_y
 _atom_site_fract_z
 _atom_site_occupancy
  Mn  Mn0  1  0.25813400  0.62565400  0.11501300  1
  Mn  Mn1  1  0.74903200  0.74903200  0.00000000  1
  Mn  Mn2  1  0.39312100  0.00813400  0.13248000  1
  Mn  Mn3  1  0.51064100  0.14312100  0.88498700  1
  Mn  Mn4  1  0.99903200  0.49903200  0.50000000  1
  Mn  Mn5  1  0.87565400  0.26064100  0.86752000  1
  Mn  Mn6  1  0.62500000  0.37500000  0.25000000  1
  Mn  Mn7  1  0.62500000  0.87500000  0.25000000  1
  Mn  Mn8  1  0.62500000  0.37500000  0.75000000  1
  Mn  Mn9  1  0.12500000  0.37500000  0.75000000  1
  Mn  Mn10  1  0.37434600  0.48935900  0.63248000  1
  Mn  Mn11  1  0.25096800  0.25096800  0.00000000  1
  Mn  Mn12  1  0.73935900  0.60687900  0.61501300  1
  Mn  Mn13  1  0.85687900  0.74186600  0.36752000  1
  Mn  Mn14  1  0.50096800  0.00096800  0.50000000  1
  Mn  Mn15  1  0.99186600  0.12434600  0.38498700  1
  Si  Si16  1  0.75842000  0.12071900  0.10925800  1
  Si  Si17  1  0.89916200  0.50842000  0.13770100  1
  Si  Si18  1  0.01146100  0.64916200  0.89074200  1
  Si  Si19  1  0.37071900  0.76146100  0.86229900  1
  Si  Si20  1  0.62500000  0.87500000  0.75000000  1
  Si  Si21  1  0.87928100  0.98853900  0.63770100  1
  Si  Si22  1  0.12500000  0.87500000  0.75000000  1
  Si  Si23  1  0.23853900  0.10083800  0.60925800  1
  Si  Si24  1  0.00000000  0.00000000  0.00000000  1
  Si  Si25  1  0.12500000  0.87500000  0.25000000  1
  Si  Si26  1  0.12500000  0.37500000  0.25000000  1
  Si  Si27  1  0.35083800  0.24158000  0.36229900  1
  Si  Si28  1  0.50000000  0.50000000  0.00000000  1
  Si  Si29  1  0.25000000  0.75000000  0.50000000  1
  Si  Si30  1  0.49158000  0.62928100  0.39074200  1
  Si  Si31  1  0.75000000  0.25000000  0.50000000  1
  O  O32  1  0.65584500  0.67458800  0.14842800  1
  O  O33  1  0.70854500  0.07206700  0.91719400  1
  O  O34  1  0.61948500  0.15903000  0.11969700  1
  O  O35  1  0.76867700  0.98636500  0.15826400  1
  O  O36  1  0.74978800  0.36948500  0.96045500  1
  O  O37  1  0.01300300  0.94400500  0.13674900  1
  O  O38  1  0.94131000  0.27952100  0.24379700  1
  O  O39  1  0.04135100  0.45854500  0.13647800  1
  O  O40  1  0.75741700  0.40584500  0.48125700  1
  O  O41  1  0.86041300  0.51867700  0.28231200  1
  O  O42  1  0.92458800  0.27616000  0.51874300  1
  O  O43  1  0.94751300  0.69131000  0.16178900  1
  O  O44  1  0.52616000  0.50741700  0.85157200  1
  O  O45  1  0.19400500  0.55725600  0.43100200  1
  O  O46  1  0.82810100  0.61041300  0.84173600  1
  O  O47  1  0.03933300  0.49978800  0.88030300  1
  O  O48  1  0.12625400  0.76300300  0.56899800  1
  O  O49  1  0.03572400  0.69751300  0.75620300  1
  O  O50  1  0.23636500  0.57810100  0.71768800  1
  O  O51  1  0.80725600  0.87625400  0.86325100  1
  O  O52  1  0.15487300  0.79135100  0.08280600  1
  O  O53  1  0.32206700  0.90487300  0.86352200  1
  O  O54  1  0.52952100  0.78572400  0.83821100  1
  O  O55  1  0.84097000  0.96066700  0.46045500  1
  O  O56  1  0.40903000  0.78933300  0.03954500  1
  O  O57  1  0.72047900  0.96427600  0.66178900  1
  O  O58  1  0.92793300  0.84512700  0.63647800  1
  O  O59  1  0.09512700  0.95864900  0.41719400  1
  O  O60  1  0.44274400  0.87374600  0.63674900  1
  O  O61  1  0.01363500  0.17189900  0.78231200  1
  O  O62  1  0.21427600  0.05248700  0.74379700  1
  O  O63  1  0.12374600  0.98699700  0.93100200  1
  O  O64  1  0.21066700  0.25021200  0.61969700  1
  O  O65  1  0.42189900  0.13958700  0.65826400  1
  O  O66  1  0.05599500  0.19274400  0.06899800  1
  O  O67  1  0.72384000  0.24258300  0.64842800  1
  O  O68  1  0.30248700  0.05869000  0.33821100  1
  O  O69  1  0.32541200  0.47384000  0.98125700  1
  O  O70  1  0.38958700  0.23132300  0.21768800  1
  O  O71  1  0.49258300  0.34415500  0.01874300  1
  O  O72  1  0.20864900  0.29145500  0.36352200  1
  O  O73  1  0.30869000  0.47047900  0.25620300  1
  O  O74  1  0.23699700  0.80599500  0.36325100  1
  O  O75  1  0.50021200  0.38051500  0.53954500  1
  O  O76  1  0.48132300  0.76363500  0.34173600  1
  O  O77  1  0.63051500  0.59097000  0.38030300  1
  O  O78  1  0.54145500  0.67793300  0.58280600  1
  O  O79  1  0.59415500  0.07541200  0.35157200  1
