# generated using pymatgen
data_Na2FeH4C5(N2O)3
_symmetry_space_group_name_H-M   'P 1'
_cell_length_a   6.17365000
_cell_length_b   11.94717600
_cell_length_c   15.63341300
_cell_angle_alpha   90.00000000
_cell_angle_beta   90.00000000
_cell_angle_gamma   90.00000000
_symmetry_Int_Tables_number   1
_chemical_formula_structural   Na2FeH4C5(N2O)3
_chemical_formula_sum   'Na8 Fe4 H16 C20 N24 O12'
_cell_volume   1153.08432202
_cell_formula_units_Z   4
loop_
 _symmetry_equiv_pos_site_id
 _symmetry_equiv_pos_as_xyz
  1  'x, y, z'
loop_
 _atom_site_type_symbol
 _atom_site_label
 _atom_site_symmetry_multiplicity
 _atom_site_fract_x
 _atom_site_fract_y
 _atom_site_fract_z
 _atom_site_occupancy
  Na  Na0  1  0.50000000  0.50000000  0.62123200  1
  Na  Na1  1  0.50000000  0.50000000  0.37876800  1
  Na  Na2  1  0.00000000  0.50000000  0.75436600  1
  Na  Na3  1  0.00000000  0.00000000  0.87876800  1
  Na  Na4  1  0.00000000  0.00000000  0.12123200  1
  Na  Na5  1  0.50000000  0.00000000  0.74563400  1
  Na  Na6  1  0.00000000  0.50000000  0.24563400  1
  Na  Na7  1  0.50000000  0.00000000  0.25436600  1
  Fe  Fe8  1  0.99952000  0.78045400  0.50000000  1
  Fe  Fe9  1  0.00048000  0.21954600  0.50000000  1
  Fe  Fe10  1  0.50048000  0.28045400  0.00000000  1
  Fe  Fe11  1  0.49952000  0.71954600  0.00000000  1
  H  H12  1  0.05525600  0.12206000  0.72611200  1
  H  H13  1  0.31439800  0.69964600  0.28841100  1
  H  H14  1  0.94474400  0.87794000  0.72611200  1
  H  H15  1  0.55525600  0.37794000  0.22611200  1
  H  H16  1  0.81439800  0.80035400  0.21158900  1
  H  H17  1  0.31439800  0.69964600  0.71158900  1
  H  H18  1  0.68560200  0.30035400  0.71158900  1
  H  H19  1  0.18560200  0.19964600  0.78841100  1
  H  H20  1  0.81439800  0.80035400  0.78841100  1
  H  H21  1  0.68560200  0.30035400  0.28841100  1
  H  H22  1  0.44474400  0.62206000  0.77388800  1
  H  H23  1  0.05525600  0.12206000  0.27388800  1
  H  H24  1  0.55525600  0.37794000  0.77388800  1
  H  H25  1  0.44474400  0.62206000  0.22611200  1
  H  H26  1  0.18560200  0.19964600  0.21158900  1
  H  H27  1  0.94474400  0.87794000  0.27388800  1
  C  C28  1  0.34601600  0.35985800  0.91169700  1
  C  C29  1  0.15398400  0.85985800  0.58830300  1
  C  C30  1  0.65398400  0.64014200  0.08830300  1
  C  C31  1  0.34601600  0.35985800  0.08830300  1
  C  C32  1  0.60444200  0.18035500  0.08707000  1
  C  C33  1  0.10444200  0.31964500  0.41293000  1
  C  C34  1  0.84601600  0.14014200  0.58830300  1
  C  C35  1  0.65398400  0.64014200  0.91169700  1
  C  C36  1  0.89555800  0.68035500  0.58707000  1
  C  C37  1  0.60444200  0.18035500  0.91293000  1
  C  C38  1  0.84601600  0.14014200  0.41169700  1
  C  C39  1  0.24671300  0.68383100  0.50000000  1
  C  C40  1  0.74671300  0.81616900  0.00000000  1
  C  C41  1  0.75328700  0.31616900  0.50000000  1
  C  C42  1  0.39555800  0.81964500  0.08707000  1
  C  C43  1  0.10444200  0.31964500  0.58707000  1
  C  C44  1  0.39555800  0.81964500  0.91293000  1
  C  C45  1  0.89555800  0.68035500  0.41293000  1
  C  C46  1  0.25328700  0.18383100  0.00000000  1
  C  C47  1  0.15398400  0.85985800  0.41169700  1
  N  N48  1  0.27507600  0.64256600  0.00000000  1
  N  N49  1  0.66644400  0.12031300  0.85868600  1
  N  N50  1  0.25172600  0.40427800  0.85574600  1
  N  N51  1  0.83355600  0.62031300  0.35868600  1
  N  N52  1  0.77507600  0.85743400  0.50000000  1
  N  N53  1  0.75172600  0.09572200  0.35574600  1
  N  N54  1  0.74827400  0.59572200  0.85574600  1
  N  N55  1  0.10231900  0.12433400  0.00000000  1
  N  N56  1  0.60231900  0.37566600  0.50000000  1
  N  N57  1  0.33355600  0.87968700  0.14131400  1
  N  N58  1  0.25172600  0.40427800  0.14425400  1
  N  N59  1  0.83355600  0.62031300  0.64131400  1
  N  N60  1  0.24827400  0.90427800  0.64425400  1
  N  N61  1  0.22492400  0.14256600  0.50000000  1
  N  N62  1  0.16644400  0.37968700  0.64131400  1
  N  N63  1  0.75172600  0.09572200  0.64425400  1
  N  N64  1  0.16644400  0.37968700  0.35868600  1
  N  N65  1  0.74827400  0.59572200  0.14425400  1
  N  N66  1  0.24827400  0.90427800  0.35574600  1
  N  N67  1  0.89768100  0.87566600  0.00000000  1
  N  N68  1  0.66644400  0.12031300  0.14131400  1
  N  N69  1  0.72492400  0.35743400  0.00000000  1
  N  N70  1  0.39768100  0.62433400  0.50000000  1
  N  N71  1  0.33355600  0.87968700  0.85868600  1
  O  O72  1  0.32862500  0.62203900  0.26908500  1
  O  O73  1  0.17137500  0.12203900  0.23091500  1
  O  O74  1  0.82862500  0.87796100  0.76908500  1
  O  O75  1  0.32862500  0.62203900  0.73091500  1
  O  O76  1  0.61361100  0.90499700  0.50000000  1
  O  O77  1  0.17137500  0.12203900  0.76908500  1
  O  O78  1  0.82862500  0.87796100  0.23091500  1
  O  O79  1  0.67137500  0.37796100  0.26908500  1
  O  O80  1  0.11361100  0.59500300  0.00000000  1
  O  O81  1  0.67137500  0.37796100  0.73091500  1
  O  O82  1  0.38638900  0.09500300  0.50000000  1
  O  O83  1  0.88638900  0.40499700  0.00000000  1
