# generated using pymatgen
data_ZnHg2H14C4N6O13
_symmetry_space_group_name_H-M   'P 1'
_cell_length_a   9.58101293
_cell_length_b   9.58101293
_cell_length_c   16.50508782
_cell_angle_alpha   85.26706763
_cell_angle_beta   85.26706763
_cell_angle_gamma   40.41945440
_symmetry_Int_Tables_number   1
_chemical_formula_structural   ZnHg2H14C4N6O13
_chemical_formula_sum   'Zn2 Hg4 H28 C8 N12 O26'
_cell_volume   978.55227581
_cell_formula_units_Z   2
loop_
 _symmetry_equiv_pos_site_id
 _symmetry_equiv_pos_as_xyz
  1  'x, y, z'
loop_
 _atom_site_type_symbol
 _atom_site_label
 _atom_site_symmetry_multiplicity
 _atom_site_fract_x
 _atom_site_fract_y
 _atom_site_fract_z
 _atom_site_occupancy
  Zn  Zn0  1  0.00000000  0.00000000  0.50000000  1
  Zn  Zn1  1  0.00000000  0.00000000  0.00000000  1
  Hg  Hg2  1  0.79270400  0.52148600  0.08586700  1
  Hg  Hg3  1  0.47851400  0.20729600  0.41413300  1
  Hg  Hg4  1  0.20729600  0.47851400  0.91413300  1
  Hg  Hg5  1  0.52148600  0.79270400  0.58586700  1
  H  H6  1  0.19966800  0.88825600  0.25210100  1
  H  H7  1  0.11174400  0.80033200  0.24789900  1
  H  H8  1  0.80033200  0.11174400  0.74789900  1
  H  H9  1  0.88825600  0.19966800  0.75210100  1
  H  H10  1  0.18379900  0.64854000  0.09260700  1
  H  H11  1  0.35146000  0.81620100  0.40739300  1
  H  H12  1  0.81620100  0.35146000  0.90739300  1
  H  H13  1  0.64854000  0.18379900  0.59260700  1
  H  H14  1  0.93487300  0.79590800  0.08682600  1
  H  H15  1  0.20409200  0.06512700  0.41317400  1
  H  H16  1  0.06512700  0.20409200  0.91317400  1
  H  H17  1  0.79590800  0.93487300  0.58682600  1
  H  H18  1  0.93363300  0.08688500  0.16192100  1
  H  H19  1  0.91311500  0.06636700  0.33807900  1
  H  H20  1  0.06636700  0.91311500  0.83807900  1
  H  H21  1  0.08688500  0.93363300  0.66192100  1
  H  H22  1  0.70248800  0.25896500  0.12316600  1
  H  H23  1  0.74103500  0.29751200  0.37683400  1
  H  H24  1  0.29751200  0.74103500  0.87683400  1
  H  H25  1  0.25896500  0.70248800  0.62316600  1
  H  H26  1  0.57928000  0.98595700  0.12920600  1
  H  H27  1  0.01404300  0.42072000  0.37079400  1
  H  H28  1  0.42072000  0.01404300  0.87079400  1
  H  H29  1  0.98595700  0.57928000  0.62920600  1
  H  H30  1  0.75106000  0.83280100  0.19610500  1
  H  H31  1  0.16719900  0.24894000  0.30389500  1
  H  H32  1  0.24894000  0.16719900  0.80389500  1
  H  H33  1  0.83280100  0.75106000  0.69610500  1
  C  C34  1  0.48046700  0.72484400  0.05464000  1
  C  C35  1  0.27515600  0.51953300  0.44536000  1
  C  C36  1  0.51953300  0.27515600  0.94536000  1
  C  C37  1  0.72484400  0.48046700  0.55464000  1
  C  C38  1  0.11044200  0.32428200  0.10378700  1
  C  C39  1  0.67571800  0.88955800  0.39621300  1
  C  C40  1  0.88955800  0.67571800  0.89621300  1
  C  C41  1  0.32428200  0.11044200  0.60378700  1
  N  N42  1  0.30619700  0.83339400  0.03589600  1
  N  N43  1  0.16660600  0.69380300  0.46410400  1
  N  N44  1  0.69380300  0.16660600  0.96410400  1
  N  N45  1  0.83339400  0.30619700  0.53589600  1
  N  N46  1  0.29054900  0.21262600  0.11428500  1
  N  N47  1  0.78737400  0.70945100  0.38571500  1
  N  N48  1  0.70945100  0.78737400  0.88571500  1
  N  N49  1  0.21262600  0.29054900  0.61428500  1
  N  N50  1  0.59311100  0.60902000  0.28286000  1
  N  N51  1  0.39098000  0.40688900  0.21714000  1
  N  N52  1  0.40688900  0.39098000  0.71714000  1
  N  N53  1  0.60902000  0.59311100  0.78286000  1
  O  O54  1  0.06540300  0.93459700  0.25000000  1
  O  O55  1  0.93459700  0.06540300  0.75000000  1
  O  O56  1  0.94097900  0.25031000  0.94391300  1
  O  O57  1  0.74969000  0.05902100  0.55608700  1
  O  O58  1  0.05902100  0.74969000  0.05608700  1
  O  O59  1  0.25031000  0.94097900  0.44391300  1
  O  O60  1  0.85362800  0.17594700  0.11130000  1
  O  O61  1  0.82405300  0.14637200  0.38870000  1
  O  O62  1  0.14637200  0.82405300  0.88870000  1
  O  O63  1  0.17594700  0.85362800  0.61130000  1
  O  O64  1  0.73484200  0.84761900  0.13745100  1
  O  O65  1  0.15238100  0.26515800  0.36254900  1
  O  O66  1  0.26515800  0.15238100  0.86254900  1
  O  O67  1  0.84761900  0.73484200  0.63745100  1
  O  O68  1  0.55323400  0.57526900  0.35313600  1
  O  O69  1  0.42473100  0.44676600  0.14686400  1
  O  O70  1  0.44676600  0.42473100  0.64686400  1
  O  O71  1  0.57526900  0.55323400  0.85313600  1
  O  O72  1  0.44754600  0.79386200  0.24868800  1
  O  O73  1  0.20613800  0.55245400  0.25131200  1
  O  O74  1  0.55245400  0.20613800  0.75131200  1
  O  O75  1  0.79386200  0.44754600  0.74868800  1
  O  O76  1  0.77559000  0.45738900  0.24909100  1
  O  O77  1  0.54261100  0.22441000  0.25090900  1
  O  O78  1  0.22441000  0.54261100  0.75090900  1
  O  O79  1  0.45738900  0.77559000  0.74909100  1
