# generated using pymatgen
data_Sc2CoNi
_symmetry_space_group_name_H-M   'P 1'
_cell_length_a   9.56222885
_cell_length_b   9.56222885
_cell_length_c   9.56222885
_cell_angle_alpha   124.07541606
_cell_angle_beta   119.32938900
_cell_angle_gamma   87.12751347
_symmetry_Int_Tables_number   1
_chemical_formula_structural   Sc2CoNi
_chemical_formula_sum   'Sc2 Co1 Ni1'
_cell_volume   600.14249798
_cell_formula_units_Z   1
loop_
 _symmetry_equiv_pos_site_id
 _symmetry_equiv_pos_as_xyz
  1  'x, y, z'
loop_
 _atom_site_type_symbol
 _atom_site_label
 _atom_site_symmetry_multiplicity
 _atom_site_fract_x
 _atom_site_fract_y
 _atom_site_fract_z
 _atom_site_occupancy
  Sc  Sc0  1  0.00000000  0.23902200  0.23902200  1
  Sc  Sc1  1  0.00000000  0.76097800  0.76097800  1
  Co  Co2  1  0.00000000  0.00000000  0.00000000  1
  Ni  Ni3  1  0.00000000  0.50000000  0.50000000  1
