# generated using pymatgen
data_Nb3Se5Cl7
_symmetry_space_group_name_H-M   'P 1'
_cell_length_a   12.79333000
_cell_length_b   8.23083800
_cell_length_c   8.59084226
_cell_angle_alpha   70.70472046
_cell_angle_beta   90.00000000
_cell_angle_gamma   90.00000000
_symmetry_Int_Tables_number   1
_chemical_formula_structural   Nb3Se5Cl7
_chemical_formula_sum   'Nb6 Se10 Cl14'
_cell_volume   853.80037362
_cell_formula_units_Z   2
loop_
 _symmetry_equiv_pos_site_id
 _symmetry_equiv_pos_as_xyz
  1  'x, y, z'
loop_
 _atom_site_type_symbol
 _atom_site_label
 _atom_site_symmetry_multiplicity
 _atom_site_fract_x
 _atom_site_fract_y
 _atom_site_fract_z
 _atom_site_occupancy
  Nb  Nb0  1  0.61022500  0.02597600  0.94093200  1
  Nb  Nb1  1  0.11022500  0.97402400  0.05906800  1
  Nb  Nb2  1  0.38977500  0.97402400  0.05906800  1
  Nb  Nb3  1  0.88977500  0.02597600  0.94093200  1
  Nb  Nb4  1  0.75000000  0.39813900  0.52594700  1
  Nb  Nb5  1  0.25000000  0.60186100  0.47405300  1
  Se  Se6  1  0.52584000  0.16924600  0.14687200  1
  Se  Se7  1  0.02584000  0.83075400  0.85312800  1
  Se  Se8  1  0.47416000  0.83075400  0.85312800  1
  Se  Se9  1  0.97416000  0.16924600  0.14687200  1
  Se  Se10  1  0.46822200  0.27395100  0.87630200  1
  Se  Se11  1  0.96822200  0.72604900  0.12369800  1
  Se  Se12  1  0.53177800  0.72604900  0.12369800  1
  Se  Se13  1  0.03177800  0.27395100  0.87630200  1
  Se  Se14  1  0.75000000  0.41975000  0.25256000  1
  Se  Se15  1  0.25000000  0.58025000  0.74744000  1
  Cl  Cl16  1  0.75000000  0.94436900  0.17444200  1
  Cl  Cl17  1  0.25000000  0.05563100  0.82555800  1
  Cl  Cl18  1  0.75000000  0.84304800  0.85899400  1
  Cl  Cl19  1  0.25000000  0.15695200  0.14100600  1
  Cl  Cl20  1  0.75000000  0.27841600  0.87476400  1
  Cl  Cl21  1  0.25000000  0.72158400  0.12523600  1
  Cl  Cl22  1  0.61693500  0.15508000  0.61401000  1
  Cl  Cl23  1  0.11693500  0.84492000  0.38599000  1
  Cl  Cl24  1  0.38306500  0.84492000  0.38599000  1
  Cl  Cl25  1  0.88306500  0.15508000  0.61401000  1
  Cl  Cl26  1  0.61869200  0.58955200  0.54114500  1
  Cl  Cl27  1  0.11869200  0.41044800  0.45885500  1
  Cl  Cl28  1  0.38130800  0.41044800  0.45885500  1
  Cl  Cl29  1  0.88130800  0.58955200  0.54114500  1
