# generated using pymatgen
data_CoPO4
_symmetry_space_group_name_H-M   'P 1'
_cell_length_a   5.27213300
_cell_length_b   8.56592100
_cell_length_c   8.57940174
_cell_angle_alpha   74.08608518
_cell_angle_beta   90.00000000
_cell_angle_gamma   90.00000000
_symmetry_Int_Tables_number   1
_chemical_formula_structural   CoPO4
_chemical_formula_sum   'Co4 P4 O16'
_cell_volume   372.60239237
_cell_formula_units_Z   4
loop_
 _symmetry_equiv_pos_site_id
 _symmetry_equiv_pos_as_xyz
  1  'x, y, z'
loop_
 _atom_site_type_symbol
 _atom_site_label
 _atom_site_symmetry_multiplicity
 _atom_site_fract_x
 _atom_site_fract_y
 _atom_site_fract_z
 _atom_site_occupancy
  Co  Co0  1  0.19402300  0.86765400  0.62929900  1
  Co  Co1  1  0.30586000  0.22338200  0.12822900  1
  Co  Co2  1  0.69414000  0.72338200  0.12822900  1
  Co  Co3  1  0.80597700  0.36765400  0.62929900  1
  P  P4  1  0.69053500  0.99393400  0.75997100  1
  P  P5  1  0.30946500  0.49393400  0.75997100  1
  P  P6  1  0.19344200  0.84588300  0.25752600  1
  P  P7  1  0.80655800  0.34588300  0.25752600  1
  O  O8  1  0.58255200  0.50900000  0.69022200  1
  O  O9  1  0.13411300  0.43674700  0.64062800  1
  O  O10  1  0.78742300  0.51477400  0.13135000  1
  O  O11  1  0.22877500  0.66194500  0.77667600  1
  O  O12  1  0.77122500  0.16194500  0.77667600  1
  O  O13  1  0.35906400  0.72420300  0.19823200  1
  O  O14  1  0.91485500  0.78607500  0.27145600  1
  O  O15  1  0.29508700  0.37033100  0.92732500  1
  O  O16  1  0.41744800  0.00900000  0.69022200  1
  O  O17  1  0.21257700  0.01477400  0.13135000  1
  O  O18  1  0.71324900  0.35658100  0.42488200  1
  O  O19  1  0.28675100  0.85658100  0.42488200  1
  O  O20  1  0.86588700  0.93674700  0.64062800  1
  O  O21  1  0.64093600  0.22420300  0.19823200  1
  O  O22  1  0.70491300  0.87033100  0.92732500  1
  O  O23  1  0.08514500  0.28607500  0.27145600  1
