# generated using pymatgen
data_Mg2SiO4
_symmetry_space_group_name_H-M   'P 1'
_cell_length_a   7.69256142
_cell_length_b   7.69256142
_cell_length_c   7.69256142
_cell_angle_alpha   135.99833276
_cell_angle_beta   114.20444992
_cell_angle_gamma   82.57007843
_symmetry_Int_Tables_number   1
_chemical_formula_structural   Mg2SiO4
_chemical_formula_sum   'Mg8 Si4 O16'
_cell_volume   278.40016099
_cell_formula_units_Z   4
loop_
 _symmetry_equiv_pos_site_id
 _symmetry_equiv_pos_as_xyz
  1  'x, y, z'
loop_
 _atom_site_type_symbol
 _atom_site_label
 _atom_site_symmetry_multiplicity
 _atom_site_fract_x
 _atom_site_fract_y
 _atom_site_fract_z
 _atom_site_occupancy
  Mg  Mg0  1  0.50000000  0.50000000  0.00000000  1
  Mg  Mg1  1  0.00000000  0.00000000  0.00000000  1
  Mg  Mg2  1  0.28021000  0.25000000  0.03021000  1
  Mg  Mg3  1  0.71979000  0.75000000  0.96979000  1
  Mg  Mg4  1  0.12244000  0.12244000  0.50000000  1
  Mg  Mg5  1  0.87756000  0.37756000  0.00000000  1
  Mg  Mg6  1  0.87756000  0.87756000  0.50000000  1
  Mg  Mg7  1  0.12244000  0.62244000  0.00000000  1
  Si  Si8  1  0.76385900  0.38033900  0.38352000  1
  Si  Si9  1  0.23614100  0.61966100  0.61648000  1
  Si  Si10  1  0.50318200  0.11966100  0.38352000  1
  Si  Si11  1  0.49681800  0.88033900  0.61648000  1
  O  O12  1  0.12995900  0.38387600  0.26852600  1
  O  O13  1  0.87004100  0.13856600  0.25391600  1
  O  O14  1  0.38465000  0.11612400  0.74608400  1
  O  O15  1  0.61535000  0.36143400  0.73147400  1
  O  O16  1  0.87004100  0.61612400  0.73147400  1
  O  O17  1  0.12995900  0.86143400  0.74608400  1
  O  O18  1  0.61535000  0.88387600  0.25391600  1
  O  O19  1  0.38465000  0.63856600  0.26852600  1
  O  O20  1  0.26558500  0.01007200  0.25551300  1
  O  O21  1  0.73441500  0.98992800  0.74448700  1
  O  O22  1  0.74544200  0.48992800  0.25551300  1
  O  O23  1  0.25455800  0.51007200  0.74448700  1
  O  O24  1  0.03397700  0.25000000  0.78397700  1
  O  O25  1  0.96602300  0.75000000  0.21602300  1
  O  O26  1  0.53371100  0.25000000  0.28371100  1
  O  O27  1  0.46628900  0.75000000  0.71628900  1
