# generated using pymatgen
data_Zr2Nb3Ge4
_symmetry_space_group_name_H-M   'P 1'
_cell_length_a   6.87491700
_cell_length_b   6.98467300
_cell_length_c   13.53529700
_cell_angle_alpha   90.00000000
_cell_angle_beta   90.00000000
_cell_angle_gamma   90.00000000
_symmetry_Int_Tables_number   1
_chemical_formula_structural   Zr2Nb3Ge4
_chemical_formula_sum   'Zr8 Nb12 Ge16'
_cell_volume   649.95206479
_cell_formula_units_Z   4
loop_
 _symmetry_equiv_pos_site_id
 _symmetry_equiv_pos_as_xyz
  1  'x, y, z'
loop_
 _atom_site_type_symbol
 _atom_site_label
 _atom_site_symmetry_multiplicity
 _atom_site_fract_x
 _atom_site_fract_y
 _atom_site_fract_z
 _atom_site_occupancy
  Zr  Zr0  1  0.84819000  0.66606400  0.12376400  1
  Zr  Zr1  1  0.34819000  0.83393600  0.37623600  1
  Zr  Zr2  1  0.65181000  0.16606400  0.87623600  1
  Zr  Zr3  1  0.15181000  0.33393600  0.62376400  1
  Zr  Zr4  1  0.15181000  0.33393600  0.87623600  1
  Zr  Zr5  1  0.65181000  0.16606400  0.62376400  1
  Zr  Zr6  1  0.34819000  0.83393600  0.12376400  1
  Zr  Zr7  1  0.84819000  0.66606400  0.37623600  1
  Nb  Nb8  1  0.02009200  0.17846100  0.09060600  1
  Nb  Nb9  1  0.52009200  0.32153900  0.40939400  1
  Nb  Nb10  1  0.47990800  0.67846100  0.90939400  1
  Nb  Nb11  1  0.97990800  0.82153900  0.59060600  1
  Nb  Nb12  1  0.97990800  0.82153900  0.90939400  1
  Nb  Nb13  1  0.47990800  0.67846100  0.59060600  1
  Nb  Nb14  1  0.52009200  0.32153900  0.09060600  1
  Nb  Nb15  1  0.02009200  0.17846100  0.40939400  1
  Nb  Nb16  1  0.67438800  0.99618700  0.25000000  1
  Nb  Nb17  1  0.17438800  0.50381300  0.25000000  1
  Nb  Nb18  1  0.82561200  0.49618700  0.75000000  1
  Nb  Nb19  1  0.32561200  0.00381300  0.75000000  1
  Ge  Ge20  1  0.81933700  0.34113400  0.25000000  1
  Ge  Ge21  1  0.31933700  0.15886600  0.25000000  1
  Ge  Ge22  1  0.68066300  0.84113400  0.75000000  1
  Ge  Ge23  1  0.18066300  0.65886600  0.75000000  1
  Ge  Ge24  1  0.04444900  0.90278500  0.25000000  1
  Ge  Ge25  1  0.54444900  0.59721500  0.25000000  1
  Ge  Ge26  1  0.45555100  0.40278500  0.75000000  1
  Ge  Ge27  1  0.95555100  0.09721500  0.75000000  1
  Ge  Ge28  1  0.80367700  0.47354300  0.95754400  1
  Ge  Ge29  1  0.30367700  0.02645700  0.54245600  1
  Ge  Ge30  1  0.69632300  0.97354300  0.04245600  1
  Ge  Ge31  1  0.19632300  0.52645700  0.45754400  1
  Ge  Ge32  1  0.19632300  0.52645700  0.04245600  1
  Ge  Ge33  1  0.69632300  0.97354300  0.45754400  1
  Ge  Ge34  1  0.30367700  0.02645700  0.95754400  1
  Ge  Ge35  1  0.80367700  0.47354300  0.54245600  1
