# generated using pymatgen
data_Zr2CoPt
_symmetry_space_group_name_H-M   'P 1'
_cell_length_a   10.94467741
_cell_length_b   10.94467741
_cell_length_c   10.94467741
_cell_angle_alpha   128.58096401
_cell_angle_beta   117.37218369
_cell_angle_gamma   85.21662953
_symmetry_Int_Tables_number   1
_chemical_formula_structural   Zr2CoPt
_chemical_formula_sum   'Zr2 Co1 Pt1'
_cell_volume   870.20027805
_cell_formula_units_Z   1
loop_
 _symmetry_equiv_pos_site_id
 _symmetry_equiv_pos_as_xyz
  1  'x, y, z'
loop_
 _atom_site_type_symbol
 _atom_site_label
 _atom_site_symmetry_multiplicity
 _atom_site_fract_x
 _atom_site_fract_y
 _atom_site_fract_z
 _atom_site_occupancy
  Zr  Zr0  1  0.00000000  0.23228600  0.23228500  1
  Zr  Zr1  1  0.00000000  0.76771500  0.76771400  1
  Co  Co2  1  0.00000000  0.00000000  0.00000000  1
  Pt  Pt3  1  0.00000000  0.50000000  0.50000000  1
