# generated using pymatgen
data_SeBr
_symmetry_space_group_name_H-M   'P 1'
_cell_length_a   15.24108700
_cell_length_b   5.31824600
_cell_length_c   7.70196480
_cell_angle_alpha   84.43714148
_cell_angle_beta   90.00000000
_cell_angle_gamma   90.00000000
_symmetry_Int_Tables_number   1
_chemical_formula_structural   SeBr
_chemical_formula_sum   'Se8 Br8'
_cell_volume   621.34918069
_cell_formula_units_Z   8
loop_
 _symmetry_equiv_pos_site_id
 _symmetry_equiv_pos_as_xyz
  1  'x, y, z'
loop_
 _atom_site_type_symbol
 _atom_site_label
 _atom_site_symmetry_multiplicity
 _atom_site_fract_x
 _atom_site_fract_y
 _atom_site_fract_z
 _atom_site_occupancy
  Se  Se0  1  0.86223700  0.95442600  0.39828100  1
  Se  Se1  1  0.36223700  0.54557400  0.60171900  1
  Se  Se2  1  0.13776300  0.04557400  0.60171900  1
  Se  Se3  1  0.63776300  0.45442600  0.39828100  1
  Se  Se4  1  0.94865600  0.18796200  0.21044600  1
  Se  Se5  1  0.44865600  0.31203800  0.78955400  1
  Se  Se6  1  0.05134400  0.81203800  0.78955400  1
  Se  Se7  1  0.55134400  0.68796200  0.21044600  1
  Br  Br8  1  0.86012600  0.15988900  0.66572700  1
  Br  Br9  1  0.36012600  0.34011100  0.33427300  1
  Br  Br10  1  0.13987400  0.84011100  0.33427300  1
  Br  Br11  1  0.63987400  0.65988900  0.66572700  1
  Br  Br12  1  0.85650400  0.50892600  0.05459200  1
  Br  Br13  1  0.35650400  0.99107400  0.94540800  1
  Br  Br14  1  0.14349600  0.49107400  0.94540800  1
  Br  Br15  1  0.64349600  0.00892600  0.05459200  1
