# generated using pymatgen
data_Yb3S4
_symmetry_space_group_name_H-M   'P 1'
_cell_length_a   4.10296300
_cell_length_b   11.62338600
_cell_length_c   14.03697300
_cell_angle_alpha   90.00000000
_cell_angle_beta   90.00000000
_cell_angle_gamma   90.00000000
_symmetry_Int_Tables_number   1
_chemical_formula_structural   Yb3S4
_chemical_formula_sum   'Yb12 S16'
_cell_volume   669.42777200
_cell_formula_units_Z   4
loop_
 _symmetry_equiv_pos_site_id
 _symmetry_equiv_pos_as_xyz
  1  'x, y, z'
loop_
 _atom_site_type_symbol
 _atom_site_label
 _atom_site_symmetry_multiplicity
 _atom_site_fract_x
 _atom_site_fract_y
 _atom_site_fract_z
 _atom_site_occupancy
  Yb  Yb0  1  0.25000000  0.11247800  0.09363400  1
  Yb  Yb1  1  0.75000000  0.88752200  0.90636600  1
  Yb  Yb2  1  0.25000000  0.38752200  0.59363400  1
  Yb  Yb3  1  0.75000000  0.61247800  0.40636600  1
  Yb  Yb4  1  0.75000000  0.45363600  0.10534400  1
  Yb  Yb5  1  0.25000000  0.54636400  0.89465600  1
  Yb  Yb6  1  0.75000000  0.04636400  0.60534400  1
  Yb  Yb7  1  0.25000000  0.95363600  0.39465600  1
  Yb  Yb8  1  0.25000000  0.29161200  0.36158400  1
  Yb  Yb9  1  0.75000000  0.70838800  0.63841600  1
  Yb  Yb10  1  0.25000000  0.20838800  0.86158400  1
  Yb  Yb11  1  0.75000000  0.79161200  0.13841600  1
  S  S12  1  0.75000000  0.20356700  0.22669600  1
  S  S13  1  0.25000000  0.79643300  0.77330400  1
  S  S14  1  0.75000000  0.29643300  0.72669600  1
  S  S15  1  0.25000000  0.70356700  0.27330400  1
  S  S16  1  0.25000000  0.52327200  0.24619700  1
  S  S17  1  0.75000000  0.47672800  0.75380300  1
  S  S18  1  0.25000000  0.97672800  0.74619700  1
  S  S19  1  0.75000000  0.02327200  0.25380300  1
  S  S20  1  0.75000000  0.38668400  0.45780100  1
  S  S21  1  0.25000000  0.61331600  0.54219900  1
  S  S22  1  0.75000000  0.11331600  0.95780100  1
  S  S23  1  0.25000000  0.88668400  0.04219900  1
  S  S24  1  0.25000000  0.14105900  0.50938600  1
  S  S25  1  0.75000000  0.85894100  0.49061400  1
  S  S26  1  0.25000000  0.35894100  0.00938600  1
  S  S27  1  0.75000000  0.64105900  0.99061400  1
