# generated using pymatgen
data_CsTmP4(H2O3)6
_symmetry_space_group_name_H-M   'P 1'
_cell_length_a   7.60735851
_cell_length_b   7.60735851
_cell_length_c   15.15911674
_cell_angle_alpha   89.25926387
_cell_angle_beta   89.25926387
_cell_angle_gamma   109.92415766
_symmetry_Int_Tables_number   1
_chemical_formula_structural   CsTmP4(H2O3)6
_chemical_formula_sum   'Cs2 Tm2 P8 H24 O36'
_cell_volume   824.56738904
_cell_formula_units_Z   2
loop_
 _symmetry_equiv_pos_site_id
 _symmetry_equiv_pos_as_xyz
  1  'x, y, z'
loop_
 _atom_site_type_symbol
 _atom_site_label
 _atom_site_symmetry_multiplicity
 _atom_site_fract_x
 _atom_site_fract_y
 _atom_site_fract_z
 _atom_site_occupancy
  Cs  Cs0  1  0.53665800  0.46334200  0.25000000  1
  Cs  Cs1  1  0.46334200  0.53665800  0.75000000  1
  Tm  Tm2  1  0.89415600  0.10584400  0.25000000  1
  Tm  Tm3  1  0.10584400  0.89415600  0.75000000  1
  P  P4  1  0.96262900  0.78984600  0.08630500  1
  P  P5  1  0.21015400  0.03737100  0.41369500  1
  P  P6  1  0.03737100  0.21015400  0.91369500  1
  P  P7  1  0.78984600  0.96262900  0.58630500  1
  P  P8  1  0.83260800  0.75630700  0.42613500  1
  P  P9  1  0.24369300  0.16739200  0.07386500  1
  P  P10  1  0.16739200  0.24369300  0.57386500  1
  P  P11  1  0.75630700  0.83260800  0.92613500  1
  H  H12  1  0.87950600  0.38824400  0.11143300  1
  H  H13  1  0.61175600  0.12049400  0.38856700  1
  H  H14  1  0.12049400  0.61175600  0.88856700  1
  H  H15  1  0.38824400  0.87950600  0.61143300  1
  H  H16  1  0.77622600  0.32023100  0.39284500  1
  H  H17  1  0.67976900  0.22377400  0.10715500  1
  H  H18  1  0.22377400  0.67976900  0.60715500  1
  H  H19  1  0.32023100  0.77622600  0.89284500  1
  H  H20  1  0.27212900  0.54194800  0.44607100  1
  H  H21  1  0.45805200  0.72787100  0.05392900  1
  H  H22  1  0.72787100  0.45805200  0.55392900  1
  H  H23  1  0.54194800  0.27212900  0.94607100  1
  H  H24  1  0.27058400  0.67020200  0.10971800  1
  H  H25  1  0.32979800  0.72941600  0.39028200  1
  H  H26  1  0.72941600  0.32979800  0.89028200  1
  H  H27  1  0.67020200  0.27058400  0.60971800  1
  H  H28  1  0.12517100  0.49402900  0.31760400  1
  H  H29  1  0.50597100  0.87482900  0.18239600  1
  H  H30  1  0.87482900  0.50597100  0.68239600  1
  H  H31  1  0.49402900  0.12517100  0.81760400  1
  H  H32  1  0.03561300  0.52207700  0.22450700  1
  H  H33  1  0.47792300  0.96438700  0.27549300  1
  H  H34  1  0.96438700  0.47792300  0.77549300  1
  H  H35  1  0.52207700  0.03561300  0.72450700  1
  O  O36  1  0.05069700  0.85099500  0.45273800  1
  O  O37  1  0.14900500  0.94930300  0.04726200  1
  O  O38  1  0.94930300  0.14900500  0.54726200  1
  O  O39  1  0.85099500  0.05069700  0.95273800  1
  O  O40  1  0.83919400  0.72530400  0.99975500  1
  O  O41  1  0.27469600  0.16080600  0.50024500  1
  O  O42  1  0.16080600  0.27469600  0.00024500  1
  O  O43  1  0.72530400  0.83919400  0.49975500  1
  O  O44  1  0.86238300  0.86996400  0.15190000  1
  O  O45  1  0.13003600  0.13761700  0.34810000  1
  O  O46  1  0.13761700  0.13003600  0.84810000  1
  O  O47  1  0.86996400  0.86238300  0.65190000  1
  O  O48  1  0.01783900  0.62583500  0.11493800  1
  O  O49  1  0.37416500  0.98216100  0.38506200  1
  O  O50  1  0.98216100  0.37416500  0.88506200  1
  O  O51  1  0.62583500  0.01783900  0.61493800  1
  O  O52  1  0.16926900  0.19736500  0.16255800  1
  O  O53  1  0.80263500  0.83073100  0.33744200  1
  O  O54  1  0.83073100  0.80263500  0.83744200  1
  O  O55  1  0.19736500  0.16926900  0.66255800  1
  O  O56  1  0.77593200  0.54973800  0.44119300  1
  O  O57  1  0.45026200  0.22406800  0.05880700  1
  O  O58  1  0.22406800  0.45026200  0.55880700  1
  O  O59  1  0.54973800  0.77593200  0.94119300  1
  O  O60  1  0.80511600  0.26066700  0.13304200  1
  O  O61  1  0.73933300  0.19488400  0.36695800  1
  O  O62  1  0.19488400  0.73933300  0.86695800  1
  O  O63  1  0.26066700  0.80511600  0.63304200  1
  O  O64  1  0.29954900  0.59324100  0.38511500  1
  O  O65  1  0.40675900  0.70045100  0.11488500  1
  O  O66  1  0.70045100  0.40675900  0.61488500  1
  O  O67  1  0.59324100  0.29954900  0.88511500  1
  O  O68  1  0.02617000  0.43263100  0.27324300  1
  O  O69  1  0.56736900  0.97383000  0.22675700  1
  O  O70  1  0.97383000  0.56736900  0.72675700  1
  O  O71  1  0.43263100  0.02617000  0.77324300  1
