# generated using pymatgen
data_SrTb2Fe2O7
_symmetry_space_group_name_H-M   'P 1'
_cell_length_a   5.59217600
_cell_length_b   5.59217600
_cell_length_c   19.60833800
_cell_angle_alpha   90.00000000
_cell_angle_beta   90.00000000
_cell_angle_gamma   90.00000000
_symmetry_Int_Tables_number   1
_chemical_formula_structural   SrTb2Fe2O7
_chemical_formula_sum   'Sr4 Tb8 Fe8 O28'
_cell_volume   613.20042488
_cell_formula_units_Z   4
loop_
 _symmetry_equiv_pos_site_id
 _symmetry_equiv_pos_as_xyz
  1  'x, y, z'
loop_
 _atom_site_type_symbol
 _atom_site_label
 _atom_site_symmetry_multiplicity
 _atom_site_fract_x
 _atom_site_fract_y
 _atom_site_fract_z
 _atom_site_occupancy
  Sr  Sr0  1  0.25934600  0.25934600  0.00000000  1
  Sr  Sr1  1  0.24065400  0.75934600  0.50000000  1
  Sr  Sr2  1  0.75934600  0.24065400  0.50000000  1
  Sr  Sr3  1  0.74065400  0.74065400  0.00000000  1
  Tb  Tb4  1  0.27715300  0.27715300  0.18343200  1
  Tb  Tb5  1  0.22284700  0.77715300  0.68343200  1
  Tb  Tb6  1  0.77715300  0.22284700  0.68343200  1
  Tb  Tb7  1  0.77715300  0.22284700  0.31656800  1
  Tb  Tb8  1  0.22284700  0.77715300  0.31656800  1
  Tb  Tb9  1  0.72284700  0.72284700  0.18343200  1
  Tb  Tb10  1  0.27715300  0.27715300  0.81656800  1
  Tb  Tb11  1  0.72284700  0.72284700  0.81656800  1
  Fe  Fe12  1  0.25830200  0.25830200  0.39913000  1
  Fe  Fe13  1  0.24169800  0.75830200  0.89913000  1
  Fe  Fe14  1  0.75830200  0.24169800  0.89913000  1
  Fe  Fe15  1  0.75830200  0.24169800  0.10087000  1
  Fe  Fe16  1  0.24169800  0.75830200  0.10087000  1
  Fe  Fe17  1  0.74169800  0.74169800  0.39913000  1
  Fe  Fe18  1  0.25830200  0.25830200  0.60087000  1
  Fe  Fe19  1  0.74169800  0.74169800  0.60087000  1
  O  O20  1  0.70489800  0.70489800  0.50000000  1
  O  O21  1  0.79510200  0.20489800  0.00000000  1
  O  O22  1  0.20489800  0.79510200  0.00000000  1
  O  O23  1  0.29510200  0.29510200  0.50000000  1
  O  O24  1  0.18561000  0.18561000  0.28963000  1
  O  O25  1  0.31439000  0.68561000  0.78963000  1
  O  O26  1  0.68561000  0.31439000  0.78963000  1
  O  O27  1  0.68561000  0.31439000  0.21037000  1
  O  O28  1  0.31439000  0.68561000  0.21037000  1
  O  O29  1  0.81439000  0.81439000  0.28963000  1
  O  O30  1  0.18561000  0.18561000  0.71037000  1
  O  O31  1  0.81439000  0.81439000  0.71037000  1
  O  O32  1  0.00000000  0.50000000  0.11248900  1
  O  O33  1  0.00000000  0.50000000  0.61248900  1
  O  O34  1  0.50000000  0.00000000  0.38751100  1
  O  O35  1  0.50000000  0.00000000  0.88751100  1
  O  O36  1  0.00000000  0.50000000  0.88751100  1
  O  O37  1  0.00000000  0.50000000  0.38751100  1
  O  O38  1  0.50000000  0.00000000  0.61248900  1
  O  O39  1  0.50000000  0.00000000  0.11248900  1
  O  O40  1  0.00000000  0.00000000  0.13108400  1
  O  O41  1  0.50000000  0.50000000  0.63108500  1
  O  O42  1  0.50000000  0.50000000  0.36891600  1
  O  O43  1  0.00000000  0.00000000  0.86891500  1
  O  O44  1  0.00000000  0.00000000  0.40976200  1
  O  O45  1  0.50000000  0.50000000  0.90976200  1
  O  O46  1  0.50000000  0.50000000  0.09023800  1
  O  O47  1  0.00000000  0.00000000  0.59023800  1
