data_image0
_chemical_formula_structural       H8K2MgO16P4
_chemical_formula_sum              "H8 K2 Mg1 O16 P4"
_cell_length_a       6.52714
_cell_length_b       7.40335
_cell_length_c       7.76053
_cell_angle_alpha    76.7036
_cell_angle_beta     69.2794
_cell_angle_gamma    82.5655

_space_group_name_H-M_alt    "P 1"
_space_group_IT_number       1

loop_
  _space_group_symop_operation_xyz
  'x, y, z'

loop_
  _atom_site_type_symbol
  _atom_site_label
  _atom_site_symmetry_multiplicity
  _atom_site_fract_x
  _atom_site_fract_y
  _atom_site_fract_z
  _atom_site_occupancy
  H   H1        1.0  0.77700  0.52300  0.02820  1.0000
  H   H2        1.0  0.87800  0.67000  0.21500  1.0000
  H   H3        1.0  0.83200  0.80100  0.36200  1.0000
  H   H4        1.0  0.19400  0.97500  0.48400  1.0000
  H   H5        1.0  0.80600  0.02480  0.51600  1.0000
  H   H6        1.0  0.16800  0.19900  0.63800  1.0000
  H   H7        1.0  0.12200  0.33000  0.78500  1.0000
  H   H8        1.0  0.22300  0.47700  0.97200  1.0000
  K   K1        1.0  0.39600  0.73800  0.17900  1.0000
  K   K2        1.0  0.60400  0.26200  0.82100  1.0000
  Mg  Mg1       1.0  0.00000  0.00000  0.00000  1.0000
  O   O1        1.0  0.21600  0.08440  0.10100  1.0000
  O   O2        1.0  0.74400  0.17300  0.12600  1.0000
  O   O3        1.0  0.77200  0.49800  0.16400  1.0000
  O   O4        1.0  0.27200  0.39000  0.16900  1.0000
  O   O5        1.0  0.91900  0.78700  0.23300  1.0000
  O   O6        1.0  0.91800  0.21500  0.36600  1.0000
  O   O7        1.0  0.26900  0.09340  0.41100  1.0000
  O   O8        1.0  0.10200  0.50300  0.47200  1.0000
  O   O9        1.0  0.89800  0.49700  0.52800  1.0000
  O   O10       1.0  0.73100  0.90700  0.58900  1.0000
  O   O11       1.0  0.08250  0.78500  0.63400  1.0000
  O   O12       1.0  0.08080  0.21300  0.76700  1.0000
  O   O13       1.0  0.72800  0.61000  0.83100  1.0000
  O   O14       1.0  0.22800  0.50200  0.83600  1.0000
  O   O15       1.0  0.25600  0.82700  0.87400  1.0000
  O   O16       1.0  0.78400  0.91600  0.89900  1.0000
  P   P1        1.0  0.17600  0.20100  0.24800  1.0000
  P   P2        1.0  0.69000  0.28600  0.28100  1.0000
  P   P3        1.0  0.31000  0.71400  0.71900  1.0000
  P   P4        1.0  0.82400  0.79900  0.75200  1.0000
