# generated using pymatgen
data_Y2CuHg
_symmetry_space_group_name_H-M   'P 1'
_cell_length_a   11.80961811
_cell_length_b   11.80961811
_cell_length_c   11.80961811
_cell_angle_alpha   120.71012058
_cell_angle_beta   119.61379163
_cell_angle_gamma   89.72234701
_symmetry_Int_Tables_number   1
_chemical_formula_structural   Y2CuHg
_chemical_formula_sum   'Y2 Cu1 Hg1'
_cell_volume   1161.64279975
_cell_formula_units_Z   1
loop_
 _symmetry_equiv_pos_site_id
 _symmetry_equiv_pos_as_xyz
  1  'x, y, z'
loop_
 _atom_site_type_symbol
 _atom_site_label
 _atom_site_symmetry_multiplicity
 _atom_site_fract_x
 _atom_site_fract_y
 _atom_site_fract_z
 _atom_site_occupancy
  Y  Y0  1  0.00000000  0.23837600  0.23837600  1
  Y  Y1  1  0.00000000  0.76162400  0.76162400  1
  Cu  Cu2  1  0.00000000  0.00000000  0.00000000  1
  Hg  Hg3  1  0.00000000  0.50000000  0.50000000  1
