# generated using pymatgen
data_BaDy2MnO5
_symmetry_space_group_name_H-M   'P 1'
_cell_length_a   5.80415300
_cell_length_b   7.21398500
_cell_length_c   12.51656500
_cell_angle_alpha   90.00000000
_cell_angle_beta   90.00000000
_cell_angle_gamma   90.00000000
_symmetry_Int_Tables_number   1
_chemical_formula_structural   BaDy2MnO5
_chemical_formula_sum   'Ba4 Dy8 Mn4 O20'
_cell_volume   524.08200282
_cell_formula_units_Z   4
loop_
 _symmetry_equiv_pos_site_id
 _symmetry_equiv_pos_as_xyz
  1  'x, y, z'
loop_
 _atom_site_type_symbol
 _atom_site_label
 _atom_site_symmetry_multiplicity
 _atom_site_fract_x
 _atom_site_fract_y
 _atom_site_fract_z
 _atom_site_occupancy
  Ba  Ba0  1  0.25000000  0.91860400  0.89900300  1
  Ba  Ba1  1  0.75000000  0.08139600  0.10099700  1
  Ba  Ba2  1  0.75000000  0.41860400  0.60099700  1
  Ba  Ba3  1  0.25000000  0.58139600  0.39900300  1
  Dy  Dy4  1  0.25000000  0.12300900  0.29333000  1
  Dy  Dy5  1  0.75000000  0.87699100  0.70667000  1
  Dy  Dy6  1  0.75000000  0.62300900  0.20667000  1
  Dy  Dy7  1  0.25000000  0.37699100  0.79333000  1
  Dy  Dy8  1  0.25000000  0.40012400  0.07404600  1
  Dy  Dy9  1  0.75000000  0.59987600  0.92595400  1
  Dy  Dy10  1  0.75000000  0.90012400  0.42595400  1
  Dy  Dy11  1  0.25000000  0.09987600  0.57404600  1
  Mn  Mn12  1  0.25000000  0.69198300  0.65202600  1
  Mn  Mn13  1  0.75000000  0.30801700  0.34797400  1
  Mn  Mn14  1  0.75000000  0.19198300  0.84797400  1
  Mn  Mn15  1  0.25000000  0.80801700  0.15202600  1
  O  O16  1  0.00167600  0.16224800  0.43470700  1
  O  O17  1  0.50167600  0.83775200  0.56529300  1
  O  O18  1  0.99832400  0.66224800  0.06529300  1
  O  O19  1  0.49832400  0.33775200  0.93470700  1
  O  O20  1  0.99832400  0.83775200  0.56529300  1
  O  O21  1  0.49832400  0.16224800  0.43470700  1
  O  O22  1  0.00167600  0.33775200  0.93470700  1
  O  O23  1  0.50167600  0.66224800  0.06529300  1
  O  O24  1  0.49882200  0.36169000  0.22409400  1
  O  O25  1  0.99882200  0.63831000  0.77590600  1
  O  O26  1  0.50117800  0.86169000  0.27590600  1
  O  O27  1  0.00117800  0.13831000  0.72409400  1
  O  O28  1  0.50117800  0.63831000  0.77590600  1
  O  O29  1  0.00117800  0.36169000  0.22409400  1
  O  O30  1  0.49882200  0.13831000  0.72409400  1
  O  O31  1  0.99882200  0.86169000  0.27590600  1
  O  O32  1  0.25000000  0.07933800  0.10101100  1
  O  O33  1  0.75000000  0.92066200  0.89898900  1
  O  O34  1  0.75000000  0.57933800  0.39898900  1
  O  O35  1  0.25000000  0.42066200  0.60101100  1
