data_image0
_chemical_formula_structural       CdSnTe4Tl2
_chemical_formula_sum              "Cd1 Sn1 Te4 Tl2"
_cell_length_a       7.1157
_cell_length_b       7.1157
_cell_length_c       7.1157
_cell_angle_alpha    118.205
_cell_angle_beta     105.289
_cell_angle_gamma    105.289

_space_group_name_H-M_alt    "P 1"
_space_group_IT_number       1

loop_
  _space_group_symop_operation_xyz
  'x, y, z'

loop_
  _atom_site_type_symbol
  _atom_site_label
  _atom_site_symmetry_multiplicity
  _atom_site_fract_x
  _atom_site_fract_y
  _atom_site_fract_z
  _atom_site_occupancy
  Cd  Cd1       1.0  0.00000  0.50000  0.50000  1.0000
  Sn  Sn1       1.0  0.00000  0.00000  0.00000  1.0000
  Te  Te1       1.0  0.00000  0.42100  0.05950  1.0000
  Te  Te2       1.0  0.00000  0.05950  0.42100  1.0000
  Te  Te3       1.0  0.63900  0.57900  0.57900  1.0000
  Te  Te4       1.0  0.36100  0.94000  0.94000  1.0000
  Tl  Tl1       1.0  0.50000  0.50000  0.00000  1.0000
  Tl  Tl2       1.0  0.50000  0.00000  0.50000  1.0000
