# generated using pymatgen
data_Sr2PrGaCu2O7
_symmetry_space_group_name_H-M   'P 1'
_cell_length_a   12.30200190
_cell_length_b   12.30200190
_cell_length_c   12.30200190
_cell_angle_alpha   154.26240051
_cell_angle_beta   153.64929811
_cell_angle_gamma   37.16621907
_symmetry_Int_Tables_number   1
_chemical_formula_structural   Sr2PrGaCu2O7
_chemical_formula_sum   'Sr4 Pr2 Ga2 Cu4 O14'
_cell_volume   358.34040904
_cell_formula_units_Z   2
loop_
 _symmetry_equiv_pos_site_id
 _symmetry_equiv_pos_as_xyz
  1  'x, y, z'
loop_
 _atom_site_type_symbol
 _atom_site_label
 _atom_site_symmetry_multiplicity
 _atom_site_fract_x
 _atom_site_fract_y
 _atom_site_fract_z
 _atom_site_occupancy
  Sr  Sr0  1  0.17244100  0.65093700  0.51747500  1
  Sr  Sr1  1  0.82755900  0.34503400  0.47849600  1
  Sr  Sr2  1  0.63346200  0.15093700  0.47849600  1
  Sr  Sr3  1  0.36653800  0.84503400  0.51747500  1
  Pr  Pr4  1  0.00000000  0.50081000  0.50081000  1
  Pr  Pr5  1  0.50000000  0.00081000  0.50081000  1
  Ga  Ga6  1  0.17917200  0.21487000  0.89404300  1
  Ga  Ga7  1  0.82082800  0.71487000  0.03569800  1
  Cu  Cu8  1  0.07469100  0.07760100  0.99999900  1
  Cu  Cu9  1  0.92530900  0.92530700  0.00291000  1
  Cu  Cu10  1  0.57760300  0.57760100  0.00291000  1
  Cu  Cu11  1  0.42239700  0.42530700  0.99999900  1
  O  O12  1  0.87123300  0.36689900  0.73813200  1
  O  O13  1  0.12876700  0.86689900  0.49566600  1
  O  O14  1  0.81814400  0.32006400  0.00022600  1
  O  O15  1  0.18185600  0.18208200  0.50192000  1
  O  O16  1  0.81983900  0.82006400  0.50192000  1
  O  O17  1  0.18016100  0.68208200  0.00022600  1
  O  O18  1  0.31446000  0.81647300  0.99920600  1
  O  O19  1  0.68554000  0.68474700  0.50201300  1
  O  O20  1  0.31726600  0.31647300  0.50201300  1
  O  O21  1  0.68273400  0.18474700  0.99920600  1
  O  O22  1  0.62936900  0.70869600  0.98264400  1
  O  O23  1  0.37063100  0.35327600  0.07932700  1
  O  O24  1  0.22605200  0.20869600  0.07932700  1
  O  O25  1  0.77394800  0.85327600  0.98264400  1
