# generated using pymatgen
data_La4Mn5(Si2O11)2
_symmetry_space_group_name_H-M   'P 1'
_cell_length_a   7.62760191
_cell_length_b   7.62760191
_cell_length_c   11.81717803
_cell_angle_alpha   67.54468749
_cell_angle_beta   67.54468749
_cell_angle_gamma   43.70813771
_symmetry_Int_Tables_number   1
_chemical_formula_structural   La4Mn5(Si2O11)2
_chemical_formula_sum   'La4 Mn5 Si4 O22'
_cell_volume   432.97617933
_cell_formula_units_Z   1
loop_
 _symmetry_equiv_pos_site_id
 _symmetry_equiv_pos_as_xyz
  1  'x, y, z'
loop_
 _atom_site_type_symbol
 _atom_site_label
 _atom_site_symmetry_multiplicity
 _atom_site_fract_x
 _atom_site_fract_y
 _atom_site_fract_z
 _atom_site_occupancy
  La  La0  1  0.76191100  0.76191100  0.26137000  1
  La  La1  1  0.23808900  0.23808900  0.73863000  1
  La  La2  1  0.94844700  0.94844700  0.74789000  1
  La  La3  1  0.05155300  0.05155300  0.25211000  1
  Mn  Mn4  1  0.74886100  0.25113900  0.00000000  1
  Mn  Mn5  1  0.25113900  0.74886100  0.00000000  1
  Mn  Mn6  1  0.73238400  0.73238400  0.00096200  1
  Mn  Mn7  1  0.26761600  0.26761600  0.99903800  1
  Mn  Mn8  1  0.50000000  0.50000000  0.50000000  1
  Si  Si9  1  0.83483100  0.83483100  0.55048500  1
  Si  Si10  1  0.16516900  0.16516900  0.44951500  1
  Si  Si11  1  0.58711900  0.58711900  0.73646700  1
  Si  Si12  1  0.41288100  0.41288100  0.26353300  1
  O  O13  1  0.67146700  0.18005100  0.18156000  1
  O  O14  1  0.81994900  0.32853300  0.81844000  1
  O  O15  1  0.32853300  0.81994900  0.81844000  1
  O  O16  1  0.18005100  0.67146700  0.18156000  1
  O  O17  1  0.45867200  0.96115200  0.12448400  1
  O  O18  1  0.03884800  0.54132800  0.87551600  1
  O  O19  1  0.54132800  0.03884800  0.87551600  1
  O  O20  1  0.96115200  0.45867200  0.12448400  1
  O  O21  1  0.35250200  0.89220800  0.39983600  1
  O  O22  1  0.10779200  0.64749800  0.60016400  1
  O  O23  1  0.64749800  0.10779200  0.60016400  1
  O  O24  1  0.89220800  0.35250200  0.39983600  1
  O  O25  1  0.91212800  0.91212800  0.98706000  1
  O  O26  1  0.08787200  0.08787200  0.01294000  1
  O  O27  1  0.58452700  0.58452700  0.01224100  1
  O  O28  1  0.41547300  0.41547300  0.98775900  1
  O  O29  1  0.50333700  0.50333700  0.67811200  1
  O  O30  1  0.49666300  0.49666300  0.32188800  1
  O  O31  1  0.70795500  0.70795500  0.63423500  1
  O  O32  1  0.29204500  0.29204500  0.36576500  1
  O  O33  1  0.86495500  0.86495500  0.40303800  1
  O  O34  1  0.13504500  0.13504500  0.59696200  1
