# generated using pymatgen
data_As2Se2S(NF6)2
_symmetry_space_group_name_H-M   'P 1'
_cell_length_a   7.79320832
_cell_length_b   7.79320832
_cell_length_c   10.94276890
_cell_angle_alpha   87.08507897
_cell_angle_beta   87.08507897
_cell_angle_gamma   68.74913788
_symmetry_Int_Tables_number   1
_chemical_formula_structural   As2Se2S(NF6)2
_chemical_formula_sum   'As4 Se4 S2 N4 F24'
_cell_volume   618.23123900
_cell_formula_units_Z   2
loop_
 _symmetry_equiv_pos_site_id
 _symmetry_equiv_pos_as_xyz
  1  'x, y, z'
loop_
 _atom_site_type_symbol
 _atom_site_label
 _atom_site_symmetry_multiplicity
 _atom_site_fract_x
 _atom_site_fract_y
 _atom_site_fract_z
 _atom_site_occupancy
  As  As0  1  0.34399300  0.38399200  0.74786100  1
  As  As1  1  0.61600800  0.65600700  0.25213900  1
  As  As2  1  0.99787300  0.00212700  0.50000000  1
  As  As3  1  0.00493700  0.99506300  0.00000000  1
  Se  Se4  1  0.56821100  0.84539400  0.85735800  1
  Se  Se5  1  0.15460600  0.43178900  0.14264200  1
  Se  Se6  1  0.57590500  0.86195800  0.63866300  1
  Se  Se7  1  0.13804200  0.42409500  0.36133700  1
  S  S8  1  0.79502100  0.50190500  0.74381000  1
  S  S9  1  0.49809500  0.20497900  0.25619000  1
  N  N10  1  0.71523700  0.61562800  0.86342100  1
  N  N11  1  0.38437200  0.28476300  0.13657900  1
  N  N12  1  0.72379800  0.63365300  0.62706800  1
  N  N13  1  0.36634700  0.27620200  0.37293200  1
  F  F14  1  0.16562000  0.44727000  0.86309800  1
  F  F15  1  0.55273000  0.83438000  0.13690200  1
  F  F16  1  0.51993300  0.31217800  0.63298700  1
  F  F17  1  0.68782200  0.48006700  0.36701300  1
  F  F18  1  0.35804000  0.60481800  0.74363500  1
  F  F19  1  0.39518200  0.64196000  0.25636500  1
  F  F20  1  0.17425400  0.45257900  0.63492500  1
  F  F21  1  0.54742100  0.82574600  0.36507500  1
  F  F22  1  0.33420600  0.15471900  0.75120300  1
  F  F23  1  0.84528100  0.66579400  0.24879700  1
  F  F24  1  0.50949900  0.30642600  0.86236600  1
  F  F25  1  0.69357400  0.49050100  0.13763400  1
  F  F26  1  0.94000600  0.22577300  0.55725600  1
  F  F27  1  0.77422700  0.05999400  0.44274400  1
  F  F28  1  0.22155300  0.93903600  0.55938300  1
  F  F29  1  0.06096400  0.77844700  0.44061700  1
  F  F30  1  0.91758100  0.92477000  0.63984400  1
  F  F31  1  0.07523000  0.08241900  0.36015600  1
  F  F32  1  0.92064900  0.18981300  0.90095400  1
  F  F33  1  0.81018700  0.07935100  0.09904600  1
  F  F34  1  0.89230600  0.87669500  0.91706600  1
  F  F35  1  0.12330500  0.10769400  0.08293400  1
  F  F36  1  0.20443500  0.90387100  0.90179600  1
  F  F37  1  0.09612900  0.79556500  0.09820400  1
