# generated using pymatgen
data_BaY2CoO5
_symmetry_space_group_name_H-M   'P 1'
_cell_length_a   5.77002500
_cell_length_b   7.15852900
_cell_length_c   12.39054000
_cell_angle_alpha   90.00000000
_cell_angle_beta   90.00000000
_cell_angle_gamma   90.00000000
_symmetry_Int_Tables_number   1
_chemical_formula_structural   BaY2CoO5
_chemical_formula_sum   'Ba4 Y8 Co4 O20'
_cell_volume   511.78990776
_cell_formula_units_Z   4
loop_
 _symmetry_equiv_pos_site_id
 _symmetry_equiv_pos_as_xyz
  1  'x, y, z'
loop_
 _atom_site_type_symbol
 _atom_site_label
 _atom_site_symmetry_multiplicity
 _atom_site_fract_x
 _atom_site_fract_y
 _atom_site_fract_z
 _atom_site_occupancy
  Ba  Ba0  1  0.25000000  0.92148500  0.89996900  1
  Ba  Ba1  1  0.75000000  0.07851500  0.10003100  1
  Ba  Ba2  1  0.75000000  0.42148500  0.60003100  1
  Ba  Ba3  1  0.25000000  0.57851500  0.39996900  1
  Y  Y4  1  0.25000000  0.11880900  0.29158800  1
  Y  Y5  1  0.75000000  0.88119100  0.70841200  1
  Y  Y6  1  0.75000000  0.61880900  0.20841200  1
  Y  Y7  1  0.25000000  0.38119100  0.79158800  1
  Y  Y8  1  0.25000000  0.40053600  0.07457500  1
  Y  Y9  1  0.75000000  0.59946400  0.92542500  1
  Y  Y10  1  0.75000000  0.90053600  0.42542500  1
  Y  Y11  1  0.25000000  0.09946400  0.57457500  1
  Co  Co12  1  0.25000000  0.69233200  0.65200200  1
  Co  Co13  1  0.75000000  0.30766800  0.34799800  1
  Co  Co14  1  0.75000000  0.19233200  0.84799800  1
  Co  Co15  1  0.25000000  0.80766800  0.15200200  1
  O  O16  1  0.99544000  0.16653800  0.43433300  1
  O  O17  1  0.49544000  0.83346200  0.56566700  1
  O  O18  1  0.00456000  0.66653800  0.06566700  1
  O  O19  1  0.50456000  0.33346200  0.93433300  1
  O  O20  1  0.00456000  0.83346200  0.56566700  1
  O  O21  1  0.50456000  0.16653800  0.43433300  1
  O  O22  1  0.99544000  0.33346200  0.93433300  1
  O  O23  1  0.49544000  0.66653800  0.06566700  1
  O  O24  1  0.50153600  0.35934100  0.22500600  1
  O  O25  1  0.00153600  0.64065900  0.77499400  1
  O  O26  1  0.49846400  0.85934100  0.27499400  1
  O  O27  1  0.99846400  0.14065900  0.72500600  1
  O  O28  1  0.49846400  0.64065900  0.77499400  1
  O  O29  1  0.99846400  0.35934100  0.22500600  1
  O  O30  1  0.50153600  0.14065900  0.72500600  1
  O  O31  1  0.00153600  0.85934100  0.27499400  1
  O  O32  1  0.25000000  0.07464000  0.10185900  1
  O  O33  1  0.75000000  0.92536000  0.89814100  1
  O  O34  1  0.75000000  0.57464000  0.39814100  1
  O  O35  1  0.25000000  0.42536000  0.60185900  1
