# generated using pymatgen
data_Sr2VO4
_symmetry_space_group_name_H-M   'P 1'
_cell_length_a   5.96892100
_cell_length_b   10.66544600
_cell_length_c   14.69336100
_cell_angle_alpha   90.00000000
_cell_angle_beta   90.00000000
_cell_angle_gamma   90.00000000
_symmetry_Int_Tables_number   1
_chemical_formula_structural   Sr2VO4
_chemical_formula_sum   'Sr16 V8 O32'
_cell_volume   935.39706094
_cell_formula_units_Z   8
loop_
 _symmetry_equiv_pos_site_id
 _symmetry_equiv_pos_as_xyz
  1  'x, y, z'
loop_
 _atom_site_type_symbol
 _atom_site_label
 _atom_site_symmetry_multiplicity
 _atom_site_fract_x
 _atom_site_fract_y
 _atom_site_fract_z
 _atom_site_occupancy
  Sr  Sr0  1  0.20350500  0.02550900  0.14816300  1
  Sr  Sr1  1  0.79649500  0.52550900  0.85183700  1
  Sr  Sr2  1  0.29649500  0.02550900  0.64816300  1
  Sr  Sr3  1  0.70350500  0.52550900  0.35183700  1
  Sr  Sr4  1  0.18953700  0.67206200  0.20718800  1
  Sr  Sr5  1  0.81046300  0.17206200  0.79281200  1
  Sr  Sr6  1  0.31046300  0.67206200  0.70718800  1
  Sr  Sr7  1  0.68953700  0.17206200  0.29281200  1
  Sr  Sr8  1  0.22977700  0.90926200  0.40422800  1
  Sr  Sr9  1  0.77022300  0.40926200  0.59577200  1
  Sr  Sr10  1  0.27022300  0.90926200  0.90422800  1
  Sr  Sr11  1  0.72977700  0.40926200  0.09577200  1
  Sr  Sr12  1  0.22252400  0.27635200  0.47440500  1
  Sr  Sr13  1  0.77747600  0.77635200  0.52559500  1
  Sr  Sr14  1  0.27747600  0.27635200  0.97440500  1
  Sr  Sr15  1  0.72252400  0.77635200  0.02559500  1
  V  V16  1  0.76194500  0.11391200  0.02793300  1
  V  V17  1  0.23805500  0.61391200  0.97206700  1
  V  V18  1  0.73805500  0.11391200  0.52793300  1
  V  V19  1  0.26194500  0.61391200  0.47206700  1
  V  V20  1  0.77709300  0.87803000  0.27265300  1
  V  V21  1  0.22290700  0.37803000  0.72734700  1
  V  V22  1  0.72290700  0.87803000  0.77265300  1
  V  V23  1  0.27709300  0.37803000  0.22734700  1
  O  O24  1  0.35781400  0.25817800  0.14670100  1
  O  O25  1  0.64218600  0.75817800  0.85329900  1
  O  O26  1  0.14218600  0.25817800  0.64670100  1
  O  O27  1  0.85781400  0.75817800  0.35329900  1
  O  O28  1  0.00500000  0.45473400  0.23411700  1
  O  O29  1  0.99500000  0.95473400  0.76588300  1
  O  O30  1  0.49500000  0.45473400  0.73411700  1
  O  O31  1  0.50500000  0.95473400  0.26588300  1
  O  O32  1  0.85314300  0.18330800  0.13405100  1
  O  O33  1  0.14685700  0.68330800  0.86594900  1
  O  O34  1  0.64685700  0.18330800  0.63405100  1
  O  O35  1  0.35314300  0.68330800  0.36594900  1
  O  O36  1  0.97382100  0.00806500  0.29696300  1
  O  O37  1  0.02617900  0.50806500  0.70303700  1
  O  O38  1  0.52617900  0.00806500  0.79696300  1
  O  O39  1  0.47382100  0.50806500  0.20303700  1
  O  O40  1  0.82261900  0.24619300  0.45323900  1
  O  O41  1  0.17738100  0.74619300  0.54676100  1
  O  O42  1  0.67738100  0.24619300  0.95323900  1
  O  O43  1  0.32261900  0.74619300  0.04676100  1
  O  O44  1  0.40615100  0.32942800  0.33576000  1
  O  O45  1  0.59384900  0.82942800  0.66424000  1
  O  O46  1  0.09384900  0.32942800  0.83576000  1
  O  O47  1  0.90615100  0.82942800  0.16424000  1
  O  O48  1  0.03512400  0.05848900  0.98440100  1
  O  O49  1  0.96487600  0.55848900  0.01559900  1
  O  O50  1  0.46487600  0.05848900  0.48440100  1
  O  O51  1  0.53512400  0.55848900  0.51559900  1
  O  O52  1  0.53947000  0.99947900  0.02587600  1
  O  O53  1  0.46053000  0.49947900  0.97412400  1
  O  O54  1  0.96053000  0.99947900  0.52587600  1
  O  O55  1  0.03947000  0.49947900  0.47412400  1
