# generated using pymatgen
data_ZnInPd2
_symmetry_space_group_name_H-M   'P 1'
_cell_length_a   10.95016925
_cell_length_b   10.95016925
_cell_length_c   10.95016925
_cell_angle_alpha   125.60886741
_cell_angle_beta   118.15763462
_cell_angle_gamma   86.89604213
_symmetry_Int_Tables_number   1
_chemical_formula_structural   ZnInPd2
_chemical_formula_sum   'Zn1 In1 Pd2'
_cell_volume   895.45877497
_cell_formula_units_Z   1
loop_
 _symmetry_equiv_pos_site_id
 _symmetry_equiv_pos_as_xyz
  1  'x, y, z'
loop_
 _atom_site_type_symbol
 _atom_site_label
 _atom_site_symmetry_multiplicity
 _atom_site_fract_x
 _atom_site_fract_y
 _atom_site_fract_z
 _atom_site_occupancy
  Zn  Zn0  1  0.00000000  0.00000000  0.00000000  1
  In  In1  1  0.00000000  0.50000000  0.50000000  1
  Pd  Pd2  1  0.00000000  0.24587000  0.24587000  1
  Pd  Pd3  1  0.00000000  0.75413000  0.75413000  1
