# generated using pymatgen
data_CoH4SeO5
_symmetry_space_group_name_H-M   'P 1'
_cell_length_a   10.12029000
_cell_length_b   6.58006300
_cell_length_c   8.87454895
_cell_angle_alpha   54.88554404
_cell_angle_beta   90.00000000
_cell_angle_gamma   90.00000000
_symmetry_Int_Tables_number   1
_chemical_formula_structural   CoH4SeO5
_chemical_formula_sum   'Co4 H16 Se4 O20'
_cell_volume   483.42048809
_cell_formula_units_Z   4
loop_
 _symmetry_equiv_pos_site_id
 _symmetry_equiv_pos_as_xyz
  1  'x, y, z'
loop_
 _atom_site_type_symbol
 _atom_site_label
 _atom_site_symmetry_multiplicity
 _atom_site_fract_x
 _atom_site_fract_y
 _atom_site_fract_z
 _atom_site_occupancy
  Co  Co0  1  0.62627800  0.83900300  0.51694300  1
  Co  Co1  1  0.12627800  0.16099700  0.98305700  1
  Co  Co2  1  0.37372200  0.16099700  0.48305700  1
  Co  Co3  1  0.87372200  0.83900300  0.01694300  1
  H  H4  1  0.52936000  0.74251200  0.89464100  1
  H  H5  1  0.02936000  0.25748800  0.60535900  1
  H  H6  1  0.47064000  0.25748800  0.10535900  1
  H  H7  1  0.97064000  0.74251200  0.39464100  1
  H  H8  1  0.71257800  0.60562300  0.86926400  1
  H  H9  1  0.21257800  0.39437700  0.63073600  1
  H  H10  1  0.28742200  0.39437700  0.13073600  1
  H  H11  1  0.78742200  0.60562300  0.36926400  1
  H  H12  1  0.58357300  0.45800800  0.87923800  1
  H  H13  1  0.08357300  0.54199200  0.62076200  1
  H  H14  1  0.41642700  0.54199200  0.12076200  1
  H  H15  1  0.91642700  0.45800800  0.37923800  1
  H  H16  1  0.88873100  0.14440800  0.62480300  1
  H  H17  1  0.38873100  0.85559200  0.87519700  1
  H  H18  1  0.11126900  0.85559200  0.37519700  1
  H  H19  1  0.61126900  0.14440800  0.12480300  1
  Se  Se20  1  0.12093000  0.76342900  0.82070100  1
  Se  Se21  1  0.62093000  0.23657100  0.67929900  1
  Se  Se22  1  0.87907000  0.23657100  0.17929900  1
  Se  Se23  1  0.37907000  0.76342900  0.32070100  1
  O  O24  1  0.46953200  0.79566000  0.95538500  1
  O  O25  1  0.96953200  0.20434000  0.54461500  1
  O  O26  1  0.53046800  0.20434000  0.04461500  1
  O  O27  1  0.03046800  0.79566000  0.45538500  1
  O  O28  1  0.57151900  0.14423600  0.53552600  1
  O  O29  1  0.07151900  0.85576400  0.96447400  1
  O  O30  1  0.42848100  0.85576400  0.46447400  1
  O  O31  1  0.92848100  0.14423600  0.03552600  1
  O  O32  1  0.17492200  0.46151000  0.98917700  1
  O  O33  1  0.67492100  0.53849000  0.51082300  1
  O  O34  1  0.82507800  0.53849000  0.01082300  1
  O  O35  1  0.32507800  0.46151000  0.48917700  1
  O  O36  1  0.62743300  0.62986800  0.79883700  1
  O  O37  1  0.12743300  0.37013200  0.70116300  1
  O  O38  1  0.37256700  0.37013200  0.20116300  1
  O  O39  1  0.87256700  0.62986800  0.29883700  1
  O  O40  1  0.23497500  0.93182700  0.22760500  1
  O  O41  1  0.73497500  0.06817300  0.27239500  1
  O  O42  1  0.76502500  0.06817300  0.77239500  1
  O  O43  1  0.26502500  0.93182700  0.72760500  1
