# generated using pymatgen
data_Cd(BiO2)2
_symmetry_space_group_name_H-M   'P 1'
_cell_length_a   11.45048233
_cell_length_b   11.45048233
_cell_length_c   11.45048233
_cell_angle_alpha   99.93203960
_cell_angle_beta   99.93203960
_cell_angle_gamma   130.92269167
_symmetry_Int_Tables_number   1
_chemical_formula_structural   Cd(BiO2)2
_chemical_formula_sum   'Cd8 Bi16 O32'
_cell_volume   1031.92745476
_cell_formula_units_Z   8
loop_
 _symmetry_equiv_pos_site_id
 _symmetry_equiv_pos_as_xyz
  1  'x, y, z'
loop_
 _atom_site_type_symbol
 _atom_site_label
 _atom_site_symmetry_multiplicity
 _atom_site_fract_x
 _atom_site_fract_y
 _atom_site_fract_z
 _atom_site_occupancy
  Cd  Cd0  1  0.23433300  0.87500000  0.85933300  1
  Cd  Cd1  1  0.62500000  0.98433300  0.85933300  1
  Cd  Cd2  1  0.12500000  0.76566700  0.14066700  1
  Cd  Cd3  1  0.01566700  0.37500000  0.14066700  1
  Cd  Cd4  1  0.01566700  0.87500000  0.64066700  1
  Cd  Cd5  1  0.62500000  0.76566700  0.64066700  1
  Cd  Cd6  1  0.12500000  0.98433300  0.35933300  1
  Cd  Cd7  1  0.23433300  0.37500000  0.35933300  1
  Bi  Bi8  1  0.34203000  0.34203000  0.68405900  1
  Bi  Bi9  1  0.90797000  0.09203000  0.50000000  1
  Bi  Bi10  1  0.59203000  0.40797000  0.50000000  1
  Bi  Bi11  1  0.65797000  0.65797000  0.31594100  1
  Bi  Bi12  1  0.90797000  0.40797000  0.81594100  1
  Bi  Bi13  1  0.34203000  0.65797000  0.00000000  1
  Bi  Bi14  1  0.65797000  0.34203000  0.00000000  1
  Bi  Bi15  1  0.59203000  0.09203000  0.18405900  1
  Bi  Bi16  1  0.84872700  0.98975100  0.14102500  1
  Bi  Bi17  1  0.95770200  0.59872700  0.35897500  1
  Bi  Bi18  1  0.23975100  0.59872700  0.64102500  1
  Bi  Bi19  1  0.84872700  0.70770200  0.85897500  1
  Bi  Bi20  1  0.01024900  0.15127300  0.85897500  1
  Bi  Bi21  1  0.29229800  0.15127300  0.14102500  1
  Bi  Bi22  1  0.40127300  0.04229800  0.64102500  1
  Bi  Bi23  1  0.40127300  0.76024900  0.35897500  1
  O  O24  1  0.58756200  0.93831600  0.04300300  1
  O  O25  1  0.79455900  0.33756200  0.14924700  1
  O  O26  1  0.18831600  0.64531200  0.85075300  1
  O  O27  1  0.89531200  0.54455900  0.95699700  1
  O  O28  1  0.06168400  0.41243800  0.95699700  1
  O  O29  1  0.45544100  0.10468800  0.04300300  1
  O  O30  1  0.66243800  0.20544100  0.85075300  1
  O  O31  1  0.35468800  0.81168400  0.14924700  1
  O  O32  1  0.66243800  0.81168400  0.45699700  1
  O  O33  1  0.45544100  0.41243800  0.35075300  1
  O  O34  1  0.06168400  0.10468800  0.64924700  1
  O  O35  1  0.35468800  0.20544100  0.54300300  1
  O  O36  1  0.18831600  0.33756200  0.54300300  1
  O  O37  1  0.79455900  0.64531200  0.45699700  1
  O  O38  1  0.58756200  0.54455900  0.64924700  1
  O  O39  1  0.89531200  0.93831600  0.35075300  1
  O  O40  1  0.31166100  0.54071700  0.22905600  1
  O  O41  1  0.33260600  0.06166100  0.27094400  1
  O  O42  1  0.79071700  0.06166100  0.72905600  1
  O  O43  1  0.31166100  0.08260600  0.77094400  1
  O  O44  1  0.45928300  0.68833900  0.77094400  1
  O  O45  1  0.91739400  0.68833900  0.22905600  1
  O  O46  1  0.93833900  0.66739400  0.72905600  1
  O  O47  1  0.93833900  0.20928300  0.27094400  1
  O  O48  1  0.10702300  0.10702300  0.21404600  1
  O  O49  1  0.14297700  0.85702300  0.50000000  1
  O  O50  1  0.35702300  0.64297700  0.50000000  1
  O  O51  1  0.89297700  0.89297700  0.78595400  1
  O  O52  1  0.14297700  0.64297700  0.28595400  1
  O  O53  1  0.10702300  0.89297700  0.00000000  1
  O  O54  1  0.89297700  0.10702300  0.00000000  1
  O  O55  1  0.35702300  0.85702300  0.71404600  1
