# generated using pymatgen
data_BaH2N2O5
_symmetry_space_group_name_H-M   'P 1'
_cell_length_a   7.17410819
_cell_length_b   7.17410819
_cell_length_c   18.17519700
_cell_angle_alpha   90.00000000
_cell_angle_beta   90.00000000
_cell_angle_gamma   120.00000178
_symmetry_Int_Tables_number   1
_chemical_formula_structural   BaH2N2O5
_chemical_formula_sum   'Ba6 H12 N12 O30'
_cell_volume   810.11298754
_cell_formula_units_Z   6
loop_
 _symmetry_equiv_pos_site_id
 _symmetry_equiv_pos_as_xyz
  1  'x, y, z'
loop_
 _atom_site_type_symbol
 _atom_site_label
 _atom_site_symmetry_multiplicity
 _atom_site_fract_x
 _atom_site_fract_y
 _atom_site_fract_z
 _atom_site_occupancy
  Ba  Ba0  1  0.43361300  0.85454800  0.99940800  1
  Ba  Ba1  1  0.57906400  0.43361300  0.83274100  1
  Ba  Ba2  1  0.85454800  0.42093600  0.16607500  1
  Ba  Ba3  1  0.14545200  0.57906400  0.66607500  1
  Ba  Ba4  1  0.42093600  0.56638700  0.33274100  1
  Ba  Ba5  1  0.56638700  0.14545200  0.49940800  1
  H  H6  1  0.16788900  0.02479100  0.37986500  1
  H  H7  1  0.14309800  0.16788900  0.21319900  1
  H  H8  1  0.02479100  0.85690200  0.54653200  1
  H  H9  1  0.97520900  0.14309800  0.04653200  1
  H  H10  1  0.85690200  0.83211100  0.71319900  1
  H  H11  1  0.83211100  0.97520900  0.87986500  1
  H  H12  1  0.09723200  0.13916100  0.43694300  1
  H  H13  1  0.95807100  0.09723200  0.27027700  1
  H  H14  1  0.13916100  0.04192900  0.60361000  1
  H  H15  1  0.86083900  0.95807100  0.10361000  1
  H  H16  1  0.04192900  0.90276800  0.77027700  1
  H  H17  1  0.90276800  0.86083900  0.93694300  1
  N  N18  1  0.24564100  0.03339100  0.14627900  1
  N  N19  1  0.21225000  0.24564100  0.97961300  1
  N  N20  1  0.03339100  0.78775000  0.31294600  1
  N  N21  1  0.96660900  0.21225000  0.81294600  1
  N  N22  1  0.78775000  0.75435900  0.47961300  1
  N  N23  1  0.75435900  0.96660900  0.64627900  1
  N  N24  1  0.56620700  0.12153200  0.32610600  1
  N  N25  1  0.44467400  0.56620700  0.15943900  1
  N  N26  1  0.12153200  0.55532600  0.49277200  1
  N  N27  1  0.87846800  0.44467400  0.99277200  1
  N  N28  1  0.55532600  0.43379300  0.65943900  1
  N  N29  1  0.43379300  0.87846800  0.82610600  1
  O  O30  1  0.43688900  0.10079900  0.12444600  1
  O  O31  1  0.33609000  0.43688900  0.95777900  1
  O  O32  1  0.10079900  0.66391000  0.29111300  1
  O  O33  1  0.89920100  0.33609000  0.79111300  1
  O  O34  1  0.66391000  0.56311100  0.45777900  1
  O  O35  1  0.56311100  0.89920100  0.62444600  1
  O  O36  1  0.10353000  0.86524100  0.11365400  1
  O  O37  1  0.23828900  0.10353000  0.94698800  1
  O  O38  1  0.86524100  0.76171100  0.28032100  1
  O  O39  1  0.13475900  0.23828900  0.78032100  1
  O  O40  1  0.76171100  0.89647000  0.44698800  1
  O  O41  1  0.89647000  0.13475900  0.61365400  1
  O  O42  1  0.59331800  0.29559600  0.29755900  1
  O  O43  1  0.29772200  0.59331800  0.13089200  1
  O  O44  1  0.29559600  0.70227800  0.46422600  1
  O  O45  1  0.70440400  0.29772200  0.96422600  1
  O  O46  1  0.70227800  0.40668200  0.63089200  1
  O  O47  1  0.40668200  0.70440400  0.79755900  1
  O  O48  1  0.61214600  0.00839200  0.28485300  1
  O  O49  1  0.60375300  0.61214600  0.11818700  1
  O  O50  1  0.00839200  0.39624700  0.45152000  1
  O  O51  1  0.99160800  0.60375300  0.95152000  1
  O  O52  1  0.39624700  0.38785400  0.61818700  1
  O  O53  1  0.38785400  0.99160800  0.78485300  1
  O  O54  1  0.22628600  0.15159600  0.41347500  1
  O  O55  1  0.07469100  0.22628600  0.24680900  1
  O  O56  1  0.15159600  0.92530900  0.58014200  1
  O  O57  1  0.84840400  0.07469100  0.08014200  1
  O  O58  1  0.92530900  0.77371400  0.74680900  1
  O  O59  1  0.77371400  0.84840400  0.91347500  1
