# generated using pymatgen
data_As2S3(NF6)2
_symmetry_space_group_name_H-M   'P 1'
_cell_length_a   7.69953298
_cell_length_b   7.69953298
_cell_length_c   10.89052593
_cell_angle_alpha   88.09652866
_cell_angle_beta   88.09652866
_cell_angle_gamma   67.90746084
_symmetry_Int_Tables_number   1
_chemical_formula_structural   As2S3(NF6)2
_chemical_formula_sum   'As4 S6 N4 F24'
_cell_volume   597.73811585
_cell_formula_units_Z   2
loop_
 _symmetry_equiv_pos_site_id
 _symmetry_equiv_pos_as_xyz
  1  'x, y, z'
loop_
 _atom_site_type_symbol
 _atom_site_label
 _atom_site_symmetry_multiplicity
 _atom_site_fract_x
 _atom_site_fract_y
 _atom_site_fract_z
 _atom_site_occupancy
  As  As0  1  0.28837200  0.98281200  0.25138700  1
  As  As1  1  0.01718800  0.71162800  0.74861300  1
  As  As2  1  0.66778400  0.33221600  0.50000000  1
  As  As3  1  0.67530700  0.32469300  0.00000000  1
  S  S4  1  0.17993600  0.53122800  0.25603400  1
  S  S5  1  0.46877200  0.82006400  0.74396600  1
  S  S6  1  0.84047700  0.74928400  0.15231400  1
  S  S7  1  0.25071600  0.15952300  0.84768600  1
  S  S8  1  0.82715700  0.74479100  0.34957900  1
  S  S9  1  0.25520900  0.17284300  0.65042100  1
  N  N10  1  0.05006500  0.61830800  0.13958800  1
  N  N11  1  0.38169200  0.94993500  0.86041200  1
  N  N12  1  0.03469300  0.61274800  0.36838100  1
  N  N13  1  0.38725200  0.96530700  0.63161900  1
  F  F14  1  0.22538500  0.16367300  0.13658500  1
  F  F15  1  0.83632700  0.77461500  0.86341500  1
  F  F16  1  0.35872600  0.80520700  0.36672200  1
  F  F17  1  0.19479300  0.64127400  0.63327800  1
  F  F18  1  0.06041200  0.97892600  0.25701600  1
  F  F19  1  0.02107400  0.93958800  0.74298400  1
  F  F20  1  0.22619200  0.15789800  0.36480200  1
  F  F21  1  0.84210200  0.77380800  0.63519800  1
  F  F22  1  0.52498000  0.98066500  0.24716100  1
  F  F23  1  0.01933500  0.47502000  0.75283900  1
  F  F24  1  0.35709000  0.81262200  0.13610600  1
  F  F25  1  0.18737800  0.64291000  0.86389400  1
  F  F26  1  0.44064200  0.39553000  0.43811400  1
  F  F27  1  0.60447000  0.55935800  0.56188600  1
  F  F28  1  0.73260100  0.10628300  0.43765700  1
  F  F29  1  0.89371700  0.26739900  0.56234300  1
  F  F30  1  0.74594000  0.41534500  0.36330200  1
  F  F31  1  0.58465500  0.25406000  0.63669800  1
  F  F32  1  0.46917500  0.40796700  0.09323300  1
  F  F33  1  0.59203300  0.53082500  0.90676700  1
  F  F34  1  0.78526100  0.43438900  0.09546600  1
  F  F35  1  0.56561100  0.21473900  0.90453400  1
  F  F36  1  0.76137800  0.11799300  0.09291200  1
  F  F37  1  0.88200700  0.23862200  0.90708800  1
