# generated using pymatgen
data_CaYbInS4
_symmetry_space_group_name_H-M   'P 1'
_cell_length_a   6.73802500
_cell_length_b   8.04723300
_cell_length_c   13.83916700
_cell_angle_alpha   90.00000000
_cell_angle_beta   90.00000000
_cell_angle_gamma   90.00000000
_symmetry_Int_Tables_number   1
_chemical_formula_structural   CaYbInS4
_chemical_formula_sum   'Ca4 Yb4 In4 S16'
_cell_volume   750.39363944
_cell_formula_units_Z   4
loop_
 _symmetry_equiv_pos_site_id
 _symmetry_equiv_pos_as_xyz
  1  'x, y, z'
loop_
 _atom_site_type_symbol
 _atom_site_label
 _atom_site_symmetry_multiplicity
 _atom_site_fract_x
 _atom_site_fract_y
 _atom_site_fract_z
 _atom_site_occupancy
  Ca  Ca0  1  0.00707500  0.75000000  0.26839000  1
  Ca  Ca1  1  0.50707500  0.25000000  0.23161000  1
  Ca  Ca2  1  0.99292500  0.25000000  0.73161000  1
  Ca  Ca3  1  0.49292500  0.75000000  0.76839000  1
  Yb  Yb4  1  0.50000000  0.00000000  0.50000000  1
  Yb  Yb5  1  0.00000000  0.00000000  0.00000000  1
  Yb  Yb6  1  0.50000000  0.50000000  0.50000000  1
  Yb  Yb7  1  0.00000000  0.50000000  0.00000000  1
  In  In8  1  0.58395800  0.75000000  0.09011500  1
  In  In9  1  0.08395800  0.25000000  0.40988500  1
  In  In10  1  0.41604200  0.25000000  0.90988500  1
  In  In11  1  0.91604200  0.75000000  0.59011500  1
  S  S12  1  0.22167900  0.75000000  0.09003900  1
  S  S13  1  0.72167900  0.25000000  0.40996100  1
  S  S14  1  0.77832100  0.25000000  0.90996100  1
  S  S15  1  0.27832100  0.75000000  0.59003900  1
  S  S16  1  0.74941000  0.75000000  0.42803900  1
  S  S17  1  0.24941000  0.25000000  0.07196100  1
  S  S18  1  0.25059000  0.25000000  0.57196100  1
  S  S19  1  0.75059000  0.75000000  0.92803900  1
  S  S20  1  0.76004000  0.98789700  0.16701600  1
  S  S21  1  0.26004000  0.01210300  0.33298400  1
  S  S22  1  0.23996000  0.48789700  0.83298400  1
  S  S23  1  0.73996000  0.51210300  0.66701600  1
  S  S24  1  0.23996000  0.01210300  0.83298400  1
  S  S25  1  0.73996000  0.98789700  0.66701600  1
  S  S26  1  0.76004000  0.51210300  0.16701600  1
  S  S27  1  0.26004000  0.48789700  0.33298400  1
