# generated using pymatgen
data_P4Se3
_symmetry_space_group_name_H-M   'P 1'
_cell_length_a   10.60695300
_cell_length_b   11.89151600
_cell_length_c   14.95032200
_cell_angle_alpha   90.00000000
_cell_angle_beta   90.00000000
_cell_angle_gamma   90.00000000
_symmetry_Int_Tables_number   1
_chemical_formula_structural   P4Se3
_chemical_formula_sum   'P32 Se24'
_cell_volume   1885.72524684
_cell_formula_units_Z   8
loop_
 _symmetry_equiv_pos_site_id
 _symmetry_equiv_pos_as_xyz
  1  'x, y, z'
loop_
 _atom_site_type_symbol
 _atom_site_label
 _atom_site_symmetry_multiplicity
 _atom_site_fract_x
 _atom_site_fract_y
 _atom_site_fract_z
 _atom_site_occupancy
  P  P0  1  0.85558800  0.42758300  0.75724500  1
  P  P1  1  0.35558800  0.57241700  0.24275500  1
  P  P2  1  0.64441200  0.92758300  0.74275500  1
  P  P3  1  0.14441200  0.07241700  0.25724500  1
  P  P4  1  0.14441200  0.57241700  0.24275500  1
  P  P5  1  0.64441200  0.42758300  0.75724500  1
  P  P6  1  0.35558800  0.07241700  0.25724500  1
  P  P7  1  0.85558800  0.92758300  0.74275500  1
  P  P8  1  0.75000000  0.28899100  0.82696500  1
  P  P9  1  0.25000000  0.71100900  0.17303500  1
  P  P10  1  0.75000000  0.78899100  0.67303500  1
  P  P11  1  0.25000000  0.21100900  0.32696500  1
  P  P12  1  0.75000000  0.52802000  0.96249200  1
  P  P13  1  0.25000000  0.47198000  0.03750800  1
  P  P14  1  0.75000000  0.02802000  0.53750800  1
  P  P15  1  0.25000000  0.97198000  0.46249200  1
  P  P16  1  0.35585800  0.23115000  0.84114900  1
  P  P17  1  0.85585800  0.76885000  0.15885100  1
  P  P18  1  0.14414200  0.73115000  0.65885100  1
  P  P19  1  0.64414200  0.26885000  0.34114900  1
  P  P20  1  0.64414200  0.76885000  0.15885100  1
  P  P21  1  0.14414200  0.23115000  0.84114900  1
  P  P22  1  0.85585800  0.26885000  0.34114900  1
  P  P23  1  0.35585800  0.73115000  0.65885100  1
  P  P24  1  0.25000000  0.09684200  0.76672600  1
  P  P25  1  0.75000000  0.90315800  0.23327400  1
  P  P26  1  0.25000000  0.59684200  0.73327400  1
  P  P27  1  0.75000000  0.40315800  0.26672600  1
  P  P28  1  0.25000000  0.03112600  0.99329700  1
  P  P29  1  0.75000000  0.96887400  0.00670300  1
  P  P30  1  0.25000000  0.53112600  0.50670300  1
  P  P31  1  0.75000000  0.46887400  0.49329700  1
  Se  Se32  1  0.91341300  0.55008500  0.86539600  1
  Se  Se33  1  0.41341300  0.44991500  0.13460400  1
  Se  Se34  1  0.58658700  0.05008500  0.63460400  1
  Se  Se35  1  0.08658700  0.94991500  0.36539600  1
  Se  Se36  1  0.08658700  0.44991500  0.13460400  1
  Se  Se37  1  0.58658700  0.55008500  0.86539600  1
  Se  Se38  1  0.41341300  0.94991500  0.36539600  1
  Se  Se39  1  0.91341300  0.05008500  0.63460400  1
  Se  Se40  1  0.75000000  0.33678600  0.97331100  1
  Se  Se41  1  0.25000000  0.66321400  0.02668900  1
  Se  Se42  1  0.75000000  0.83678600  0.52668900  1
  Se  Se43  1  0.25000000  0.16321400  0.47331100  1
  Se  Se44  1  0.41367300  0.15214800  0.97244000  1
  Se  Se45  1  0.91367300  0.84785200  0.02756000  1
  Se  Se46  1  0.08632700  0.65214800  0.52756000  1
  Se  Se47  1  0.58632700  0.34785200  0.47244000  1
  Se  Se48  1  0.58632700  0.84785200  0.02756000  1
  Se  Se49  1  0.08632700  0.15214800  0.97244000  1
  Se  Se50  1  0.91367300  0.34785200  0.47244000  1
  Se  Se51  1  0.41367300  0.65214800  0.52756000  1
  Se  Se52  1  0.25000000  0.94481800  0.85753600  1
  Se  Se53  1  0.75000000  0.05518200  0.14246400  1
  Se  Se54  1  0.25000000  0.44481800  0.64246400  1
  Se  Se55  1  0.75000000  0.55518200  0.35753600  1
