# generated using pymatgen
data_Cu4Se3O10
_symmetry_space_group_name_H-M   'P 1'
_cell_length_a   8.10978900
_cell_length_b   8.26835808
_cell_length_c   8.49937474
_cell_angle_alpha   77.44994658
_cell_angle_beta   65.67287971
_cell_angle_gamma   81.51058762
_symmetry_Int_Tables_number   1
_chemical_formula_structural   Cu4Se3O10
_chemical_formula_sum   'Cu8 Se6 O20'
_cell_volume   505.82670066
_cell_formula_units_Z   2
loop_
 _symmetry_equiv_pos_site_id
 _symmetry_equiv_pos_as_xyz
  1  'x, y, z'
loop_
 _atom_site_type_symbol
 _atom_site_label
 _atom_site_symmetry_multiplicity
 _atom_site_fract_x
 _atom_site_fract_y
 _atom_site_fract_z
 _atom_site_occupancy
  Cu  Cu0  1  0.67835700  0.55083000  0.38992800  1
  Cu  Cu1  1  0.32164300  0.44917000  0.61007200  1
  Cu  Cu2  1  0.09264100  0.56334500  0.26004200  1
  Cu  Cu3  1  0.90735900  0.43665500  0.73995800  1
  Cu  Cu4  1  0.51387900  0.36887700  0.17680800  1
  Cu  Cu5  1  0.48612100  0.63112300  0.82319200  1
  Cu  Cu6  1  0.60759300  0.16236500  0.48602400  1
  Cu  Cu7  1  0.39240700  0.83763500  0.51397600  1
  Se  Se8  1  0.16388500  0.18897100  0.47046900  1
  Se  Se9  1  0.83611600  0.81102900  0.52953100  1
  Se  Se10  1  0.94385900  0.28191300  0.12299600  1
  Se  Se11  1  0.05614100  0.71808700  0.87700400  1
  Se  Se12  1  0.40390000  0.79753500  0.16040500  1
  Se  Se13  1  0.59610000  0.20246500  0.83959500  1
  O  O14  1  0.52885800  0.38631700  0.39815400  1
  O  O15  1  0.47114200  0.61368300  0.60184600  1
  O  O16  1  0.14458900  0.29581300  0.63602100  1
  O  O17  1  0.85541100  0.70418700  0.36397900  1
  O  O18  1  0.37237400  0.08016600  0.42363900  1
  O  O19  1  0.62762600  0.91983400  0.57636100  1
  O  O20  1  0.23915200  0.34838300  0.28670300  1
  O  O21  1  0.76084800  0.65161700  0.71329700  1
  O  O22  1  0.77906700  0.32599500  0.03640900  1
  O  O23  1  0.22093300  0.67400500  0.96359100  1
  O  O24  1  0.90891800  0.46452900  0.21632600  1
  O  O25  1  0.09108200  0.53547100  0.78367400  1
  O  O26  1  0.85214100  0.13368100  0.30272600  1
  O  O27  1  0.14785900  0.86631900  0.69727400  1
  O  O28  1  0.51976800  0.64206300  0.04056700  1
  O  O29  1  0.48023200  0.35793700  0.95943300  1
  O  O30  1  0.22144100  0.69503900  0.33007900  1
  O  O31  1  0.77855900  0.30496100  0.66992100  1
  O  O32  1  0.54265000  0.79676900  0.26953900  1
  O  O33  1  0.45735000  0.20323100  0.73046100  1
