# generated using pymatgen
data_Na5Lu(WO4)4
_symmetry_space_group_name_H-M   'P 1'
_cell_length_a   9.96690981
_cell_length_b   9.96690981
_cell_length_c   9.96690981
_cell_angle_alpha   109.05179217
_cell_angle_beta   109.05179217
_cell_angle_gamma   110.31337409
_symmetry_Int_Tables_number   1
_chemical_formula_structural   Na5Lu(WO4)4
_chemical_formula_sum   'Na10 Lu2 W8 O32'
_cell_volume   762.06006043
_cell_formula_units_Z   2
loop_
 _symmetry_equiv_pos_site_id
 _symmetry_equiv_pos_as_xyz
  1  'x, y, z'
loop_
 _atom_site_type_symbol
 _atom_site_label
 _atom_site_symmetry_multiplicity
 _atom_site_fract_x
 _atom_site_fract_y
 _atom_site_fract_z
 _atom_site_occupancy
  Na  Na0  1  0.00000000  0.00000000  0.00000000  1
  Na  Na1  1  0.25000000  0.75000000  0.50000000  1
  Na  Na2  1  0.92681600  0.83928300  0.32494100  1
  Na  Na3  1  0.85187500  0.67681600  0.58753300  1
  Na  Na4  1  0.08928300  0.26434300  0.41246700  1
  Na  Na5  1  0.51434300  0.60187500  0.67505900  1
  Na  Na6  1  0.32318400  0.91071700  0.17505900  1
  Na  Na7  1  0.39812500  0.07318400  0.91246700  1
  Na  Na8  1  0.16071700  0.48565700  0.08753300  1
  Na  Na9  1  0.73565700  0.14812500  0.82494100  1
  Lu  Lu10  1  0.50000000  0.50000000  0.00000000  1
  Lu  Lu11  1  0.75000000  0.25000000  0.50000000  1
  W  W12  1  0.66689700  0.94101100  0.09232000  1
  W  W13  1  0.82457700  0.41689700  0.22588600  1
  W  W14  1  0.19101100  0.59869100  0.77411400  1
  W  W15  1  0.84869100  0.57457700  0.90768000  1
  W  W16  1  0.58310300  0.80898900  0.40768000  1
  W  W17  1  0.42542300  0.33310300  0.27411400  1
  W  W18  1  0.05898900  0.15130900  0.72588600  1
  W  W19  1  0.40130900  0.17542300  0.59232000  1
  O  O20  1  0.63657900  0.03331500  0.96589000  1
  O  O21  1  0.92068900  0.38657900  0.10326300  1
  O  O22  1  0.28331500  0.81742600  0.89673700  1
  O  O23  1  0.06742600  0.67068900  0.03411000  1
  O  O24  1  0.61342100  0.71668500  0.53411000  1
  O  O25  1  0.32931100  0.36342100  0.39673700  1
  O  O26  1  0.96668500  0.93257400  0.60326300  1
  O  O27  1  0.18257400  0.07931100  0.46589000  1
  O  O28  1  0.88192800  0.99735900  0.17824200  1
  O  O29  1  0.95368500  0.63192800  0.38456900  1
  O  O30  1  0.24735900  0.56911700  0.61543100  1
  O  O31  1  0.81911700  0.70368500  0.82175800  1
  O  O32  1  0.36807200  0.75264100  0.32175800  1
  O  O33  1  0.29631500  0.11807200  0.11543100  1
  O  O34  1  0.00264100  0.18088300  0.88456900  1
  O  O35  1  0.43088300  0.04631500  0.67824200  1
  O  O36  1  0.54689200  0.71873600  0.94798100  1
  O  O37  1  0.84891100  0.29689200  0.32815600  1
  O  O38  1  0.96873600  0.52075600  0.67184400  1
  O  O39  1  0.77075600  0.59891100  0.05201900  1
  O  O40  1  0.70310800  0.03126400  0.55201900  1
  O  O41  1  0.40108900  0.45310800  0.17184400  1
  O  O42  1  0.28126400  0.22924400  0.82815600  1
  O  O43  1  0.47924400  0.15108900  0.44798100  1
  O  O44  1  0.60408700  0.00801500  0.24676200  1
  O  O45  1  0.60732500  0.35408700  0.09607300  1
  O  O46  1  0.25801500  0.51125300  0.90392700  1
  O  O47  1  0.76125300  0.35732500  0.75323800  1
  O  O48  1  0.64591300  0.74198500  0.25323800  1
  O  O49  1  0.64267500  0.39591300  0.40392700  1
  O  O50  1  0.99198500  0.23874700  0.59607300  1
  O  O51  1  0.48874700  0.39267500  0.74676200  1
