# generated using pymatgen
data_V3CdO7
_symmetry_space_group_name_H-M   'P 1'
_cell_length_a   5.37713500
_cell_length_b   10.46294000
_cell_length_c   10.65375200
_cell_angle_alpha   90.00000000
_cell_angle_beta   90.00000000
_cell_angle_gamma   90.00000000
_symmetry_Int_Tables_number   1
_chemical_formula_structural   V3CdO7
_chemical_formula_sum   'V12 Cd4 O28'
_cell_volume   599.38691526
_cell_formula_units_Z   4
loop_
 _symmetry_equiv_pos_site_id
 _symmetry_equiv_pos_as_xyz
  1  'x, y, z'
loop_
 _atom_site_type_symbol
 _atom_site_label
 _atom_site_symmetry_multiplicity
 _atom_site_fract_x
 _atom_site_fract_y
 _atom_site_fract_z
 _atom_site_occupancy
  V  V0  1  0.78377200  0.97643200  0.81392700  1
  V  V1  1  0.28377200  0.02356800  0.68607300  1
  V  V2  1  0.71622800  0.52356800  0.31392700  1
  V  V3  1  0.21622800  0.47643200  0.18607300  1
  V  V4  1  0.21622800  0.02356800  0.18607300  1
  V  V5  1  0.71622800  0.97643200  0.31392700  1
  V  V6  1  0.28377200  0.47643200  0.68607300  1
  V  V7  1  0.78377200  0.52356800  0.81392700  1
  V  V8  1  0.29245100  0.75000000  0.78567100  1
  V  V9  1  0.79245100  0.25000000  0.71432900  1
  V  V10  1  0.20754900  0.75000000  0.28567100  1
  V  V11  1  0.70754900  0.25000000  0.21432900  1
  Cd  Cd12  1  0.81239400  0.75000000  0.57836600  1
  Cd  Cd13  1  0.31239400  0.25000000  0.92163400  1
  Cd  Cd14  1  0.68760600  0.75000000  0.07836600  1
  Cd  Cd15  1  0.18760600  0.25000000  0.42163400  1
  O  O16  1  0.52445800  0.88169400  0.71956100  1
  O  O17  1  0.02445800  0.11830600  0.78043900  1
  O  O18  1  0.97554200  0.61830600  0.21956100  1
  O  O19  1  0.47554200  0.38169400  0.28043900  1
  O  O20  1  0.47554200  0.11830600  0.28043900  1
  O  O21  1  0.97554200  0.88169400  0.21956100  1
  O  O22  1  0.02445800  0.38169400  0.78043900  1
  O  O23  1  0.52445800  0.61830600  0.71956100  1
  O  O24  1  0.04842900  0.88078400  0.72284600  1
  O  O25  1  0.54842900  0.11921600  0.77715400  1
  O  O26  1  0.45157100  0.61921600  0.22284600  1
  O  O27  1  0.95157100  0.38078400  0.27715400  1
  O  O28  1  0.95157100  0.11921600  0.27715400  1
  O  O29  1  0.45157100  0.88078400  0.22284600  1
  O  O30  1  0.54842900  0.38078400  0.77715400  1
  O  O31  1  0.04842900  0.61921600  0.72284600  1
  O  O32  1  0.76900800  0.92298300  0.96094200  1
  O  O33  1  0.26900800  0.07701700  0.53905800  1
  O  O34  1  0.73099200  0.57701700  0.46094200  1
  O  O35  1  0.23099200  0.42298300  0.03905800  1
  O  O36  1  0.23099200  0.07701700  0.03905800  1
  O  O37  1  0.73099200  0.92298300  0.46094200  1
  O  O38  1  0.26900800  0.42298300  0.53905800  1
  O  O39  1  0.76900800  0.57701700  0.96094200  1
  O  O40  1  0.31015400  0.75000000  0.94098800  1
  O  O41  1  0.81015400  0.25000000  0.55901200  1
  O  O42  1  0.18984600  0.75000000  0.44098800  1
  O  O43  1  0.68984600  0.25000000  0.05901200  1
