# generated using pymatgen
data_KH18OsN6(ClO2)4
_symmetry_space_group_name_H-M   'P 1'
_cell_length_a   10.13393477
_cell_length_b   10.13393477
_cell_length_c   10.13393431
_cell_angle_alpha   41.57010661
_cell_angle_beta   41.57010661
_cell_angle_gamma   41.57010254
_symmetry_Int_Tables_number   1
_chemical_formula_structural   KH18OsN6(ClO2)4
_chemical_formula_sum   'K1 H18 Os1 N6 Cl4 O8'
_cell_volume   414.12678366
_cell_formula_units_Z   1
loop_
 _symmetry_equiv_pos_site_id
 _symmetry_equiv_pos_as_xyz
  1  'x, y, z'
loop_
 _atom_site_type_symbol
 _atom_site_label
 _atom_site_symmetry_multiplicity
 _atom_site_fract_x
 _atom_site_fract_y
 _atom_site_fract_z
 _atom_site_occupancy
  K  K0  1  0.50000000  0.50000000  0.50000000  1
  H  H1  1  0.56117700  0.19200900  0.17962000  1
  H  H2  1  0.19200900  0.17962000  0.56117700  1
  H  H3  1  0.17962000  0.56117700  0.19200900  1
  H  H4  1  0.43882300  0.80799100  0.82038000  1
  H  H5  1  0.80799100  0.82038000  0.43882300  1
  H  H6  1  0.82038000  0.43882300  0.80799100  1
  H  H7  1  0.64056800  0.14269100  0.00078100  1
  H  H8  1  0.14269100  0.00078100  0.64056800  1
  H  H9  1  0.00078100  0.64056800  0.14269100  1
  H  H10  1  0.35943200  0.85730900  0.99921900  1
  H  H11  1  0.85730900  0.99921900  0.35943200  1
  H  H12  1  0.99921900  0.35943200  0.85730900  1
  H  H13  1  0.63945000  0.94468600  0.24362900  1
  H  H14  1  0.94468600  0.24362900  0.63945000  1
  H  H15  1  0.24362900  0.63945000  0.94468600  1
  H  H16  1  0.36055000  0.05531400  0.75637100  1
  H  H17  1  0.05531400  0.75637100  0.36055000  1
  H  H18  1  0.75637100  0.36055000  0.05531400  1
  Os  Os19  1  0.00000000  0.00000000  0.00000000  1
  N  N20  1  0.67537100  0.07915900  0.11606200  1
  N  N21  1  0.07915900  0.11606200  0.67537100  1
  N  N22  1  0.11606200  0.67537100  0.07915900  1
  N  N23  1  0.32462900  0.92084100  0.88393800  1
  N  N24  1  0.92084100  0.88393800  0.32462900  1
  N  N25  1  0.88393800  0.32462900  0.92084100  1
  Cl  Cl26  1  0.18501800  0.18501800  0.18501800  1
  Cl  Cl27  1  0.81498200  0.81498200  0.81498200  1
  Cl  Cl28  1  0.37591200  0.37591200  0.37591200  1
  Cl  Cl29  1  0.62408800  0.62408800  0.62408800  1
  O  O30  1  0.13248000  0.13248000  0.13248000  1
  O  O31  1  0.86752000  0.86752000  0.86752000  1
  O  O32  1  0.98175400  0.31992100  0.30732200  1
  O  O33  1  0.31992100  0.30732200  0.98175400  1
  O  O34  1  0.30732200  0.98175400  0.31992100  1
  O  O35  1  0.01824600  0.68007900  0.69267800  1
  O  O36  1  0.68007900  0.69267800  0.01824600  1
  O  O37  1  0.69267800  0.01824600  0.68007900  1
