# generated using pymatgen
data_MnV2O6
_symmetry_space_group_name_H-M   'P 1'
_cell_length_a   3.59549914
_cell_length_b   7.54877350
_cell_length_c   9.69373271
_cell_angle_alpha   112.42335807
_cell_angle_beta   89.99581000
_cell_angle_gamma   103.74944551
_symmetry_Int_Tables_number   1
_chemical_formula_structural   MnV2O6
_chemical_formula_sum   'Mn2 V4 O12'
_cell_volume   235.03569294
_cell_formula_units_Z   2
loop_
 _symmetry_equiv_pos_site_id
 _symmetry_equiv_pos_as_xyz
  1  'x, y, z'
loop_
 _atom_site_type_symbol
 _atom_site_label
 _atom_site_symmetry_multiplicity
 _atom_site_fract_x
 _atom_site_fract_y
 _atom_site_fract_z
 _atom_site_occupancy
  Mn  Mn0  1  0.50011100  0.00032500  0.49980100  1
  Mn  Mn1  1  0.00027600  0.99999600  0.00045300  1
  V  V2  1  0.16428100  0.32920600  0.38306100  1
  V  V3  1  0.83493600  0.67103200  0.61704900  1
  V  V4  1  0.66501600  0.32890200  0.88297100  1
  V  V5  1  0.33563400  0.67071000  0.11688200  1
  O  O6  1  0.05884500  0.11871500  0.41889300  1
  O  O7  1  0.55906800  0.11858400  0.91891900  1
  O  O8  1  0.94083700  0.88140300  0.58112300  1
  O  O9  1  0.44117200  0.88128700  0.08109600  1
  O  O10  1  0.12954700  0.26046800  0.19592600  1
  O  O11  1  0.63017500  0.26040500  0.69586900  1
  O  O12  1  0.86983900  0.73960500  0.80419400  1
  O  O13  1  0.37042700  0.73955400  0.30404000  1
  O  O14  1  0.29224000  0.58600700  0.57448200  1
  O  O15  1  0.79314100  0.58575500  0.07450900  1
  O  O16  1  0.70678400  0.41417200  0.42545300  1
  O  O17  1  0.20767000  0.41387600  0.92527900  1
