# generated using pymatgen
data_B
_symmetry_space_group_name_H-M   'P 1'
_cell_length_a   11.60396722
_cell_length_b   11.60396722
_cell_length_c   11.60396752
_cell_angle_alpha   53.44425179
_cell_angle_beta   53.44425179
_cell_angle_gamma   53.44425369
_symmetry_Int_Tables_number   1
_chemical_formula_structural   B
_chemical_formula_sum   B108
_cell_volume   935.33585657
_cell_formula_units_Z   108
loop_
 _symmetry_equiv_pos_site_id
 _symmetry_equiv_pos_as_xyz
  1  'x, y, z'
loop_
 _atom_site_type_symbol
 _atom_site_label
 _atom_site_symmetry_multiplicity
 _atom_site_fract_x
 _atom_site_fract_y
 _atom_site_fract_z
 _atom_site_occupancy
  B  B0  1  0.29573600  0.97433600  0.13291300  1
  B  B1  1  0.97433600  0.13291300  0.29573600  1
  B  B2  1  0.13291300  0.29573600  0.97433600  1
  B  B3  1  0.02566400  0.70426400  0.86708700  1
  B  B4  1  0.70426400  0.86708700  0.02566400  1
  B  B5  1  0.86708700  0.02566400  0.70426400  1
  B  B6  1  0.70426400  0.02566400  0.86708700  1
  B  B7  1  0.02566400  0.86708700  0.70426400  1
  B  B8  1  0.86708700  0.70426400  0.02566400  1
  B  B9  1  0.97433600  0.29573600  0.13291300  1
  B  B10  1  0.29573600  0.13291300  0.97433600  1
  B  B11  1  0.13291300  0.97433600  0.29573600  1
  B  B12  1  0.47496900  0.64245400  0.94072600  1
  B  B13  1  0.64245400  0.94072600  0.47496900  1
  B  B14  1  0.94072600  0.47496900  0.64245400  1
  B  B15  1  0.35754600  0.52503100  0.05927400  1
  B  B16  1  0.52503100  0.05927400  0.35754600  1
  B  B17  1  0.05927400  0.35754600  0.52503100  1
  B  B18  1  0.52503100  0.35754600  0.05927400  1
  B  B19  1  0.35754600  0.05927400  0.52503100  1
  B  B20  1  0.05927400  0.52503100  0.35754600  1
  B  B21  1  0.64245400  0.47496900  0.94072600  1
  B  B22  1  0.47496900  0.94072600  0.64245400  1
  B  B23  1  0.94072600  0.64245400  0.47496900  1
  B  B24  1  0.32558600  0.79086900  0.05428800  1
  B  B25  1  0.79086900  0.05428800  0.32558600  1
  B  B26  1  0.05428800  0.32558600  0.79086900  1
  B  B27  1  0.20913100  0.67441400  0.94571200  1
  B  B28  1  0.67441400  0.94571200  0.20913100  1
  B  B29  1  0.94571200  0.20913100  0.67441400  1
  B  B30  1  0.67441400  0.20913100  0.94571200  1
  B  B31  1  0.20913100  0.94571200  0.67441400  1
  B  B32  1  0.94571200  0.67441400  0.20913100  1
  B  B33  1  0.79086900  0.32558600  0.05428800  1
  B  B34  1  0.32558600  0.05428800  0.79086900  1
  B  B35  1  0.05428800  0.79086900  0.32558600  1
  B  B36  1  0.46611500  0.69633400  0.25074600  1
  B  B37  1  0.69633400  0.25074600  0.46611500  1
  B  B38  1  0.25074600  0.46611500  0.69633400  1
  B  B39  1  0.30366600  0.53388500  0.74925400  1
  B  B40  1  0.53388500  0.74925400  0.30366600  1
  B  B41  1  0.74925400  0.30366600  0.53388500  1
  B  B42  1  0.53388500  0.30366600  0.74925400  1
  B  B43  1  0.30366600  0.74925400  0.53388500  1
  B  B44  1  0.74925400  0.53388500  0.30366600  1
  B  B45  1  0.69633400  0.46611500  0.25074600  1
  B  B46  1  0.46611500  0.25074600  0.69633400  1
  B  B47  1  0.25074600  0.69633400  0.46611500  1
  B  B48  1  0.63936600  0.04440900  0.04440900  1
  B  B49  1  0.04440900  0.04440900  0.63936600  1
  B  B50  1  0.04440900  0.63936600  0.04440900  1
  B  B51  1  0.95559100  0.36063400  0.95559100  1
  B  B52  1  0.36063400  0.95559100  0.95559100  1
  B  B53  1  0.95559100  0.95559100  0.36063400  1
  B  B54  1  0.68750500  0.23561400  0.23561400  1
  B  B55  1  0.23561400  0.23561400  0.68750500  1
  B  B56  1  0.23561400  0.68750500  0.23561400  1
  B  B57  1  0.76438600  0.31249500  0.76438600  1
  B  B58  1  0.31249500  0.76438600  0.76438600  1
  B  B59  1  0.76438600  0.76438600  0.31249500  1
  B  B60  1  0.49449200  0.66199700  0.66199700  1
  B  B61  1  0.66199700  0.66199700  0.49449200  1
  B  B62  1  0.66199700  0.49449200  0.66199700  1
  B  B63  1  0.33800300  0.50550800  0.33800300  1
  B  B64  1  0.50550800  0.33800300  0.33800300  1
  B  B65  1  0.33800300  0.33800300  0.50550800  1
  B  B66  1  0.77264100  0.46618300  0.46618300  1
  B  B67  1  0.46618300  0.46618300  0.77264100  1
  B  B68  1  0.46618300  0.77264100  0.46618300  1
  B  B69  1  0.53381700  0.22735900  0.53381700  1
  B  B70  1  0.22735900  0.53381700  0.53381700  1
  B  B71  1  0.53381700  0.53381700  0.22735900  1
  B  B72  1  0.83012700  0.11881000  0.11881000  1
  B  B73  1  0.11881000  0.11881000  0.83012700  1
  B  B74  1  0.11881000  0.83012700  0.11881000  1
  B  B75  1  0.88119000  0.16987300  0.88119000  1
  B  B76  1  0.16987300  0.88119000  0.88119000  1
  B  B77  1  0.88119000  0.88119000  0.16987300  1
  B  B78  1  0.84585300  0.32142200  0.32142200  1
  B  B79  1  0.32142200  0.32142200  0.84585300  1
  B  B80  1  0.32142200  0.84585300  0.32142200  1
  B  B81  1  0.67857800  0.15414700  0.67857800  1
  B  B82  1  0.15414700  0.67857800  0.67857800  1
  B  B83  1  0.67857800  0.67857800  0.15414700  1
  B  B84  1  0.43354900  0.84864000  0.84864000  1
  B  B85  1  0.84864000  0.84864000  0.43354900  1
  B  B86  1  0.84864000  0.43354900  0.84864000  1
  B  B87  1  0.15136000  0.56645100  0.15136000  1
  B  B88  1  0.56645100  0.15136000  0.15136000  1
  B  B89  1  0.15136000  0.15136000  0.56645100  1
  B  B90  1  0.80303400  0.25611800  0.25611800  1
  B  B91  1  0.25611800  0.25611800  0.80303400  1
  B  B92  1  0.25611800  0.80303400  0.25611800  1
  B  B93  1  0.74388200  0.19696600  0.74388200  1
  B  B94  1  0.19696600  0.74388200  0.74388200  1
  B  B95  1  0.74388200  0.74388200  0.19696600  1
  B  B96  1  0.88685400  0.50208600  0.50208600  1
  B  B97  1  0.50208600  0.50208600  0.88685400  1
  B  B98  1  0.50208600  0.88685400  0.50208600  1
  B  B99  1  0.49791400  0.11314600  0.49791400  1
  B  B100  1  0.11314600  0.49791400  0.49791400  1
  B  B101  1  0.49791400  0.49791400  0.11314600  1
  B  B102  1  0.21796700  0.94516200  0.94516200  1
  B  B103  1  0.94516200  0.94516200  0.21796700  1
  B  B104  1  0.94516200  0.21796700  0.94516200  1
  B  B105  1  0.05483800  0.78203300  0.05483800  1
  B  B106  1  0.78203300  0.05483800  0.05483800  1
  B  B107  1  0.05483800  0.05483800  0.78203300  1
