# generated using pymatgen
data_Zn(InS2)2
_symmetry_space_group_name_H-M   'P 1'
_cell_length_a   12.83145221
_cell_length_b   12.83145221
_cell_length_c   12.83145212
_cell_angle_alpha   17.60013411
_cell_angle_beta   17.60013411
_cell_angle_gamma   17.60013151
_symmetry_Int_Tables_number   1
_chemical_formula_structural   Zn(InS2)2
_chemical_formula_sum   'Zn1 In2 S4'
_cell_volume   168.59418518
_cell_formula_units_Z   1
loop_
 _symmetry_equiv_pos_site_id
 _symmetry_equiv_pos_as_xyz
  1  'x, y, z'
loop_
 _atom_site_type_symbol
 _atom_site_label
 _atom_site_symmetry_multiplicity
 _atom_site_fract_x
 _atom_site_fract_y
 _atom_site_fract_z
 _atom_site_occupancy
  Zn  Zn0  1  0.60797100  0.60797100  0.60797100  1
  In  In1  1  0.83727600  0.83727600  0.83727600  1
  In  In2  1  0.06482200  0.06482200  0.06482200  1
  S  S3  1  0.95474900  0.95474900  0.95474900  1
  S  S4  1  0.70299000  0.70299000  0.70299000  1
  S  S5  1  0.53703600  0.53703600  0.53703600  1
  S  S6  1  0.12975600  0.12975600  0.12975600  1
