# generated using pymatgen
data_KFeBP2HO9
_symmetry_space_group_name_H-M   'P 1'
_cell_length_a   5.16969200
_cell_length_b   8.10998619
_cell_length_c   8.35030346
_cell_angle_alpha   85.88997058
_cell_angle_beta   80.83606264
_cell_angle_gamma   86.19636361
_symmetry_Int_Tables_number   1
_chemical_formula_structural   KFeBP2HO9
_chemical_formula_sum   'K2 Fe2 B2 P4 H2 O18'
_cell_volume   344.20201150
_cell_formula_units_Z   2
loop_
 _symmetry_equiv_pos_site_id
 _symmetry_equiv_pos_as_xyz
  1  'x, y, z'
loop_
 _atom_site_type_symbol
 _atom_site_label
 _atom_site_symmetry_multiplicity
 _atom_site_fract_x
 _atom_site_fract_y
 _atom_site_fract_z
 _atom_site_occupancy
  K  K0  1  0.72121500  0.32781600  0.11191600  1
  K  K1  1  0.27878500  0.67218400  0.88808400  1
  Fe  Fe2  1  0.26375500  0.19598200  0.80731600  1
  Fe  Fe3  1  0.73624500  0.80401800  0.19268400  1
  B  B4  1  0.12643500  0.26396300  0.44716400  1
  B  B5  1  0.87356500  0.73603700  0.55283600  1
  P  P6  1  0.20158300  0.58708400  0.30400700  1
  P  P7  1  0.79841700  0.41291600  0.69599300  1
  P  P8  1  0.22036100  0.06127600  0.18156400  1
  P  P9  1  0.77963900  0.93872400  0.81843600  1
  H  H10  1  0.47868300  0.17293300  0.51966000  1
  H  H11  1  0.52131700  0.82706700  0.48034000  1
  O  O12  1  0.03046900  0.40303000  0.79252700  1
  O  O13  1  0.96953100  0.59697000  0.20747300  1
  O  O14  1  0.06962200  0.14316500  0.33810500  1
  O  O15  1  0.93037800  0.85683500  0.66189500  1
  O  O16  1  0.06104700  0.91881600  0.15133600  1
  O  O17  1  0.93895300  0.08118400  0.84866400  1
  O  O18  1  0.13050200  0.68120700  0.46444100  1
  O  O19  1  0.86949800  0.31879300  0.53555900  1
  O  O20  1  0.23568900  0.20228600  0.04474600  1
  O  O21  1  0.76431100  0.79771400  0.95525400  1
  O  O22  1  0.27107700  0.40074300  0.35135300  1
  O  O23  1  0.72892300  0.59925700  0.64864700  1
  O  O24  1  0.29380900  0.18942000  0.56569300  1
  O  O25  1  0.70619100  0.81058000  0.43430700  1
  O  O26  1  0.45209500  0.64916000  0.20344500  1
  O  O27  1  0.54790500  0.35084000  0.79655500  1
  O  O28  1  0.50165100  0.00364500  0.21010100  1
  O  O29  1  0.49834900  0.99635500  0.78989900  1
