# generated using pymatgen
data_Al3Pb5F19
_symmetry_space_group_name_H-M   'P 1'
_cell_length_a   10.84466501
_cell_length_b   10.84466501
_cell_length_c   10.84466501
_cell_angle_alpha   97.01428334
_cell_angle_beta   97.01428334
_cell_angle_gamma   139.09238601
_symmetry_Int_Tables_number   1
_chemical_formula_structural   Al3Pb5F19
_chemical_formula_sum   'Al6 Pb10 F38'
_cell_volume   782.53330390
_cell_formula_units_Z   2
loop_
 _symmetry_equiv_pos_site_id
 _symmetry_equiv_pos_as_xyz
  1  'x, y, z'
loop_
 _atom_site_type_symbol
 _atom_site_label
 _atom_site_symmetry_multiplicity
 _atom_site_fract_x
 _atom_site_fract_y
 _atom_site_fract_z
 _atom_site_occupancy
  Al  Al0  1  0.85951100  0.35951100  0.17798400  1
  Al  Al1  1  0.35951100  0.18152700  0.50000000  1
  Al  Al2  1  0.68152700  0.85951100  0.50000000  1
  Al  Al3  1  0.18152700  0.68152700  0.82201600  1
  Al  Al4  1  0.81674300  0.81674300  0.00000000  1
  Al  Al5  1  0.31674300  0.31674300  0.00000000  1
  Pb  Pb6  1  0.55310600  0.25450900  0.84850800  1
  Pb  Pb7  1  0.25450900  0.40600100  0.70140300  1
  Pb  Pb8  1  0.70459800  0.55310600  0.29859700  1
  Pb  Pb9  1  0.40600100  0.70459800  0.15149200  1
  Pb  Pb10  1  0.20459800  0.90600100  0.15149200  1
  Pb  Pb11  1  0.75450900  0.05310600  0.84850800  1
  Pb  Pb12  1  0.05310600  0.20459800  0.29859700  1
  Pb  Pb13  1  0.90600100  0.75450900  0.70140300  1
  Pb  Pb14  1  0.86154900  0.36154900  0.50000000  1
  Pb  Pb15  1  0.36154900  0.86154900  0.50000000  1
  F  F16  1  0.06095900  0.42381300  0.13954200  1
  F  F17  1  0.42381300  0.28427000  0.36285400  1
  F  F18  1  0.92141600  0.06095900  0.63714600  1
  F  F19  1  0.28427000  0.92141600  0.86045800  1
  F  F20  1  0.42141600  0.78427000  0.86045800  1
  F  F21  1  0.92381300  0.56095900  0.13954200  1
  F  F22  1  0.56095900  0.42141600  0.63714600  1
  F  F23  1  0.78427000  0.92381300  0.36285400  1
  F  F24  1  0.66622500  0.29158000  0.23599400  1
  F  F25  1  0.29158000  0.05558600  0.62535500  1
  F  F26  1  0.43023100  0.66622500  0.37464500  1
  F  F27  1  0.05558600  0.43023100  0.76400600  1
  F  F28  1  0.93023100  0.55558600  0.76400600  1
  F  F29  1  0.79158000  0.16622500  0.23599400  1
  F  F30  1  0.16622500  0.93023100  0.37464500  1
  F  F31  1  0.55558600  0.79158000  0.62535500  1
  F  F32  1  0.03216500  0.53216500  0.34587500  1
  F  F33  1  0.53216500  0.18629000  0.50000000  1
  F  F34  1  0.68629000  0.03216500  0.50000000  1
  F  F35  1  0.18629000  0.68629000  0.65412500  1
  F  F36  1  0.70101700  0.20101700  0.00978500  1
  F  F37  1  0.20101700  0.19123200  0.50000000  1
  F  F38  1  0.69123200  0.70101700  0.50000000  1
  F  F39  1  0.19123200  0.69123200  0.99021500  1
  F  F40  1  0.57158200  0.57158200  0.00000000  1
  F  F41  1  0.07158200  0.07158200  0.00000000  1
  F  F42  1  0.37819200  0.43904300  0.16712200  1
  F  F43  1  0.43904300  0.27192100  0.06085200  1
  F  F44  1  0.21107000  0.37819200  0.93914800  1
  F  F45  1  0.27192100  0.21107000  0.83287800  1
  F  F46  1  0.71107000  0.77192100  0.83287800  1
  F  F47  1  0.93904300  0.87819200  0.16712200  1
  F  F48  1  0.87819200  0.71107000  0.93914800  1
  F  F49  1  0.77192100  0.93904300  0.06085200  1
  F  F50  1  0.60349600  0.10349600  0.73050800  1
  F  F51  1  0.10349600  0.37298800  0.50000000  1
  F  F52  1  0.87298800  0.60349600  0.50000000  1
  F  F53  1  0.37298800  0.87298800  0.26949200  1
