# generated using pymatgen
data_Cs2Co(NO3)4
_symmetry_space_group_name_H-M   'P 1'
_cell_length_a   8.04195700
_cell_length_b   12.88160110
_cell_length_c   13.77581118
_cell_angle_alpha   101.64529300
_cell_angle_beta   93.34390646
_cell_angle_gamma   105.88828858
_symmetry_Int_Tables_number   1
_chemical_formula_structural   Cs2Co(NO3)4
_chemical_formula_sum   'Cs8 Co4 N16 O48'
_cell_volume   1334.50124445
_cell_formula_units_Z   4
loop_
 _symmetry_equiv_pos_site_id
 _symmetry_equiv_pos_as_xyz
  1  'x, y, z'
loop_
 _atom_site_type_symbol
 _atom_site_label
 _atom_site_symmetry_multiplicity
 _atom_site_fract_x
 _atom_site_fract_y
 _atom_site_fract_z
 _atom_site_occupancy
  Cs  Cs0  1  0.28769200  0.51573800  0.62304600  1
  Cs  Cs1  1  0.71230800  0.48426200  0.37695400  1
  Cs  Cs2  1  0.06976300  0.36350700  0.90238800  1
  Cs  Cs3  1  0.93023700  0.63649300  0.09761200  1
  Cs  Cs4  1  0.70769600  0.87869600  0.92713500  1
  Cs  Cs5  1  0.29230400  0.12130400  0.07286500  1
  Cs  Cs6  1  0.82349800  0.11849100  0.58396500  1
  Cs  Cs7  1  0.17650200  0.88150900  0.41603500  1
  Co  Co8  1  0.11000000  0.83208100  0.72420100  1
  Co  Co9  1  0.89000000  0.16791900  0.27579900  1
  Co  Co10  1  0.53002100  0.31178800  0.75780800  1
  Co  Co11  1  0.46997900  0.68821200  0.24219200  1
  N  N12  1  0.80301400  0.71593700  0.62567800  1
  N  N13  1  0.19698600  0.28406300  0.37432200  1
  N  N14  1  0.10561000  0.68793100  0.86438500  1
  N  N15  1  0.89439000  0.31206900  0.13561500  1
  N  N16  1  0.44267800  0.89529900  0.69946000  1
  N  N17  1  0.55732200  0.10470100  0.30054000  1
  N  N18  1  0.05084000  0.02142200  0.78248600  1
  N  N19  1  0.94916000  0.97857800  0.21751400  1
  N  N20  1  0.31432800  0.17784700  0.60602500  1
  N  N21  1  0.68567200  0.82215300  0.39397500  1
  N  N22  1  0.80598000  0.42046300  0.64627800  1
  N  N23  1  0.19402000  0.57953700  0.35372200  1
  N  N24  1  0.58595700  0.50825700  0.88148700  1
  N  N25  1  0.41404300  0.49174300  0.11851300  1
  N  N26  1  0.57263400  0.18864600  0.87768100  1
  N  N27  1  0.42736600  0.81135400  0.12231900  1
  O  O28  1  0.81156100  0.75310200  0.71964100  1
  O  O29  1  0.18843900  0.24689800  0.28035900  1
  O  O30  1  0.94928900  0.73758200  0.58879600  1
  O  O31  1  0.05071100  0.26241800  0.41120400  1
  O  O32  1  0.66439200  0.66228900  0.57230500  1
  O  O33  1  0.33560800  0.33771100  0.42769500  1
  O  O34  1  0.15265500  0.70097000  0.77765300  1
  O  O35  1  0.84734500  0.29903000  0.22234700  1
  O  O36  1  0.02426500  0.74873800  0.91003700  1
  O  O37  1  0.97573500  0.25126200  0.08996300  1
  O  O38  1  0.14551800  0.61406000  0.89920100  1
  O  O39  1  0.85448200  0.38594000  0.10079900  1
  O  O40  1  0.39877300  0.91443000  0.78776500  1
  O  O41  1  0.60122700  0.08557000  0.21223500  1
  O  O42  1  0.31553800  0.84360900  0.62937000  1
  O  O43  1  0.68446200  0.15639100  0.37063000  1
  O  O44  1  0.59580000  0.92359000  0.68205900  1
  O  O45  1  0.40420000  0.07641000  0.31794100  1
  O  O46  1  0.06805500  0.98666700  0.69106600  1
  O  O47  1  0.93194500  0.01333300  0.30893400  1
  O  O48  1  0.07251900  0.95841000  0.84143600  1
  O  O49  1  0.92748100  0.04159000  0.15856400  1
  O  O50  1  0.01299800  0.10819900  0.81340200  1
  O  O51  1  0.98700200  0.89180100  0.18659800  1
  O  O52  1  0.46337900  0.16400000  0.62441900  1
  O  O53  1  0.53662100  0.83600000  0.37558100  1
  O  O54  1  0.28087100  0.25706800  0.66838600  1
  O  O55  1  0.71912900  0.74293200  0.33161400  1
  O  O56  1  0.20724300  0.11966000  0.53437000  1
  O  O57  1  0.79275700  0.88034000  0.46563000  1
  O  O58  1  0.64330300  0.40508200  0.65860700  1
  O  O59  1  0.35669700  0.59491800  0.34139300  1
  O  O60  1  0.89538600  0.37365000  0.69101100  1
  O  O61  1  0.10461400  0.62635000  0.30898900  1
  O  O62  1  0.87008900  0.48116000  0.58942600  1
  O  O63  1  0.12991100  0.51884000  0.41057400  1
  O  O64  1  0.70843700  0.46309100  0.88138000  1
  O  O65  1  0.29156300  0.53690900  0.11862000  1
  O  O66  1  0.44324100  0.44980200  0.82453900  1
  O  O67  1  0.55675900  0.55019800  0.17546100  1
  O  O68  1  0.59930300  0.60179100  0.93260600  1
  O  O69  1  0.40069700  0.39820900  0.06739400  1
  O  O70  1  0.42987400  0.21450400  0.87160700  1
  O  O71  1  0.57012600  0.78549600  0.12839300  1
  O  O72  1  0.68047300  0.22367600  0.81699200  1
  O  O73  1  0.31952700  0.77632400  0.18300800  1
  O  O74  1  0.60684900  0.13535900  0.93726600  1
  O  O75  1  0.39315100  0.86464100  0.06273400  1
