# generated using pymatgen
data_Mn5As4(H11O13)2
_symmetry_space_group_name_H-M   'P 1'
_cell_length_a   6.87926100
_cell_length_b   7.92334157
_cell_length_c   10.62508102
_cell_angle_alpha   80.81604626
_cell_angle_beta   81.03973294
_cell_angle_gamma   84.51170068
_symmetry_Int_Tables_number   1
_chemical_formula_structural   Mn5As4(H11O13)2
_chemical_formula_sum   'Mn5 As4 H22 O26'
_cell_volume   563.24781131
_cell_formula_units_Z   1
loop_
 _symmetry_equiv_pos_site_id
 _symmetry_equiv_pos_as_xyz
  1  'x, y, z'
loop_
 _atom_site_type_symbol
 _atom_site_label
 _atom_site_symmetry_multiplicity
 _atom_site_fract_x
 _atom_site_fract_y
 _atom_site_fract_z
 _atom_site_occupancy
  Mn  Mn0  1  0.00000000  0.00000000  0.00000000  1
  Mn  Mn1  1  0.60175700  0.08170600  0.59374600  1
  Mn  Mn2  1  0.39824300  0.91829400  0.40625400  1
  Mn  Mn3  1  0.89337600  0.36396900  0.43049200  1
  Mn  Mn4  1  0.10662400  0.63603100  0.56950800  1
  As  As5  1  0.40411700  0.37741000  0.36103800  1
  As  As6  1  0.59588300  0.62259000  0.63896200  1
  As  As7  1  0.92341900  0.96215500  0.32710300  1
  As  As8  1  0.07658100  0.03784500  0.67289700  1
  H  H9  1  0.20437100  0.19088400  0.29375800  1
  H  H10  1  0.79562900  0.80911600  0.70624200  1
  H  H11  1  0.52898700  0.27623200  0.78752200  1
  H  H12  1  0.47101300  0.72376800  0.21247800  1
  H  H13  1  0.38266900  0.12516900  0.82662700  1
  H  H14  1  0.61733100  0.87483100  0.17337300  1
  H  H15  1  0.74283000  0.52789800  0.21916100  1
  H  H16  1  0.25717000  0.47210200  0.78083900  1
  H  H17  1  0.89897400  0.66460300  0.22094300  1
  H  H18  1  0.10102600  0.33539700  0.77905700  1
  H  H19  1  0.33117900  0.99919900  0.10234100  1
  H  H20  1  0.66882100  0.00080100  0.89765900  1
  H  H21  1  0.24886400  0.19604700  0.06203400  1
  H  H22  1  0.75113600  0.80395300  0.93796600  1
  H  H23  1  0.82480600  0.32973000  0.00880500  1
  H  H24  1  0.17519400  0.67027000  0.99119500  1
  H  H25  1  0.89116400  0.22915500  0.14231900  1
  H  H26  1  0.10883600  0.77084500  0.85768100  1
  H  H27  1  0.66965100  0.52316400  0.88490300  1
  H  H28  1  0.33034900  0.47683600  0.11509700  1
  H  H29  1  0.90076100  0.53025700  0.86944900  1
  H  H30  1  0.09923900  0.46974300  0.13055100  1
  O  O31  1  0.35458000  0.18568500  0.29974800  1
  O  O32  1  0.64542000  0.81431500  0.70025200  1
  O  O33  1  0.48993500  0.51539300  0.22415600  1
  O  O34  1  0.51006500  0.48460700  0.77584400  1
  O  O35  1  0.17589100  0.44480400  0.44077800  1
  O  O36  1  0.82410900  0.55519600  0.55922200  1
  O  O37  1  0.58541600  0.31841600  0.46040900  1
  O  O38  1  0.41458400  0.68158400  0.53959100  1
  O  O39  1  0.91771200  0.88208200  0.17637700  1
  O  O40  1  0.08228800  0.11791800  0.82362300  1
  O  O41  1  0.68946600  0.95135800  0.42393000  1
  O  O42  1  0.31053400  0.04864200  0.57607000  1
  O  O43  1  0.98111200  0.18165400  0.29211300  1
  O  O44  1  0.01888800  0.81834600  0.70788700  1
  O  O45  1  0.11040300  0.84665100  0.41071400  1
  O  O46  1  0.88959700  0.15334900  0.58928600  1
  O  O47  1  0.52175500  0.14763100  0.79327900  1
  O  O48  1  0.47824500  0.85236900  0.20672100  1
  O  O49  1  0.87897500  0.53852700  0.23848500  1
  O  O50  1  0.12102500  0.46147300  0.76151500  1
  O  O51  1  0.25084300  0.07735000  0.04388400  1
  O  O52  1  0.74915700  0.92265000  0.95611600  1
  O  O53  1  0.85100300  0.21342200  0.05877000  1
  O  O54  1  0.14899700  0.78657800  0.94123000  1
  O  O55  1  0.77916100  0.53866900  0.93279200  1
  O  O56  1  0.22083900  0.46133100  0.06720800  1
