# generated using pymatgen
data_TaSe2
_symmetry_space_group_name_H-M   'P 1'
_cell_length_a   9.18010400
_cell_length_b   9.80527270
_cell_length_c   11.50154172
_cell_angle_alpha   72.27838876
_cell_angle_beta   74.41429279
_cell_angle_gamma   83.40173590
_symmetry_Int_Tables_number   1
_chemical_formula_structural   TaSe2
_chemical_formula_sum   'Ta13 Se26'
_cell_volume   949.28425400
_cell_formula_units_Z   13
loop_
 _symmetry_equiv_pos_site_id
 _symmetry_equiv_pos_as_xyz
  1  'x, y, z'
loop_
 _atom_site_type_symbol
 _atom_site_label
 _atom_site_symmetry_multiplicity
 _atom_site_fract_x
 _atom_site_fract_y
 _atom_site_fract_z
 _atom_site_occupancy
  Ta  Ta0  1  0.00000000  0.00000000  0.00000000  1
  Ta  Ta1  1  0.21459200  0.71667300  0.06919800  1
  Ta  Ta2  1  0.78540800  0.28332700  0.93080200  1
  Ta  Ta3  1  0.71722000  0.06991000  0.21421800  1
  Ta  Ta4  1  0.28278000  0.93009000  0.78578200  1
  Ta  Ta5  1  0.93117900  0.78597600  0.28296500  1
  Ta  Ta6  1  0.06882100  0.21402400  0.71703500  1
  Ta  Ta7  1  0.15157200  0.48746800  0.36032500  1
  Ta  Ta8  1  0.84842800  0.51253200  0.63967500  1
  Ta  Ta9  1  0.48808500  0.36056800  0.15169900  1
  Ta  Ta10  1  0.51191500  0.63943200  0.84830100  1
  Ta  Ta11  1  0.64093900  0.84868100  0.51282100  1
  Ta  Ta12  1  0.35906100  0.15131900  0.48717900  1
  Se  Se13  1  0.93035800  0.72524100  0.08204600  1
  Se  Se14  1  0.06964200  0.27475900  0.91795400  1
  Se  Se15  1  0.70547500  0.02282700  0.00927600  1
  Se  Se16  1  0.29452500  0.97717300  0.99072400  1
  Se  Se17  1  0.00272600  0.94939400  0.78457100  1
  Se  Se18  1  0.99727400  0.05060600  0.21542900  1
  Se  Se19  1  0.63389200  0.80095300  0.31072600  1
  Se  Se20  1  0.36610800  0.19904700  0.68927400  1
  Se  Se21  1  0.78103400  0.25257000  0.71010800  1
  Se  Se22  1  0.21896600  0.74743000  0.28989200  1
  Se  Se23  1  0.23271900  0.65171100  0.85818900  1
  Se  Se24  1  0.76728100  0.34828900  0.14181100  1
  Se  Se25  1  0.86802200  0.50784900  0.39927600  1
  Se  Se26  1  0.13197800  0.49215100  0.60072400  1
  Se  Se27  1  0.49066200  0.34846700  0.93569500  1
  Se  Se28  1  0.50933800  0.65153300  0.06430500  1
  Se  Se29  1  0.33223400  0.88434300  0.55807000  1
  Se  Se30  1  0.66776600  0.11565700  0.44193000  1
  Se  Se31  1  0.18544700  0.42726900  0.16002200  1
  Se  Se32  1  0.81455300  0.57273100  0.83997800  1
  Se  Se33  1  0.41088100  0.10880000  0.25281600  1
  Se  Se34  1  0.58911900  0.89120000  0.74718400  1
  Se  Se35  1  0.09042300  0.20135900  0.47874100  1
  Se  Se36  1  0.90957700  0.79864100  0.52125900  1
  Se  Se37  1  0.56245900  0.57958300  0.63044300  1
  Se  Se38  1  0.43754100  0.42041700  0.36955700  1
