# generated using pymatgen
data_Ge2W
_symmetry_space_group_name_H-M   'P 1'
_cell_length_a   4.77266132
_cell_length_b   4.77266132
_cell_length_c   4.77266132
_cell_angle_alpha   139.00900282
_cell_angle_beta   139.00900282
_cell_angle_gamma   59.36112472
_symmetry_Int_Tables_number   1
_chemical_formula_structural   Ge2W
_chemical_formula_sum   'Ge2 W1'
_cell_volume   46.31583306
_cell_formula_units_Z   1
loop_
 _symmetry_equiv_pos_site_id
 _symmetry_equiv_pos_as_xyz
  1  'x, y, z'
loop_
 _atom_site_type_symbol
 _atom_site_label
 _atom_site_symmetry_multiplicity
 _atom_site_fract_x
 _atom_site_fract_y
 _atom_site_fract_z
 _atom_site_occupancy
  Ge  Ge0  1  0.33728000  0.33728000  0.00000000  1
  Ge  Ge1  1  0.66272000  0.66272000  0.00000000  1
  W  W2  1  0.00000000  0.00000000  0.00000000  1
