# generated using pymatgen
data_V5O9
_symmetry_space_group_name_H-M   'P 1'
_cell_length_a   7.11783700
_cell_length_b   8.53146317
_cell_length_c   11.19898040
_cell_angle_alpha   74.34382435
_cell_angle_beta   71.63116929
_cell_angle_gamma   70.52095119
_symmetry_Int_Tables_number   1
_chemical_formula_structural   V5O9
_chemical_formula_sum   'V20 O36'
_cell_volume   598.06434051
_cell_formula_units_Z   4
loop_
 _symmetry_equiv_pos_site_id
 _symmetry_equiv_pos_as_xyz
  1  'x, y, z'
loop_
 _atom_site_type_symbol
 _atom_site_label
 _atom_site_symmetry_multiplicity
 _atom_site_fract_x
 _atom_site_fract_y
 _atom_site_fract_z
 _atom_site_occupancy
  V  V0  1  0.32602500  0.42147800  0.61140900  1
  V  V1  1  0.31752300  0.42629400  0.11623900  1
  V  V2  1  0.68247700  0.57370600  0.88376100  1
  V  V3  1  0.35226000  0.78710800  0.57134500  1
  V  V4  1  0.17569600  0.58496700  0.39011400  1
  V  V5  1  0.16856800  0.20379200  0.92058700  1
  V  V6  1  0.82365200  0.42215300  0.11011900  1
  V  V7  1  0.16127700  0.19672100  0.43073700  1
  V  V8  1  0.17634800  0.57784700  0.88988100  1
  V  V9  1  0.34925500  0.79061900  0.06837300  1
  V  V10  1  0.65074500  0.20938100  0.93162700  1
  V  V11  1  0.82430400  0.41503300  0.60988600  1
  V  V12  1  0.67397500  0.57852200  0.38859100  1
  V  V13  1  0.00039000  0.00497700  0.24561300  1
  V  V14  1  0.49590900  0.00136500  0.25113400  1
  V  V15  1  0.83872300  0.80327900  0.56926300  1
  V  V16  1  0.64774000  0.21289200  0.42865500  1
  V  V17  1  0.50409100  0.99863500  0.74886600  1
  V  V18  1  0.99961000  0.99502300  0.75438700  1
  V  V19  1  0.83143200  0.79620800  0.07941300  1
  O  O20  1  0.53960000  0.54080100  0.59210200  1
  O  O21  1  0.46098400  0.13720800  0.37445700  1
  O  O22  1  0.18813200  0.75224700  0.76374900  1
  O  O23  1  0.14615300  0.67991600  0.54279400  1
  O  O24  1  0.80452600  0.91806600  0.70586800  1
  O  O25  1  0.80062600  0.57842300  0.71800600  1
  O  O26  1  0.48817600  0.80661500  0.38939000  1
  O  O27  1  0.18678500  0.75915900  0.26253600  1
  O  O28  1  0.15012200  0.02378600  0.56349900  1
  O  O29  1  0.13286000  0.36812800  0.04215800  1
  O  O30  1  0.80189000  0.59008500  0.20584600  1
  O  O31  1  0.46040000  0.45919900  0.40789800  1
  O  O32  1  0.85384700  0.32008400  0.45720600  1
  O  O33  1  0.81321500  0.24084100  0.73746400  1
  O  O34  1  0.19937400  0.42157700  0.28199400  1
  O  O35  1  0.85375200  0.96881100  0.94003600  1
  O  O36  1  0.19811000  0.40991500  0.79415400  1
  O  O37  1  0.15229800  0.67321900  0.04511600  1
  O  O38  1  0.46401500  0.46149700  0.90829400  1
  O  O39  1  0.86714000  0.63187200  0.95784200  1
  O  O40  1  0.81186800  0.24775300  0.23625100  1
  O  O41  1  0.14624800  0.03118900  0.05996400  1
  O  O42  1  0.52910000  0.87324700  0.12435100  1
  O  O43  1  0.87185200  0.63268400  0.46081200  1
  O  O44  1  0.84770200  0.32678100  0.95488400  1
  O  O45  1  0.50498400  0.20590100  0.11099100  1
  O  O46  1  0.12814800  0.36731600  0.53918800  1
  O  O47  1  0.20142100  0.07621800  0.79299400  1
  O  O48  1  0.53598500  0.53850300  0.09170600  1
  O  O49  1  0.53901600  0.86279200  0.62554300  1
  O  O50  1  0.84987800  0.97621400  0.43650100  1
  O  O51  1  0.49501600  0.79409900  0.88900900  1
  O  O52  1  0.51182400  0.19338500  0.61061000  1
  O  O53  1  0.47090000  0.12675300  0.87564900  1
  O  O54  1  0.79857900  0.92378200  0.20700600  1
  O  O55  1  0.19547400  0.08193400  0.29413200  1
