# generated using pymatgen
data_MnP4O11
_symmetry_space_group_name_H-M   'P 1'
_cell_length_a   22.73609900
_cell_length_b   5.58050000
_cell_length_c   7.63681999
_cell_angle_alpha   70.18813043
_cell_angle_beta   90.00000000
_cell_angle_gamma   90.00000000
_symmetry_Int_Tables_number   1
_chemical_formula_structural   MnP4O11
_chemical_formula_sum   'Mn4 P16 O44'
_cell_volume   911.59893249
_cell_formula_units_Z   4
loop_
 _symmetry_equiv_pos_site_id
 _symmetry_equiv_pos_as_xyz
  1  'x, y, z'
loop_
 _atom_site_type_symbol
 _atom_site_label
 _atom_site_symmetry_multiplicity
 _atom_site_fract_x
 _atom_site_fract_y
 _atom_site_fract_z
 _atom_site_occupancy
  Mn  Mn0  1  0.61343000  0.00389000  0.62825900  1
  Mn  Mn1  1  0.11343000  0.99611000  0.87174100  1
  Mn  Mn2  1  0.38657000  0.99611000  0.37174100  1
  Mn  Mn3  1  0.88657000  0.00389000  0.12825900  1
  P  P4  1  0.53389600  0.40759900  0.79238400  1
  P  P5  1  0.03389600  0.59240100  0.70761600  1
  P  P6  1  0.46610400  0.59240100  0.20761600  1
  P  P7  1  0.96610400  0.40759900  0.29238400  1
  P  P8  1  0.42770200  0.68469000  0.81929100  1
  P  P9  1  0.92770200  0.31531000  0.68070900  1
  P  P10  1  0.57229800  0.31531000  0.18070900  1
  P  P11  1  0.07229800  0.68469000  0.31929100  1
  P  P12  1  0.32092500  0.33270600  0.94529500  1
  P  P13  1  0.82092500  0.66729400  0.55470500  1
  P  P14  1  0.67907500  0.66729400  0.05470500  1
  P  P15  1  0.17907500  0.33270600  0.44529500  1
  P  P16  1  0.19629000  0.40338600  0.03566100  1
  P  P17  1  0.69629000  0.59661400  0.46433900  1
  P  P18  1  0.80371000  0.59661400  0.96433900  1
  P  P19  1  0.30371000  0.40338600  0.53566100  1
  O  O20  1  0.54336300  0.22920800  0.68922100  1
  O  O21  1  0.04336300  0.77079200  0.81077900  1
  O  O22  1  0.45663700  0.77079200  0.31077900  1
  O  O23  1  0.95663700  0.22920800  0.18922100  1
  O  O24  1  0.56251000  0.66068300  0.74683600  1
  O  O25  1  0.06251000  0.33931700  0.75316400  1
  O  O26  1  0.43749000  0.33931700  0.25316400  1
  O  O27  1  0.93749000  0.66068300  0.24683600  1
  O  O28  1  0.45363700  0.75657000  0.98609300  1
  O  O29  1  0.95363700  0.24343000  0.51390700  1
  O  O30  1  0.54636300  0.24343000  0.01390700  1
  O  O31  1  0.04636300  0.75657000  0.48609300  1
  O  O32  1  0.46202300  0.44438200  0.80490200  1
  O  O33  1  0.96202300  0.55561800  0.69509800  1
  O  O34  1  0.53797700  0.55561800  0.19509800  1
  O  O35  1  0.03797700  0.44438200  0.30490200  1
  O  O36  1  0.42489100  0.91079300  0.65021800  1
  O  O37  1  0.92489100  0.08920700  0.84978200  1
  O  O38  1  0.57510900  0.08920700  0.34978200  1
  O  O39  1  0.07510900  0.91079300  0.15021800  1
  O  O40  1  0.36393500  0.57218900  0.88576900  1
  O  O41  1  0.86393500  0.42781100  0.61423100  1
  O  O42  1  0.63606500  0.42781100  0.11423100  1
  O  O43  1  0.13606500  0.57218900  0.38576900  1
  O  O44  1  0.34375800  0.10389800  0.09079800  1
  O  O45  1  0.84375800  0.89610200  0.40920200  1
  O  O46  1  0.65624200  0.89610200  0.90920200  1
  O  O47  1  0.15624200  0.10389800  0.59079800  1
  O  O48  1  0.26672500  0.46844600  0.00186900  1
  O  O49  1  0.76672500  0.53155400  0.49813100  1
  O  O50  1  0.73327500  0.53155400  0.99813100  1
  O  O51  1  0.23327500  0.46844600  0.50186900  1
  O  O52  1  0.30460800  0.27267800  0.76438100  1
  O  O53  1  0.80460800  0.72732200  0.73561900  1
  O  O54  1  0.69539200  0.72732200  0.23561900  1
  O  O55  1  0.19539200  0.27267800  0.26438100  1
  O  O56  1  0.18238000  0.19848400  0.95912700  1
  O  O57  1  0.68238000  0.80151600  0.54087300  1
  O  O58  1  0.81762000  0.80151600  0.04087300  1
  O  O59  1  0.31762000  0.19848400  0.45912700  1
  O  O60  1  0.16501700  0.65041500  0.98239800  1
  O  O61  1  0.66501700  0.34958500  0.51760200  1
  O  O62  1  0.83498300  0.34958500  0.01760200  1
  O  O63  1  0.33498300  0.65041500  0.48239800  1
