# generated using pymatgen
data_FeCoPO5
_symmetry_space_group_name_H-M   'P 1'
_cell_length_a   6.53003100
_cell_length_b   7.41591600
_cell_length_c   7.47955000
_cell_angle_alpha   90.00000000
_cell_angle_beta   90.00000000
_cell_angle_gamma   90.00000000
_symmetry_Int_Tables_number   1
_chemical_formula_structural   FeCoPO5
_chemical_formula_sum   'Fe4 Co4 P4 O20'
_cell_volume   362.20589530
_cell_formula_units_Z   4
loop_
 _symmetry_equiv_pos_site_id
 _symmetry_equiv_pos_as_xyz
  1  'x, y, z'
loop_
 _atom_site_type_symbol
 _atom_site_label
 _atom_site_symmetry_multiplicity
 _atom_site_fract_x
 _atom_site_fract_y
 _atom_site_fract_z
 _atom_site_occupancy
  Fe  Fe0  1  0.75000000  0.84817900  0.71622300  1
  Fe  Fe1  1  0.25000000  0.15182100  0.28377700  1
  Fe  Fe2  1  0.75000000  0.34817900  0.78377700  1
  Fe  Fe3  1  0.25000000  0.65182100  0.21622300  1
  Co  Co4  1  0.00000000  0.00000000  0.00000000  1
  Co  Co5  1  0.50000000  0.00000000  0.00000000  1
  Co  Co6  1  0.50000000  0.50000000  0.50000000  1
  Co  Co7  1  0.00000000  0.50000000  0.50000000  1
  P  P8  1  0.75000000  0.62267700  0.13306300  1
  P  P9  1  0.25000000  0.37732300  0.86693700  1
  P  P10  1  0.75000000  0.12267700  0.36693700  1
  P  P11  1  0.25000000  0.87732300  0.63306300  1
  O  O12  1  0.75000000  0.59643900  0.64300600  1
  O  O13  1  0.25000000  0.40356100  0.35699400  1
  O  O14  1  0.75000000  0.09643900  0.85699400  1
  O  O15  1  0.25000000  0.90356100  0.14300600  1
  O  O16  1  0.75000000  0.79371500  0.01063200  1
  O  O17  1  0.25000000  0.20628500  0.98936800  1
  O  O18  1  0.75000000  0.29371500  0.48936800  1
  O  O19  1  0.25000000  0.70628500  0.51063200  1
  O  O20  1  0.75000000  0.95017000  0.47803700  1
  O  O21  1  0.25000000  0.04983000  0.52196300  1
  O  O22  1  0.75000000  0.45017000  0.02196300  1
  O  O23  1  0.25000000  0.54983000  0.97803700  1
  O  O24  1  0.94080200  0.63004700  0.25732600  1
  O  O25  1  0.44080200  0.36995300  0.74267400  1
  O  O26  1  0.55919800  0.13004700  0.24267400  1
  O  O27  1  0.05919800  0.86995300  0.75732600  1
  O  O28  1  0.05919800  0.36995300  0.74267400  1
  O  O29  1  0.55919800  0.63004700  0.25732600  1
  O  O30  1  0.44080200  0.86995300  0.75732600  1
  O  O31  1  0.94080200  0.13004700  0.24267400  1
