# generated using pymatgen
data_Cs4Mn2PdF12
_symmetry_space_group_name_H-M   'P 1'
_cell_length_a   8.73757200
_cell_length_b   8.73757200
_cell_length_c   11.65156575
_cell_angle_alpha   112.02138925
_cell_angle_beta   112.02138925
_cell_angle_gamma   90.00000000
_symmetry_Int_Tables_number   1
_chemical_formula_structural   Cs4Mn2PdF12
_chemical_formula_sum   'Cs8 Mn4 Pd2 F24'
_cell_volume   754.18204372
_cell_formula_units_Z   2
loop_
 _symmetry_equiv_pos_site_id
 _symmetry_equiv_pos_as_xyz
  1  'x, y, z'
loop_
 _atom_site_type_symbol
 _atom_site_label
 _atom_site_symmetry_multiplicity
 _atom_site_fract_x
 _atom_site_fract_y
 _atom_site_fract_z
 _atom_site_occupancy
  Cs  Cs0  1  0.12500000  0.63325900  0.75000000  1
  Cs  Cs1  1  0.12500000  0.11674100  0.75000000  1
  Cs  Cs2  1  0.88325900  0.87500000  0.25000000  1
  Cs  Cs3  1  0.88325900  0.37500000  0.25000000  1
  Cs  Cs4  1  0.62500000  0.63325900  0.75000000  1
  Cs  Cs5  1  0.62500000  0.11674100  0.75000000  1
  Cs  Cs6  1  0.36674100  0.87500000  0.25000000  1
  Cs  Cs7  1  0.36674100  0.37500000  0.25000000  1
  Mn  Mn8  1  0.25267600  0.25267600  0.50535200  1
  Mn  Mn9  1  0.50267600  0.00267600  0.00535200  1
  Mn  Mn10  1  0.99732400  0.49732400  0.99464800  1
  Mn  Mn11  1  0.74732400  0.74732400  0.49464800  1
  Pd  Pd12  1  0.75000000  0.25000000  0.50000000  1
  Pd  Pd13  1  0.50000000  0.50000000  0.00000000  1
  F  F14  1  0.98292600  0.25072500  0.50145000  1
  F  F15  1  0.50072500  0.73292600  0.00145000  1
  F  F16  1  0.50072500  0.26852400  0.00145000  1
  F  F17  1  0.51852400  0.25072500  0.50145000  1
  F  F18  1  0.26707400  0.49927500  0.99855000  1
  F  F19  1  0.74927500  0.01707400  0.49855000  1
  F  F20  1  0.74927500  0.48147600  0.49855000  1
  F  F21  1  0.73147600  0.49927500  0.99855000  1
  F  F22  1  0.95997800  0.74720500  0.49441100  1
  F  F23  1  0.99720500  0.70997800  0.99441100  1
  F  F24  1  0.99720500  0.28443300  0.99441100  1
  F  F25  1  0.53443300  0.74720500  0.49441100  1
  F  F26  1  0.29002200  0.00279500  0.00558900  1
  F  F27  1  0.25279500  0.04002200  0.50558900  1
  F  F28  1  0.25279500  0.46556700  0.50558900  1
  F  F29  1  0.71556700  0.00279500  0.00558900  1
  F  F30  1  0.34765400  0.34765400  0.69530900  1
  F  F31  1  0.59765400  0.09765400  0.19530900  1
  F  F32  1  0.90234600  0.40234600  0.80469100  1
  F  F33  1  0.65234600  0.65234600  0.30469100  1
  F  F34  1  0.15728500  0.15728500  0.31456900  1
  F  F35  1  0.40728500  0.90728500  0.81456900  1
  F  F36  1  0.09271500  0.59271500  0.18543100  1
  F  F37  1  0.84271500  0.84271500  0.68543100  1
