# generated using pymatgen
data_Sc2AlIn
_symmetry_space_group_name_H-M   'P 1'
_cell_length_a   11.87927443
_cell_length_b   11.87927443
_cell_length_c   11.87927443
_cell_angle_alpha   123.52310708
_cell_angle_beta   118.98792530
_cell_angle_gamma   87.88538985
_symmetry_Int_Tables_number   1
_chemical_formula_structural   Sc2AlIn
_chemical_formula_sum   'Sc2 Al1 In1'
_cell_volume   1159.63402900
_cell_formula_units_Z   1
loop_
 _symmetry_equiv_pos_site_id
 _symmetry_equiv_pos_as_xyz
  1  'x, y, z'
loop_
 _atom_site_type_symbol
 _atom_site_label
 _atom_site_symmetry_multiplicity
 _atom_site_fract_x
 _atom_site_fract_y
 _atom_site_fract_z
 _atom_site_occupancy
  Sc  Sc0  1  0.00000000  0.24495700  0.24495700  1
  Sc  Sc1  1  0.00000000  0.75504300  0.75504300  1
  Al  Al2  1  0.00000000  0.00000000  0.00000000  1
  In  In3  1  0.00000000  0.50000000  0.50000000  1
