# generated using pymatgen
data_Fe(MoS2)2
_symmetry_space_group_name_H-M   'P 1'
_cell_length_a   6.42226378
_cell_length_b   6.75607797
_cell_length_c   11.96209952
_cell_angle_alpha   80.44803168
_cell_angle_beta   74.46868686
_cell_angle_gamma   61.63547120
_symmetry_Int_Tables_number   1
_chemical_formula_structural   Fe(MoS2)2
_chemical_formula_sum   'Fe4 Mo8 S16'
_cell_volume   439.57765436
_cell_formula_units_Z   4
loop_
 _symmetry_equiv_pos_site_id
 _symmetry_equiv_pos_as_xyz
  1  'x, y, z'
loop_
 _atom_site_type_symbol
 _atom_site_label
 _atom_site_symmetry_multiplicity
 _atom_site_fract_x
 _atom_site_fract_y
 _atom_site_fract_z
 _atom_site_occupancy
  Fe  Fe0  1  0.29947800  0.19426800  0.95096500  1
  Fe  Fe1  1  0.55307400  0.69405300  0.45092800  1
  Fe  Fe2  1  0.05491500  0.68531900  0.45108200  1
  Fe  Fe3  1  0.81028900  0.18610500  0.95117100  1
  Mo  Mo4  1  0.66156300  0.24197700  0.21146300  1
  Mo  Mo5  1  0.88682300  0.74311700  0.71002400  1
  Mo  Mo6  1  0.70309400  0.63690600  0.19244400  1
  Mo  Mo7  1  0.47006000  0.13754800  0.69078000  1
  Mo  Mo8  1  0.22551400  0.62931200  0.19114500  1
  Mo  Mo9  1  0.95219700  0.13119900  0.68991600  1
  Mo  Mo10  1  0.13532800  0.24738200  0.21209200  1
  Mo  Mo11  1  0.40307300  0.74918500  0.71074700  1
  S  S12  1  0.59698300  0.51266600  0.05134200  1
  S  S13  1  0.84029000  0.01321000  0.54967400  1
  S  S14  1  0.76573500  0.36621700  0.35273200  1
  S  S15  1  0.51566200  0.86691100  0.85110000  1
  S  S16  1  0.79748500  0.84750000  0.31402000  1
  S  S17  1  0.04198200  0.34828000  0.81197000  1
  S  S18  1  0.56403100  0.03190500  0.08986500  1
  S  S19  1  0.31551000  0.53216600  0.58784000  1
  S  S20  1  0.28889400  0.85133600  0.31661600  1
  S  S21  1  0.54249900  0.35249100  0.81555900  1
  S  S22  1  0.07251800  0.02599800  0.08709300  1
  S  S23  1  0.81414500  0.52733500  0.58577000  1
  S  S24  1  0.08600100  0.52225800  0.05543400  1
  S  S25  1  0.33557200  0.02407500  0.55452800  1
  S  S26  1  0.27667500  0.35446200  0.34735300  1
  S  S27  1  0.02061000  0.85662400  0.84654500  1
