# generated using pymatgen
data_Ti2SnMo
_symmetry_space_group_name_H-M   'P 1'
_cell_length_a   10.84668962
_cell_length_b   10.84668962
_cell_length_c   10.84668962
_cell_angle_alpha   127.23627509
_cell_angle_beta   117.70785808
_cell_angle_gamma   85.98217801
_symmetry_Int_Tables_number   1
_chemical_formula_structural   Ti2SnMo
_chemical_formula_sum   'Ti2 Sn1 Mo1'
_cell_volume   858.11510532
_cell_formula_units_Z   1
loop_
 _symmetry_equiv_pos_site_id
 _symmetry_equiv_pos_as_xyz
  1  'x, y, z'
loop_
 _atom_site_type_symbol
 _atom_site_label
 _atom_site_symmetry_multiplicity
 _atom_site_fract_x
 _atom_site_fract_y
 _atom_site_fract_z
 _atom_site_occupancy
  Ti  Ti0  1  0.00000000  0.22199300  0.22199300  1
  Ti  Ti1  1  0.00000000  0.77800700  0.77800700  1
  Sn  Sn2  1  0.00000000  0.50000000  0.50000000  1
  Mo  Mo3  1  0.00000000  0.00000000  0.00000000  1
