# generated using pymatgen
data_P2Pb3O8
_symmetry_space_group_name_H-M   'P 1'
_cell_length_a   7.61241541
_cell_length_b   7.61241541
_cell_length_c   9.49190936
_cell_angle_alpha   79.11463447
_cell_angle_beta   79.11463447
_cell_angle_gamma   46.02512524
_symmetry_Int_Tables_number   1
_chemical_formula_structural   P2Pb3O8
_chemical_formula_sum   'P4 Pb6 O16'
_cell_volume   387.41597035
_cell_formula_units_Z   2
loop_
 _symmetry_equiv_pos_site_id
 _symmetry_equiv_pos_as_xyz
  1  'x, y, z'
loop_
 _atom_site_type_symbol
 _atom_site_label
 _atom_site_symmetry_multiplicity
 _atom_site_fract_x
 _atom_site_fract_y
 _atom_site_fract_z
 _atom_site_occupancy
  P  P0  1  0.15006600  0.65137400  0.44489500  1
  P  P1  1  0.34862600  0.84993400  0.05510500  1
  P  P2  1  0.84993400  0.34862600  0.55510500  1
  P  P3  1  0.65137400  0.15006600  0.94489500  1
  Pb  Pb4  1  0.70181600  0.29818400  0.25000000  1
  Pb  Pb5  1  0.29818400  0.70181600  0.75000000  1
  Pb  Pb6  1  0.35471100  0.00313800  0.34813900  1
  Pb  Pb7  1  0.99686200  0.64528900  0.15186100  1
  Pb  Pb8  1  0.64528900  0.99686200  0.65186100  1
  Pb  Pb9  1  0.00313800  0.35471100  0.84813900  1
  O  O10  1  0.28588900  0.73991700  0.42278200  1
  O  O11  1  0.26008300  0.71411100  0.07721800  1
  O  O12  1  0.71411100  0.26008300  0.57721800  1
  O  O13  1  0.73991700  0.28588900  0.92278200  1
  O  O14  1  0.31726200  0.39808500  0.38341300  1
  O  O15  1  0.60191500  0.68273800  0.11658700  1
  O  O16  1  0.68273800  0.60191500  0.61658700  1
  O  O17  1  0.39808500  0.31726200  0.88341300  1
  O  O18  1  0.90594300  0.83707100  0.36678000  1
  O  O19  1  0.16292900  0.09405700  0.13322000  1
  O  O20  1  0.09405700  0.16292900  0.63322000  1
  O  O21  1  0.83707100  0.90594300  0.86678000  1
  O  O22  1  0.07713500  0.63978400  0.61015200  1
  O  O23  1  0.36021600  0.92286500  0.88984800  1
  O  O24  1  0.92286500  0.36021600  0.38984800  1
  O  O25  1  0.63978400  0.07713500  0.11015200  1
