# generated using pymatgen
data_MnSiOs2
_symmetry_space_group_name_H-M   'P 1'
_cell_length_a   9.85681516
_cell_length_b   9.85681516
_cell_length_c   9.85681516
_cell_angle_alpha   122.28120238
_cell_angle_beta   117.70455006
_cell_angle_gamma   90.05801982
_symmetry_Int_Tables_number   1
_chemical_formula_structural   MnSiOs2
_chemical_formula_sum   'Mn1 Si1 Os2'
_cell_volume   675.88887454
_cell_formula_units_Z   1
loop_
 _symmetry_equiv_pos_site_id
 _symmetry_equiv_pos_as_xyz
  1  'x, y, z'
loop_
 _atom_site_type_symbol
 _atom_site_label
 _atom_site_symmetry_multiplicity
 _atom_site_fract_x
 _atom_site_fract_y
 _atom_site_fract_z
 _atom_site_occupancy
  Mn  Mn0  1  0.00000000  0.50000000  0.50000000  1
  Si  Si1  1  0.00000000  0.00000000  0.00000000  1
  Os  Os2  1  0.00000000  0.23042900  0.23042900  1
  Os  Os3  1  0.00000000  0.76957100  0.76957100  1
