# generated using pymatgen
data_HfPtAu2
_symmetry_space_group_name_H-M   'P 1'
_cell_length_a   11.19606916
_cell_length_b   11.19606916
_cell_length_c   11.19606916
_cell_angle_alpha   126.86198283
_cell_angle_beta   117.78952732
_cell_angle_gamma   86.20915712
_symmetry_Int_Tables_number   1
_chemical_formula_structural   HfPtAu2
_chemical_formula_sum   'Hf1 Pt1 Au2'
_cell_volume   947.07145176
_cell_formula_units_Z   1
loop_
 _symmetry_equiv_pos_site_id
 _symmetry_equiv_pos_as_xyz
  1  'x, y, z'
loop_
 _atom_site_type_symbol
 _atom_site_label
 _atom_site_symmetry_multiplicity
 _atom_site_fract_x
 _atom_site_fract_y
 _atom_site_fract_z
 _atom_site_occupancy
  Hf  Hf0  1  0.00000000  0.00000000  0.00000000  1
  Pt  Pt1  1  0.00000000  0.50000000  0.50000000  1
  Au  Au2  1  0.00000000  0.24873400  0.24873400  1
  Au  Au3  1  0.00000000  0.75126600  0.75126600  1
