# generated using pymatgen
data_Na4Al3(SiO4)3
_symmetry_space_group_name_H-M   'P 1'
_cell_length_a   8.95212200
_cell_length_b   8.95212200
_cell_length_c   8.95212200
_cell_angle_alpha   90.00000000
_cell_angle_beta   90.00000000
_cell_angle_gamma   90.00000000
_symmetry_Int_Tables_number   1
_chemical_formula_structural   Na4Al3(SiO4)3
_chemical_formula_sum   'Na8 Al6 Si6 O24'
_cell_volume   717.42742843
_cell_formula_units_Z   2
loop_
 _symmetry_equiv_pos_site_id
 _symmetry_equiv_pos_as_xyz
  1  'x, y, z'
loop_
 _atom_site_type_symbol
 _atom_site_label
 _atom_site_symmetry_multiplicity
 _atom_site_fract_x
 _atom_site_fract_y
 _atom_site_fract_z
 _atom_site_occupancy
  Na  Na0  1  0.17600600  0.17600600  0.17600600  1
  Na  Na1  1  0.32399400  0.67600600  0.32399400  1
  Na  Na2  1  0.32399400  0.32399400  0.67600600  1
  Na  Na3  1  0.67600600  0.32399400  0.32399400  1
  Na  Na4  1  0.82399400  0.82399400  0.17600600  1
  Na  Na5  1  0.17600600  0.82399400  0.82399400  1
  Na  Na6  1  0.82399400  0.17600600  0.82399400  1
  Na  Na7  1  0.67600600  0.67600600  0.67600600  1
  Al  Al8  1  0.25000000  0.00000000  0.50000000  1
  Al  Al9  1  0.00000000  0.50000000  0.75000000  1
  Al  Al10  1  0.00000000  0.50000000  0.25000000  1
  Al  Al11  1  0.50000000  0.25000000  0.00000000  1
  Al  Al12  1  0.50000000  0.75000000  0.00000000  1
  Al  Al13  1  0.75000000  0.00000000  0.50000000  1
  Si  Si14  1  0.25000000  0.50000000  0.00000000  1
  Si  Si15  1  0.50000000  0.00000000  0.75000000  1
  Si  Si16  1  0.50000000  0.00000000  0.25000000  1
  Si  Si17  1  0.00000000  0.25000000  0.50000000  1
  Si  Si18  1  0.00000000  0.75000000  0.50000000  1
  Si  Si19  1  0.75000000  0.50000000  0.00000000  1
  O  O20  1  0.14915000  0.43601000  0.13895100  1
  O  O21  1  0.35085000  0.63895100  0.06399000  1
  O  O22  1  0.35085000  0.36104900  0.93601000  1
  O  O23  1  0.36104900  0.06399000  0.64915000  1
  O  O24  1  0.63895100  0.06399000  0.35085000  1
  O  O25  1  0.93601000  0.35085000  0.36104900  1
  O  O26  1  0.06399000  0.64915000  0.36104900  1
  O  O27  1  0.13895100  0.14915000  0.43601000  1
  O  O28  1  0.43601000  0.13895100  0.14915000  1
  O  O29  1  0.56399000  0.86104900  0.14915000  1
  O  O30  1  0.13895100  0.85085000  0.56399000  1
  O  O31  1  0.56399000  0.13895100  0.85085000  1
  O  O32  1  0.86104900  0.85085000  0.43601000  1
  O  O33  1  0.86104900  0.14915000  0.56399000  1
  O  O34  1  0.43601000  0.86104900  0.85085000  1
  O  O35  1  0.14915000  0.56399000  0.86104900  1
  O  O36  1  0.85085000  0.43601000  0.86104900  1
  O  O37  1  0.85085000  0.56399000  0.13895100  1
  O  O38  1  0.06399000  0.35085000  0.63895100  1
  O  O39  1  0.93601000  0.64915000  0.63895100  1
  O  O40  1  0.36104900  0.93601000  0.35085000  1
  O  O41  1  0.63895100  0.93601000  0.64915000  1
  O  O42  1  0.64915000  0.36104900  0.06399000  1
  O  O43  1  0.64915000  0.63895100  0.93601000  1
