# generated using pymatgen
data_GaTe
_symmetry_space_group_name_H-M   'P 1'
_cell_length_a   9.34643361
_cell_length_b   9.34643361
_cell_length_c   10.82410418
_cell_angle_alpha   73.94892907
_cell_angle_beta   73.94892907
_cell_angle_gamma   25.65531973
_symmetry_Int_Tables_number   1
_chemical_formula_structural   GaTe
_chemical_formula_sum   'Ga6 Te6'
_cell_volume   392.57653067
_cell_formula_units_Z   6
loop_
 _symmetry_equiv_pos_site_id
 _symmetry_equiv_pos_as_xyz
  1  'x, y, z'
loop_
 _atom_site_type_symbol
 _atom_site_label
 _atom_site_symmetry_multiplicity
 _atom_site_fract_x
 _atom_site_fract_y
 _atom_site_fract_z
 _atom_site_occupancy
  Ga  Ga0  1  0.86098200  0.86098200  0.41599900  1
  Ga  Ga1  1  0.13901800  0.13901800  0.58400100  1
  Ga  Ga2  1  0.76157500  0.76157500  0.30234400  1
  Ga  Ga3  1  0.23842500  0.23842500  0.69765600  1
  Ga  Ga4  1  0.43698900  0.43698900  0.08287600  1
  Ga  Ga5  1  0.56301100  0.56301100  0.91712400  1
  Te  Te6  1  0.84683000  0.84683000  0.05415100  1
  Te  Te7  1  0.15317000  0.15317000  0.94584900  1
  Te  Te8  1  0.83686900  0.83686900  0.67278200  1
  Te  Te9  1  0.16313100  0.16313100  0.32721800  1
  Te  Te10  1  0.45631800  0.45631800  0.32393600  1
  Te  Te11  1  0.54368200  0.54368200  0.67606400  1
