# generated using pymatgen
data_Sr2Co2O5
_symmetry_space_group_name_H-M   'P 1'
_cell_length_a   9.01834327
_cell_length_b   9.01834327
_cell_length_c   9.01834327
_cell_angle_alpha   144.90523514
_cell_angle_beta   144.28682944
_cell_angle_gamma   50.93869036
_symmetry_Int_Tables_number   1
_chemical_formula_structural   Sr2Co2O5
_chemical_formula_sum   'Sr4 Co4 O10'
_cell_volume   244.87301710
_cell_formula_units_Z   2
loop_
 _symmetry_equiv_pos_site_id
 _symmetry_equiv_pos_as_xyz
  1  'x, y, z'
loop_
 _atom_site_type_symbol
 _atom_site_label
 _atom_site_symmetry_multiplicity
 _atom_site_fract_x
 _atom_site_fract_y
 _atom_site_fract_z
 _atom_site_occupancy
  Sr  Sr0  1  0.61929300  0.61882100  0.01653800  1
  Sr  Sr1  1  0.38070700  0.39724500  0.99952800  1
  Sr  Sr2  1  0.10228300  0.11882100  0.99952800  1
  Sr  Sr3  1  0.89771700  0.89724500  0.01653800  1
  Co  Co4  1  0.50000000  0.01009300  0.51009300  1
  Co  Co5  1  0.00000000  0.51009300  0.51009300  1
  Co  Co6  1  0.68649900  0.22676000  0.41325900  1
  Co  Co7  1  0.31350100  0.72676000  0.54026100  1
  O  O8  1  0.74752900  0.25493400  0.00947400  1
  O  O9  1  0.25247100  0.26194500  0.50740500  1
  O  O10  1  0.74546000  0.75493400  0.50740500  1
  O  O11  1  0.25454000  0.76194500  0.00947400  1
  O  O12  1  0.67444200  0.16651300  0.55288500  1
  O  O13  1  0.32555800  0.87844300  0.49207100  1
  O  O14  1  0.11362700  0.66651300  0.49207100  1
  O  O15  1  0.88637300  0.37844300  0.55288500  1
  O  O16  1  0.63096500  0.87421500  0.00517900  1
  O  O17  1  0.36903500  0.37421500  0.24325000  1
