# generated using pymatgen
data_Sr2MgCd
_symmetry_space_group_name_H-M   'P 1'
_cell_length_a   13.78203620
_cell_length_b   13.78203620
_cell_length_c   13.78203620
_cell_angle_alpha   122.21369751
_cell_angle_beta   113.59357257
_cell_angle_gamma   93.82304432
_symmetry_Int_Tables_number   1
_chemical_formula_structural   Sr2MgCd
_chemical_formula_sum   'Sr2 Mg1 Cd1'
_cell_volume   1892.69205296
_cell_formula_units_Z   1
loop_
 _symmetry_equiv_pos_site_id
 _symmetry_equiv_pos_as_xyz
  1  'x, y, z'
loop_
 _atom_site_type_symbol
 _atom_site_label
 _atom_site_symmetry_multiplicity
 _atom_site_fract_x
 _atom_site_fract_y
 _atom_site_fract_z
 _atom_site_occupancy
  Sr  Sr0  1  0.74692700  0.00000000  0.74692700  1
  Sr  Sr1  1  0.25307300  0.00000000  0.25307300  1
  Mg  Mg2  1  0.00000000  0.00000000  0.00000000  1
  Cd  Cd3  1  0.50000000  0.00000000  0.50000000  1
