# generated using pymatgen
data_Rb5Si2NiO8
_symmetry_space_group_name_H-M   'P 1'
_cell_length_a   6.79742840
_cell_length_b   6.79742840
_cell_length_c   13.93194242
_cell_angle_alpha   84.60022530
_cell_angle_beta   84.60022530
_cell_angle_gamma   99.56292420
_symmetry_Int_Tables_number   1
_chemical_formula_structural   Rb5Si2NiO8
_chemical_formula_sum   'Rb10 Si4 Ni2 O16'
_cell_volume   628.00297112
_cell_formula_units_Z   2
loop_
 _symmetry_equiv_pos_site_id
 _symmetry_equiv_pos_as_xyz
  1  'x, y, z'
loop_
 _atom_site_type_symbol
 _atom_site_label
 _atom_site_symmetry_multiplicity
 _atom_site_fract_x
 _atom_site_fract_y
 _atom_site_fract_z
 _atom_site_occupancy
  Rb  Rb0  1  0.91493100  0.56821700  0.65306500  1
  Rb  Rb1  1  0.96165100  0.25323500  0.91390600  1
  Rb  Rb2  1  0.56821700  0.91493100  0.15306500  1
  Rb  Rb3  1  0.25323500  0.96165100  0.41390600  1
  Rb  Rb4  1  0.34796400  0.65203600  0.75000000  1
  Rb  Rb5  1  0.65203600  0.34796400  0.25000000  1
  Rb  Rb6  1  0.74676500  0.03834900  0.58609400  1
  Rb  Rb7  1  0.43178300  0.08506900  0.84693500  1
  Rb  Rb8  1  0.03834900  0.74676500  0.08609400  1
  Rb  Rb9  1  0.08506900  0.43178300  0.34693500  1
  Si  Si10  1  0.77992200  0.71615600  0.87362400  1
  Si  Si11  1  0.71615600  0.77992200  0.37362400  1
  Si  Si12  1  0.28384400  0.22007800  0.62637600  1
  Si  Si13  1  0.22007800  0.28384400  0.12637600  1
  Ni  Ni14  1  0.50000000  0.50000000  0.50000000  1
  Ni  Ni15  1  0.50000000  0.50000000  0.00000000  1
  O  O16  1  0.72207600  0.84610600  0.78070500  1
  O  O17  1  0.65781400  0.76218400  0.97955100  1
  O  O18  1  0.84610600  0.72207600  0.28070500  1
  O  O19  1  0.76218400  0.65781400  0.47955100  1
  O  O20  1  0.64071300  0.47536600  0.88433800  1
  O  O21  1  0.29187000  0.98585300  0.61865600  1
  O  O22  1  0.47536600  0.64071300  0.38433800  1
  O  O23  1  0.01414700  0.70813000  0.88134400  1
  O  O24  1  0.98585300  0.29187000  0.11865600  1
  O  O25  1  0.52463400  0.35928700  0.61566200  1
  O  O26  1  0.70813000  0.01414700  0.38134400  1
  O  O27  1  0.35928700  0.52463400  0.11566200  1
  O  O28  1  0.23781600  0.34218600  0.52044900  1
  O  O29  1  0.15389400  0.27792400  0.71929500  1
  O  O30  1  0.34218600  0.23781600  0.02044900  1
  O  O31  1  0.27792400  0.15389400  0.21929500  1
