# generated using pymatgen
data_Zn3Co2(CN)12
_symmetry_space_group_name_H-M   'P 1'
_cell_length_a   13.03306201
_cell_length_b   13.03306201
_cell_length_c   13.03306260
_cell_angle_alpha   57.50729774
_cell_angle_beta   57.50729774
_cell_angle_gamma   57.50729643
_symmetry_Int_Tables_number   1
_chemical_formula_structural   Zn3Co2(CN)12
_chemical_formula_sum   'Zn6 Co4 C24 N24'
_cell_volume   1475.65455315
_cell_formula_units_Z   2
loop_
 _symmetry_equiv_pos_site_id
 _symmetry_equiv_pos_as_xyz
  1  'x, y, z'
loop_
 _atom_site_type_symbol
 _atom_site_label
 _atom_site_symmetry_multiplicity
 _atom_site_fract_x
 _atom_site_fract_y
 _atom_site_fract_z
 _atom_site_occupancy
  Zn  Zn0  1  0.96011300  0.53988700  0.25000000  1
  Zn  Zn1  1  0.53988700  0.25000000  0.96011300  1
  Zn  Zn2  1  0.25000000  0.96011300  0.53988700  1
  Zn  Zn3  1  0.03988700  0.46011300  0.75000000  1
  Zn  Zn4  1  0.46011300  0.75000000  0.03988700  1
  Zn  Zn5  1  0.75000000  0.03988700  0.46011300  1
  Co  Co6  1  0.14651900  0.14651900  0.14651900  1
  Co  Co7  1  0.35348100  0.35348100  0.35348100  1
  Co  Co8  1  0.85348100  0.85348100  0.85348100  1
  Co  Co9  1  0.64651900  0.64651900  0.64651900  1
  C  C10  1  0.05348700  0.29280100  0.19519600  1
  C  C11  1  0.29280100  0.19519600  0.05348700  1
  C  C12  1  0.19519600  0.05348700  0.29280100  1
  C  C13  1  0.20719900  0.44651300  0.30480400  1
  C  C14  1  0.44651300  0.30480400  0.20719900  1
  C  C15  1  0.30480400  0.20719900  0.44651300  1
  C  C16  1  0.94651300  0.70719900  0.80480400  1
  C  C17  1  0.70719900  0.80480400  0.94651300  1
  C  C18  1  0.80480400  0.94651300  0.70719900  1
  C  C19  1  0.79280100  0.55348700  0.69519600  1
  C  C20  1  0.55348700  0.69519600  0.79280100  1
  C  C21  1  0.69519600  0.79280100  0.55348700  1
  C  C22  1  0.09908900  0.24550200  0.99923100  1
  C  C23  1  0.24550200  0.99923100  0.09908900  1
  C  C24  1  0.99923100  0.09908900  0.24550200  1
  C  C25  1  0.25449800  0.40091100  0.50076900  1
  C  C26  1  0.40091100  0.50076900  0.25449800  1
  C  C27  1  0.50076900  0.25449800  0.40091100  1
  C  C28  1  0.90091100  0.75449800  0.00076900  1
  C  C29  1  0.75449800  0.00076900  0.90091100  1
  C  C30  1  0.00076900  0.90091100  0.75449800  1
  C  C31  1  0.74550200  0.59908900  0.49923100  1
  C  C32  1  0.59908900  0.49923100  0.74550200  1
  C  C33  1  0.49923100  0.74550200  0.59908900  1
  N  N34  1  0.99946800  0.38385000  0.22531100  1
  N  N35  1  0.38385000  0.22531100  0.99946800  1
  N  N36  1  0.22531100  0.99946800  0.38385000  1
  N  N37  1  0.11615000  0.50053200  0.27468900  1
  N  N38  1  0.50053200  0.27468900  0.11615000  1
  N  N39  1  0.27468900  0.11615000  0.50053200  1
  N  N40  1  0.00053200  0.61615000  0.77468900  1
  N  N41  1  0.61615000  0.77468900  0.00053200  1
  N  N42  1  0.77468900  0.00053200  0.61615000  1
  N  N43  1  0.88385000  0.49946800  0.72531100  1
  N  N44  1  0.49946800  0.72531100  0.88385000  1
  N  N45  1  0.72531100  0.88385000  0.49946800  1
  N  N46  1  0.07100300  0.31264100  0.90615200  1
  N  N47  1  0.31264100  0.90615200  0.07100300  1
  N  N48  1  0.90615200  0.07100300  0.31264100  1
  N  N49  1  0.18735900  0.42899700  0.59384800  1
  N  N50  1  0.42899700  0.59384800  0.18735900  1
  N  N51  1  0.59384800  0.18735900  0.42899700  1
  N  N52  1  0.92899700  0.68735900  0.09384800  1
  N  N53  1  0.68735900  0.09384800  0.92899700  1
  N  N54  1  0.09384800  0.92899700  0.68735900  1
  N  N55  1  0.81264100  0.57100300  0.40615200  1
  N  N56  1  0.57100300  0.40615200  0.81264100  1
  N  N57  1  0.40615200  0.81264100  0.57100300  1
