# generated using pymatgen
data_Mg2P2O7
_symmetry_space_group_name_H-M   'P 1'
_cell_length_a   5.31816713
_cell_length_b   5.31816713
_cell_length_c   4.55110048
_cell_angle_alpha   81.56033101
_cell_angle_beta   81.56033101
_cell_angle_gamma   104.15325344
_symmetry_Int_Tables_number   1
_chemical_formula_structural   Mg2P2O7
_chemical_formula_sum   'Mg2 P2 O7'
_cell_volume   121.20017756
_cell_formula_units_Z   1
loop_
 _symmetry_equiv_pos_site_id
 _symmetry_equiv_pos_as_xyz
  1  'x, y, z'
loop_
 _atom_site_type_symbol
 _atom_site_label
 _atom_site_symmetry_multiplicity
 _atom_site_fract_x
 _atom_site_fract_y
 _atom_site_fract_z
 _atom_site_occupancy
  Mg  Mg0  1  0.68767300  0.31232700  0.50000000  1
  Mg  Mg1  1  0.31232700  0.68767300  0.50000000  1
  P  P2  1  0.78131700  0.78131700  0.90601600  1
  P  P3  1  0.21868300  0.21868300  0.09398400  1
  O  O4  1  0.92689200  0.62322000  0.72017700  1
  O  O5  1  0.37678000  0.07310800  0.27982300  1
  O  O6  1  0.07310800  0.37678000  0.27982300  1
  O  O7  1  0.62322000  0.92689200  0.72017700  1
  O  O8  1  0.00000000  0.00000000  0.00000000  1
  O  O9  1  0.61950000  0.61950000  0.21226900  1
  O  O10  1  0.38050000  0.38050000  0.78773100  1
