# generated using pymatgen
data_Y2PdAu
_symmetry_space_group_name_H-M   'P 1'
_cell_length_a   11.74928614
_cell_length_b   11.74928614
_cell_length_c   11.74928614
_cell_angle_alpha   125.72451731
_cell_angle_beta   118.83626999
_cell_angle_gamma   86.20441798
_symmetry_Int_Tables_number   1
_chemical_formula_structural   Y2PdAu
_chemical_formula_sum   'Y2 Pd1 Au1'
_cell_volume   1099.28053281
_cell_formula_units_Z   1
loop_
 _symmetry_equiv_pos_site_id
 _symmetry_equiv_pos_as_xyz
  1  'x, y, z'
loop_
 _atom_site_type_symbol
 _atom_site_label
 _atom_site_symmetry_multiplicity
 _atom_site_fract_x
 _atom_site_fract_y
 _atom_site_fract_z
 _atom_site_occupancy
  Y  Y0  1  0.00000000  0.23759500  0.23759500  1
  Y  Y1  1  0.00000000  0.76240500  0.76240500  1
  Pd  Pd2  1  0.00000000  0.00000000  0.00000000  1
  Au  Au3  1  0.00000000  0.50000000  0.50000000  1
