# generated using pymatgen
data_Ba2H14C4O15
_symmetry_space_group_name_H-M   'P 1'
_cell_length_a   7.81419948
_cell_length_b   7.81419948
_cell_length_c   15.07041034
_cell_angle_alpha   69.89597198
_cell_angle_beta   69.89597198
_cell_angle_gamma   60.32844085
_symmetry_Int_Tables_number   1
_chemical_formula_structural   Ba2H14C4O15
_chemical_formula_sum   'Ba4 H28 C8 O30'
_cell_volume   733.65978743
_cell_formula_units_Z   2
loop_
 _symmetry_equiv_pos_site_id
 _symmetry_equiv_pos_as_xyz
  1  'x, y, z'
loop_
 _atom_site_type_symbol
 _atom_site_label
 _atom_site_symmetry_multiplicity
 _atom_site_fract_x
 _atom_site_fract_y
 _atom_site_fract_z
 _atom_site_occupancy
  Ba  Ba0  1  0.62220100  0.74186200  0.21904300  1
  Ba  Ba1  1  0.25813800  0.37779900  0.28095700  1
  Ba  Ba2  1  0.37779900  0.25813800  0.78095700  1
  Ba  Ba3  1  0.74186200  0.62220100  0.71904300  1
  H  H4  1  0.33602900  0.17872700  0.07149100  1
  H  H5  1  0.82127300  0.66397100  0.42850900  1
  H  H6  1  0.66397100  0.82127300  0.92850900  1
  H  H7  1  0.17872700  0.33602900  0.57149100  1
  H  H8  1  0.52882700  0.18785700  0.07627400  1
  H  H9  1  0.81214300  0.47117300  0.42372600  1
  H  H10  1  0.47117300  0.81214300  0.92372600  1
  H  H11  1  0.18785700  0.52882700  0.57627400  1
  H  H12  1  0.38487300  0.57205300  0.41418400  1
  H  H13  1  0.42794700  0.61512700  0.08581600  1
  H  H14  1  0.61512700  0.42794700  0.58581600  1
  H  H15  1  0.57205300  0.38487300  0.91418400  1
  H  H16  1  0.57309400  0.36808200  0.40381800  1
  H  H17  1  0.63191800  0.42690600  0.09618200  1
  H  H18  1  0.42690600  0.63191800  0.59618200  1
  H  H19  1  0.36808200  0.57309400  0.90381800  1
  H  H20  1  0.97070600  0.26891100  0.20083300  1
  H  H21  1  0.73108900  0.02929400  0.29916700  1
  H  H22  1  0.02929400  0.73108900  0.79916700  1
  H  H23  1  0.26891100  0.97070600  0.70083300  1
  H  H24  1  0.89429400  0.23149500  0.31302100  1
  H  H25  1  0.76850500  0.10570600  0.18697900  1
  H  H26  1  0.10570600  0.76850500  0.68697900  1
  H  H27  1  0.23149500  0.89429400  0.81302100  1
  H  H28  1  0.12652000  0.89596000  0.19568500  1
  H  H29  1  0.10404000  0.87348000  0.30431500  1
  H  H30  1  0.87348000  0.10404000  0.80431500  1
  H  H31  1  0.89596000  0.12652000  0.69568500  1
  C  C32  1  0.95898700  0.78658800  0.97688700  1
  C  C33  1  0.21341200  0.04101300  0.52311300  1
  C  C34  1  0.04101300  0.21341200  0.02311300  1
  C  C35  1  0.78658800  0.95898700  0.47688700  1
  C  C36  1  0.09784900  0.72636100  0.04656400  1
  C  C37  1  0.27363900  0.90215100  0.45343600  1
  C  C38  1  0.90215100  0.27363900  0.95343600  1
  C  C39  1  0.72636100  0.09784900  0.54656400  1
  O  O40  1  0.78948200  0.78198900  0.01411800  1
  O  O41  1  0.21801100  0.21051800  0.48588200  1
  O  O42  1  0.21051800  0.21801100  0.98588200  1
  O  O43  1  0.78198900  0.78948200  0.51411800  1
  O  O44  1  0.02868600  0.83256900  0.88644900  1
  O  O45  1  0.16743100  0.97131400  0.61355100  1
  O  O46  1  0.97131400  0.16743100  0.11355100  1
  O  O47  1  0.83256900  0.02868600  0.38644900  1
  O  O48  1  0.03078300  0.67902000  0.13605300  1
  O  O49  1  0.32098000  0.96921700  0.36394700  1
  O  O50  1  0.96921700  0.32098000  0.86394700  1
  O  O51  1  0.67902000  0.03078300  0.63605300  1
  O  O52  1  0.27156800  0.72471500  0.00784800  1
  O  O53  1  0.27528500  0.72843200  0.49215200  1
  O  O54  1  0.72843200  0.27528500  0.99215200  1
  O  O55  1  0.72471500  0.27156800  0.50784800  1
  O  O56  1  0.41427000  0.15816600  0.11774700  1
  O  O57  1  0.84183400  0.58573000  0.38225300  1
  O  O58  1  0.58573000  0.84183400  0.88225300  1
  O  O59  1  0.15816600  0.41427000  0.61774700  1
  O  O60  1  0.46806200  0.47617000  0.36903700  1
  O  O61  1  0.52383000  0.53193800  0.13096300  1
  O  O62  1  0.53193800  0.52383000  0.63096300  1
  O  O63  1  0.47617000  0.46806200  0.86903700  1
  O  O64  1  0.93615600  0.32659100  0.25735300  1
  O  O65  1  0.67340900  0.06384400  0.24264700  1
  O  O66  1  0.06384400  0.67340900  0.74264700  1
  O  O67  1  0.32659100  0.93615600  0.75735300  1
  O  O68  1  0.19278500  0.80721500  0.25000000  1
  O  O69  1  0.80721500  0.19278500  0.75000000  1
