# generated using pymatgen
data_CoH6(CO3)2
_symmetry_space_group_name_H-M   'P 1'
_cell_length_a   7.24396600
_cell_length_b   8.76229700
_cell_length_c   9.31466714
_cell_angle_alpha   82.75331979
_cell_angle_beta   90.00000000
_cell_angle_gamma   90.00000000
_symmetry_Int_Tables_number   1
_chemical_formula_structural   CoH6(CO3)2
_chemical_formula_sum   'Co4 H24 C8 O24'
_cell_volume   586.51449860
_cell_formula_units_Z   4
loop_
 _symmetry_equiv_pos_site_id
 _symmetry_equiv_pos_as_xyz
  1  'x, y, z'
loop_
 _atom_site_type_symbol
 _atom_site_label
 _atom_site_symmetry_multiplicity
 _atom_site_fract_x
 _atom_site_fract_y
 _atom_site_fract_z
 _atom_site_occupancy
  Co  Co0  1  0.50000000  0.00000000  0.50000000  1
  Co  Co1  1  0.00000000  0.00000000  0.00000000  1
  Co  Co2  1  0.00000000  0.50000000  0.50000000  1
  Co  Co3  1  0.50000000  0.50000000  0.00000000  1
  H  H4  1  0.47879800  0.32783300  0.60863500  1
  H  H5  1  0.97879800  0.67216700  0.89136500  1
  H  H6  1  0.52120200  0.67216700  0.39136500  1
  H  H7  1  0.02120200  0.32783300  0.10863500  1
  H  H8  1  0.71181500  0.06833000  0.22670900  1
  H  H9  1  0.21181500  0.93167000  0.27329100  1
  H  H10  1  0.28818500  0.93167000  0.77329100  1
  H  H11  1  0.78818500  0.06833000  0.72670900  1
  H  H12  1  0.11333700  0.21369500  0.48741300  1
  H  H13  1  0.61333700  0.78630500  0.01258700  1
  H  H14  1  0.88666300  0.78630500  0.51258700  1
  H  H15  1  0.38666300  0.21369500  0.98741300  1
  H  H16  1  0.89757800  0.23474400  0.45071300  1
  H  H17  1  0.39757800  0.76525600  0.04928700  1
  H  H18  1  0.10242200  0.76525600  0.54928700  1
  H  H19  1  0.60242200  0.23474400  0.95071300  1
  H  H20  1  0.90589100  0.69888900  0.26410900  1
  H  H21  1  0.40589100  0.30111100  0.23589100  1
  H  H22  1  0.09410900  0.30111100  0.73589100  1
  H  H23  1  0.59410900  0.69888900  0.76410900  1
  H  H24  1  0.84546200  0.53289300  0.22295600  1
  H  H25  1  0.34546200  0.46710700  0.27704400  1
  H  H26  1  0.15453800  0.46710700  0.77704400  1
  H  H27  1  0.65453800  0.53289300  0.72295600  1
  C  C28  1  0.38020800  0.67528600  0.43631300  1
  C  C29  1  0.88020800  0.32471400  0.06368700  1
  C  C30  1  0.61979200  0.32471400  0.56368700  1
  C  C31  1  0.11979200  0.67528600  0.93631300  1
  C  C32  1  0.77812000  0.96134600  0.27684300  1
  C  C33  1  0.27812000  0.03865400  0.22315700  1
  C  C34  1  0.22188000  0.03865400  0.72315700  1
  C  C35  1  0.72188000  0.96134600  0.77684300  1
  O  O36  1  0.72561800  0.43686000  0.58054000  1
  O  O37  1  0.22561800  0.56314000  0.91946000  1
  O  O38  1  0.27438200  0.56314000  0.41946000  1
  O  O39  1  0.77438200  0.43686000  0.08054000  1
  O  O40  1  0.33567800  0.79086000  0.49969200  1
  O  O41  1  0.83567800  0.20914000  0.00030800  1
  O  O42  1  0.66432200  0.20914000  0.50030800  1
  O  O43  1  0.16432200  0.79086000  0.99969200  1
  O  O44  1  0.72690700  0.90637900  0.40383600  1
  O  O45  1  0.22690700  0.09362100  0.09616400  1
  O  O46  1  0.27309300  0.09362100  0.59616400  1
  O  O47  1  0.77309300  0.90637900  0.90383600  1
  O  O48  1  0.90004800  0.89925700  0.20537000  1
  O  O49  1  0.40004800  0.10074300  0.29463000  1
  O  O50  1  0.09995200  0.10074300  0.79463000  1
  O  O51  1  0.59995200  0.89925700  0.70537000  1
  O  O52  1  0.02248300  0.27968200  0.42858900  1
  O  O53  1  0.52248300  0.72031800  0.07141100  1
  O  O54  1  0.97751700  0.72031800  0.57141100  1
  O  O55  1  0.47751700  0.27968200  0.92858900  1
  O  O56  1  0.89066100  0.58891900  0.30273000  1
  O  O57  1  0.39066100  0.41108100  0.19727000  1
  O  O58  1  0.10933900  0.41108100  0.69727000  1
  O  O59  1  0.60933900  0.58891900  0.80273000  1
