# generated using pymatgen
data_Mg9Si5
_symmetry_space_group_name_H-M   'P 1'
_cell_length_a   7.17867173
_cell_length_b   7.17867173
_cell_length_c   12.29331800
_cell_angle_alpha   90.00000000
_cell_angle_beta   90.00000000
_cell_angle_gamma   119.99999747
_symmetry_Int_Tables_number   1
_chemical_formula_structural   Mg9Si5
_chemical_formula_sum   'Mg18 Si10'
_cell_volume   548.64060471
_cell_formula_units_Z   2
loop_
 _symmetry_equiv_pos_site_id
 _symmetry_equiv_pos_as_xyz
  1  'x, y, z'
loop_
 _atom_site_type_symbol
 _atom_site_label
 _atom_site_symmetry_multiplicity
 _atom_site_fract_x
 _atom_site_fract_y
 _atom_site_fract_z
 _atom_site_occupancy
  Mg  Mg0  1  0.59448700  0.67908000  0.58312600  1
  Mg  Mg1  1  0.91540700  0.59448700  0.08312600  1
  Mg  Mg2  1  0.67908000  0.08459300  0.08312600  1
  Mg  Mg3  1  0.32092000  0.91540700  0.58312600  1
  Mg  Mg4  1  0.08459300  0.40551300  0.58312600  1
  Mg  Mg5  1  0.40551300  0.32092000  0.08312600  1
  Mg  Mg6  1  0.40551300  0.32092000  0.41687400  1
  Mg  Mg7  1  0.08459300  0.40551300  0.91687400  1
  Mg  Mg8  1  0.32092000  0.91540700  0.91687400  1
  Mg  Mg9  1  0.67908000  0.08459300  0.41687400  1
  Mg  Mg10  1  0.91540700  0.59448700  0.41687400  1
  Mg  Mg11  1  0.59448700  0.67908000  0.91687400  1
  Mg  Mg12  1  0.65371400  0.72597100  0.25000000  1
  Mg  Mg13  1  0.92774300  0.65371400  0.75000000  1
  Mg  Mg14  1  0.72597100  0.07225700  0.75000000  1
  Mg  Mg15  1  0.27402900  0.92774300  0.25000000  1
  Mg  Mg16  1  0.07225700  0.34628600  0.25000000  1
  Mg  Mg17  1  0.34628600  0.27402900  0.75000000  1
  Si  Si18  1  0.00000000  0.00000000  0.39809800  1
  Si  Si19  1  0.00000000  0.00000000  0.89809800  1
  Si  Si20  1  0.00000000  0.00000000  0.60190200  1
  Si  Si21  1  0.00000000  0.00000000  0.10190200  1
  Si  Si22  1  0.66666700  0.33333300  0.25000000  1
  Si  Si23  1  0.33333300  0.66666700  0.75000000  1
  Si  Si24  1  0.33333300  0.66666700  0.08802400  1
  Si  Si25  1  0.66666700  0.33333300  0.58802400  1
  Si  Si26  1  0.66666700  0.33333300  0.91197600  1
  Si  Si27  1  0.33333300  0.66666700  0.41197600  1
