# generated using pymatgen
data_CsYbCoSe3
_symmetry_space_group_name_H-M   'P 1'
_cell_length_a   8.42532799
_cell_length_b   8.42532799
_cell_length_c   11.26206100
_cell_angle_alpha   90.00000000
_cell_angle_beta   90.00000000
_cell_angle_gamma   151.95793687
_symmetry_Int_Tables_number   1
_chemical_formula_structural   CsYbCoSe3
_chemical_formula_sum   'Cs2 Yb2 Co2 Se6'
_cell_volume   375.83732318
_cell_formula_units_Z   2
loop_
 _symmetry_equiv_pos_site_id
 _symmetry_equiv_pos_as_xyz
  1  'x, y, z'
loop_
 _atom_site_type_symbol
 _atom_site_label
 _atom_site_symmetry_multiplicity
 _atom_site_fract_x
 _atom_site_fract_y
 _atom_site_fract_z
 _atom_site_occupancy
  Cs  Cs0  1  0.26294500  0.73705500  0.75000000  1
  Cs  Cs1  1  0.73705500  0.26294500  0.25000000  1
  Yb  Yb2  1  0.00000000  0.00000000  0.00000000  1
  Yb  Yb3  1  0.00000000  0.00000000  0.50000000  1
  Co  Co4  1  0.54024500  0.45975500  0.75000000  1
  Co  Co5  1  0.45975500  0.54024500  0.25000000  1
  Se  Se6  1  0.95447400  0.04552600  0.75000000  1
  Se  Se7  1  0.04552600  0.95447400  0.25000000  1
  Se  Se8  1  0.61739900  0.38260100  0.92300900  1
  Se  Se9  1  0.38260100  0.61739900  0.07699100  1
  Se  Se10  1  0.38260100  0.61739900  0.42300900  1
  Se  Se11  1  0.61739900  0.38260100  0.57699100  1
