# generated using pymatgen
data_Tl2S7N8
_symmetry_space_group_name_H-M   'P 1'
_cell_length_a   9.65174900
_cell_length_b   11.72308700
_cell_length_c   12.18493000
_cell_angle_alpha   90.00000000
_cell_angle_beta   90.00000000
_cell_angle_gamma   90.00000000
_symmetry_Int_Tables_number   1
_chemical_formula_structural   Tl2S7N8
_chemical_formula_sum   'Tl8 S28 N32'
_cell_volume   1378.70403262
_cell_formula_units_Z   4
loop_
 _symmetry_equiv_pos_site_id
 _symmetry_equiv_pos_as_xyz
  1  'x, y, z'
loop_
 _atom_site_type_symbol
 _atom_site_label
 _atom_site_symmetry_multiplicity
 _atom_site_fract_x
 _atom_site_fract_y
 _atom_site_fract_z
 _atom_site_occupancy
  Tl  Tl0  1  0.46762300  0.22343000  0.06669700  1
  Tl  Tl1  1  0.96762300  0.77657000  0.93330300  1
  Tl  Tl2  1  0.03237700  0.72343000  0.43330300  1
  Tl  Tl3  1  0.53237700  0.27657000  0.56669700  1
  Tl  Tl4  1  0.53237700  0.77657000  0.93330300  1
  Tl  Tl5  1  0.03237700  0.22343000  0.06669700  1
  Tl  Tl6  1  0.96762300  0.27657000  0.56669700  1
  Tl  Tl7  1  0.46762300  0.72343000  0.43330300  1
  S  S8  1  0.75000000  0.04408800  0.72287800  1
  S  S9  1  0.25000000  0.95591200  0.27712200  1
  S  S10  1  0.75000000  0.54408800  0.77712200  1
  S  S11  1  0.25000000  0.45591200  0.22287800  1
  S  S12  1  0.75000000  0.04786800  0.95965000  1
  S  S13  1  0.25000000  0.95213200  0.04035000  1
  S  S14  1  0.75000000  0.54786800  0.54035000  1
  S  S15  1  0.25000000  0.45213200  0.45965000  1
  S  S16  1  0.75000000  0.26047300  0.83826900  1
  S  S17  1  0.25000000  0.73952700  0.16173100  1
  S  S18  1  0.75000000  0.76047300  0.66173100  1
  S  S19  1  0.25000000  0.23952700  0.33826900  1
  S  S20  1  0.75000000  0.65395300  0.19768900  1
  S  S21  1  0.25000000  0.34604700  0.80231100  1
  S  S22  1  0.75000000  0.15395300  0.30231100  1
  S  S23  1  0.25000000  0.84604700  0.69768900  1
  S  S24  1  0.75000000  0.45552100  0.06929400  1
  S  S25  1  0.25000000  0.54447900  0.93070600  1
  S  S26  1  0.75000000  0.95552100  0.43070600  1
  S  S27  1  0.25000000  0.04447900  0.56929400  1
  S  S28  1  0.60770800  0.46218800  0.26706200  1
  S  S29  1  0.10770800  0.53781200  0.73293800  1
  S  S30  1  0.89229200  0.96218800  0.23293800  1
  S  S31  1  0.39229200  0.03781200  0.76706200  1
  S  S32  1  0.39229200  0.53781200  0.73293800  1
  S  S33  1  0.89229200  0.46218800  0.26706200  1
  S  S34  1  0.10770800  0.03781200  0.76706200  1
  S  S35  1  0.60770800  0.96218800  0.23293800  1
  N  N36  1  0.75000000  0.18744800  0.95330900  1
  N  N37  1  0.25000000  0.81255200  0.04669100  1
  N  N38  1  0.75000000  0.68744800  0.54669100  1
  N  N39  1  0.25000000  0.31255200  0.45330900  1
  N  N40  1  0.75000000  0.98176100  0.84185400  1
  N  N41  1  0.25000000  0.01823900  0.15814600  1
  N  N42  1  0.75000000  0.48176100  0.65814600  1
  N  N43  1  0.25000000  0.51823900  0.34185400  1
  N  N44  1  0.75000000  0.18317000  0.72585300  1
  N  N45  1  0.25000000  0.81683000  0.27414700  1
  N  N46  1  0.75000000  0.68317000  0.77414700  1
  N  N47  1  0.25000000  0.31683000  0.22585300  1
  N  N48  1  0.75000000  0.59639600  0.07378000  1
  N  N49  1  0.25000000  0.40360400  0.92622000  1
  N  N50  1  0.75000000  0.09639600  0.42622000  1
  N  N51  1  0.25000000  0.90360400  0.57378000  1
  N  N52  1  0.61679000  0.40792100  0.14451000  1
  N  N53  1  0.11679000  0.59207900  0.85549000  1
  N  N54  1  0.88321000  0.90792100  0.35549000  1
  N  N55  1  0.38321000  0.09207900  0.64451000  1
  N  N56  1  0.38321000  0.59207900  0.85549000  1
  N  N57  1  0.88321000  0.40792100  0.14451000  1
  N  N58  1  0.11679000  0.09207900  0.64451000  1
  N  N59  1  0.61679000  0.90792100  0.35549000  1
  N  N60  1  0.61633300  0.60063600  0.26841700  1
  N  N61  1  0.11633300  0.39936400  0.73158300  1
  N  N62  1  0.88366700  0.10063600  0.23158300  1
  N  N63  1  0.38366700  0.89936400  0.76841700  1
  N  N64  1  0.38366700  0.39936400  0.73158300  1
  N  N65  1  0.88366700  0.60063600  0.26841700  1
  N  N66  1  0.11633300  0.89936400  0.76841700  1
  N  N67  1  0.61633300  0.10063600  0.23158300  1
