# generated using pymatgen
data_ZnWO4
_symmetry_space_group_name_H-M   'P 1'
_cell_length_a   7.42901262
_cell_length_b   7.42901262
_cell_length_c   4.88081435
_cell_angle_alpha   73.05668919
_cell_angle_beta   73.05668919
_cell_angle_gamma   127.92280724
_symmetry_Int_Tables_number   1
_chemical_formula_structural   ZnWO4
_chemical_formula_sum   'Zn2 W2 O8'
_cell_volume   158.91103533
_cell_formula_units_Z   2
loop_
 _symmetry_equiv_pos_site_id
 _symmetry_equiv_pos_as_xyz
  1  'x, y, z'
loop_
 _atom_site_type_symbol
 _atom_site_label
 _atom_site_symmetry_multiplicity
 _atom_site_fract_x
 _atom_site_fract_y
 _atom_site_fract_z
 _atom_site_occupancy
  Zn  Zn0  1  0.61536900  0.38463100  0.25000000  1
  Zn  Zn1  1  0.38463100  0.61536900  0.75000000  1
  W  W2  1  0.08270600  0.91729400  0.25000000  1
  W  W3  1  0.91729400  0.08270600  0.75000000  1
  O  O4  1  0.59704100  0.93088400  0.78589100  1
  O  O5  1  0.26373600  0.17663300  0.73954000  1
  O  O6  1  0.93088400  0.59704100  0.28589100  1
  O  O7  1  0.17663300  0.26373600  0.23954000  1
  O  O8  1  0.40295900  0.06911600  0.21410900  1
  O  O9  1  0.06911600  0.40295900  0.71410900  1
  O  O10  1  0.73626400  0.82336700  0.26046000  1
  O  O11  1  0.82336700  0.73626400  0.76046000  1
