# generated using pymatgen
data_Ca2ZnIn
_symmetry_space_group_name_H-M   'P 1'
_cell_length_a   13.10531822
_cell_length_b   13.10531822
_cell_length_c   13.10531822
_cell_angle_alpha   123.29686132
_cell_angle_beta   117.59176876
_cell_angle_gamma   89.30408281
_symmetry_Int_Tables_number   1
_chemical_formula_structural   Ca2ZnIn
_chemical_formula_sum   'Ca2 Zn1 In1'
_cell_volume   1575.78686234
_cell_formula_units_Z   1
loop_
 _symmetry_equiv_pos_site_id
 _symmetry_equiv_pos_as_xyz
  1  'x, y, z'
loop_
 _atom_site_type_symbol
 _atom_site_label
 _atom_site_symmetry_multiplicity
 _atom_site_fract_x
 _atom_site_fract_y
 _atom_site_fract_z
 _atom_site_occupancy
  Ca  Ca0  1  0.00000000  0.25621900  0.25621900  1
  Ca  Ca1  1  0.00000000  0.74378100  0.74378100  1
  Zn  Zn2  1  0.00000000  0.00000000  0.00000000  1
  In  In3  1  0.00000000  0.50000000  0.50000000  1
