# generated using pymatgen
data_BeCuPd2
_symmetry_space_group_name_H-M   'P 1'
_cell_length_a   9.73666844
_cell_length_b   9.73666844
_cell_length_c   9.73666844
_cell_angle_alpha   125.23036419
_cell_angle_beta   118.33791654
_cell_angle_gamma   87.04589246
_symmetry_Int_Tables_number   1
_chemical_formula_structural   BeCuPd2
_chemical_formula_sum   'Be1 Cu1 Pd2'
_cell_volume   631.12202426
_cell_formula_units_Z   1
loop_
 _symmetry_equiv_pos_site_id
 _symmetry_equiv_pos_as_xyz
  1  'x, y, z'
loop_
 _atom_site_type_symbol
 _atom_site_label
 _atom_site_symmetry_multiplicity
 _atom_site_fract_x
 _atom_site_fract_y
 _atom_site_fract_z
 _atom_site_occupancy
  Be  Be0  1  0.00000000  0.00000000  0.00000000  1
  Cu  Cu1  1  0.00000000  0.50000000  0.50000000  1
  Pd  Pd2  1  0.00000000  0.22744700  0.22744700  1
  Pd  Pd3  1  0.00000000  0.77255300  0.77255300  1
