# generated using pymatgen
data_Tl2O
_symmetry_space_group_name_H-M   'P 1'
_cell_length_a   3.62562870
_cell_length_b   3.62562870
_cell_length_c   13.17192488
_cell_angle_alpha   82.20985289
_cell_angle_beta   82.20985289
_cell_angle_gamma   60.17597329
_symmetry_Int_Tables_number   1
_chemical_formula_structural   Tl2O
_chemical_formula_sum   'Tl4 O2'
_cell_volume   148.36060192
_cell_formula_units_Z   2
loop_
 _symmetry_equiv_pos_site_id
 _symmetry_equiv_pos_as_xyz
  1  'x, y, z'
loop_
 _atom_site_type_symbol
 _atom_site_label
 _atom_site_symmetry_multiplicity
 _atom_site_fract_x
 _atom_site_fract_y
 _atom_site_fract_z
 _atom_site_occupancy
  Tl  Tl0  1  0.12621900  0.12621900  0.63533000  1
  Tl  Tl1  1  0.28417600  0.28417600  0.13280200  1
  Tl  Tl2  1  0.87378100  0.87378100  0.36467000  1
  Tl  Tl3  1  0.71582400  0.71582400  0.86719800  1
  O  O4  1  0.57647400  0.57647400  0.24899300  1
  O  O5  1  0.42352600  0.42352600  0.75100700  1
