# generated using pymatgen
data_Rb4CO4
_symmetry_space_group_name_H-M   'P 1'
_cell_length_a   6.45482500
_cell_length_b   6.45482500
_cell_length_c   6.11134410
_cell_angle_alpha   66.88914832
_cell_angle_beta   66.88914832
_cell_angle_gamma   55.13156307
_symmetry_Int_Tables_number   1
_chemical_formula_structural   Rb4CO4
_chemical_formula_sum   'Rb4 C1 O4'
_cell_volume   187.31878960
_cell_formula_units_Z   1
loop_
 _symmetry_equiv_pos_site_id
 _symmetry_equiv_pos_as_xyz
  1  'x, y, z'
loop_
 _atom_site_type_symbol
 _atom_site_label
 _atom_site_symmetry_multiplicity
 _atom_site_fract_x
 _atom_site_fract_y
 _atom_site_fract_z
 _atom_site_occupancy
  Rb  Rb0  1  0.15129200  0.55157800  0.46097000  1
  Rb  Rb1  1  0.84074400  0.43750300  0.11777600  1
  Rb  Rb2  1  0.56249700  0.15925600  0.88222400  1
  Rb  Rb3  1  0.44842200  0.84870800  0.53903000  1
  C  C4  1  0.07135600  0.92864400  0.00000000  1
  O  O5  1  0.84673600  0.98644100  0.20366600  1
  O  O6  1  0.12680600  0.70991200  0.93217500  1
  O  O7  1  0.29008800  0.87319400  0.06782500  1
  O  O8  1  0.01355900  0.15326400  0.79633400  1
