# generated using pymatgen
data_Sr2CoWO6
_symmetry_space_group_name_H-M   'P 1'
_cell_length_a   5.69141214
_cell_length_b   5.68769811
_cell_length_c   5.68361333
_cell_angle_alpha   59.94712873
_cell_angle_beta   60.12147805
_cell_angle_gamma   60.05534928
_symmetry_Int_Tables_number   1
_chemical_formula_structural   Sr2CoWO6
_chemical_formula_sum   'Sr2 Co1 W1 O6'
_cell_volume   130.21787483
_cell_formula_units_Z   1
loop_
 _symmetry_equiv_pos_site_id
 _symmetry_equiv_pos_as_xyz
  1  'x, y, z'
loop_
 _atom_site_type_symbol
 _atom_site_label
 _atom_site_symmetry_multiplicity
 _atom_site_fract_x
 _atom_site_fract_y
 _atom_site_fract_z
 _atom_site_occupancy
  Sr  Sr0  1  0.25107500  0.24962000  0.24975600  1
  Sr  Sr1  1  0.74892500  0.75038000  0.75024400  1
  Co  Co2  1  0.50000000  0.50000000  0.50000000  1
  W  W3  1  0.00000000  0.00000000  0.00000000  1
  O  O4  1  0.24166600  0.75843600  0.75821400  1
  O  O5  1  0.75833400  0.24156400  0.24178600  1
  O  O6  1  0.75760500  0.24226000  0.75794500  1
  O  O7  1  0.24239500  0.75774100  0.24205500  1
  O  O8  1  0.24199000  0.24181800  0.75793400  1
  O  O9  1  0.75800900  0.75818200  0.24206600  1
