# generated using pymatgen
data_Ca3CoRhO6
_symmetry_space_group_name_H-M   'P 1'
_cell_length_a   6.50864918
_cell_length_b   8.95246782
_cell_length_c   9.26250693
_cell_angle_alpha   89.75654734
_cell_angle_beta   89.78903623
_cell_angle_gamma   92.49098052
_symmetry_Int_Tables_number   1
_chemical_formula_structural   Ca3CoRhO6
_chemical_formula_sum   'Ca12 Co4 Rh4 O24'
_cell_volume   539.19323565
_cell_formula_units_Z   4
loop_
 _symmetry_equiv_pos_site_id
 _symmetry_equiv_pos_as_xyz
  1  'x, y, z'
loop_
 _atom_site_type_symbol
 _atom_site_label
 _atom_site_symmetry_multiplicity
 _atom_site_fract_x
 _atom_site_fract_y
 _atom_site_fract_z
 _atom_site_occupancy
  Ca  Ca0  1  0.61298700  0.56926500  0.68367100  1
  Ca  Ca1  1  0.61187500  0.06859500  0.18338900  1
  Ca  Ca2  1  0.88693600  0.43073800  0.18279900  1
  Ca  Ca3  1  0.88748500  0.93124800  0.68290800  1
  Ca  Ca4  1  0.24991400  0.75014400  0.13389200  1
  Ca  Ca5  1  0.24958800  0.25063700  0.63432600  1
  Ca  Ca6  1  0.11321100  0.56934100  0.81711700  1
  Ca  Ca7  1  0.11249400  0.06894000  0.31692800  1
  Ca  Ca8  1  0.75015500  0.24989100  0.86599700  1
  Ca  Ca9  1  0.74974600  0.74935400  0.36571500  1
  Ca  Ca10  1  0.38669200  0.43084600  0.31647000  1
  Ca  Ca11  1  0.38813100  0.93128100  0.81649200  1
  Co  Co12  1  0.25118500  0.74878100  0.49317300  1
  Co  Co13  1  0.74760200  0.25192300  0.50606000  1
  Co  Co14  1  0.25064000  0.24953300  0.99319700  1
  Co  Co15  1  0.74934400  0.75051400  0.00677600  1
  Rh  Rh16  1  0.50010400  0.49998100  0.00003600  1
  Rh  Rh17  1  0.50028300  0.99992900  0.49989500  1
  Rh  Rh18  1  0.00006800  0.00001600  0.00006600  1
  Rh  Rh19  1  0.99997500  0.50001000  0.50026300  1
  O  O20  1  0.54962300  0.30826200  0.10429600  1
  O  O21  1  0.55140400  0.80898700  0.60470200  1
  O  O22  1  0.20348400  0.47331000  0.06655200  1
  O  O23  1  0.20410600  0.97438000  0.56649800  1
  O  O24  1  0.40840400  0.37190700  0.83019900  1
  O  O25  1  0.40685200  0.86976400  0.33112400  1
  O  O26  1  0.04882800  0.80889800  0.89546100  1
  O  O27  1  0.04704600  0.30829400  0.39586600  1
  O  O28  1  0.91194900  0.37421200  0.67223000  1
  O  O29  1  0.90844800  0.87236600  0.17051100  1
  O  O30  1  0.70221800  0.47149100  0.43418900  1
  O  O31  1  0.70299700  0.97320500  0.93350700  1
  O  O32  1  0.45060100  0.69171800  0.89573500  1
  O  O33  1  0.44852500  0.19087200  0.39493400  1
  O  O34  1  0.79675200  0.52660100  0.93367500  1
  O  O35  1  0.79619700  0.02522100  0.43342100  1
  O  O36  1  0.59187400  0.62790900  0.16990700  1
  O  O37  1  0.59372100  0.13046700  0.66842200  1
  O  O38  1  0.95136100  0.19113100  0.10464300  1
  O  O39  1  0.95244700  0.69151000  0.60464700  1
  O  O40  1  0.08846900  0.62598300  0.32826200  1
  O  O41  1  0.09171800  0.12750800  0.82952300  1
  O  O42  1  0.29750000  0.52827300  0.56610700  1
  O  O43  1  0.29706000  0.02676400  0.06641800  1
