# generated using pymatgen
data_Rb4CO4
_symmetry_space_group_name_H-M   'P 1'
_cell_length_a   6.74249470
_cell_length_b   6.74249470
_cell_length_c   6.74249470
_cell_angle_alpha   131.40230074
_cell_angle_beta   122.86971969
_cell_angle_gamma   78.22478301
_symmetry_Int_Tables_number   1
_chemical_formula_structural   Rb4CO4
_chemical_formula_sum   'Rb4 C1 O4'
_cell_volume   187.18451086
_cell_formula_units_Z   1
loop_
 _symmetry_equiv_pos_site_id
 _symmetry_equiv_pos_as_xyz
  1  'x, y, z'
loop_
 _atom_site_type_symbol
 _atom_site_label
 _atom_site_symmetry_multiplicity
 _atom_site_fract_x
 _atom_site_fract_y
 _atom_site_fract_z
 _atom_site_occupancy
  Rb  Rb0  1  0.88084700  0.46600000  0.05948300  1
  Rb  Rb1  1  0.40651600  0.82136400  0.94051700  1
  Rb  Rb2  1  0.11915300  0.17863600  0.58515300  1
  Rb  Rb3  1  0.59348400  0.53400000  0.41484700  1
  C  C4  1  0.00000000  0.00000000  0.00000000  1
  O  O5  1  0.04685900  0.77037700  0.98069200  1
  O  O6  1  0.95314100  0.93383300  0.72351800  1
  O  O7  1  0.21031500  0.22962300  0.27648200  1
  O  O8  1  0.78968500  0.06616700  0.01930800  1
