# generated using pymatgen
data_K4CO4
_symmetry_space_group_name_H-M   'P 1'
_cell_length_a   6.54558107
_cell_length_b   6.54558107
_cell_length_c   6.54558107
_cell_angle_alpha   99.80941622
_cell_angle_beta   99.80941622
_cell_angle_gamma   131.24324069
_symmetry_Int_Tables_number   1
_chemical_formula_structural   K4CO4
_chemical_formula_sum   'K4 C1 O4'
_cell_volume   192.06874896
_cell_formula_units_Z   1
loop_
 _symmetry_equiv_pos_site_id
 _symmetry_equiv_pos_as_xyz
  1  'x, y, z'
loop_
 _atom_site_type_symbol
 _atom_site_label
 _atom_site_symmetry_multiplicity
 _atom_site_fract_x
 _atom_site_fract_y
 _atom_site_fract_z
 _atom_site_occupancy
  K  K0  1  0.83399900  0.83399900  0.35038300  1
  K  K1  1  0.51638400  0.16600100  0.00000000  1
  K  K2  1  0.16600100  0.51638400  0.00000000  1
  K  K3  1  0.48361600  0.48361600  0.64961700  1
  C  C4  1  0.00000000  0.00000000  0.00000000  1
  O  O5  1  0.25048800  0.25048800  0.19991400  1
  O  O6  1  0.74951200  0.94942600  0.00000000  1
  O  O7  1  0.94942600  0.74951200  0.00000000  1
  O  O8  1  0.05057400  0.05057400  0.80008600  1
