# generated using pymatgen
data_Co(ReO4)2
_symmetry_space_group_name_H-M   'P 1'
_cell_length_a   5.79519046
_cell_length_b   10.03978130
_cell_length_c   6.68426473
_cell_angle_alpha   90.11285397
_cell_angle_beta   90.24216891
_cell_angle_gamma   89.83970219
_symmetry_Int_Tables_number   1
_chemical_formula_structural   Co(ReO4)2
_chemical_formula_sum   'Co2 Re4 O16'
_cell_volume   388.90112321
_cell_formula_units_Z   2
loop_
 _symmetry_equiv_pos_site_id
 _symmetry_equiv_pos_as_xyz
  1  'x, y, z'
loop_
 _atom_site_type_symbol
 _atom_site_label
 _atom_site_symmetry_multiplicity
 _atom_site_fract_x
 _atom_site_fract_y
 _atom_site_fract_z
 _atom_site_occupancy
  Co  Co0  1  0.49999800  0.49999600  0.99999800  1
  Co  Co1  1  0.00000100  0.00000100  0.00000100  1
  Re  Re2  1  0.49876100  0.83224800  0.73308100  1
  Re  Re3  1  0.99813300  0.33196600  0.73278800  1
  Re  Re4  1  0.50124800  0.16775600  0.26693100  1
  Re  Re5  1  0.00186200  0.66803600  0.26719700  1
  O  O6  1  0.49949200  0.83398300  0.47357600  1
  O  O7  1  0.99950700  0.33343000  0.47332000  1
  O  O8  1  0.50050900  0.16601600  0.52643400  1
  O  O9  1  0.00048700  0.66656700  0.52666300  1
  O  O10  1  0.74990100  0.90970300  0.82403400  1
  O  O11  1  0.25011200  0.40882400  0.82349100  1
  O  O12  1  0.25520000  0.91864200  0.82147200  1
  O  O13  1  0.75436200  0.41901000  0.81969200  1
  O  O14  1  0.74480100  0.08135600  0.17854000  1
  O  O15  1  0.24562200  0.58099000  0.18030200  1
  O  O16  1  0.50963400  0.33337900  0.18264500  1
  O  O17  1  0.01124800  0.83341700  0.18216400  1
  O  O18  1  0.25010500  0.09030000  0.17598200  1
  O  O19  1  0.74989100  0.59117100  0.17650000  1
  O  O20  1  0.49037300  0.66661800  0.81736800  1
  O  O21  1  0.98875200  0.16659100  0.81782000  1
