# generated using pymatgen
data_AgClO2
_symmetry_space_group_name_H-M   'P 1'
_cell_length_a   4.84239808
_cell_length_b   4.84239808
_cell_length_c   7.02282700
_cell_angle_alpha   90.00000000
_cell_angle_beta   90.00000000
_cell_angle_gamma   90.36659000
_symmetry_Int_Tables_number   1
_chemical_formula_structural   AgClO2
_chemical_formula_sum   'Ag2 Cl2 O4'
_cell_volume   164.67362986
_cell_formula_units_Z   2
loop_
 _symmetry_equiv_pos_site_id
 _symmetry_equiv_pos_as_xyz
  1  'x, y, z'
loop_
 _atom_site_type_symbol
 _atom_site_label
 _atom_site_symmetry_multiplicity
 _atom_site_fract_x
 _atom_site_fract_y
 _atom_site_fract_z
 _atom_site_occupancy
  Ag  Ag0  1  0.75000000  0.25000000  0.88944000  1
  Ag  Ag1  1  0.25000000  0.75000000  0.11056000  1
  Cl  Cl2  1  0.25000000  0.75000000  0.66415600  1
  Cl  Cl3  1  0.75000000  0.25000000  0.33584400  1
  O  O4  1  0.43030600  0.56969400  0.80804300  1
  O  O5  1  0.56969400  0.43030600  0.19195700  1
  O  O6  1  0.93030600  0.06969400  0.19195700  1
  O  O7  1  0.06969400  0.93030600  0.80804300  1
