# generated using pymatgen
data_CoO2
_symmetry_space_group_name_H-M   'P 1'
_cell_length_a   2.82034650
_cell_length_b   10.22308554
_cell_length_c   4.94034351
_cell_angle_alpha   80.40981511
_cell_angle_beta   89.98149728
_cell_angle_gamma   90.31461126
_symmetry_Int_Tables_number   1
_chemical_formula_structural   CoO2
_chemical_formula_sum   'Co2 O4'
_cell_volume   140.45023406
_cell_formula_units_Z   2
loop_
 _symmetry_equiv_pos_site_id
 _symmetry_equiv_pos_as_xyz
  1  'x, y, z'
loop_
 _atom_site_type_symbol
 _atom_site_label
 _atom_site_symmetry_multiplicity
 _atom_site_fract_x
 _atom_site_fract_y
 _atom_site_fract_z
 _atom_site_occupancy
  Co  Co0  1  0.99717300  0.99327400  0.00317100  1
  Co  Co1  1  0.49717400  0.99327400  0.50316900  1
  O  O2  1  0.99937100  0.08670900  0.63846500  1
  O  O3  1  0.49939600  0.08665300  0.13857500  1
  O  O4  1  0.99495400  0.90001700  0.36786500  1
  O  O5  1  0.49493100  0.90007300  0.86775500  1
