# generated using pymatgen
data_K4CO4
_symmetry_space_group_name_H-M   'P 1'
_cell_length_a   6.11228834
_cell_length_b   6.11228834
_cell_length_c   5.67910082
_cell_angle_alpha   67.55580268
_cell_angle_beta   67.55580268
_cell_angle_gamma   55.65219367
_symmetry_Int_Tables_number   1
_chemical_formula_structural   K4CO4
_chemical_formula_sum   'K4 C1 O4'
_cell_volume   158.01051460
_cell_formula_units_Z   1
loop_
 _symmetry_equiv_pos_site_id
 _symmetry_equiv_pos_as_xyz
  1  'x, y, z'
loop_
 _atom_site_type_symbol
 _atom_site_label
 _atom_site_symmetry_multiplicity
 _atom_site_fract_x
 _atom_site_fract_y
 _atom_site_fract_z
 _atom_site_occupancy
  K  K0  1  0.81288100  0.88535100  0.48197000  1
  K  K1  1  0.51307500  0.76111600  0.13291100  1
  K  K2  1  0.11464900  0.18711900  0.51803000  1
  K  K3  1  0.23888400  0.48692500  0.86708900  1
  C  C4  1  0.74292100  0.25707900  0.00000000  1
  O  O5  1  0.80192600  0.03087300  0.91909100  1
  O  O6  1  0.96912700  0.19807400  0.08090900  1
  O  O7  1  0.50459800  0.31545600  0.21425800  1
  O  O8  1  0.68454400  0.49540200  0.78574200  1
