# generated using pymatgen
data_SiO2
_symmetry_space_group_name_H-M   'P 1'
_cell_length_a   12.63468761
_cell_length_b   12.63468761
_cell_length_c   12.63468761
_cell_angle_alpha   132.69106611
_cell_angle_beta   132.69106611
_cell_angle_gamma   69.13972872
_symmetry_Int_Tables_number   1
_chemical_formula_structural   SiO2
_chemical_formula_sum   'Si16 O32'
_cell_volume   1069.41896907
_cell_formula_units_Z   16
loop_
 _symmetry_equiv_pos_site_id
 _symmetry_equiv_pos_as_xyz
  1  'x, y, z'
loop_
 _atom_site_type_symbol
 _atom_site_label
 _atom_site_symmetry_multiplicity
 _atom_site_fract_x
 _atom_site_fract_y
 _atom_site_fract_z
 _atom_site_occupancy
  Si  Si0  1  0.48166900  0.67302200  0.51098600  1
  Si  Si1  1  0.02931700  0.51833100  0.19135300  1
  Si  Si2  1  0.16203600  0.67302200  0.19135300  1
  Si  Si3  1  0.72068300  0.41203600  0.98901400  1
  Si  Si4  1  0.02931700  0.83796400  0.51098600  1
  Si  Si5  1  0.42302200  0.41203600  0.69135300  1
  Si  Si6  1  0.72068300  0.73166900  0.30864700  1
  Si  Si7  1  0.42302200  0.73166900  0.01098600  1
  Si  Si8  1  0.16203600  0.97068300  0.48901400  1
  Si  Si9  1  0.48166900  0.97068300  0.80864700  1
  Si  Si10  1  0.26833100  0.57697800  0.98901400  1
  Si  Si11  1  0.58796400  0.27931700  0.01098600  1
  Si  Si12  1  0.32697800  0.83796400  0.80864700  1
  Si  Si13  1  0.32697800  0.51833100  0.48901400  1
  Si  Si14  1  0.26833100  0.27931700  0.69135300  1
  Si  Si15  1  0.58796400  0.57697800  0.30864700  1
  O  O16  1  0.58448400  0.36784800  0.78336400  1
  O  O17  1  0.32729200  0.97205200  0.64475900  1
  O  O18  1  0.32729200  0.68253300  0.35524000  1
  O  O19  1  0.42270700  0.27794800  0.85524100  1
  O  O20  1  0.31746700  0.67270700  0.64476000  1
  O  O21  1  0.19887900  0.41551500  0.78336400  1
  O  O22  1  0.43253300  0.57729200  0.85524100  1
  O  O23  1  0.87500000  0.84465400  0.46965400  1
  O  O24  1  0.59465400  0.12500000  0.96965400  1
  O  O25  1  0.04979100  0.54979100  0.09958300  1
  O  O26  1  0.63215200  0.41551500  0.21663600  1
  O  O27  1  0.42270700  0.56746700  0.14475900  1
  O  O28  1  0.72205200  0.57729200  0.14475900  1
  O  O29  1  0.02794800  0.67270700  0.35524100  1
  O  O30  1  0.45020800  0.95020800  0.90041700  1
  O  O31  1  0.70020800  0.70020800  0.40041700  1
  O  O32  1  0.59465400  0.62500000  0.46965400  1
  O  O33  1  0.16551500  0.88215200  0.71663600  1
  O  O34  1  0.70020800  0.29979100  0.00000000  1
  O  O35  1  0.15534500  0.62500000  0.03034500  1
  O  O36  1  0.11784800  0.83448400  0.28336400  1
  O  O37  1  0.16551500  0.44887900  0.28336300  1
  O  O38  1  0.04979100  0.95020800  0.50000000  1
  O  O39  1  0.29979100  0.70020900  0.00000000  1
  O  O40  1  0.58448400  0.80112100  0.21663600  1
  O  O41  1  0.37500000  0.40534500  0.53034500  1
  O  O42  1  0.45020800  0.54979100  0.50000000  1
  O  O43  1  0.29979100  0.29979100  0.59958300  1
  O  O44  1  0.55112100  0.83448400  0.71663700  1
  O  O45  1  0.37500000  0.84465400  0.96965400  1
  O  O46  1  0.15534500  0.12500000  0.53034500  1
  O  O47  1  0.87500000  0.40534500  0.03034500  1
