# generated using pymatgen
data_SiO2
_symmetry_space_group_name_H-M   'P 1'
_cell_length_a   4.25179900
_cell_length_b   4.30370500
_cell_length_c   8.26182406
_cell_angle_alpha   59.54332185
_cell_angle_beta   90.00000000
_cell_angle_gamma   90.00000000
_symmetry_Int_Tables_number   1
_chemical_formula_structural   SiO2
_chemical_formula_sum   'Si4 O8'
_cell_volume   130.31812132
_cell_formula_units_Z   4
loop_
 _symmetry_equiv_pos_site_id
 _symmetry_equiv_pos_as_xyz
  1  'x, y, z'
loop_
 _atom_site_type_symbol
 _atom_site_label
 _atom_site_symmetry_multiplicity
 _atom_site_fract_x
 _atom_site_fract_y
 _atom_site_fract_z
 _atom_site_occupancy
  Si  Si0  1  0.13779400  0.30173200  0.12070700  1
  Si  Si1  1  0.54744300  0.01697900  0.99567100  1
  Si  Si2  1  0.45255700  0.01697900  0.49567100  1
  Si  Si3  1  0.86220600  0.30173200  0.62070700  1
  O  O4  1  0.24774000  0.99180800  0.33645900  1
  O  O5  1  0.71554800  0.33512600  0.42669700  1
  O  O6  1  0.28445200  0.33512600  0.92669700  1
  O  O7  1  0.69193400  0.66206100  0.60856400  1
  O  O8  1  0.78459300  0.13966300  0.11671100  1
  O  O9  1  0.21540700  0.13966300  0.61671100  1
  O  O10  1  0.75226000  0.99180800  0.83645900  1
  O  O11  1  0.30806600  0.66206100  0.10856400  1
