# generated using pymatgen
data_CSNO3
_symmetry_space_group_name_H-M   'P 1'
_cell_length_a   5.49003725
_cell_length_b   5.49003725
_cell_length_c   12.43922986
_cell_angle_alpha   84.98684908
_cell_angle_beta   84.98684908
_cell_angle_gamma   98.64207615
_symmetry_Int_Tables_number   1
_chemical_formula_structural   CSNO3
_chemical_formula_sum   'C4 S4 N4 O12'
_cell_volume   367.32188988
_cell_formula_units_Z   4
loop_
 _symmetry_equiv_pos_site_id
 _symmetry_equiv_pos_as_xyz
  1  'x, y, z'
loop_
 _atom_site_type_symbol
 _atom_site_label
 _atom_site_symmetry_multiplicity
 _atom_site_fract_x
 _atom_site_fract_y
 _atom_site_fract_z
 _atom_site_occupancy
  C  C0  1  0.98743900  0.87779000  0.47665800  1
  C  C1  1  0.12221000  0.01256100  0.02334200  1
  C  C2  1  0.87779000  0.98743900  0.97665800  1
  C  C3  1  0.01256100  0.12221000  0.52334200  1
  S  S4  1  0.31917500  0.19408700  0.36981400  1
  S  S5  1  0.68082500  0.80591300  0.63018600  1
  S  S6  1  0.80591300  0.68082500  0.13018600  1
  S  S7  1  0.19408700  0.31917500  0.86981400  1
  N  N8  1  0.82101000  0.70101500  0.52481500  1
  N  N9  1  0.29898500  0.17899000  0.97518500  1
  N  N10  1  0.70101500  0.82101000  0.02481500  1
  N  N11  1  0.17899000  0.29898500  0.47518500  1
  O  O12  1  0.85712700  0.12157000  0.60910900  1
  O  O13  1  0.56803300  0.16690100  0.38580300  1
  O  O14  1  0.74703700  0.70256900  0.73043900  1
  O  O15  1  0.29743100  0.25296300  0.76956100  1
  O  O16  1  0.83309900  0.43196700  0.11419700  1
  O  O17  1  0.70256900  0.74703700  0.23043900  1
  O  O18  1  0.43196700  0.83309900  0.61419700  1
  O  O19  1  0.12157000  0.85712700  0.10910900  1
  O  O20  1  0.16690100  0.56803300  0.88580300  1
  O  O21  1  0.14287300  0.87843000  0.39089100  1
  O  O22  1  0.25296300  0.29743100  0.26956100  1
  O  O23  1  0.87843000  0.14287300  0.89089100  1
