# generated using pymatgen
data_Ba4B2N4O
_symmetry_space_group_name_H-M   'P 1'
_cell_length_a   8.76928920
_cell_length_b   8.76928920
_cell_length_c   7.41952400
_cell_angle_alpha   90.00000000
_cell_angle_beta   90.00000000
_cell_angle_gamma   130.19403287
_symmetry_Int_Tables_number   1
_chemical_formula_structural   Ba4B2N4O
_chemical_formula_sum   'Ba8 B4 N8 O2'
_cell_volume   435.83333390
_cell_formula_units_Z   2
loop_
 _symmetry_equiv_pos_site_id
 _symmetry_equiv_pos_as_xyz
  1  'x, y, z'
loop_
 _atom_site_type_symbol
 _atom_site_label
 _atom_site_symmetry_multiplicity
 _atom_site_fract_x
 _atom_site_fract_y
 _atom_site_fract_z
 _atom_site_occupancy
  Ba  Ba0  1  0.32573400  0.67426600  0.50000000  1
  Ba  Ba1  1  0.69319400  0.69319400  0.19320900  1
  Ba  Ba2  1  0.30680600  0.30680600  0.80679100  1
  Ba  Ba3  1  0.19319400  0.19319400  0.30679100  1
  Ba  Ba4  1  0.82573400  0.17426600  0.00000000  1
  Ba  Ba5  1  0.67426600  0.32573400  0.50000000  1
  Ba  Ba6  1  0.80680600  0.80680600  0.69320900  1
  Ba  Ba7  1  0.17426600  0.82573400  0.00000000  1
  B  B8  1  0.36267400  0.63732600  0.00000000  1
  B  B9  1  0.63732600  0.36267400  0.00000000  1
  B  B10  1  0.13732600  0.86267400  0.50000000  1
  B  B11  1  0.86267400  0.13732600  0.50000000  1
  N  N12  1  0.99490400  0.26317400  0.62853100  1
  N  N13  1  0.76317400  0.49490400  0.87146900  1
  N  N14  1  0.49490400  0.76317400  0.87146900  1
  N  N15  1  0.50509600  0.23682500  0.12853100  1
  N  N16  1  0.00509600  0.73682500  0.37146900  1
  N  N17  1  0.26317400  0.99490400  0.62853100  1
  N  N18  1  0.73682600  0.00509600  0.37146900  1
  N  N19  1  0.23682600  0.50509600  0.12853100  1
  O  O20  1  0.50000000  0.50000000  0.50000000  1
  O  O21  1  0.00000000  0.00000000  0.00000000  1
