# generated using pymatgen
data_K2Na4Ge2O7
_symmetry_space_group_name_H-M   'P 1'
_cell_length_a   29.60626300
_cell_length_b   6.06764400
_cell_length_c   6.09489502
_cell_angle_alpha   60.28907505
_cell_angle_beta   90.00000000
_cell_angle_gamma   90.00000000
_symmetry_Int_Tables_number   1
_chemical_formula_structural   K2Na4Ge2O7
_chemical_formula_sum   'K8 Na16 Ge8 O28'
_cell_volume   950.95124669
_cell_formula_units_Z   4
loop_
 _symmetry_equiv_pos_site_id
 _symmetry_equiv_pos_as_xyz
  1  'x, y, z'
loop_
 _atom_site_type_symbol
 _atom_site_label
 _atom_site_symmetry_multiplicity
 _atom_site_fract_x
 _atom_site_fract_y
 _atom_site_fract_z
 _atom_site_occupancy
  K  K0  1  0.24660300  0.02035800  0.69990100  1
  K  K1  1  0.74660300  0.97964200  0.30009900  1
  K  K2  1  0.55217000  0.44789700  0.96342700  1
  K  K3  1  0.05217000  0.55210300  0.03657300  1
  K  K4  1  0.05209000  0.88542800  0.35250700  1
  K  K5  1  0.55209000  0.11457200  0.64749300  1
  K  K6  1  0.85291000  0.19286600  0.43852000  1
  K  K7  1  0.35291000  0.80713400  0.56148000  1
  Na  Na8  1  0.34564200  0.18287900  0.89023400  1
  Na  Na9  1  0.44345400  0.79159600  0.90773000  1
  Na  Na10  1  0.66619600  0.35800700  0.29293900  1
  Na  Na11  1  0.84564200  0.81712100  0.10976600  1
  Na  Na12  1  0.26589600  0.66158400  0.33041300  1
  Na  Na13  1  0.94345400  0.20840400  0.09227000  1
  Na  Na14  1  0.44134700  0.39856900  0.70363700  1
  Na  Na15  1  0.94760100  0.77752200  0.70782900  1
  Na  Na16  1  0.94134700  0.60143100  0.29636300  1
  Na  Na17  1  0.16619600  0.64199300  0.70706100  1
  Na  Na18  1  0.16804100  0.83889800  0.11414700  1
  Na  Na19  1  0.76589600  0.33841600  0.66958700  1
  Na  Na20  1  0.44760100  0.22247800  0.29217100  1
  Na  Na21  1  0.16174700  0.26144700  0.26328800  1
  Na  Na22  1  0.66804100  0.16110200  0.88585300  1
  Na  Na23  1  0.66174700  0.73855300  0.73671200  1
  Ge  Ge24  1  0.85633900  0.54881200  0.76856000  1
  Ge  Ge25  1  0.11228300  0.23785900  0.68800400  1
  Ge  Ge26  1  0.75529100  0.67946600  0.93636800  1
  Ge  Ge27  1  0.50081400  0.81050100  0.29959200  1
  Ge  Ge28  1  0.35633900  0.45118800  0.23144000  1
  Ge  Ge29  1  0.61228300  0.76214100  0.31199600  1
  Ge  Ge30  1  0.00081400  0.18949900  0.70040800  1
  Ge  Ge31  1  0.25529100  0.32053400  0.06363200  1
  O  O32  1  0.05844000  0.11391200  0.64745900  1
  O  O33  1  0.77618400  0.58719900  0.23991600  1
  O  O34  1  0.62196100  0.45867200  0.57978100  1
  O  O35  1  0.11450400  0.25309400  0.97009800  1
  O  O36  1  0.27618400  0.41280100  0.76008400  1
  O  O37  1  0.83839500  0.24203700  0.85011200  1
  O  O38  1  0.30471800  0.25811900  0.27529300  1
  O  O39  1  0.48377600  0.07430500  0.00772600  1
  O  O40  1  0.22561300  0.02814100  0.22075500  1
  O  O41  1  0.80471800  0.74188100  0.72470700  1
  O  O42  1  0.22028300  0.55597700  0.06871700  1
  O  O43  1  0.15095900  0.01305300  0.69164600  1
  O  O44  1  0.65095900  0.98694700  0.30835400  1
  O  O45  1  0.98377600  0.92569500  0.99227400  1
  O  O46  1  0.49631100  0.52400100  0.29218700  1
  O  O47  1  0.38479600  0.27186700  0.52431800  1
  O  O48  1  0.39080300  0.44922700  0.99265900  1
  O  O49  1  0.89080300  0.55077300  0.00734100  1
  O  O50  1  0.88479600  0.72813300  0.47568200  1
  O  O51  1  0.12196100  0.54132800  0.42021900  1
  O  O52  1  0.33839500  0.75796300  0.14988800  1
  O  O53  1  0.47133400  0.80259500  0.55697700  1
  O  O54  1  0.97133400  0.19740500  0.44302300  1
  O  O55  1  0.61450400  0.74690600  0.02990200  1
  O  O56  1  0.55844000  0.88608800  0.35254100  1
  O  O57  1  0.72028300  0.44402300  0.93128300  1
  O  O58  1  0.72561300  0.97185900  0.77924500  1
  O  O59  1  0.99631100  0.47599900  0.70781300  1
