# generated using pymatgen
data_BaTb2Mn2O7
_symmetry_space_group_name_H-M   'P 1'
_cell_length_a   10.35677827
_cell_length_b   10.35677827
_cell_length_c   5.60331803
_cell_angle_alpha   89.99829004
_cell_angle_beta   89.99829004
_cell_angle_gamma   148.23141635
_symmetry_Int_Tables_number   1
_chemical_formula_structural   BaTb2Mn2O7
_chemical_formula_sum   'Ba2 Tb4 Mn4 O14'
_cell_volume   316.43499716
_cell_formula_units_Z   2
loop_
 _symmetry_equiv_pos_site_id
 _symmetry_equiv_pos_as_xyz
  1  'x, y, z'
loop_
 _atom_site_type_symbol
 _atom_site_label
 _atom_site_symmetry_multiplicity
 _atom_site_fract_x
 _atom_site_fract_y
 _atom_site_fract_z
 _atom_site_occupancy
  Ba  Ba0  1  0.74125300  0.74125300  0.74589900  1
  Ba  Ba1  1  0.25874700  0.25874700  0.25410100  1
  Tb  Tb2  1  0.90596500  0.53948000  0.72690800  1
  Tb  Tb3  1  0.09403500  0.46052000  0.27309200  1
  Tb  Tb4  1  0.46052000  0.09403500  0.27309200  1
  Tb  Tb5  1  0.53948000  0.90596500  0.72690800  1
  Mn  Mn6  1  0.14093700  0.34921600  0.75534700  1
  Mn  Mn7  1  0.65078400  0.85906300  0.24465300  1
  Mn  Mn8  1  0.85906300  0.65078400  0.24465300  1
  Mn  Mn9  1  0.34921600  0.14093700  0.75534700  1
  O  O10  1  0.11825000  0.88175000  0.50000000  1
  O  O11  1  0.40000400  0.59999600  0.50000000  1
  O  O12  1  0.53544800  0.11446300  0.71649100  1
  O  O13  1  0.46455200  0.88553700  0.28350900  1
  O  O14  1  0.12754600  0.87245400  0.00000000  1
  O  O15  1  0.87245400  0.12754600  0.00000000  1
  O  O16  1  0.59999600  0.40000400  0.50000000  1
  O  O17  1  0.88553700  0.46455200  0.28350900  1
  O  O18  1  0.22000000  0.22000000  0.76442700  1
  O  O19  1  0.11446300  0.53544800  0.71649100  1
  O  O20  1  0.39146400  0.60853600  0.00000000  1
  O  O21  1  0.60853600  0.39146400  0.00000000  1
  O  O22  1  0.78000000  0.78000000  0.23557300  1
  O  O23  1  0.88175000  0.11825000  0.50000000  1
