# generated using pymatgen
data_MoPCl5O3
_symmetry_space_group_name_H-M   'P 1'
_cell_length_a   15.49338700
_cell_length_b   8.90008700
_cell_length_c   16.70290203
_cell_angle_alpha   64.03531422
_cell_angle_beta   90.00000000
_cell_angle_gamma   90.00000000
_symmetry_Int_Tables_number   1
_chemical_formula_structural   MoPCl5O3
_chemical_formula_sum   'Mo8 P8 Cl40 O24'
_cell_volume   2070.72866000
_cell_formula_units_Z   8
loop_
 _symmetry_equiv_pos_site_id
 _symmetry_equiv_pos_as_xyz
  1  'x, y, z'
loop_
 _atom_site_type_symbol
 _atom_site_label
 _atom_site_symmetry_multiplicity
 _atom_site_fract_x
 _atom_site_fract_y
 _atom_site_fract_z
 _atom_site_occupancy
  Mo  Mo0  1  0.44541400  0.98379900  0.75546900  1
  Mo  Mo1  1  0.30382400  0.95883500  0.26075500  1
  Mo  Mo2  1  0.94541400  0.01620100  0.74453100  1
  Mo  Mo3  1  0.80382400  0.04116500  0.23924500  1
  Mo  Mo4  1  0.19617600  0.95883500  0.76075500  1
  Mo  Mo5  1  0.69617600  0.04116500  0.73924500  1
  Mo  Mo6  1  0.05458600  0.98379900  0.25546900  1
  Mo  Mo7  1  0.55458600  0.01620100  0.24453100  1
  P  P8  1  0.17214800  0.36312800  0.55459200  1
  P  P9  1  0.43459600  0.45654800  0.66813000  1
  P  P10  1  0.06540400  0.45654800  0.16813000  1
  P  P11  1  0.32785200  0.36312800  0.05459200  1
  P  P12  1  0.56540400  0.54345200  0.33187000  1
  P  P13  1  0.67214800  0.63687200  0.94540800  1
  P  P14  1  0.93459600  0.54345200  0.83187000  1
  P  P15  1  0.82785200  0.63687200  0.44540800  1
  Cl  Cl16  1  0.67825900  0.08404800  0.86756100  1
  Cl  Cl17  1  0.17409200  0.08019200  0.85817600  1
  Cl  Cl18  1  0.96059100  0.50101200  0.22364800  1
  Cl  Cl19  1  0.06943400  0.00391300  0.11186100  1
  Cl  Cl20  1  0.07059500  0.33210300  0.49048400  1
  Cl  Cl21  1  0.82174100  0.08404800  0.36756100  1
  Cl  Cl22  1  0.17825900  0.91595200  0.63243900  1
  Cl  Cl23  1  0.46059100  0.49898800  0.27635200  1
  Cl  Cl24  1  0.22604900  0.34517100  0.98683600  1
  Cl  Cl25  1  0.43235400  0.63844300  0.54432800  1
  Cl  Cl26  1  0.33528200  0.50332100  0.72962900  1
  Cl  Cl27  1  0.42940500  0.33210300  0.99048400  1
  Cl  Cl28  1  0.06764600  0.63844300  0.04432800  1
  Cl  Cl29  1  0.27395100  0.34517100  0.48683600  1
  Cl  Cl30  1  0.43056600  0.00391300  0.61186100  1
  Cl  Cl31  1  0.57809100  0.94631900  0.12610000  1
  Cl  Cl32  1  0.93056600  0.99608700  0.88813900  1
  Cl  Cl33  1  0.83188700  0.39818900  0.46669300  1
  Cl  Cl34  1  0.83528200  0.49667900  0.77037100  1
  Cl  Cl35  1  0.33188700  0.60181100  0.03330700  1
  Cl  Cl36  1  0.82590800  0.91980800  0.14182400  1
  Cl  Cl37  1  0.07809100  0.05368100  0.37390000  1
  Cl  Cl38  1  0.32590800  0.08019200  0.35817600  1
  Cl  Cl39  1  0.77395100  0.65482900  0.01316400  1
  Cl  Cl40  1  0.66471800  0.49667900  0.27037100  1
  Cl  Cl41  1  0.92940500  0.66789700  0.50951600  1
  Cl  Cl42  1  0.32174100  0.91595200  0.13243900  1
  Cl  Cl43  1  0.03940900  0.49898800  0.77635200  1
  Cl  Cl44  1  0.57059500  0.66789700  0.00951600  1
  Cl  Cl45  1  0.66811300  0.39818900  0.96669300  1
  Cl  Cl46  1  0.92190900  0.94631900  0.62610000  1
  Cl  Cl47  1  0.16811300  0.60181100  0.53330700  1
  Cl  Cl48  1  0.56764600  0.36155700  0.45567200  1
  Cl  Cl49  1  0.93235400  0.36155700  0.95567200  1
  Cl  Cl50  1  0.67409200  0.91980800  0.64182400  1
  Cl  Cl51  1  0.72604900  0.65482900  0.51316400  1
  Cl  Cl52  1  0.53940900  0.50101200  0.72364800  1
  Cl  Cl53  1  0.56943400  0.99608700  0.38813900  1
  Cl  Cl54  1  0.16471800  0.50332100  0.22962900  1
  Cl  Cl55  1  0.42190900  0.05368100  0.87390000  1
  O  O56  1  0.19952700  0.75421500  0.83655300  1
  O  O57  1  0.30894800  0.01057200  0.74378300  1
  O  O58  1  0.67433400  0.75106200  0.84888300  1
  O  O59  1  0.56737300  0.71140800  0.32986400  1
  O  O60  1  0.69105200  0.98942800  0.25621700  1
  O  O61  1  0.55662700  0.22809400  0.18555400  1
  O  O62  1  0.69952700  0.24578500  0.66344700  1
  O  O63  1  0.32566600  0.24893800  0.15111700  1
  O  O64  1  0.05662700  0.77190600  0.31444600  1
  O  O65  1  0.80894800  0.98942800  0.75621700  1
  O  O66  1  0.06737300  0.28859200  0.17013600  1
  O  O67  1  0.80047300  0.24578500  0.16344700  1
  O  O68  1  0.43262700  0.28859200  0.67013600  1
  O  O69  1  0.05941000  0.97439300  0.75332100  1
  O  O70  1  0.19105200  0.01057200  0.24378300  1
  O  O71  1  0.17433400  0.24893800  0.65111700  1
  O  O72  1  0.93262700  0.71140800  0.82986400  1
  O  O73  1  0.94337300  0.22809400  0.68555400  1
  O  O74  1  0.44337300  0.77190600  0.81444600  1
  O  O75  1  0.82566600  0.75106200  0.34888300  1
  O  O76  1  0.94059000  0.02560700  0.24667900  1
  O  O77  1  0.44059000  0.97439300  0.25332100  1
  O  O78  1  0.30047300  0.75421500  0.33655300  1
  O  O79  1  0.55941000  0.02560700  0.74667900  1
