# generated using pymatgen
data_ScVOs2
_symmetry_space_group_name_H-M   'P 1'
_cell_length_a   10.71508716
_cell_length_b   10.71508716
_cell_length_c   10.71508716
_cell_angle_alpha   129.00614847
_cell_angle_beta   117.32602293
_cell_angle_gamma   84.92516079
_symmetry_Int_Tables_number   1
_chemical_formula_structural   ScVOs2
_chemical_formula_sum   'Sc1 V1 Os2'
_cell_volume   812.70988957
_cell_formula_units_Z   1
loop_
 _symmetry_equiv_pos_site_id
 _symmetry_equiv_pos_as_xyz
  1  'x, y, z'
loop_
 _atom_site_type_symbol
 _atom_site_label
 _atom_site_symmetry_multiplicity
 _atom_site_fract_x
 _atom_site_fract_y
 _atom_site_fract_z
 _atom_site_occupancy
  Sc  Sc0  1  0.00000000  0.00000000  0.00000000  1
  V  V1  1  0.00000000  0.50000000  0.50000000  1
  Os  Os2  1  0.00000000  0.26288400  0.26288400  1
  Os  Os3  1  0.00000000  0.73711600  0.73711600  1
