# generated using pymatgen
data_PNClF
_symmetry_space_group_name_H-M   'P 1'
_cell_length_a   8.15397046
_cell_length_b   8.15397046
_cell_length_c   7.96907300
_cell_angle_alpha   90.00000000
_cell_angle_beta   90.00000000
_cell_angle_gamma   104.72194465
_symmetry_Int_Tables_number   1
_chemical_formula_structural   PNClF
_chemical_formula_sum   'P6 N6 Cl6 F6'
_cell_volume   512.44718311
_cell_formula_units_Z   6
loop_
 _symmetry_equiv_pos_site_id
 _symmetry_equiv_pos_as_xyz
  1  'x, y, z'
loop_
 _atom_site_type_symbol
 _atom_site_label
 _atom_site_symmetry_multiplicity
 _atom_site_fract_x
 _atom_site_fract_y
 _atom_site_fract_z
 _atom_site_occupancy
  P  P0  1  0.67186900  0.67186900  0.75928100  1
  P  P1  1  0.29989900  0.08598200  0.01200000  1
  P  P2  1  0.70010100  0.91401800  0.51200000  1
  P  P3  1  0.91401800  0.70010100  0.51200000  1
  P  P4  1  0.08598200  0.29989900  0.01200000  1
  P  P5  1  0.32813100  0.32813100  0.25928100  1
  N  N6  1  0.60282500  0.81454100  0.66905400  1
  N  N7  1  0.39717500  0.18545900  0.16905400  1
  N  N8  1  0.85541000  0.85541000  0.43377500  1
  N  N9  1  0.81454100  0.60282500  0.66905400  1
  N  N10  1  0.18545900  0.39717500  0.16905400  1
  N  N11  1  0.14459000  0.14459000  0.93377500  1
  Cl  Cl12  1  0.73682600  0.73682600  0.99652800  1
  Cl  Cl13  1  0.76549700  0.16291000  0.55632400  1
  Cl  Cl14  1  0.83709000  0.23450300  0.05632400  1
  Cl  Cl15  1  0.23450300  0.83709000  0.05632400  1
  Cl  Cl16  1  0.26317400  0.26317400  0.49652800  1
  Cl  Cl17  1  0.16291000  0.76549700  0.55632400  1
  F  F18  1  0.09319800  0.43417400  0.86931100  1
  F  F19  1  0.90680200  0.56582600  0.36931100  1
  F  F20  1  0.56582600  0.90680200  0.36931100  1
  F  F21  1  0.48366300  0.48366300  0.29123500  1
  F  F22  1  0.51633700  0.51633700  0.79123500  1
  F  F23  1  0.43417400  0.09319800  0.86931100  1
