# generated using pymatgen
data_CsAgSb4S7
_symmetry_space_group_name_H-M   'P 1'
_cell_length_a   13.97243503
_cell_length_b   13.97243503
_cell_length_c   12.53954349
_cell_angle_alpha   83.16528243
_cell_angle_beta   83.16528243
_cell_angle_gamma   37.49154667
_symmetry_Int_Tables_number   1
_chemical_formula_structural   CsAgSb4S7
_chemical_formula_sum   'Cs4 Ag4 Sb16 S28'
_cell_volume   1478.19816146
_cell_formula_units_Z   4
loop_
 _symmetry_equiv_pos_site_id
 _symmetry_equiv_pos_as_xyz
  1  'x, y, z'
loop_
 _atom_site_type_symbol
 _atom_site_label
 _atom_site_symmetry_multiplicity
 _atom_site_fract_x
 _atom_site_fract_y
 _atom_site_fract_z
 _atom_site_occupancy
  Cs  Cs0  1  0.50000000  0.00000000  0.50000000  1
  Cs  Cs1  1  0.33549300  0.66450700  0.25000000  1
  Cs  Cs2  1  0.00000000  0.50000000  0.00000000  1
  Cs  Cs3  1  0.66450700  0.33549300  0.75000000  1
  Ag  Ag4  1  0.15642500  0.35931900  0.31292100  1
  Ag  Ag5  1  0.84357500  0.64068100  0.68707900  1
  Ag  Ag6  1  0.35931900  0.15642500  0.81292100  1
  Ag  Ag7  1  0.64068100  0.84357500  0.18707900  1
  Sb  Sb8  1  0.25074700  0.04477200  0.17622000  1
  Sb  Sb9  1  0.44424700  0.27276700  0.06137600  1
  Sb  Sb10  1  0.27276700  0.44424700  0.56137600  1
  Sb  Sb11  1  0.04477200  0.25074700  0.67622000  1
  Sb  Sb12  1  0.98074000  0.87290400  0.57634300  1
  Sb  Sb13  1  0.62755000  0.21330700  0.37463500  1
  Sb  Sb14  1  0.55575300  0.72723300  0.93862400  1
  Sb  Sb15  1  0.95522800  0.74925300  0.32378000  1
  Sb  Sb16  1  0.72723300  0.55575300  0.43862400  1
  Sb  Sb17  1  0.87290400  0.98074000  0.07634300  1
  Sb  Sb18  1  0.01926000  0.12709600  0.42365700  1
  Sb  Sb19  1  0.78669300  0.37245000  0.12536500  1
  Sb  Sb20  1  0.74925300  0.95522800  0.82378000  1
  Sb  Sb21  1  0.37245000  0.78669300  0.62536500  1
  Sb  Sb22  1  0.21330700  0.62755000  0.87463500  1
  Sb  Sb23  1  0.12709600  0.01926000  0.92365700  1
  S  S24  1  0.67036800  0.02761200  0.29398800  1
  S  S25  1  0.26172900  0.06672600  0.97398800  1
  S  S26  1  0.37238100  0.72855200  0.95157500  1
  S  S27  1  0.87625800  0.64675600  0.30397500  1
  S  S28  1  0.35324400  0.12374200  0.19602500  1
  S  S29  1  0.19657100  0.58393900  0.06766600  1
  S  S30  1  0.80342900  0.41606100  0.93233400  1
  S  S31  1  0.93423500  0.98826700  0.39007600  1
  S  S32  1  0.27144800  0.62761900  0.54842500  1
  S  S33  1  0.72855200  0.37238100  0.45157500  1
  S  S34  1  0.12374200  0.35324400  0.69602500  1
  S  S35  1  0.64675600  0.87625800  0.80397500  1
  S  S36  1  0.01173300  0.06576500  0.10992400  1
  S  S37  1  0.97238800  0.32963200  0.20601200  1
  S  S38  1  0.06576500  0.01173300  0.60992400  1
  S  S39  1  0.29943600  0.40345800  0.36945100  1
  S  S40  1  0.41606100  0.80342900  0.43233400  1
  S  S41  1  0.70056400  0.59654200  0.63054900  1
  S  S42  1  0.93327400  0.73827100  0.52601200  1
  S  S43  1  0.06672600  0.26172900  0.47398800  1
  S  S44  1  0.62761900  0.27144800  0.04842500  1
  S  S45  1  0.59654200  0.70056400  0.13054900  1
  S  S46  1  0.98826700  0.93423500  0.89007600  1
  S  S47  1  0.40345800  0.29943600  0.86945100  1
  S  S48  1  0.02761200  0.67036800  0.79398800  1
  S  S49  1  0.32963200  0.97238800  0.70601200  1
  S  S50  1  0.58393900  0.19657100  0.56766600  1
  S  S51  1  0.73827100  0.93327400  0.02601200  1
