# generated using pymatgen
data_Fe3B7IO13
_symmetry_space_group_name_H-M   'P 1'
_cell_length_a   8.72679935
_cell_length_b   8.72679935
_cell_length_c   8.72679935
_cell_angle_alpha   60.00000000
_cell_angle_beta   60.00000000
_cell_angle_gamma   60.00000000
_symmetry_Int_Tables_number   1
_chemical_formula_structural   Fe3B7IO13
_chemical_formula_sum   'Fe6 B14 I2 O26'
_cell_volume   469.94818250
_cell_formula_units_Z   2
loop_
 _symmetry_equiv_pos_site_id
 _symmetry_equiv_pos_as_xyz
  1  'x, y, z'
loop_
 _atom_site_type_symbol
 _atom_site_label
 _atom_site_symmetry_multiplicity
 _atom_site_fract_x
 _atom_site_fract_y
 _atom_site_fract_z
 _atom_site_occupancy
  Fe  Fe0  1  0.50000000  0.00000000  0.00000000  1
  Fe  Fe1  1  0.00000000  0.00000000  0.50000000  1
  Fe  Fe2  1  0.50000000  0.00000000  0.50000000  1
  Fe  Fe3  1  0.00000000  0.50000000  0.50000000  1
  Fe  Fe4  1  0.00000000  0.50000000  0.00000000  1
  Fe  Fe5  1  0.50000000  0.50000000  0.00000000  1
  B  B6  1  0.25000000  0.25000000  0.75000000  1
  B  B7  1  0.75000000  0.25000000  0.75000000  1
  B  B8  1  0.75000000  0.25000000  0.25000000  1
  B  B9  1  0.25000000  0.75000000  0.25000000  1
  B  B10  1  0.25000000  0.75000000  0.75000000  1
  B  B11  1  0.75000000  0.75000000  0.25000000  1
  B  B12  1  0.57965100  0.26104800  0.57965100  1
  B  B13  1  0.26104800  0.57965100  0.57965100  1
  B  B14  1  0.57965100  0.57965100  0.26104800  1
  B  B15  1  0.57965100  0.57965100  0.57965100  1
  B  B16  1  0.07965100  0.07965100  0.76104800  1
  B  B17  1  0.76104800  0.07965100  0.07965100  1
  B  B18  1  0.07965100  0.76104800  0.07965100  1
  B  B19  1  0.07965100  0.07965100  0.07965100  1
  I  I20  1  0.75000000  0.75000000  0.75000000  1
  I  I21  1  0.25000000  0.25000000  0.25000000  1
  O  O22  1  0.50000000  0.50000000  0.50000000  1
  O  O23  1  0.00000000  0.00000000  0.00000000  1
  O  O24  1  0.75343000  0.20360600  0.43637000  1
  O  O25  1  0.43637000  0.20360600  0.60659400  1
  O  O26  1  0.60659400  0.20360600  0.75343000  1
  O  O27  1  0.20360600  0.75343000  0.60659400  1
  O  O28  1  0.20360600  0.43637000  0.75343000  1
  O  O29  1  0.20360600  0.60659400  0.43637000  1
  O  O30  1  0.60659400  0.43637000  0.20360600  1
  O  O31  1  0.75343000  0.60659400  0.20360600  1
  O  O32  1  0.43637000  0.75343000  0.20360600  1
  O  O33  1  0.43637000  0.60659400  0.75343000  1
  O  O34  1  0.60659400  0.75343000  0.43637000  1
  O  O35  1  0.75343000  0.43637000  0.60659400  1
  O  O36  1  0.25343000  0.93637000  0.70360600  1
  O  O37  1  0.93637000  0.10659400  0.70360600  1
  O  O38  1  0.10659400  0.25343000  0.70360600  1
  O  O39  1  0.70360600  0.10659400  0.25343000  1
  O  O40  1  0.70360600  0.25343000  0.93637000  1
  O  O41  1  0.70360600  0.93637000  0.10659400  1
  O  O42  1  0.10659400  0.70360600  0.93637000  1
  O  O43  1  0.25343000  0.70360600  0.10659400  1
  O  O44  1  0.93637000  0.70360600  0.25343000  1
  O  O45  1  0.93637000  0.25343000  0.10659400  1
  O  O46  1  0.10659400  0.93637000  0.25343000  1
  O  O47  1  0.25343000  0.10659400  0.93637000  1
