# generated using pymatgen
data_TiSCl6O
_symmetry_space_group_name_H-M   'P 1'
_cell_length_a   6.63209610
_cell_length_b   8.18878012
_cell_length_c   11.22515084
_cell_angle_alpha   108.50382913
_cell_angle_beta   91.38155732
_cell_angle_gamma   113.71642498
_symmetry_Int_Tables_number   1
_chemical_formula_structural   TiSCl6O
_chemical_formula_sum   'Ti2 S2 Cl12 O2'
_cell_volume   521.13700420
_cell_formula_units_Z   2
loop_
 _symmetry_equiv_pos_site_id
 _symmetry_equiv_pos_as_xyz
  1  'x, y, z'
loop_
 _atom_site_type_symbol
 _atom_site_label
 _atom_site_symmetry_multiplicity
 _atom_site_fract_x
 _atom_site_fract_y
 _atom_site_fract_z
 _atom_site_occupancy
  Ti  Ti0  1  0.93041900  0.76716500  0.85758700  1
  Ti  Ti1  1  0.06958100  0.23283500  0.14241300  1
  S  S2  1  0.35453000  0.02355800  0.29993300  1
  S  S3  1  0.64547000  0.97644200  0.70006700  1
  Cl  Cl4  1  0.61226100  0.50131400  0.80763100  1
  Cl  Cl5  1  0.06075900  0.82617500  0.32686600  1
  Cl  Cl6  1  0.45321900  0.22903400  0.48341500  1
  Cl  Cl7  1  0.80527000  0.89094000  0.06008300  1
  Cl  Cl8  1  0.54678100  0.77096600  0.51658500  1
  Cl  Cl9  1  0.96582300  0.26544900  0.33315300  1
  Cl  Cl10  1  0.38773900  0.49868600  0.19236900  1
  Cl  Cl11  1  0.03417700  0.73455100  0.66684700  1
  Cl  Cl12  1  0.19473000  0.10906000  0.93991700  1
  Cl  Cl13  1  0.84223400  0.31934500  0.06109600  1
  Cl  Cl14  1  0.93924100  0.17382500  0.67313400  1
  Cl  Cl15  1  0.15776600  0.68065500  0.93890400  1
  O  O16  1  0.70360300  0.89479400  0.78677100  1
  O  O17  1  0.29639700  0.10520600  0.21322900  1
