# generated using pymatgen
data_Ca4Mn3O10
_symmetry_space_group_name_H-M   'P 1'
_cell_length_a   5.34000100
_cell_length_b   5.39131500
_cell_length_c   27.05339400
_cell_angle_alpha   90.00000000
_cell_angle_beta   90.00000000
_cell_angle_gamma   90.00000000
_symmetry_Int_Tables_number   1
_chemical_formula_structural   Ca4Mn3O10
_chemical_formula_sum   'Ca16 Mn12 O40'
_cell_volume   778.85713564
_cell_formula_units_Z   4
loop_
 _symmetry_equiv_pos_site_id
 _symmetry_equiv_pos_as_xyz
  1  'x, y, z'
loop_
 _atom_site_type_symbol
 _atom_site_label
 _atom_site_symmetry_multiplicity
 _atom_site_fract_x
 _atom_site_fract_y
 _atom_site_fract_z
 _atom_site_occupancy
  Ca  Ca0  1  0.50642700  0.95920500  0.70469200  1
  Ca  Ca1  1  0.99357300  0.04079500  0.20469200  1
  Ca  Ca2  1  0.49357300  0.45920500  0.79530800  1
  Ca  Ca3  1  0.00665800  0.45739000  0.43054100  1
  Ca  Ca4  1  0.99334200  0.54261000  0.56945900  1
  Ca  Ca5  1  0.99357300  0.45920500  0.70469200  1
  Ca  Ca6  1  0.00642700  0.54079500  0.29530800  1
  Ca  Ca7  1  0.00642700  0.95920500  0.79530800  1
  Ca  Ca8  1  0.49357300  0.04079500  0.29530800  1
  Ca  Ca9  1  0.99334200  0.95739000  0.06945900  1
  Ca  Ca10  1  0.50665800  0.45739000  0.06945900  1
  Ca  Ca11  1  0.50665800  0.04261000  0.56945900  1
  Ca  Ca12  1  0.49334200  0.95739000  0.43054100  1
  Ca  Ca13  1  0.49334200  0.54261000  0.93054100  1
  Ca  Ca14  1  0.00665800  0.04261000  0.93054100  1
  Ca  Ca15  1  0.50642700  0.54079500  0.20469200  1
  Mn  Mn16  1  0.00015900  0.50193500  0.14080600  1
  Mn  Mn17  1  0.50015900  0.99806500  0.85919400  1
  Mn  Mn18  1  0.49984100  0.00193500  0.14080600  1
  Mn  Mn19  1  0.50015900  0.50193500  0.35919400  1
  Mn  Mn20  1  0.49984100  0.49806500  0.64080600  1
  Mn  Mn21  1  0.50000000  0.00000000  0.00000000  1
  Mn  Mn22  1  0.99984100  0.00193500  0.35919400  1
  Mn  Mn23  1  0.99984100  0.49806500  0.85919400  1
  Mn  Mn24  1  0.00000000  0.50000000  0.00000000  1
  Mn  Mn25  1  0.00015900  0.99806500  0.64080600  1
  Mn  Mn26  1  0.00000000  0.00000000  0.50000000  1
  Mn  Mn27  1  0.50000000  0.50000000  0.50000000  1
  O  O28  1  0.94674700  0.00822700  0.71118900  1
  O  O29  1  0.70702800  0.79040100  0.63023200  1
  O  O30  1  0.20874200  0.79185900  0.15074300  1
  O  O31  1  0.07555800  0.98063000  0.56999900  1
  O  O32  1  0.79297200  0.29040100  0.63023200  1
  O  O33  1  0.79297200  0.20959900  0.13023200  1
  O  O34  1  0.92444200  0.01937000  0.43000100  1
  O  O35  1  0.05325300  0.99177300  0.28881100  1
  O  O36  1  0.29409600  0.29246800  0.98875300  1
  O  O37  1  0.70702800  0.70959900  0.13023200  1
  O  O38  1  0.70874200  0.70814100  0.84925700  1
  O  O39  1  0.79409600  0.20753200  0.01124700  1
  O  O40  1  0.57555800  0.51937000  0.43000100  1
  O  O41  1  0.42444200  0.01937000  0.06999900  1
  O  O42  1  0.20590400  0.70753200  0.48875300  1
  O  O43  1  0.70874200  0.79185900  0.34925700  1
  O  O44  1  0.44674700  0.49177300  0.28881100  1
  O  O45  1  0.44674700  0.00822700  0.78881100  1
  O  O46  1  0.79125800  0.20814100  0.84925700  1
  O  O47  1  0.79125800  0.29185900  0.34925700  1
  O  O48  1  0.79409600  0.29246800  0.51124700  1
  O  O49  1  0.29125800  0.29185900  0.15074300  1
  O  O50  1  0.20702800  0.70959900  0.36976800  1
  O  O51  1  0.57555800  0.98063000  0.93000100  1
  O  O52  1  0.70590400  0.79246800  0.51124700  1
  O  O53  1  0.29409600  0.20753200  0.48875300  1
  O  O54  1  0.20874200  0.70814100  0.65074300  1
  O  O55  1  0.29125800  0.20814100  0.65074300  1
  O  O56  1  0.29297200  0.20959900  0.36976800  1
  O  O57  1  0.20590400  0.79246800  0.98875300  1
  O  O58  1  0.20702800  0.79040100  0.86976800  1
  O  O59  1  0.07555800  0.51937000  0.06999900  1
  O  O60  1  0.29297200  0.29040100  0.86976800  1
  O  O61  1  0.05325300  0.50822700  0.78881100  1
  O  O62  1  0.92444200  0.48063000  0.93000100  1
  O  O63  1  0.55325300  0.99177300  0.21118900  1
  O  O64  1  0.94674700  0.49177300  0.21118900  1
  O  O65  1  0.55325300  0.50822700  0.71118900  1
  O  O66  1  0.42444200  0.48063000  0.56999900  1
  O  O67  1  0.70590400  0.70753200  0.01124700  1
