# generated using pymatgen
data_ZnS
_symmetry_space_group_name_H-M   'P 1'
_cell_length_a   15.91666359
_cell_length_b   15.91666359
_cell_length_c   15.91666320
_cell_angle_alpha   13.89951741
_cell_angle_beta   13.89951741
_cell_angle_gamma   13.89951967
_symmetry_Int_Tables_number   1
_chemical_formula_structural   ZnS
_chemical_formula_sum   'Zn5 S5'
_cell_volume   202.50193188
_cell_formula_units_Z   5
loop_
 _symmetry_equiv_pos_site_id
 _symmetry_equiv_pos_as_xyz
  1  'x, y, z'
loop_
 _atom_site_type_symbol
 _atom_site_label
 _atom_site_symmetry_multiplicity
 _atom_site_fract_x
 _atom_site_fract_y
 _atom_site_fract_z
 _atom_site_occupancy
  Zn  Zn0  1  0.60000300  0.60000300  0.60000300  1
  Zn  Zn1  1  0.86666800  0.86666800  0.86666800  1
  Zn  Zn2  1  0.46665300  0.46665300  0.46665300  1
  Zn  Zn3  1  0.00000600  0.00000600  0.00000600  1
  Zn  Zn4  1  0.73334000  0.73334000  0.73334000  1
  S  S5  1  0.05003700  0.05003700  0.05003700  1
  S  S6  1  0.78330000  0.78330000  0.78330000  1
  S  S7  1  0.65000200  0.65000200  0.65000200  1
  S  S8  1  0.51666500  0.51666500  0.51666500  1
  S  S9  1  0.91666600  0.91666600  0.91666600  1
