# generated using pymatgen
data_Ca2CuRh
_symmetry_space_group_name_H-M   'P 1'
_cell_length_a   11.47620865
_cell_length_b   11.47620865
_cell_length_c   11.47620865
_cell_angle_alpha   125.56350134
_cell_angle_beta   118.12054550
_cell_angle_gamma   86.96574104
_symmetry_Int_Tables_number   1
_chemical_formula_structural   Ca2CuRh
_chemical_formula_sum   'Ca2 Cu1 Rh1'
_cell_volume   1031.56612208
_cell_formula_units_Z   1
loop_
 _symmetry_equiv_pos_site_id
 _symmetry_equiv_pos_as_xyz
  1  'x, y, z'
loop_
 _atom_site_type_symbol
 _atom_site_label
 _atom_site_symmetry_multiplicity
 _atom_site_fract_x
 _atom_site_fract_y
 _atom_site_fract_z
 _atom_site_occupancy
  Ca  Ca0  1  0.00000000  0.27515300  0.27515300  1
  Ca  Ca1  1  0.00000000  0.72484700  0.72484700  1
  Cu  Cu2  1  0.00000000  0.00000000  0.00000000  1
  Rh  Rh3  1  0.00000000  0.50000000  0.50000000  1
