# generated using pymatgen
data_Na7SnS3(O4F)3
_symmetry_space_group_name_H-M   'P 1'
_cell_length_a   10.93353383
_cell_length_b   10.93353383
_cell_length_c   6.79374400
_cell_angle_alpha   90.00000000
_cell_angle_beta   90.00000000
_cell_angle_gamma   119.99999897
_symmetry_Int_Tables_number   1
_chemical_formula_structural   Na7SnS3(O4F)3
_chemical_formula_sum   'Na14 Sn2 S6 O24 F6'
_cell_volume   703.33287919
_cell_formula_units_Z   2
loop_
 _symmetry_equiv_pos_site_id
 _symmetry_equiv_pos_as_xyz
  1  'x, y, z'
loop_
 _atom_site_type_symbol
 _atom_site_label
 _atom_site_symmetry_multiplicity
 _atom_site_fract_x
 _atom_site_fract_y
 _atom_site_fract_z
 _atom_site_occupancy
  Na  Na0  1  0.82651100  0.65302200  0.50869500  1
  Na  Na1  1  0.46941800  0.93883600  0.73078500  1
  Na  Na2  1  0.53058200  0.46941800  0.23078500  1
  Na  Na3  1  0.82651100  0.17348900  0.50869500  1
  Na  Na4  1  0.17348900  0.34697800  0.00869500  1
  Na  Na5  1  0.06116400  0.53058200  0.73078500  1
  Na  Na6  1  0.53058200  0.06116400  0.23078500  1
  Na  Na7  1  0.93883600  0.46941800  0.23078500  1
  Na  Na8  1  0.34697800  0.17348900  0.50869500  1
  Na  Na9  1  0.00000000  0.00000000  0.29565200  1
  Na  Na10  1  0.17348900  0.82651100  0.00869500  1
  Na  Na11  1  0.65302200  0.82651100  0.00869500  1
  Na  Na12  1  0.46941800  0.53058200  0.73078500  1
  Na  Na13  1  0.00000000  0.00000000  0.79565200  1
  Sn  Sn14  1  0.66666700  0.33333300  0.74855100  1
  Sn  Sn15  1  0.33333300  0.66666700  0.24855100  1
  S  S16  1  0.83057400  0.16942600  0.99940800  1
  S  S17  1  0.66114900  0.83057400  0.49940800  1
  S  S18  1  0.16942600  0.33885100  0.49940800  1
  S  S19  1  0.83057400  0.66114900  0.99940800  1
  S  S20  1  0.33885100  0.16942600  0.99940800  1
  S  S21  1  0.16942600  0.83057400  0.49940800  1
  O  O22  1  0.90715900  0.81431800  0.05418200  1
  O  O23  1  0.09284100  0.18568200  0.55418200  1
  O  O24  1  0.29624200  0.36957500  0.37973700  1
  O  O25  1  0.07333300  0.36957500  0.37973700  1
  O  O26  1  0.09284100  0.90715900  0.55418200  1
  O  O27  1  0.92666700  0.63042500  0.87973700  1
  O  O28  1  0.42989900  0.21494900  0.17865500  1
  O  O29  1  0.36957500  0.29624200  0.87973700  1
  O  O30  1  0.21494900  0.42989900  0.67865500  1
  O  O31  1  0.63042500  0.92666700  0.37973700  1
  O  O32  1  0.78505100  0.57010100  0.17865500  1
  O  O33  1  0.18568200  0.09284100  0.05418200  1
  O  O34  1  0.70375800  0.07333300  0.87973700  1
  O  O35  1  0.21494900  0.78505100  0.67865500  1
  O  O36  1  0.63042500  0.70375800  0.37973700  1
  O  O37  1  0.92666700  0.29624200  0.87973700  1
  O  O38  1  0.57010100  0.78505100  0.67865500  1
  O  O39  1  0.36957500  0.07333300  0.87973700  1
  O  O40  1  0.90715900  0.09284100  0.05418200  1
  O  O41  1  0.70375800  0.63042500  0.87973700  1
  O  O42  1  0.29624200  0.92666700  0.37973700  1
  O  O43  1  0.81431800  0.90715900  0.55418200  1
  O  O44  1  0.78505100  0.21494900  0.17865500  1
  O  O45  1  0.07333300  0.70375800  0.37973700  1
  F  F46  1  0.42062600  0.84125200  0.04983400  1
  F  F47  1  0.42062600  0.57937400  0.04983400  1
  F  F48  1  0.57937400  0.15874800  0.54983400  1
  F  F49  1  0.15874800  0.57937400  0.04983400  1
  F  F50  1  0.57937400  0.42062600  0.54983400  1
  F  F51  1  0.84125200  0.42062600  0.54983400  1
