# generated using pymatgen
data_K2FeF5
_symmetry_space_group_name_H-M   'P 1'
_cell_length_a   7.55976100
_cell_length_b   13.05866000
_cell_length_c   20.77814300
_cell_angle_alpha   90.00000000
_cell_angle_beta   90.00000000
_cell_angle_gamma   90.00000000
_symmetry_Int_Tables_number   1
_chemical_formula_structural   K2FeF5
_chemical_formula_sum   'K32 Fe16 F80'
_cell_volume   2051.22551981
_cell_formula_units_Z   16
loop_
 _symmetry_equiv_pos_site_id
 _symmetry_equiv_pos_as_xyz
  1  'x, y, z'
loop_
 _atom_site_type_symbol
 _atom_site_label
 _atom_site_symmetry_multiplicity
 _atom_site_fract_x
 _atom_site_fract_y
 _atom_site_fract_z
 _atom_site_occupancy
  K  K0  1  0.67719200  0.01897300  0.49243300  1
  K  K1  1  0.67719200  0.48102700  0.99243300  1
  K  K2  1  0.01471100  0.46096300  0.66333500  1
  K  K3  1  0.65166600  0.48076900  0.50626700  1
  K  K4  1  0.66788400  0.21386500  0.75015300  1
  K  K5  1  0.32566300  0.22905300  0.58433700  1
  K  K6  1  0.81455300  0.96477400  0.66181400  1
  K  K7  1  0.50788100  0.76774400  0.08248000  1
  K  K8  1  0.15166600  0.51923100  0.49373300  1
  K  K9  1  0.16609300  0.32354900  0.25080300  1
  K  K10  1  0.15166600  0.98076900  0.99373300  1
  K  K11  1  0.17719200  0.51897300  0.00756700  1
  K  K12  1  0.82566300  0.72905300  0.91566300  1
  K  K13  1  0.66609300  0.82354900  0.24919700  1
  K  K14  1  0.81455300  0.53522600  0.16181400  1
  K  K15  1  0.31455300  0.46477400  0.83818600  1
  K  K16  1  0.00788100  0.26774400  0.41752000  1
  K  K17  1  0.16788400  0.71386500  0.74984700  1
  K  K18  1  0.50788100  0.73225600  0.58248000  1
  K  K19  1  0.16609300  0.17645100  0.75080300  1
  K  K20  1  0.01471100  0.03903700  0.16333500  1
  K  K21  1  0.17719200  0.98102700  0.50756700  1
  K  K22  1  0.65166600  0.01923100  0.00626700  1
  K  K23  1  0.51471100  0.53903700  0.33666500  1
  K  K24  1  0.32566300  0.27094700  0.08433700  1
  K  K25  1  0.51471100  0.96096300  0.83666500  1
  K  K26  1  0.66609300  0.67645100  0.74919700  1
  K  K27  1  0.66788400  0.28613500  0.25015300  1
  K  K28  1  0.16788400  0.78613500  0.24984700  1
  K  K29  1  0.31455300  0.03522600  0.33818600  1
  K  K30  1  0.00788100  0.23225600  0.91752000  1
  K  K31  1  0.82566300  0.77094700  0.41566300  1
  Fe  Fe32  1  0.49307500  0.24982100  0.92190900  1
  Fe  Fe33  1  0.32873000  0.94633300  0.67232600  1
  Fe  Fe34  1  0.33230500  0.75136500  0.42278100  1
  Fe  Fe35  1  0.50093800  0.05318000  0.17113600  1
  Fe  Fe36  1  0.50093800  0.44682000  0.67113600  1
  Fe  Fe37  1  0.83230500  0.24863500  0.57721900  1
  Fe  Fe38  1  0.00093800  0.55318000  0.32886400  1
  Fe  Fe39  1  0.33230500  0.74863500  0.92278100  1
  Fe  Fe40  1  0.49307500  0.25017900  0.42190900  1
  Fe  Fe41  1  0.82873000  0.44633300  0.82767400  1
  Fe  Fe42  1  0.99307500  0.75017900  0.07809100  1
  Fe  Fe43  1  0.82873000  0.05366700  0.32767400  1
  Fe  Fe44  1  0.83230500  0.25136500  0.07721900  1
  Fe  Fe45  1  0.99307500  0.74982100  0.57809100  1
  Fe  Fe46  1  0.32873000  0.55366700  0.17232600  1
  Fe  Fe47  1  0.00093800  0.94682000  0.82886400  1
  F  F48  1  0.47241200  0.55017700  0.09612500  1
  F  F49  1  0.45710500  0.67258400  0.20297700  1
  F  F50  1  0.99070300  0.33936700  0.03099200  1
  F  F51  1  0.38967900  0.37344900  0.96092500  1
  F  F52  1  0.84660900  0.54870400  0.40212900  1
  F  F53  1  0.17188100  0.92843400  0.75274600  1
  F  F54  1  0.16316100  0.65429600  0.12601600  1
  F  F55  1  0.47795100  0.74229000  0.34745900  1
  F  F56  1  0.83411900  0.73899800  0.14954800  1
  F  F57  1  0.17027700  0.75122800  0.50289400  1
  F  F58  1  0.86941500  0.45610000  0.27714300  1
  F  F59  1  0.69066400  0.36110500  0.10979400  1
  F  F60  1  0.84167300  0.83672400  0.02780000  1
  F  F61  1  0.16316100  0.84570400  0.62601600  1
  F  F62  1  0.95710500  0.17258400  0.29702300  1
  F  F63  1  0.33411900  0.26100200  0.85045200  1
  F  F64  1  0.62484500  0.36121300  0.38607300  1
  F  F65  1  0.87610100  0.67241800  0.29614900  1
  F  F66  1  0.87610100  0.82758200  0.79614900  1
  F  F67  1  0.67027700  0.25122800  0.99710600  1
  F  F68  1  0.94130000  0.37146500  0.53978100  1
  F  F69  1  0.96796000  0.54354400  0.77864500  1
  F  F70  1  0.19066400  0.86110500  0.39020600  1
  F  F71  1  0.88967900  0.87344900  0.53907500  1
  F  F72  1  0.34167300  0.33672400  0.47220000  1
  F  F73  1  0.47795100  0.75771000  0.84745900  1
  F  F74  1  0.17027700  0.74877200  0.00289400  1
  F  F75  1  0.34660900  0.45129600  0.59787100  1
  F  F76  1  0.12484500  0.86121300  0.11392700  1
  F  F77  1  0.49070300  0.83936700  0.46900800  1
  F  F78  1  0.44130000  0.62853500  0.46021900  1
  F  F79  1  0.45710500  0.82741600  0.70297700  1
  F  F80  1  0.67419200  0.94741300  0.35785300  1
  F  F81  1  0.84167300  0.66327600  0.52780000  1
  F  F82  1  0.67188100  0.07156600  0.24725400  1
  F  F83  1  0.34660900  0.04870400  0.09787100  1
  F  F84  1  0.66316100  0.15429600  0.37398400  1
  F  F85  1  0.86941500  0.04390000  0.77714300  1
  F  F86  1  0.37610100  0.17241800  0.20385100  1
  F  F87  1  0.83411900  0.76100200  0.64954800  1
  F  F88  1  0.19066400  0.63889500  0.89020600  1
  F  F89  1  0.65556100  0.15433500  0.12009900  1
  F  F90  1  0.65270100  0.94744200  0.13843500  1
  F  F91  1  0.12484500  0.63878700  0.61392700  1
  F  F92  1  0.47241200  0.94982300  0.59612500  1
  F  F93  1  0.84660900  0.95129600  0.90212900  1
  F  F94  1  0.46796000  0.04354400  0.72135500  1
  F  F95  1  0.96796000  0.95645600  0.27864500  1
  F  F96  1  0.88967900  0.62655100  0.03907500  1
  F  F97  1  0.15556100  0.84566500  0.87990100  1
  F  F98  1  0.65556100  0.34566500  0.62009900  1
  F  F99  1  0.66316100  0.34570400  0.87398400  1
  F  F100  1  0.67027700  0.24877200  0.49710600  1
  F  F101  1  0.36941500  0.95610000  0.22285700  1
  F  F102  1  0.46796000  0.45645600  0.22135500  1
  F  F103  1  0.34167300  0.16327600  0.97220000  1
  F  F104  1  0.33411900  0.23899800  0.35045200  1
  F  F105  1  0.38967900  0.12655100  0.46092500  1
  F  F106  1  0.65270100  0.55255800  0.63843500  1
  F  F107  1  0.97241200  0.05017700  0.40387500  1
  F  F108  1  0.17419200  0.44741300  0.14214700  1
  F  F109  1  0.49070300  0.66063300  0.96900800  1
  F  F110  1  0.17188100  0.57156600  0.25274600  1
  F  F111  1  0.95710500  0.32741600  0.79702300  1
  F  F112  1  0.67419200  0.55258700  0.85785300  1
  F  F113  1  0.99070300  0.16063300  0.53099200  1
  F  F114  1  0.67188100  0.42843400  0.74725400  1
  F  F115  1  0.62484500  0.13878700  0.88607300  1
  F  F116  1  0.97795100  0.24229000  0.15254100  1
  F  F117  1  0.97241200  0.44982300  0.90387500  1
  F  F118  1  0.94130000  0.12853500  0.03978100  1
  F  F119  1  0.37610100  0.32758200  0.70385100  1
  F  F120  1  0.44130000  0.87146500  0.96021900  1
  F  F121  1  0.15270100  0.44744200  0.36156500  1
  F  F122  1  0.69066400  0.13889500  0.60979400  1
  F  F123  1  0.97795100  0.25771000  0.65254100  1
  F  F124  1  0.15556100  0.65433500  0.37990100  1
  F  F125  1  0.36941500  0.54390000  0.72285700  1
  F  F126  1  0.15270100  0.05255800  0.86156500  1
  F  F127  1  0.17419200  0.05258700  0.64214700  1
