# generated using pymatgen
data_Ta2Bi4Br7O2
_symmetry_space_group_name_H-M   'P 1'
_cell_length_a   14.99370300
_cell_length_b   14.99370300
_cell_length_c   18.52691000
_cell_angle_alpha   90.00000000
_cell_angle_beta   90.00000000
_cell_angle_gamma   90.00000000
_symmetry_Int_Tables_number   1
_chemical_formula_structural   Ta2Bi4Br7O2
_chemical_formula_sum   'Ta16 Bi32 Br56 O16'
_cell_volume   4165.05556606
_cell_formula_units_Z   8
loop_
 _symmetry_equiv_pos_site_id
 _symmetry_equiv_pos_as_xyz
  1  'x, y, z'
loop_
 _atom_site_type_symbol
 _atom_site_label
 _atom_site_symmetry_multiplicity
 _atom_site_fract_x
 _atom_site_fract_y
 _atom_site_fract_z
 _atom_site_occupancy
  Ta  Ta0  1  0.14889200  0.38093700  0.50000000  1
  Ta  Ta1  1  0.00000000  0.50000000  0.13697500  1
  Ta  Ta2  1  0.50000000  0.00000000  0.36302500  1
  Ta  Ta3  1  0.50000000  0.00000000  0.13697500  1
  Ta  Ta4  1  0.88093700  0.64889200  0.00000000  1
  Ta  Ta5  1  0.00000000  0.50000000  0.63697500  1
  Ta  Ta6  1  0.61906300  0.14889200  0.50000000  1
  Ta  Ta7  1  0.38093700  0.85110800  0.50000000  1
  Ta  Ta8  1  0.50000000  0.00000000  0.86302500  1
  Ta  Ta9  1  0.35110800  0.88093700  0.00000000  1
  Ta  Ta10  1  0.00000000  0.50000000  0.86302500  1
  Ta  Ta11  1  0.50000000  0.00000000  0.63697500  1
  Ta  Ta12  1  0.11906300  0.35110800  0.00000000  1
  Ta  Ta13  1  0.00000000  0.50000000  0.36302500  1
  Ta  Ta14  1  0.85110800  0.61906300  0.50000000  1
  Ta  Ta15  1  0.64889200  0.11906300  0.00000000  1
  Bi  Bi16  1  0.90406300  0.88887400  0.33160800  1
  Bi  Bi17  1  0.00861300  0.85309400  0.81371400  1
  Bi  Bi18  1  0.38887400  0.40406300  0.83160800  1
  Bi  Bi19  1  0.11112600  0.90406300  0.33160800  1
  Bi  Bi20  1  0.00861300  0.85309400  0.18628600  1
  Bi  Bi21  1  0.49138700  0.35309400  0.31371400  1
  Bi  Bi22  1  0.64690600  0.49138700  0.31371400  1
  Bi  Bi23  1  0.11112600  0.90406300  0.66839200  1
  Bi  Bi24  1  0.99138700  0.14690600  0.18628600  1
  Bi  Bi25  1  0.85309400  0.99138700  0.18628600  1
  Bi  Bi26  1  0.50861300  0.64690600  0.31371400  1
  Bi  Bi27  1  0.09593700  0.11112600  0.66839200  1
  Bi  Bi28  1  0.90406300  0.88887400  0.66839200  1
  Bi  Bi29  1  0.85309400  0.99138700  0.81371400  1
  Bi  Bi30  1  0.38887400  0.40406300  0.16839200  1
  Bi  Bi31  1  0.40406300  0.61112600  0.16839200  1
  Bi  Bi32  1  0.14690600  0.00861300  0.81371400  1
  Bi  Bi33  1  0.88887400  0.09593700  0.33160800  1
  Bi  Bi34  1  0.64690600  0.49138700  0.68628600  1
  Bi  Bi35  1  0.14690600  0.00861300  0.18628600  1
  Bi  Bi36  1  0.40406300  0.61112600  0.83160800  1
  Bi  Bi37  1  0.61112600  0.59593700  0.16839200  1
  Bi  Bi38  1  0.59593700  0.38887400  0.83160800  1
  Bi  Bi39  1  0.61112600  0.59593700  0.83160800  1
  Bi  Bi40  1  0.59593700  0.38887400  0.16839200  1
  Bi  Bi41  1  0.50861300  0.64690600  0.68628600  1
  Bi  Bi42  1  0.35309400  0.50861300  0.31371400  1
  Bi  Bi43  1  0.09593700  0.11112600  0.33160800  1
  Bi  Bi44  1  0.49138700  0.35309400  0.68628600  1
  Bi  Bi45  1  0.99138700  0.14690600  0.81371400  1
  Bi  Bi46  1  0.88887400  0.09593700  0.66839200  1
  Bi  Bi47  1  0.35309400  0.50861300  0.68628600  1
  Br  Br48  1  0.61166000  0.87566700  0.85269700  1
  Br  Br49  1  0.87566700  0.38834000  0.14730300  1
  Br  Br50  1  0.24433700  0.95422600  0.50000000  1
  Br  Br51  1  0.58433900  0.08433900  0.75000000  1
  Br  Br52  1  0.37566700  0.11166000  0.35269700  1
  Br  Br53  1  0.01427400  0.75253400  0.00000000  1
  Br  Br54  1  0.45422600  0.74433700  0.00000000  1
  Br  Br55  1  0.62433300  0.88834000  0.64730300  1
  Br  Br56  1  0.41566100  0.91566100  0.75000000  1
  Br  Br57  1  0.25809800  0.80953900  0.10063100  1
  Br  Br58  1  0.74190200  0.19046100  0.10063100  1
  Br  Br59  1  0.25253400  0.51427400  0.50000000  1
  Br  Br60  1  0.54577400  0.25566300  0.00000000  1
  Br  Br61  1  0.04577400  0.24433700  0.50000000  1
  Br  Br62  1  0.61166000  0.87566700  0.14730300  1
  Br  Br63  1  0.69046100  0.24190200  0.60063100  1
  Br  Br64  1  0.75809800  0.69046100  0.39936900  1
  Br  Br65  1  0.24190200  0.30953900  0.60063100  1
  Br  Br66  1  0.74746600  0.48572600  0.50000000  1
  Br  Br67  1  0.11166000  0.62433300  0.64730300  1
  Br  Br68  1  0.88834000  0.37566700  0.35269700  1
  Br  Br69  1  0.30953900  0.75809800  0.39936900  1
  Br  Br70  1  0.11166000  0.62433300  0.35269700  1
  Br  Br71  1  0.25566300  0.45422600  0.00000000  1
  Br  Br72  1  0.74190200  0.19046100  0.89936900  1
  Br  Br73  1  0.91566100  0.58433900  0.75000000  1
  Br  Br74  1  0.88834000  0.37566700  0.64730300  1
  Br  Br75  1  0.80953900  0.74190200  0.89936900  1
  Br  Br76  1  0.98572600  0.24746600  0.00000000  1
  Br  Br77  1  0.19046100  0.25809800  0.89936900  1
  Br  Br78  1  0.41566100  0.91566100  0.25000000  1
  Br  Br79  1  0.75253400  0.98572600  0.00000000  1
  Br  Br80  1  0.58433900  0.08433900  0.25000000  1
  Br  Br81  1  0.91566100  0.58433900  0.25000000  1
  Br  Br82  1  0.24746600  0.01427400  0.00000000  1
  Br  Br83  1  0.25809800  0.80953900  0.89936900  1
  Br  Br84  1  0.37566700  0.11166000  0.64730300  1
  Br  Br85  1  0.08433900  0.41566100  0.25000000  1
  Br  Br86  1  0.62433300  0.88834000  0.35269700  1
  Br  Br87  1  0.74433700  0.54577400  0.00000000  1
  Br  Br88  1  0.19046100  0.25809800  0.10063100  1
  Br  Br89  1  0.75809800  0.69046100  0.60063100  1
  Br  Br90  1  0.87566700  0.38834000  0.85269700  1
  Br  Br91  1  0.48572600  0.25253400  0.50000000  1
  Br  Br92  1  0.12433300  0.61166000  0.14730300  1
  Br  Br93  1  0.69046100  0.24190200  0.39936900  1
  Br  Br94  1  0.95422600  0.75566300  0.50000000  1
  Br  Br95  1  0.80953900  0.74190200  0.10063100  1
  Br  Br96  1  0.38834000  0.12433300  0.14730300  1
  Br  Br97  1  0.30953900  0.75809800  0.60063100  1
  Br  Br98  1  0.08433900  0.41566100  0.75000000  1
  Br  Br99  1  0.24190200  0.30953900  0.39936900  1
  Br  Br100  1  0.38834000  0.12433300  0.85269700  1
  Br  Br101  1  0.12433300  0.61166000  0.85269700  1
  Br  Br102  1  0.51427400  0.74746600  0.50000000  1
  Br  Br103  1  0.75566300  0.04577400  0.50000000  1
  O  O104  1  0.06320800  0.42608000  0.92646800  1
  O  O105  1  0.93679200  0.57392000  0.92646800  1
  O  O106  1  0.43679200  0.92608000  0.42646800  1
  O  O107  1  0.93679200  0.57392000  0.07353200  1
  O  O108  1  0.92608000  0.56320800  0.57353200  1
  O  O109  1  0.07392000  0.43679200  0.42646800  1
  O  O110  1  0.56320800  0.07392000  0.57353200  1
  O  O111  1  0.43679200  0.92608000  0.57353200  1
  O  O112  1  0.92608000  0.56320800  0.42646800  1
  O  O113  1  0.56320800  0.07392000  0.42646800  1
  O  O114  1  0.42608000  0.93679200  0.92646800  1
  O  O115  1  0.42608000  0.93679200  0.07353200  1
  O  O116  1  0.07392000  0.43679200  0.57353200  1
  O  O117  1  0.57392000  0.06320800  0.07353200  1
  O  O118  1  0.57392000  0.06320800  0.92646800  1
  O  O119  1  0.06320800  0.42608000  0.07353200  1
