# generated using pymatgen
data_Ba6Hf5S16
_symmetry_space_group_name_H-M   'P 1'
_cell_length_a   28.10845651
_cell_length_b   28.10845651
_cell_length_c   28.10845651
_cell_angle_alpha   169.78399426
_cell_angle_beta   169.78399426
_cell_angle_gamma   14.46688245
_symmetry_Int_Tables_number   1
_chemical_formula_structural   Ba6Hf5S16
_chemical_formula_sum   'Ba6 Hf5 S16'
_cell_volume   698.56509491
_cell_formula_units_Z   1
loop_
 _symmetry_equiv_pos_site_id
 _symmetry_equiv_pos_as_xyz
  1  'x, y, z'
loop_
 _atom_site_type_symbol
 _atom_site_label
 _atom_site_symmetry_multiplicity
 _atom_site_fract_x
 _atom_site_fract_y
 _atom_site_fract_z
 _atom_site_occupancy
  Ba  Ba0  1  0.71789200  0.71789200  0.00000000  1
  Ba  Ba1  1  0.36723000  0.36723000  0.00000000  1
  Ba  Ba2  1  0.54450400  0.54450400  0.00000000  1
  Ba  Ba3  1  0.63277000  0.63277000  0.00000000  1
  Ba  Ba4  1  0.45549600  0.45549600  0.00000000  1
  Ba  Ba5  1  0.28210800  0.28210800  0.00000000  1
  Hf  Hf6  1  0.90958900  0.90958900  0.00000000  1
  Hf  Hf7  1  0.00000000  0.00000000  0.00000000  1
  Hf  Hf8  1  0.81863800  0.81863800  0.00000000  1
  Hf  Hf9  1  0.18136200  0.18136200  0.00000000  1
  Hf  Hf10  1  0.09041100  0.09041100  0.00000000  1
  S  S11  1  0.77407800  0.77407800  0.00000000  1
  S  S12  1  0.95494500  0.95494500  0.00000000  1
  S  S13  1  0.17895000  0.67895000  0.50000000  1
  S  S14  1  0.91013300  0.41013300  0.50000000  1
  S  S15  1  0.41013300  0.91013300  0.50000000  1
  S  S16  1  0.82105000  0.32105000  0.50000000  1
  S  S17  1  0.67895000  0.17895000  0.50000000  1
  S  S18  1  0.32105000  0.82105000  0.50000000  1
  S  S19  1  0.08986700  0.58986700  0.50000000  1
  S  S20  1  0.13498600  0.13498600  0.00000000  1
  S  S21  1  0.86501400  0.86501400  0.00000000  1
  S  S22  1  0.22592200  0.22592200  0.00000000  1
  S  S23  1  0.58986700  0.08986700  0.50000000  1
  S  S24  1  0.50000000  0.00000000  0.50000000  1
  S  S25  1  0.04505500  0.04505500  0.00000000  1
  S  S26  1  0.00000000  0.50000000  0.50000000  1
