# generated using pymatgen
data_H12C5N2O
_symmetry_space_group_name_H-M   'P 1'
_cell_length_a   5.57273100
_cell_length_b   7.13106600
_cell_length_c   8.83261300
_cell_angle_alpha   90.00000000
_cell_angle_beta   90.00000000
_cell_angle_gamma   90.00000000
_symmetry_Int_Tables_number   1
_chemical_formula_structural   H12C5N2O
_chemical_formula_sum   'H24 C10 N4 O2'
_cell_volume   351.00373526
_cell_formula_units_Z   2
loop_
 _symmetry_equiv_pos_site_id
 _symmetry_equiv_pos_as_xyz
  1  'x, y, z'
loop_
 _atom_site_type_symbol
 _atom_site_label
 _atom_site_symmetry_multiplicity
 _atom_site_fract_x
 _atom_site_fract_y
 _atom_site_fract_z
 _atom_site_occupancy
  H  H0  1  0.77254000  0.33086300  0.95747500  1
  H  H1  1  0.21198500  0.16794000  0.66200900  1
  H  H2  1  0.77254000  0.66913700  0.95747500  1
  H  H3  1  0.47917700  0.50000000  0.82777700  1
  H  H4  1  0.21198500  0.83206000  0.66200900  1
  H  H5  1  0.47518700  0.50000000  0.30348400  1
  H  H6  1  0.24608200  0.37325800  0.20285800  1
  H  H7  1  0.24608200  0.62674200  0.20285800  1
  H  H8  1  0.52082300  0.00000000  0.32777700  1
  H  H9  1  0.75410900  0.87399500  0.42629300  1
  H  H10  1  0.52481300  0.00000000  0.80348400  1
  H  H11  1  0.75410900  0.12600500  0.42629300  1
  H  H12  1  0.55321800  0.20496900  0.06842700  1
  H  H13  1  0.78801500  0.66794000  0.16200900  1
  H  H14  1  0.78801500  0.33206000  0.16200900  1
  H  H15  1  0.24589100  0.37399500  0.92629300  1
  H  H16  1  0.75391800  0.12674200  0.70285800  1
  H  H17  1  0.75391800  0.87325800  0.70285800  1
  H  H18  1  0.55321800  0.79503100  0.06842700  1
  H  H19  1  0.44678200  0.29503100  0.56842700  1
  H  H20  1  0.22746000  0.83086300  0.45747500  1
  H  H21  1  0.24589100  0.62600500  0.92629300  1
  H  H22  1  0.22746000  0.16913700  0.45747500  1
  H  H23  1  0.44678200  0.70496900  0.56842700  1
  C  C24  1  0.33057900  0.82870000  0.56317800  1
  C  C25  1  0.66942100  0.67130000  0.06317800  1
  C  C26  1  0.86943100  0.50000000  0.57117700  1
  C  C27  1  0.64184400  0.00000000  0.42581900  1
  C  C28  1  0.13056900  0.00000000  0.07117700  1
  C  C29  1  0.35815600  0.50000000  0.92581900  1
  C  C30  1  0.33057900  0.17130000  0.56317800  1
  C  C31  1  0.66942100  0.32870000  0.06317800  1
  C  C32  1  0.64245700  0.00000000  0.70402500  1
  C  C33  1  0.35754300  0.50000000  0.20402500  1
  N  N34  1  0.48725500  0.00000000  0.56513700  1
  N  N35  1  0.13330400  0.00000000  0.20720900  1
  N  N36  1  0.86669600  0.50000000  0.70720900  1
  N  N37  1  0.51274500  0.50000000  0.06513700  1
  O  O38  1  0.12976700  0.00000000  0.93169100  1
  O  O39  1  0.87023300  0.50000000  0.43169100  1
