# generated using pymatgen
data_H12C4INO3
_symmetry_space_group_name_H-M   'P 1'
_cell_length_a   7.18364400
_cell_length_b   8.64123300
_cell_length_c   13.67327200
_cell_angle_alpha   90.00000000
_cell_angle_beta   90.00000000
_cell_angle_gamma   90.00000000
_symmetry_Int_Tables_number   1
_chemical_formula_structural   H12C4INO3
_chemical_formula_sum   'H48 C16 I4 N4 O12'
_cell_volume   848.77576475
_cell_formula_units_Z   4
loop_
 _symmetry_equiv_pos_site_id
 _symmetry_equiv_pos_as_xyz
  1  'x, y, z'
loop_
 _atom_site_type_symbol
 _atom_site_label
 _atom_site_symmetry_multiplicity
 _atom_site_fract_x
 _atom_site_fract_y
 _atom_site_fract_z
 _atom_site_occupancy
  H  H0  1  0.54265800  0.52240400  0.81139300  1
  H  H1  1  0.75000000  0.72549100  0.21170200  1
  H  H2  1  0.12506200  0.85034100  0.18233000  1
  H  H3  1  0.57991100  0.57600000  0.09169700  1
  H  H4  1  0.07876500  0.86675700  0.40277900  1
  H  H5  1  0.87493800  0.35034100  0.31767000  1
  H  H6  1  0.62463900  0.87292000  0.80715600  1
  H  H7  1  0.12463900  0.12708000  0.19284400  1
  H  H8  1  0.25000000  0.27450900  0.78829800  1
  H  H9  1  0.62506200  0.14965900  0.81767000  1
  H  H10  1  0.92008900  0.92400000  0.59169700  1
  H  H11  1  0.07991100  0.42400000  0.90830300  1
  H  H12  1  0.07876500  0.63324300  0.90277900  1
  H  H13  1  0.87536100  0.87292000  0.80715600  1
  H  H14  1  0.04265800  0.47759600  0.18860700  1
  H  H15  1  0.07991100  0.07600000  0.40830300  1
  H  H16  1  0.92008900  0.57600000  0.09169700  1
  H  H17  1  0.42123500  0.63324300  0.90277900  1
  H  H18  1  0.92123500  0.13324300  0.59722100  1
  H  H19  1  0.57876500  0.13324300  0.59722100  1
  H  H20  1  0.25000000  0.22549100  0.28829800  1
  H  H21  1  0.75000000  0.26382700  0.72856400  1
  H  H22  1  0.57876500  0.36675700  0.09722100  1
  H  H23  1  0.37493800  0.64965900  0.68233000  1
  H  H24  1  0.75000000  0.23617300  0.22856400  1
  H  H25  1  0.95734200  0.52240400  0.81139300  1
  H  H26  1  0.75000000  0.77450900  0.71170200  1
  H  H27  1  0.37536100  0.12708000  0.19284400  1
  H  H28  1  0.37536100  0.37292000  0.69284400  1
  H  H29  1  0.45734200  0.02240400  0.68860700  1
  H  H30  1  0.95734200  0.97759600  0.31139300  1
  H  H31  1  0.87536100  0.62708000  0.30715600  1
  H  H32  1  0.54265800  0.97759600  0.31139300  1
  H  H33  1  0.12463900  0.37292000  0.69284400  1
  H  H34  1  0.62463900  0.62708000  0.30715600  1
  H  H35  1  0.37493800  0.85034100  0.18233000  1
  H  H36  1  0.12506200  0.64965900  0.68233000  1
  H  H37  1  0.25000000  0.76382700  0.77143600  1
  H  H38  1  0.57991100  0.92400000  0.59169700  1
  H  H39  1  0.42123500  0.86675700  0.40277900  1
  H  H40  1  0.92123500  0.36675700  0.09722100  1
  H  H41  1  0.42008900  0.07600000  0.40830300  1
  H  H42  1  0.87493800  0.14965900  0.81767000  1
  H  H43  1  0.42008900  0.42400000  0.90830300  1
  H  H44  1  0.25000000  0.73617300  0.27143600  1
  H  H45  1  0.62506200  0.35034100  0.31767000  1
  H  H46  1  0.04265800  0.02240400  0.68860700  1
  H  H47  1  0.45734200  0.47759600  0.18860700  1
  C  C48  1  0.25000000  0.65649400  0.72833400  1
  C  C49  1  0.75000000  0.62589600  0.26140500  1
  C  C50  1  0.25000000  0.37410400  0.73859500  1
  C  C51  1  0.57868000  0.02571300  0.63989300  1
  C  C52  1  0.92132000  0.02571300  0.63989300  1
  C  C53  1  0.25000000  0.84350600  0.22833400  1
  C  C54  1  0.25000000  0.12589600  0.23859500  1
  C  C55  1  0.07868000  0.97428700  0.36010700  1
  C  C56  1  0.92132000  0.47428700  0.13989300  1
  C  C57  1  0.75000000  0.87410400  0.76140500  1
  C  C58  1  0.07868000  0.52571300  0.86010700  1
  C  C59  1  0.75000000  0.15649400  0.77166600  1
  C  C60  1  0.42132000  0.97428700  0.36010700  1
  C  C61  1  0.57868000  0.47428700  0.13989300  1
  C  C62  1  0.75000000  0.34350600  0.27166600  1
  C  C63  1  0.42132000  0.52571300  0.86010700  1
  I  I64  1  0.25000000  0.46039100  0.46924800  1
  I  I65  1  0.75000000  0.53960900  0.53075200  1
  I  I66  1  0.75000000  0.96039100  0.03075200  1
  I  I67  1  0.25000000  0.03960900  0.96924800  1
  N  N68  1  0.25000000  0.52094100  0.79710000  1
  N  N69  1  0.75000000  0.47905900  0.20290000  1
  N  N70  1  0.25000000  0.97905900  0.29710000  1
  N  N71  1  0.75000000  0.02094100  0.70290000  1
  O  O72  1  0.05308700  0.17400800  0.98180300  1
  O  O73  1  0.05308700  0.32599200  0.48180300  1
  O  O74  1  0.25000000  0.00072500  0.83772200  1
  O  O75  1  0.55308700  0.67400800  0.51819700  1
  O  O76  1  0.94691300  0.82599200  0.01819700  1
  O  O77  1  0.55308700  0.82599200  0.01819700  1
  O  O78  1  0.94691300  0.67400800  0.51819700  1
  O  O79  1  0.44691300  0.32599200  0.48180300  1
  O  O80  1  0.75000000  0.50072500  0.66227800  1
  O  O81  1  0.25000000  0.49927500  0.33772200  1
  O  O82  1  0.44691300  0.17400800  0.98180300  1
  O  O83  1  0.75000000  0.99927500  0.16227800  1
