# generated using pymatgen
data_Sc2InTc
_symmetry_space_group_name_H-M   'P 1'
_cell_length_a   12.80538488
_cell_length_b   12.80538488
_cell_length_c   12.80538488
_cell_angle_alpha   132.66032110
_cell_angle_beta   114.80142615
_cell_angle_gamma   84.42634733
_symmetry_Int_Tables_number   1
_chemical_formula_structural   Sc2InTc
_chemical_formula_sum   'Sc2 In1 Tc1'
_cell_volume   1345.53516838
_cell_formula_units_Z   1
loop_
 _symmetry_equiv_pos_site_id
 _symmetry_equiv_pos_as_xyz
  1  'x, y, z'
loop_
 _atom_site_type_symbol
 _atom_site_label
 _atom_site_symmetry_multiplicity
 _atom_site_fract_x
 _atom_site_fract_y
 _atom_site_fract_z
 _atom_site_occupancy
  Sc  Sc0  1  0.00000000  0.21383100  0.21383100  1
  Sc  Sc1  1  0.00000000  0.78616900  0.78616900  1
  In  In2  1  0.00000000  0.50000000  0.50000000  1
  Tc  Tc3  1  0.00000000  0.00000000  0.00000000  1
