# generated using pymatgen
data_AgP(XeF5)2
_symmetry_space_group_name_H-M   'P 1'
_cell_length_a   8.86404369
_cell_length_b   8.86404369
_cell_length_c   8.86404369
_cell_angle_alpha   121.38811713
_cell_angle_beta   121.38811713
_cell_angle_gamma   87.61206885
_symmetry_Int_Tables_number   1
_chemical_formula_structural   AgP(XeF5)2
_chemical_formula_sum   'Ag2 P2 Xe4 F20'
_cell_volume   481.68375963
_cell_formula_units_Z   2
loop_
 _symmetry_equiv_pos_site_id
 _symmetry_equiv_pos_as_xyz
  1  'x, y, z'
loop_
 _atom_site_type_symbol
 _atom_site_label
 _atom_site_symmetry_multiplicity
 _atom_site_fract_x
 _atom_site_fract_y
 _atom_site_fract_z
 _atom_site_occupancy
  Ag  Ag0  1  0.50000000  0.00000000  0.50000000  1
  Ag  Ag1  1  0.00000000  0.50000000  0.50000000  1
  P  P2  1  0.00000000  0.00000000  0.00000000  1
  P  P3  1  0.50000000  0.50000000  0.00000000  1
  Xe  Xe4  1  0.00000000  0.50000000  0.00000000  1
  Xe  Xe5  1  0.50000000  0.50000000  0.50000000  1
  Xe  Xe6  1  0.00000000  0.00000000  0.50000000  1
  Xe  Xe7  1  0.50000000  0.00000000  0.00000000  1
  F  F8  1  0.17291400  0.07751700  0.25043100  1
  F  F9  1  0.32708600  0.57751700  0.90460300  1
  F  F10  1  0.96691800  0.23762200  0.50000000  1
  F  F11  1  0.76237800  0.26237800  0.72929600  1
  F  F12  1  0.46691800  0.96691800  0.72929600  1
  F  F13  1  0.73762200  0.46691800  0.50000000  1
  F  F14  1  0.53308200  0.03308200  0.27070400  1
  F  F15  1  0.67291400  0.42248300  0.09539700  1
  F  F16  1  0.23762200  0.73762200  0.27070400  1
  F  F17  1  0.26237800  0.53308200  0.50000000  1
  F  F18  1  0.42248300  0.32708600  0.74956900  1
  F  F19  1  0.92248300  0.17291400  0.09539700  1
  F  F20  1  0.37193900  0.37193900  0.00000000  1
  F  F21  1  0.87193900  0.87193900  0.00000000  1
  F  F22  1  0.62806100  0.62806100  0.00000000  1
  F  F23  1  0.57751700  0.67291400  0.25043100  1
  F  F24  1  0.07751700  0.82708600  0.90460300  1
  F  F25  1  0.12806100  0.12806100  0.00000000  1
  F  F26  1  0.03308200  0.76237800  0.50000000  1
  F  F27  1  0.82708600  0.92248300  0.74956900  1
