# generated using pymatgen
data_La2HgPb
_symmetry_space_group_name_H-M   'P 1'
_cell_length_a   13.01778026
_cell_length_b   13.01778026
_cell_length_c   13.01778026
_cell_angle_alpha   124.01181019
_cell_angle_beta   118.70558601
_cell_angle_gamma   87.72631985
_symmetry_Int_Tables_number   1
_chemical_formula_structural   La2HgPb
_chemical_formula_sum   'La2 Hg1 Pb1'
_cell_volume   1522.25299301
_cell_formula_units_Z   1
loop_
 _symmetry_equiv_pos_site_id
 _symmetry_equiv_pos_as_xyz
  1  'x, y, z'
loop_
 _atom_site_type_symbol
 _atom_site_label
 _atom_site_symmetry_multiplicity
 _atom_site_fract_x
 _atom_site_fract_y
 _atom_site_fract_z
 _atom_site_occupancy
  La  La0  1  0.00000000  0.25550600  0.25550600  1
  La  La1  1  0.00000000  0.74449400  0.74449400  1
  Hg  Hg2  1  0.00000000  0.00000000  0.00000000  1
  Pb  Pb3  1  0.00000000  0.50000000  0.50000000  1
