# generated using pymatgen
data_Cu6PS5Br
_symmetry_space_group_name_H-M   'P 1'
_cell_length_a   6.83122348
_cell_length_b   6.83122348
_cell_length_c   11.92493131
_cell_angle_alpha   73.46030605
_cell_angle_beta   73.46030605
_cell_angle_gamma   60.13845004
_symmetry_Int_Tables_number   1
_chemical_formula_structural   Cu6PS5Br
_chemical_formula_sum   'Cu12 P2 S10 Br2'
_cell_volume   455.74254887
_cell_formula_units_Z   2
loop_
 _symmetry_equiv_pos_site_id
 _symmetry_equiv_pos_as_xyz
  1  'x, y, z'
loop_
 _atom_site_type_symbol
 _atom_site_label
 _atom_site_symmetry_multiplicity
 _atom_site_fract_x
 _atom_site_fract_y
 _atom_site_fract_z
 _atom_site_occupancy
  Cu  Cu0  1  0.02831300  0.96047200  0.89314200  1
  Cu  Cu1  1  0.26845900  0.36516300  0.61406600  1
  Cu  Cu2  1  0.99911000  0.53456100  0.88370200  1
  Cu  Cu3  1  0.36516300  0.26845900  0.11406600  1
  Cu  Cu4  1  0.46140200  0.49610500  0.88870500  1
  Cu  Cu5  1  0.53456100  0.99911000  0.38370200  1
  Cu  Cu6  1  0.84585900  0.14631600  0.61274400  1
  Cu  Cu7  1  0.77234900  0.62275800  0.11137100  1
  Cu  Cu8  1  0.62275800  0.77234900  0.61137100  1
  Cu  Cu9  1  0.14631600  0.84585900  0.11274400  1
  Cu  Cu10  1  0.49610500  0.46140200  0.38870500  1
  Cu  Cu11  1  0.96047200  0.02831300  0.39314200  1
  P  P12  1  0.99973300  0.50059600  0.37565500  1
  P  P13  1  0.50059600  0.99973300  0.87565500  1
  S  S14  1  0.93668700  0.44249700  0.56048000  1
  S  S15  1  0.44249700  0.93668700  0.06048000  1
  S  S16  1  0.19975200  0.19353100  0.31236600  1
  S  S17  1  0.70227100  0.16921900  0.81265900  1
  S  S18  1  0.16921900  0.70227100  0.31265900  1
  S  S19  1  0.19353100  0.19975200  0.81236600  1
  S  S20  1  0.69478200  0.66927200  0.31025900  1
  S  S21  1  0.12171400  0.61588600  0.01424100  1
  S  S22  1  0.61588600  0.12171400  0.51424100  1
  S  S23  1  0.66927200  0.69478200  0.81025900  1
  Br  Br24  1  0.75146500  0.24571600  0.12774100  1
  Br  Br25  1  0.24571600  0.75146500  0.62774100  1
