# generated using pymatgen
data_PrPH5CO7
_symmetry_space_group_name_H-M   'P 1'
_cell_length_a   6.76178900
_cell_length_b   7.14648375
_cell_length_c   7.84359801
_cell_angle_alpha   110.54253585
_cell_angle_beta   95.79501476
_cell_angle_gamma   89.49575902
_symmetry_Int_Tables_number   1
_chemical_formula_structural   PrPH5CO7
_chemical_formula_sum   'Pr2 P2 H10 C2 O14'
_cell_volume   352.96662762
_cell_formula_units_Z   2
loop_
 _symmetry_equiv_pos_site_id
 _symmetry_equiv_pos_as_xyz
  1  'x, y, z'
loop_
 _atom_site_type_symbol
 _atom_site_label
 _atom_site_symmetry_multiplicity
 _atom_site_fract_x
 _atom_site_fract_y
 _atom_site_fract_z
 _atom_site_occupancy
  Pr  Pr0  1  0.13215100  0.22329000  0.93512500  1
  Pr  Pr1  1  0.86784900  0.77671000  0.06487500  1
  P  P2  1  0.67586100  0.25356500  0.01848200  1
  P  P3  1  0.32413900  0.74643500  0.98151800  1
  H  H4  1  0.55090500  0.15935300  0.43554000  1
  H  H5  1  0.44909500  0.84064700  0.56446000  1
  H  H6  1  0.71378700  0.66678800  0.63653500  1
  H  H7  1  0.28621300  0.33321200  0.36346500  1
  H  H8  1  0.83193300  0.48150000  0.67042400  1
  H  H9  1  0.62845700  0.29075000  0.19788800  1
  H  H10  1  0.16806700  0.51850000  0.32957600  1
  H  H11  1  0.46609700  0.25649600  0.62355700  1
  H  H12  1  0.37154300  0.70925000  0.80211200  1
  H  H13  1  0.53390300  0.74350400  0.37644300  1
  C  C14  1  0.06543200  0.91064200  0.50109700  1
  C  C15  1  0.93456800  0.08935800  0.49890300  1
  O  O16  1  0.81891700  0.42477500  0.02540700  1
  O  O17  1  0.82627000  0.07077200  0.35254300  1
  O  O18  1  0.17373000  0.92922800  0.64745700  1
  O  O19  1  0.43235800  0.22214800  0.49151800  1
  O  O20  1  0.79311600  0.62164000  0.72846900  1
  O  O21  1  0.20688400  0.37836000  0.27153100  1
  O  O22  1  0.19799800  0.93748200  0.03672900  1
  O  O23  1  0.48104300  0.23462200  0.89621600  1
  O  O24  1  0.80200200  0.06251800  0.96327100  1
  O  O25  1  0.94540800  0.24096100  0.64559500  1
  O  O26  1  0.51895700  0.76537800  0.10378400  1
  O  O27  1  0.18108300  0.57522500  0.97459300  1
  O  O28  1  0.56764200  0.77785200  0.50848200  1
  O  O29  1  0.05459200  0.75903900  0.35440500  1
