# generated using pymatgen
data_CrGaRh2
_symmetry_space_group_name_H-M   'P 1'
_cell_length_a   9.95266367
_cell_length_b   9.95266367
_cell_length_c   9.95266367
_cell_angle_alpha   124.98452235
_cell_angle_beta   118.20247376
_cell_angle_gamma   87.36667871
_symmetry_Int_Tables_number   1
_chemical_formula_structural   CrGaRh2
_chemical_formula_sum   'Cr1 Ga1 Rh2'
_cell_volume   676.38679136
_cell_formula_units_Z   1
loop_
 _symmetry_equiv_pos_site_id
 _symmetry_equiv_pos_as_xyz
  1  'x, y, z'
loop_
 _atom_site_type_symbol
 _atom_site_label
 _atom_site_symmetry_multiplicity
 _atom_site_fract_x
 _atom_site_fract_y
 _atom_site_fract_z
 _atom_site_occupancy
  Cr  Cr0  1  0.00000000  0.00000000  0.00000000  1
  Ga  Ga1  1  0.00000000  0.50000000  0.50000000  1
  Rh  Rh2  1  0.00000000  0.22490500  0.22490500  1
  Rh  Rh3  1  0.00000000  0.77509500  0.77509500  1
