# generated using pymatgen
data_AsC2N(OF3)2
_symmetry_space_group_name_H-M   'P 1'
_cell_length_a   5.41794900
_cell_length_b   8.82367700
_cell_length_c   15.39582239
_cell_angle_alpha   79.61042271
_cell_angle_beta   90.00000000
_cell_angle_gamma   90.00000000
_symmetry_Int_Tables_number   1
_chemical_formula_structural   AsC2N(OF3)2
_chemical_formula_sum   'As4 C8 N4 O8 F24'
_cell_volume   723.94874992
_cell_formula_units_Z   4
loop_
 _symmetry_equiv_pos_site_id
 _symmetry_equiv_pos_as_xyz
  1  'x, y, z'
loop_
 _atom_site_type_symbol
 _atom_site_label
 _atom_site_symmetry_multiplicity
 _atom_site_fract_x
 _atom_site_fract_y
 _atom_site_fract_z
 _atom_site_occupancy
  As  As0  1  0.76073100  0.79300300  0.90151800  1
  As  As1  1  0.73926900  0.79300300  0.40151800  1
  As  As2  1  0.23926900  0.20699700  0.09848200  1
  As  As3  1  0.26073100  0.20699700  0.59848200  1
  C  C4  1  0.35113400  0.86278100  0.64153400  1
  C  C5  1  0.85113400  0.13721900  0.85846600  1
  C  C6  1  0.64886600  0.13721900  0.35846600  1
  C  C7  1  0.14886600  0.86278100  0.14153400  1
  C  C8  1  0.41245300  0.64955000  0.16665200  1
  C  C9  1  0.91245300  0.35045000  0.33334800  1
  C  C10  1  0.58754700  0.35045000  0.83334800  1
  C  C11  1  0.08754700  0.64955000  0.66665200  1
  N  N12  1  0.20814400  0.71315100  0.15917900  1
  N  N13  1  0.70814400  0.28684900  0.34082100  1
  N  N14  1  0.29185600  0.71315100  0.65917900  1
  N  N15  1  0.79185600  0.28684900  0.84082100  1
  O  O16  1  0.58936000  0.57412600  0.17679100  1
  O  O17  1  0.70171900  0.02903000  0.87569100  1
  O  O18  1  0.91064000  0.57412600  0.67679100  1
  O  O19  1  0.79828100  0.02903000  0.37569100  1
  O  O20  1  0.20171900  0.97097000  0.62430900  1
  O  O21  1  0.41064000  0.42587400  0.82320900  1
  O  O22  1  0.08936000  0.42587400  0.32320900  1
  O  O23  1  0.29828100  0.97097000  0.12430900  1
  F  F24  1  0.42825300  0.20186100  0.00665500  1
  F  F25  1  0.94461000  0.82067200  0.80567000  1
  F  F26  1  0.50254000  0.20933800  0.16416400  1
  F  F27  1  0.99746000  0.20933800  0.66416400  1
  F  F28  1  0.59088700  0.88738500  0.64412700  1
  F  F29  1  0.44461000  0.17932800  0.69433000  1
  F  F30  1  0.20403100  0.40601300  0.07764900  1
  F  F31  1  0.07174700  0.20186100  0.50665500  1
  F  F32  1  0.55539000  0.82067200  0.30567000  1
  F  F33  1  0.40911300  0.11261500  0.35587300  1
  F  F34  1  0.29596900  0.40601300  0.57764900  1
  F  F35  1  0.57174700  0.79813900  0.99334500  1
  F  F36  1  0.01877900  0.82668500  0.96414500  1
  F  F37  1  0.51877900  0.17331500  0.53585500  1
  F  F38  1  0.05539000  0.17932800  0.19433000  1
  F  F39  1  0.49746000  0.79066200  0.83583600  1
  F  F40  1  0.70403100  0.59398700  0.42235100  1
  F  F41  1  0.48122100  0.82668500  0.46414500  1
  F  F42  1  0.98122100  0.17331500  0.03585500  1
  F  F43  1  0.00254000  0.79066200  0.33583600  1
  F  F44  1  0.79596900  0.59398700  0.92235100  1
  F  F45  1  0.92825300  0.79813900  0.49334500  1
  F  F46  1  0.90911300  0.88738500  0.14412700  1
  F  F47  1  0.09088700  0.11261500  0.85587300  1
