# generated using pymatgen
data_CaZnSi3O8
_symmetry_space_group_name_H-M   'P 1'
_cell_length_a   7.30417000
_cell_length_b   8.22803860
_cell_length_c   13.08313939
_cell_angle_alpha   84.14961729
_cell_angle_beta   85.87394591
_cell_angle_gamma   63.80253155
_symmetry_Int_Tables_number   1
_chemical_formula_structural   CaZnSi3O8
_chemical_formula_sum   'Ca4 Zn4 Si12 O32'
_cell_volume   701.52007382
_cell_formula_units_Z   4
loop_
 _symmetry_equiv_pos_site_id
 _symmetry_equiv_pos_as_xyz
  1  'x, y, z'
loop_
 _atom_site_type_symbol
 _atom_site_label
 _atom_site_symmetry_multiplicity
 _atom_site_fract_x
 _atom_site_fract_y
 _atom_site_fract_z
 _atom_site_occupancy
  Ca  Ca0  1  0.14617100  0.74564700  0.52260000  1
  Ca  Ca1  1  0.85369600  0.75354600  0.97707100  1
  Ca  Ca2  1  0.85382900  0.25435300  0.47740000  1
  Ca  Ca3  1  0.14630400  0.24645400  0.02292900  1
  Zn  Zn4  1  0.20640100  0.99422500  0.31740600  1
  Zn  Zn5  1  0.79328500  0.50750800  0.18248200  1
  Zn  Zn6  1  0.20671500  0.49249200  0.81751800  1
  Zn  Zn7  1  0.79359900  0.00577600  0.68259400  1
  Si  Si8  1  0.36985300  0.33193000  0.60902500  1
  Si  Si9  1  0.69217800  0.69151600  0.61283500  1
  Si  Si10  1  0.30960100  0.80587700  0.88761800  1
  Si  Si11  1  0.69039900  0.19412300  0.11238200  1
  Si  Si12  1  0.25077800  0.00089500  0.66949700  1
  Si  Si13  1  0.74922200  0.99910500  0.33050300  1
  Si  Si14  1  0.30782200  0.30848400  0.38716500  1
  Si  Si15  1  0.63014700  0.66807000  0.39097500  1
  Si  Si16  1  0.24921400  0.50420800  0.16935500  1
  Si  Si17  1  0.75078600  0.49579200  0.83064500  1
  Si  Si18  1  0.63007100  0.16610100  0.89093300  1
  Si  Si19  1  0.36992900  0.83389900  0.10906700  1
  O  O20  1  0.17222700  0.19760600  0.39928900  1
  O  O21  1  0.71635400  0.08056000  0.01003400  1
  O  O22  1  0.23617100  0.96531900  0.79395000  1
  O  O23  1  0.55328400  0.17492100  0.37508700  1
  O  O24  1  0.44671600  0.82507900  0.62491300  1
  O  O25  1  0.05074500  0.51673000  0.11350000  1
  O  O26  1  0.73371400  0.98418200  0.82842100  1
  O  O27  1  0.73311900  0.48680000  0.32806800  1
  O  O28  1  0.26688100  0.51320000  0.67193200  1
  O  O29  1  0.94925500  0.48327000  0.88650000  1
  O  O30  1  0.72615100  0.30894400  0.85255500  1
  O  O31  1  0.94798400  0.98633200  0.38621100  1
  O  O32  1  0.27384900  0.69105600  0.14744500  1
  O  O33  1  0.38364400  0.76785400  0.39775900  1
  O  O34  1  0.76630600  0.53124800  0.70611000  1
  O  O35  1  0.27492300  0.18799900  0.64666300  1
  O  O36  1  0.17362000  0.69520600  0.90001000  1
  O  O37  1  0.28224500  0.42007600  0.49029100  1
  O  O38  1  0.82638000  0.30479400  0.09999000  1
  O  O39  1  0.82777300  0.80239400  0.60071100  1
  O  O40  1  0.71775500  0.57992400  0.50970900  1
  O  O41  1  0.61617800  0.73439800  0.10272200  1
  O  O42  1  0.05201600  0.01366800  0.61378900  1
  O  O43  1  0.38382200  0.26560200  0.89727800  1
  O  O44  1  0.26628600  0.01581800  0.17157900  1
  O  O45  1  0.61635600  0.23214600  0.60224100  1
  O  O46  1  0.44499300  0.32880100  0.12425200  1
  O  O47  1  0.28364600  0.91944000  0.98996600  1
  O  O48  1  0.55500700  0.67119900  0.87574800  1
  O  O49  1  0.76382900  0.03468200  0.20605000  1
  O  O50  1  0.72507700  0.81200100  0.35333700  1
  O  O51  1  0.23369400  0.46875200  0.29389000  1
