# generated using pymatgen
data_B2H10C2NClO3
_symmetry_space_group_name_H-M   'P 1'
_cell_length_a   6.06072000
_cell_length_b   8.28536550
_cell_length_c   8.55783755
_cell_angle_alpha   109.95280694
_cell_angle_beta   98.93219520
_cell_angle_gamma   92.44074605
_symmetry_Int_Tables_number   1
_chemical_formula_structural   B2H10C2NClO3
_chemical_formula_sum   'B4 H20 C4 N2 Cl2 O6'
_cell_volume   396.92124098
_cell_formula_units_Z   2
loop_
 _symmetry_equiv_pos_site_id
 _symmetry_equiv_pos_as_xyz
  1  'x, y, z'
loop_
 _atom_site_type_symbol
 _atom_site_label
 _atom_site_symmetry_multiplicity
 _atom_site_fract_x
 _atom_site_fract_y
 _atom_site_fract_z
 _atom_site_occupancy
  B  B0  1  0.15694300  0.86909400  0.93450000  1
  B  B1  1  0.12864300  0.05596700  0.88943400  1
  B  B2  1  0.87135700  0.94403300  0.11056600  1
  B  B3  1  0.84305700  0.13090600  0.06550000  1
  H  H4  1  0.82529300  0.22623300  0.77053500  1
  H  H5  1  0.98279300  0.75704100  0.45033300  1
  H  H6  1  0.24132600  0.47524500  0.10208700  1
  H  H7  1  0.64915800  0.97199900  0.26315900  1
  H  H8  1  0.14758200  0.58649600  0.46708700  1
  H  H9  1  0.56117300  0.49959900  0.71065400  1
  H  H10  1  0.85241800  0.41350400  0.53291300  1
  H  H11  1  0.49253600  0.62239600  0.15876600  1
  H  H12  1  0.50746400  0.37760400  0.84123400  1
  H  H13  1  0.60562200  0.22044200  0.19775500  1
  H  H14  1  0.75867400  0.52475500  0.89791300  1
  H  H15  1  0.39437800  0.77955800  0.80224500  1
  H  H16  1  0.17470700  0.77376700  0.22946500  1
  H  H17  1  0.36203600  0.79353000  0.40729000  1
  H  H18  1  0.63796400  0.20647000  0.59271000  1
  H  H19  1  0.43882700  0.50040100  0.28934600  1
  H  H20  1  0.05642700  0.44718200  0.72030100  1
  H  H21  1  0.35084200  0.02800100  0.73684100  1
  H  H22  1  0.01720700  0.24295900  0.54966700  1
  H  H23  1  0.94357300  0.55281800  0.27969900  1
  C  C24  1  0.06589800  0.64706900  0.38103300  1
  C  C25  1  0.63711200  0.43358100  0.79347800  1
  C  C26  1  0.36288800  0.56641900  0.20652200  1
  C  C27  1  0.93410200  0.35293100  0.61896700  1
  N  N28  1  0.75616500  0.29140900  0.69331700  1
  N  N29  1  0.24383500  0.70859100  0.30668300  1
  Cl  Cl30  1  0.41455400  0.14293300  0.34995500  1
  Cl  Cl31  1  0.58544600  0.85706700  0.65004500  1
  O  O32  1  0.97566000  0.16956600  0.95982400  1
  O  O33  1  0.29729900  0.74788800  0.87338900  1
  O  O34  1  0.76020900  0.89269900  0.21508200  1
  O  O35  1  0.23979100  0.10730100  0.78491800  1
  O  O36  1  0.02434000  0.83043400  0.04017600  1
  O  O37  1  0.70270100  0.25211200  0.12661100  1
