# generated using pymatgen
data_ZnS
_symmetry_space_group_name_H-M   'P 1'
_cell_length_a   19.01215773
_cell_length_b   19.01215773
_cell_length_c   19.01215776
_cell_angle_alpha   11.64440677
_cell_angle_beta   11.64440677
_cell_angle_gamma   11.64440657
_symmetry_Int_Tables_number   1
_chemical_formula_structural   ZnS
_chemical_formula_sum   'Zn6 S6'
_cell_volume   243.28703214
_cell_formula_units_Z   6
loop_
 _symmetry_equiv_pos_site_id
 _symmetry_equiv_pos_as_xyz
  1  'x, y, z'
loop_
 _atom_site_type_symbol
 _atom_site_label
 _atom_site_symmetry_multiplicity
 _atom_site_fract_x
 _atom_site_fract_y
 _atom_site_fract_z
 _atom_site_occupancy
  Zn  Zn0  1  0.55556700  0.55556700  0.55556700  1
  Zn  Zn1  1  0.16668100  0.16668100  0.16668100  1
  Zn  Zn2  1  0.38893800  0.38893800  0.38893800  1
  Zn  Zn3  1  0.27780200  0.27780200  0.27780200  1
  Zn  Zn4  1  0.00001600  0.00001600  0.00001600  1
  Zn  Zn5  1  0.77780700  0.77780700  0.77780700  1
  S  S6  1  0.59723100  0.59723100  0.59723100  1
  S  S7  1  0.04168400  0.04168400  0.04168400  1
  S  S8  1  0.43056000  0.43056000  0.43056000  1
  S  S9  1  0.20828500  0.20828500  0.20828500  1
  S  S10  1  0.31939500  0.31939500  0.31939500  1
  S  S11  1  0.81943100  0.81943100  0.81943100  1
