# generated using pymatgen
data_CaMnB2O5
_symmetry_space_group_name_H-M   'P 1'
_cell_length_a   11.55231100
_cell_length_b   5.73648600
_cell_length_c   12.53654509
_cell_angle_alpha   77.43368125
_cell_angle_beta   90.00000000
_cell_angle_gamma   90.00000000
_symmetry_Int_Tables_number   1
_chemical_formula_structural   CaMnB2O5
_chemical_formula_sum   'Ca8 Mn8 B16 O40'
_cell_volume   810.89092805
_cell_formula_units_Z   8
loop_
 _symmetry_equiv_pos_site_id
 _symmetry_equiv_pos_as_xyz
  1  'x, y, z'
loop_
 _atom_site_type_symbol
 _atom_site_label
 _atom_site_symmetry_multiplicity
 _atom_site_fract_x
 _atom_site_fract_y
 _atom_site_fract_z
 _atom_site_occupancy
  Ca  Ca0  1  0.88081200  0.87370400  0.09155400  1
  Ca  Ca1  1  0.61918800  0.37370400  0.09155400  1
  Ca  Ca2  1  0.38081200  0.62629600  0.90844600  1
  Ca  Ca3  1  0.11918800  0.12629600  0.90844600  1
  Ca  Ca4  1  0.87203400  0.85353600  0.58687400  1
  Ca  Ca5  1  0.62796600  0.35353600  0.58687400  1
  Ca  Ca6  1  0.12796600  0.14646400  0.41312600  1
  Ca  Ca7  1  0.37203400  0.64646400  0.41312600  1
  Mn  Mn8  1  0.12816300  0.75502700  0.23598600  1
  Mn  Mn9  1  0.62778600  0.74956300  0.26220400  1
  Mn  Mn10  1  0.37183700  0.25502700  0.23598600  1
  Mn  Mn11  1  0.87183700  0.24497300  0.76401400  1
  Mn  Mn12  1  0.37221400  0.25043700  0.73779600  1
  Mn  Mn13  1  0.62816300  0.74497300  0.76401400  1
  Mn  Mn14  1  0.87221400  0.24956300  0.26220400  1
  Mn  Mn15  1  0.12778600  0.75043700  0.73779600  1
  B  B16  1  0.87501900  0.37017600  0.99083900  1
  B  B17  1  0.88081600  0.35221800  0.48867100  1
  B  B18  1  0.11918400  0.64778200  0.51132900  1
  B  B19  1  0.87568900  0.69999600  0.32732300  1
  B  B20  1  0.38081600  0.14778200  0.51132900  1
  B  B21  1  0.62498100  0.87017600  0.99083900  1
  B  B22  1  0.11558200  0.29335200  0.17205200  1
  B  B23  1  0.62431100  0.19999600  0.32732300  1
  B  B24  1  0.38441800  0.79335200  0.17205200  1
  B  B25  1  0.61558200  0.20664800  0.82794800  1
  B  B26  1  0.61918400  0.85221800  0.48867100  1
  B  B27  1  0.12498100  0.62982400  0.00916100  1
  B  B28  1  0.37568900  0.80000400  0.67267700  1
  B  B29  1  0.88441800  0.70664800  0.82794800  1
  B  B30  1  0.37501900  0.12982400  0.00916100  1
  B  B31  1  0.12431100  0.30000400  0.67267700  1
  O  O32  1  0.08666300  0.80046800  0.06219400  1
  O  O33  1  0.94627100  0.60540700  0.25927700  1
  O  O34  1  0.66577600  0.77700400  0.59082000  1
  O  O35  1  0.05372900  0.39459300  0.74072300  1
  O  O36  1  0.67681700  0.80840800  0.09100500  1
  O  O37  1  0.30960100  0.89602100  0.23380700  1
  O  O38  1  0.11230900  0.38076700  0.05718600  1
  O  O39  1  0.16577600  0.72299600  0.40918000  1
  O  O40  1  0.44627100  0.89459300  0.74072300  1
  O  O41  1  0.19497200  0.11113700  0.71476100  1
  O  O42  1  0.17681700  0.69159200  0.90899500  1
  O  O43  1  0.80960100  0.60397900  0.76619300  1
  O  O44  1  0.07416100  0.80814900  0.56618100  1
  O  O45  1  0.42583900  0.30814900  0.56618100  1
  O  O46  1  0.82318300  0.30840800  0.09100500  1
  O  O47  1  0.30502800  0.61113700  0.71476100  1
  O  O48  1  0.83422400  0.27700400  0.59082000  1
  O  O49  1  0.88769100  0.61923300  0.94281400  1
  O  O50  1  0.04577300  0.10719300  0.22170300  1
  O  O51  1  0.69497200  0.38886300  0.28523900  1
  O  O52  1  0.69039900  0.10397900  0.76619300  1
  O  O53  1  0.19039900  0.39602100  0.23380700  1
  O  O54  1  0.57416100  0.69185100  0.43381900  1
  O  O55  1  0.54577300  0.39280700  0.77829700  1
  O  O56  1  0.80502800  0.88886300  0.28523900  1
  O  O57  1  0.62745400  0.10232500  0.44227100  1
  O  O58  1  0.38769100  0.88076700  0.05718600  1
  O  O59  1  0.95422700  0.89280700  0.77829700  1
  O  O60  1  0.37254600  0.89767500  0.55772900  1
  O  O61  1  0.45422700  0.60719300  0.22170300  1
  O  O62  1  0.91333700  0.19953200  0.93780600  1
  O  O63  1  0.55372900  0.10540700  0.25927700  1
  O  O64  1  0.33422400  0.22299600  0.40918000  1
  O  O65  1  0.87254600  0.60232500  0.44227100  1
  O  O66  1  0.61230900  0.11923300  0.94281400  1
  O  O67  1  0.58666300  0.69953200  0.93780600  1
  O  O68  1  0.41333700  0.30046800  0.06219400  1
  O  O69  1  0.12745400  0.39767500  0.55772900  1
  O  O70  1  0.32318300  0.19159200  0.90899500  1
  O  O71  1  0.92583900  0.19185100  0.43381900  1
