# generated using pymatgen
data_AlRu2W
_symmetry_space_group_name_H-M   'P 1'
_cell_length_a   10.25599463
_cell_length_b   10.25599463
_cell_length_c   10.25599463
_cell_angle_alpha   126.30773366
_cell_angle_beta   117.84387815
_cell_angle_gamma   86.60691549
_symmetry_Int_Tables_number   1
_chemical_formula_structural   AlRu2W
_chemical_formula_sum   'Al1 Ru2 W1'
_cell_volume   732.04396672
_cell_formula_units_Z   1
loop_
 _symmetry_equiv_pos_site_id
 _symmetry_equiv_pos_as_xyz
  1  'x, y, z'
loop_
 _atom_site_type_symbol
 _atom_site_label
 _atom_site_symmetry_multiplicity
 _atom_site_fract_x
 _atom_site_fract_y
 _atom_site_fract_z
 _atom_site_occupancy
  Al  Al0  1  0.00000000  0.00000000  0.00000000  1
  Ru  Ru1  1  0.00000000  0.27043900  0.27043900  1
  Ru  Ru2  1  0.00000000  0.72956100  0.72956100  1
  W  W3  1  0.00000000  0.50000000  0.50000000  1
