# generated using pymatgen
data_KCS2N(O2F)2
_symmetry_space_group_name_H-M   'P 1'
_cell_length_a   10.76850100
_cell_length_b   11.14245000
_cell_length_c   11.52956700
_cell_angle_alpha   90.00000000
_cell_angle_beta   90.00000000
_cell_angle_gamma   90.00000000
_symmetry_Int_Tables_number   1
_chemical_formula_structural   KCS2N(O2F)2
_chemical_formula_sum   'K8 C8 S16 N8 O32 F16'
_cell_volume   1383.40373556
_cell_formula_units_Z   8
loop_
 _symmetry_equiv_pos_site_id
 _symmetry_equiv_pos_as_xyz
  1  'x, y, z'
loop_
 _atom_site_type_symbol
 _atom_site_label
 _atom_site_symmetry_multiplicity
 _atom_site_fract_x
 _atom_site_fract_y
 _atom_site_fract_z
 _atom_site_occupancy
  K  K0  1  0.76294500  0.95737900  0.28478900  1
  K  K1  1  0.26294500  0.04262100  0.71521100  1
  K  K2  1  0.26376000  0.01334500  0.28732600  1
  K  K3  1  0.26294500  0.45737900  0.21521100  1
  K  K4  1  0.26376000  0.48665500  0.78732600  1
  K  K5  1  0.76376000  0.51334500  0.21267400  1
  K  K6  1  0.76376000  0.98665500  0.71267400  1
  K  K7  1  0.76294500  0.54262100  0.78478900  1
  C  C8  1  0.53774600  0.28676600  0.48684700  1
  C  C9  1  0.94850000  0.19840600  0.00599600  1
  C  C10  1  0.44850000  0.80159400  0.99400400  1
  C  C11  1  0.03774600  0.71323400  0.51315300  1
  C  C12  1  0.94850000  0.30159400  0.50599600  1
  C  C13  1  0.03774600  0.78676600  0.01315300  1
  C  C14  1  0.53774600  0.21323400  0.98684700  1
  C  C15  1  0.44850000  0.69840600  0.49400400  1
  S  S16  1  0.50014300  0.71164100  0.33805500  1
  S  S17  1  0.56692500  0.29222200  0.64891400  1
  S  S18  1  0.00014300  0.28835900  0.66194500  1
  S  S19  1  0.06692500  0.70777800  0.35108600  1
  S  S20  1  0.12107700  0.18977700  0.97729300  1
  S  S21  1  0.52197300  0.11997500  0.51499000  1
  S  S22  1  0.06692500  0.79222200  0.85108600  1
  S  S23  1  0.02197300  0.88002500  0.48501000  1
  S  S24  1  0.62107700  0.68977700  0.52270700  1
  S  S25  1  0.00014300  0.21164100  0.16194500  1
  S  S26  1  0.12107700  0.31022300  0.47729300  1
  S  S27  1  0.62107700  0.81022300  0.02270700  1
  S  S28  1  0.52197300  0.38002500  0.01499000  1
  S  S29  1  0.02197300  0.61997500  0.98501000  1
  S  S30  1  0.56692500  0.20777800  0.14891400  1
  S  S31  1  0.50014300  0.78835900  0.83805500  1
  N  N32  1  0.14188100  0.22117900  0.11347500  1
  N  N33  1  0.64188100  0.77882100  0.88652500  1
  N  N34  1  0.14188100  0.27882100  0.61347500  1
  N  N35  1  0.64188100  0.72117900  0.38652500  1
  N  N36  1  0.03610200  0.64973300  0.84828800  1
  N  N37  1  0.53610200  0.14973300  0.65171200  1
  N  N38  1  0.03610200  0.85026700  0.34828800  1
  N  N39  1  0.53610200  0.35026700  0.15171200  1
  O  O40  1  0.45982900  0.82252800  0.28331900  1
  O  O41  1  0.39932400  0.07356900  0.48776100  1
  O  O42  1  0.62769300  0.05560600  0.46747300  1
  O  O43  1  0.15459700  0.06743000  0.94584200  1
  O  O44  1  0.69603700  0.31878300  0.67464700  1
  O  O45  1  0.65459700  0.56743000  0.55415800  1
  O  O46  1  0.47539200  0.89991500  0.77681000  1
  O  O47  1  0.97539200  0.39991500  0.72319000  1
  O  O48  1  0.66700800  0.78275700  0.59965500  1
  O  O49  1  0.39932400  0.42643100  0.98776100  1
  O  O50  1  0.95982900  0.17747200  0.71668100  1
  O  O51  1  0.89932400  0.92643100  0.51223900  1
  O  O52  1  0.16700800  0.21724300  0.40034500  1
  O  O53  1  0.16700800  0.28275700  0.90034500  1
  O  O54  1  0.19603700  0.68121700  0.32535300  1
  O  O55  1  0.89932400  0.57356900  0.01223900  1
  O  O56  1  0.65459700  0.93257000  0.05415800  1
  O  O57  1  0.97453400  0.86280900  0.78977300  1
  O  O58  1  0.95982900  0.32252800  0.21668100  1
  O  O59  1  0.12769300  0.94439400  0.53252700  1
  O  O60  1  0.12769300  0.55560600  0.03252700  1
  O  O61  1  0.97453400  0.63719100  0.28977300  1
  O  O62  1  0.45982900  0.67747200  0.78331900  1
  O  O63  1  0.69603700  0.18121700  0.17464700  1
  O  O64  1  0.47539200  0.60008500  0.27681000  1
  O  O65  1  0.66700800  0.71724300  0.09965500  1
  O  O66  1  0.97539200  0.10008500  0.22319000  1
  O  O67  1  0.19603700  0.81878300  0.82535300  1
  O  O68  1  0.62769300  0.44439400  0.96747300  1
  O  O69  1  0.47453400  0.36280900  0.71022700  1
  O  O70  1  0.15459700  0.43257000  0.44584200  1
  O  O71  1  0.47453400  0.13719100  0.21022700  1
  F  F72  1  0.43303100  0.34214300  0.45204300  1
  F  F73  1  0.93303100  0.65785700  0.54795700  1
  F  F74  1  0.93303100  0.84214300  0.04795700  1
  F  F75  1  0.13245600  0.68092600  0.58242100  1
  F  F76  1  0.39118700  0.79683900  0.53514100  1
  F  F77  1  0.88286000  0.09979100  0.97806900  1
  F  F78  1  0.63245600  0.31907400  0.41757900  1
  F  F79  1  0.39118700  0.70316100  0.03514100  1
  F  F80  1  0.88286000  0.40020900  0.47806900  1
  F  F81  1  0.38286000  0.90020900  0.02193100  1
  F  F82  1  0.89118700  0.29683900  0.96485900  1
  F  F83  1  0.63245600  0.18092600  0.91757900  1
  F  F84  1  0.43303100  0.15785700  0.95204300  1
  F  F85  1  0.89118700  0.20316100  0.46485900  1
  F  F86  1  0.38286000  0.59979100  0.52193100  1
  F  F87  1  0.13245600  0.81907400  0.08242100  1
