# generated using pymatgen
data_Ce3Si2S8I
_symmetry_space_group_name_H-M   'P 1'
_cell_length_a   8.95993051
_cell_length_b   8.95993051
_cell_length_c   10.91205918
_cell_angle_alpha   82.90136589
_cell_angle_beta   82.90136589
_cell_angle_gamma   52.24570015
_symmetry_Int_Tables_number   1
_chemical_formula_structural   Ce3Si2S8I
_chemical_formula_sum   'Ce6 Si4 S16 I2'
_cell_volume   686.03088964
_cell_formula_units_Z   2
loop_
 _symmetry_equiv_pos_site_id
 _symmetry_equiv_pos_as_xyz
  1  'x, y, z'
loop_
 _atom_site_type_symbol
 _atom_site_label
 _atom_site_symmetry_multiplicity
 _atom_site_fract_x
 _atom_site_fract_y
 _atom_site_fract_z
 _atom_site_occupancy
  Ce  Ce0  1  0.07688400  0.32102600  0.81902000  1
  Ce  Ce1  1  0.40464700  0.59535300  0.75000000  1
  Ce  Ce2  1  0.92311600  0.67897400  0.18098000  1
  Ce  Ce3  1  0.67897400  0.92311600  0.68098000  1
  Ce  Ce4  1  0.59535300  0.40464700  0.25000000  1
  Ce  Ce5  1  0.32102600  0.07688400  0.31902000  1
  Si  Si6  1  0.62302800  0.69667500  0.97018900  1
  Si  Si7  1  0.69667500  0.62302800  0.47018900  1
  Si  Si8  1  0.30332500  0.37697200  0.52981100  1
  Si  Si9  1  0.37697200  0.30332500  0.02981100  1
  S  S10  1  0.59978200  0.11101200  0.14809100  1
  S  S11  1  0.25021200  0.44981500  0.33891600  1
  S  S12  1  0.74978800  0.55018500  0.66108400  1
  S  S13  1  0.71287300  0.85039000  0.41412000  1
  S  S14  1  0.27739900  0.58522900  0.04343500  1
  S  S15  1  0.28712700  0.14961000  0.58588000  1
  S  S16  1  0.44981500  0.25021200  0.83891600  1
  S  S17  1  0.58522900  0.27739900  0.54343500  1
  S  S18  1  0.85039000  0.71287300  0.91412000  1
  S  S19  1  0.88898800  0.40021800  0.35190900  1
  S  S20  1  0.40021800  0.88898800  0.85190900  1
  S  S21  1  0.55018500  0.74978800  0.16108400  1
  S  S22  1  0.72260100  0.41477100  0.95656500  1
  S  S23  1  0.11101200  0.59978200  0.64809100  1
  S  S24  1  0.41477100  0.72260100  0.45656500  1
  S  S25  1  0.14961000  0.28712700  0.08588000  1
  I  I26  1  0.98631800  0.01368200  0.75000000  1
  I  I27  1  0.01368200  0.98631800  0.25000000  1
