# generated using pymatgen
data_Sr7Zr(Si2O7)3
_symmetry_space_group_name_H-M   'P 1'
_cell_length_a   8.51788771
_cell_length_b   8.51788771
_cell_length_c   8.51788847
_cell_angle_alpha   106.06693828
_cell_angle_beta   106.06693828
_cell_angle_gamma   106.06694081
_symmetry_Int_Tables_number   1
_chemical_formula_structural   Sr7Zr(Si2O7)3
_chemical_formula_sum   'Sr7 Zr1 Si6 O21'
_cell_volume   527.23703164
_cell_formula_units_Z   1
loop_
 _symmetry_equiv_pos_site_id
 _symmetry_equiv_pos_as_xyz
  1  'x, y, z'
loop_
 _atom_site_type_symbol
 _atom_site_label
 _atom_site_symmetry_multiplicity
 _atom_site_fract_x
 _atom_site_fract_y
 _atom_site_fract_z
 _atom_site_occupancy
  Sr  Sr0  1  0.15176400  0.62844100  0.75051500  1
  Sr  Sr1  1  0.24948500  0.84823600  0.37155900  1
  Sr  Sr2  1  0.50000000  0.50000000  0.50000000  1
  Sr  Sr3  1  0.84823600  0.37155900  0.24948500  1
  Sr  Sr4  1  0.75051500  0.15176400  0.62844100  1
  Sr  Sr5  1  0.37155900  0.24948500  0.84823600  1
  Sr  Sr6  1  0.62844100  0.75051500  0.15176400  1
  Zr  Zr7  1  0.00000000  0.00000000  0.00000000  1
  Si  Si8  1  0.54200200  0.92696600  0.81711600  1
  Si  Si9  1  0.81711600  0.54200200  0.92696600  1
  Si  Si10  1  0.07303400  0.18288400  0.45799800  1
  Si  Si11  1  0.18288400  0.45799800  0.07303400  1
  Si  Si12  1  0.92696600  0.81711600  0.54200200  1
  Si  Si13  1  0.45799800  0.07303400  0.18288400  1
  O  O14  1  0.71479000  0.74509500  0.45536200  1
  O  O15  1  0.45816700  0.01222700  0.68138800  1
  O  O16  1  0.24218200  0.98322500  0.12481100  1
  O  O17  1  0.98322500  0.12481100  0.24218200  1
  O  O18  1  0.45536200  0.71479000  0.74509500  1
  O  O19  1  0.68138800  0.45816700  0.01222700  1
  O  O20  1  0.54463800  0.28521000  0.25490500  1
  O  O21  1  0.74509500  0.45536200  0.71479000  1
  O  O22  1  0.98777300  0.31861200  0.54183300  1
  O  O23  1  0.75781800  0.01677500  0.87518900  1
  O  O24  1  0.01222700  0.68138800  0.45816700  1
  O  O25  1  0.28521000  0.25490500  0.54463800  1
  O  O26  1  0.01677500  0.87518900  0.75781800  1
  O  O27  1  0.87518900  0.75781800  0.01677500  1
  O  O28  1  0.50000000  0.00000000  0.00000000  1
  O  O29  1  0.31861200  0.54183300  0.98777300  1
  O  O30  1  0.00000000  0.00000000  0.50000000  1
  O  O31  1  0.54183300  0.98777300  0.31861200  1
  O  O32  1  0.25490500  0.54463800  0.28521000  1
  O  O33  1  0.00000000  0.50000000  0.00000000  1
  O  O34  1  0.12481100  0.24218200  0.98322500  1
