# generated using pymatgen
data_K2S2NO7
_symmetry_space_group_name_H-M   'P 1'
_cell_length_a   7.28444700
_cell_length_b   7.45064564
_cell_length_c   7.79876852
_cell_angle_alpha   67.79491441
_cell_angle_beta   81.19492327
_cell_angle_gamma   82.10974032
_symmetry_Int_Tables_number   1
_chemical_formula_structural   K2S2NO7
_chemical_formula_sum   'K4 S4 N2 O14'
_cell_volume   385.79781904
_cell_formula_units_Z   2
loop_
 _symmetry_equiv_pos_site_id
 _symmetry_equiv_pos_as_xyz
  1  'x, y, z'
loop_
 _atom_site_type_symbol
 _atom_site_label
 _atom_site_symmetry_multiplicity
 _atom_site_fract_x
 _atom_site_fract_y
 _atom_site_fract_z
 _atom_site_occupancy
  K  K0  1  0.69234400  0.85036000  0.66054700  1
  K  K1  1  0.19210300  0.72178900  0.07651100  1
  K  K2  1  0.30765600  0.14964000  0.33945300  1
  K  K3  1  0.80789700  0.27821100  0.92348900  1
  S  S4  1  0.64336200  0.73894700  0.17185800  1
  S  S5  1  0.18385000  0.69020300  0.62536300  1
  S  S6  1  0.81615000  0.30979700  0.37463700  1
  S  S7  1  0.35663800  0.26105300  0.82814200  1
  N  N8  1  0.65975200  0.52466500  0.38972500  1
  N  N9  1  0.34024800  0.47533500  0.61027500  1
  O  O10  1  0.82047700  0.82734200  0.12468200  1
  O  O11  1  0.88399000  0.22073200  0.55689200  1
  O  O12  1  0.03958100  0.60717800  0.77879000  1
  O  O13  1  0.39579700  0.34842400  0.95653700  1
  O  O14  1  0.51259900  0.14343900  0.77225400  1
  O  O15  1  0.64432800  0.55547600  0.54000100  1
  O  O16  1  0.11601000  0.77926800  0.44310800  1
  O  O17  1  0.17952300  0.17265800  0.87531800  1
  O  O18  1  0.30512500  0.80612300  0.66728100  1
  O  O19  1  0.48740100  0.85656100  0.22774600  1
  O  O20  1  0.60420300  0.65157600  0.04346300  1
  O  O21  1  0.35567200  0.44452400  0.45999900  1
  O  O22  1  0.96041900  0.39282200  0.22121000  1
  O  O23  1  0.69487500  0.19387700  0.33271900  1
