# generated using pymatgen
data_NbS2
_symmetry_space_group_name_H-M   'P 1'
_cell_length_a   22.28950508
_cell_length_b   22.16336775
_cell_length_c   3.35617862
_cell_angle_alpha   87.82086123
_cell_angle_beta   83.52536486
_cell_angle_gamma   8.65377391
_symmetry_Int_Tables_number   1
_chemical_formula_structural   NbS2
_chemical_formula_sum   'Nb1 S2'
_cell_volume   215.89258447
_cell_formula_units_Z   1
loop_
 _symmetry_equiv_pos_site_id
 _symmetry_equiv_pos_as_xyz
  1  'x, y, z'
loop_
 _atom_site_type_symbol
 _atom_site_label
 _atom_site_symmetry_multiplicity
 _atom_site_fract_x
 _atom_site_fract_y
 _atom_site_fract_z
 _atom_site_occupancy
  Nb  Nb0  1  0.07053900  0.92946100  0.07053900  1
  S  S1  1  0.70116400  0.22790300  0.77209700  1
  S  S2  1  0.77209700  0.29883600  0.70116400  1
