# generated using pymatgen
data_MnCrF5
_symmetry_space_group_name_H-M   'P 1'
_cell_length_a   5.43416175
_cell_length_b   5.43416175
_cell_length_c   7.51948572
_cell_angle_alpha   69.70123169
_cell_angle_beta   69.70123169
_cell_angle_gamma   72.35506694
_symmetry_Int_Tables_number   1
_chemical_formula_structural   MnCrF5
_chemical_formula_sum   'Mn2 Cr2 F10'
_cell_volume   191.06472902
_cell_formula_units_Z   2
loop_
 _symmetry_equiv_pos_site_id
 _symmetry_equiv_pos_as_xyz
  1  'x, y, z'
loop_
 _atom_site_type_symbol
 _atom_site_label
 _atom_site_symmetry_multiplicity
 _atom_site_fract_x
 _atom_site_fract_y
 _atom_site_fract_z
 _atom_site_occupancy
  Mn  Mn0  1  0.46684800  0.53315200  0.75000000  1
  Mn  Mn1  1  0.53315200  0.46684800  0.25000000  1
  Cr  Cr2  1  0.00000000  0.00000000  0.00000000  1
  Cr  Cr3  1  0.00000000  0.00000000  0.50000000  1
  F  F4  1  0.27402100  0.20902700  0.37167400  1
  F  F5  1  0.79097300  0.72597900  0.12832600  1
  F  F6  1  0.72597900  0.79097300  0.62832600  1
  F  F7  1  0.20902700  0.27402100  0.87167400  1
  F  F8  1  0.09469300  0.90530700  0.75000000  1
  F  F9  1  0.90530700  0.09469300  0.25000000  1
  F  F10  1  0.31637500  0.71913700  0.03503000  1
  F  F11  1  0.28086300  0.68362500  0.46497000  1
  F  F12  1  0.68362500  0.28086300  0.96497000  1
  F  F13  1  0.71913700  0.31637500  0.53503000  1
