# generated using pymatgen
data_Sr2VO4
_symmetry_space_group_name_H-M   'P 1'
_cell_length_a   5.90434900
_cell_length_b   10.23618600
_cell_length_c   14.25889400
_cell_angle_alpha   90.00000000
_cell_angle_beta   90.00000000
_cell_angle_gamma   90.00000000
_symmetry_Int_Tables_number   1
_chemical_formula_structural   Sr2VO4
_chemical_formula_sum   'Sr16 V8 O32'
_cell_volume   861.77924337
_cell_formula_units_Z   8
loop_
 _symmetry_equiv_pos_site_id
 _symmetry_equiv_pos_as_xyz
  1  'x, y, z'
loop_
 _atom_site_type_symbol
 _atom_site_label
 _atom_site_symmetry_multiplicity
 _atom_site_fract_x
 _atom_site_fract_y
 _atom_site_fract_z
 _atom_site_occupancy
  Sr  Sr0  1  0.80681800  0.14199600  0.79405100  1
  Sr  Sr1  1  0.30979100  0.91779700  0.87966800  1
  Sr  Sr2  1  0.22540600  0.27263100  0.45033600  1
  Sr  Sr3  1  0.30681800  0.64199600  0.70594900  1
  Sr  Sr4  1  0.77459400  0.77263100  0.54966400  1
  Sr  Sr5  1  0.72970700  0.49581200  0.37004700  1
  Sr  Sr6  1  0.69020900  0.41779700  0.12033200  1
  Sr  Sr7  1  0.69318200  0.14199600  0.29405100  1
  Sr  Sr8  1  0.72540600  0.77263100  0.04966400  1
  Sr  Sr9  1  0.80979100  0.41779700  0.62033200  1
  Sr  Sr10  1  0.77029300  0.49581200  0.87004700  1
  Sr  Sr11  1  0.22970700  0.99581200  0.12995300  1
  Sr  Sr12  1  0.19020900  0.91779700  0.37966800  1
  Sr  Sr13  1  0.19318200  0.64199600  0.20594900  1
  Sr  Sr14  1  0.27459400  0.27263100  0.95033600  1
  Sr  Sr15  1  0.27029300  0.99581200  0.62995300  1
  V  V16  1  0.22249800  0.62624200  0.97262600  1
  V  V17  1  0.80424300  0.78680800  0.77679000  1
  V  V18  1  0.69575700  0.78680800  0.27679000  1
  V  V19  1  0.30424300  0.28680800  0.72321000  1
  V  V20  1  0.27750200  0.62624200  0.47262600  1
  V  V21  1  0.72249800  0.12624200  0.52737400  1
  V  V22  1  0.77750200  0.12624200  0.02737400  1
  V  V23  1  0.19575700  0.28680800  0.22321000  1
  O  O24  1  0.96412800  0.55654200  0.02625200  1
  O  O25  1  0.49465500  0.42397300  0.74285300  1
  O  O26  1  0.04981400  0.34812400  0.79191000  1
  O  O27  1  0.03587200  0.05654200  0.97374800  1
  O  O28  1  0.56484600  0.00308800  0.01154800  1
  O  O29  1  0.06484600  0.50308800  0.48845200  1
  O  O30  1  0.85820100  0.73942100  0.37859300  1
  O  O31  1  0.45018600  0.34812400  0.29191000  1
  O  O32  1  0.86690600  0.64311400  0.69881500  1
  O  O33  1  0.35820100  0.23942100  0.12140700  1
  O  O34  1  0.78623200  0.26861800  0.45260700  1
  O  O35  1  0.63309400  0.64311400  0.19881500  1
  O  O36  1  0.93515400  0.00308800  0.51154800  1
  O  O37  1  0.62074600  0.19083300  0.63875100  1
  O  O38  1  0.99465500  0.92397300  0.75714700  1
  O  O39  1  0.28623200  0.76861800  0.04739300  1
  O  O40  1  0.50534500  0.92397300  0.25714700  1
  O  O41  1  0.71376800  0.26861800  0.95260700  1
  O  O42  1  0.95018600  0.84812400  0.20809000  1
  O  O43  1  0.87925400  0.19083300  0.13875100  1
  O  O44  1  0.54981400  0.84812400  0.70809000  1
  O  O45  1  0.37925400  0.69083300  0.36124900  1
  O  O46  1  0.36690600  0.14311400  0.80118500  1
  O  O47  1  0.13309400  0.14311400  0.30118500  1
  O  O48  1  0.64179900  0.73942100  0.87859300  1
  O  O49  1  0.53587200  0.55654200  0.52625200  1
  O  O50  1  0.21376800  0.76861800  0.54739300  1
  O  O51  1  0.14179900  0.23942100  0.62140700  1
  O  O52  1  0.43515400  0.50308800  0.98845200  1
  O  O53  1  0.00534500  0.42397300  0.24285300  1
  O  O54  1  0.12074600  0.69083300  0.86124900  1
  O  O55  1  0.46412800  0.05654200  0.47374800  1
