# generated using pymatgen
data_ZrAgAu2
_symmetry_space_group_name_H-M   'P 1'
_cell_length_a   11.26577826
_cell_length_b   11.26577826
_cell_length_c   11.26577826
_cell_angle_alpha   123.96099547
_cell_angle_beta   118.62661825
_cell_angle_gamma   87.83782615
_symmetry_Int_Tables_number   1
_chemical_formula_structural   ZrAgAu2
_chemical_formula_sum   'Zr1 Ag1 Au2'
_cell_volume   987.68823484
_cell_formula_units_Z   1
loop_
 _symmetry_equiv_pos_site_id
 _symmetry_equiv_pos_as_xyz
  1  'x, y, z'
loop_
 _atom_site_type_symbol
 _atom_site_label
 _atom_site_symmetry_multiplicity
 _atom_site_fract_x
 _atom_site_fract_y
 _atom_site_fract_z
 _atom_site_occupancy
  Zr  Zr0  1  0.00000000  0.00000000  0.00000000  1
  Ag  Ag1  1  0.00000000  0.50000000  0.50000000  1
  Au  Au2  1  0.00000000  0.24797000  0.24797000  1
  Au  Au3  1  0.00000000  0.75203000  0.75203000  1
