# generated using pymatgen
data_Ba9Fe4S15
_symmetry_space_group_name_H-M   'P 1'
_cell_length_a   9.63431949
_cell_length_b   12.71922483
_cell_length_c   25.39013093
_cell_angle_alpha   90.00000000
_cell_angle_beta   90.00000000
_cell_angle_gamma   90.00000000
_symmetry_Int_Tables_number   1
_chemical_formula_structural   Ba9Fe4S15
_chemical_formula_sum   'Ba36 Fe16 S60'
_cell_volume   3111.33395575
_cell_formula_units_Z   4
loop_
 _symmetry_equiv_pos_site_id
 _symmetry_equiv_pos_as_xyz
  1  'x, y, z'
loop_
 _atom_site_type_symbol
 _atom_site_label
 _atom_site_symmetry_multiplicity
 _atom_site_fract_x
 _atom_site_fract_y
 _atom_site_fract_z
 _atom_site_occupancy
  Ba  Ba0  1  0.48890144  0.32047833  0.51314286  1
  Ba  Ba1  1  0.25000000  0.55589045  0.64249989  1
  Ba  Ba2  1  0.46882818  0.86963737  0.64037598  1
  Ba  Ba3  1  0.01482372  0.80137741  0.30710187  1
  Ba  Ba4  1  0.75000000  0.46178166  0.02167757  1
  Ba  Ba5  1  0.48890144  0.17952167  0.01314286  1
  Ba  Ba6  1  0.25000000  0.53821834  0.97832243  1
  Ba  Ba7  1  0.75000000  0.03821834  0.52167757  1
  Ba  Ba8  1  0.03117182  0.63036263  0.14037598  1
  Ba  Ba9  1  0.75000000  0.47536002  0.70782538  1
  Ba  Ba10  1  0.25000000  0.94410955  0.14249989  1
  Ba  Ba11  1  0.46882818  0.63036263  0.14037598  1
  Ba  Ba12  1  0.51482372  0.19862259  0.69289813  1
  Ba  Ba13  1  0.53117182  0.36963737  0.85962402  1
  Ba  Ba14  1  0.51109856  0.82047833  0.98685714  1
  Ba  Ba15  1  0.98890144  0.82047833  0.98685714  1
  Ba  Ba16  1  0.75000000  0.02463998  0.20782538  1
  Ba  Ba17  1  0.48517628  0.80137741  0.30710187  1
  Ba  Ba18  1  0.51482372  0.30137741  0.19289813  1
  Ba  Ba19  1  0.48517628  0.69862259  0.80710187  1
  Ba  Ba20  1  0.53117182  0.13036263  0.35962402  1
  Ba  Ba21  1  0.75000000  0.05589045  0.85750011  1
  Ba  Ba22  1  0.51109856  0.67952167  0.48685714  1
  Ba  Ba23  1  0.75000000  0.44410955  0.35750011  1
  Ba  Ba24  1  0.25000000  0.96178166  0.47832243  1
  Ba  Ba25  1  0.98517628  0.30137741  0.19289813  1
  Ba  Ba26  1  0.98517628  0.19862259  0.69289813  1
  Ba  Ba27  1  0.96882818  0.13036263  0.35962402  1
  Ba  Ba28  1  0.25000000  0.97536002  0.79217462  1
  Ba  Ba29  1  0.98890144  0.67952167  0.48685714  1
  Ba  Ba30  1  0.96882818  0.36963737  0.85962402  1
  Ba  Ba31  1  0.01109856  0.32047833  0.51314286  1
  Ba  Ba32  1  0.01109856  0.17952167  0.01314286  1
  Ba  Ba33  1  0.25000000  0.52463998  0.29217462  1
  Ba  Ba34  1  0.01482372  0.69862259  0.80710187  1
  Ba  Ba35  1  0.03117182  0.86963737  0.64037598  1
  Fe  Fe36  1  0.25000000  0.08028206  0.27630045  1
  Fe  Fe37  1  0.25000000  0.36894932  0.09881572  1
  Fe  Fe38  1  0.25000000  0.32209991  0.38398422  1
  Fe  Fe39  1  0.25000000  0.51624534  0.42674231  1
  Fe  Fe40  1  0.25000000  0.17790009  0.88398422  1
  Fe  Fe41  1  0.75000000  0.82209991  0.11601578  1
  Fe  Fe42  1  0.75000000  0.63105068  0.90118428  1
  Fe  Fe43  1  0.75000000  0.67790009  0.61601578  1
  Fe  Fe44  1  0.75000000  0.86894932  0.40118428  1
  Fe  Fe45  1  0.75000000  0.58028206  0.22369955  1
  Fe  Fe46  1  0.75000000  0.48375466  0.57325769  1
  Fe  Fe47  1  0.75000000  0.01624534  0.07325769  1
  Fe  Fe48  1  0.25000000  0.98375466  0.92674231  1
  Fe  Fe49  1  0.75000000  0.91971794  0.72369955  1
  Fe  Fe50  1  0.25000000  0.41971794  0.77630045  1
  Fe  Fe51  1  0.25000000  0.13105068  0.59881572  1
  S  S52  1  0.94951947  0.91746896  0.43870821  1
  S  S53  1  0.44417463  0.44846723  0.73304138  1
  S  S54  1  0.25000000  0.72252157  0.06008925  1
  S  S55  1  0.75000000  0.73907843  0.70190069  1
  S  S56  1  0.25000000  0.99320975  0.01309756  1
  S  S57  1  0.25000000  0.68225051  0.39393658  1
  S  S58  1  0.93735297  0.92699248  0.10509071  1
  S  S59  1  0.75000000  0.95389352  0.32292084  1
  S  S60  1  0.25000000  0.26092157  0.29809931  1
  S  S61  1  0.25000000  0.30133482  0.94357598  1
  S  S62  1  0.44951947  0.08253104  0.56129179  1
  S  S63  1  0.43735297  0.07300752  0.89490929  1
  S  S64  1  0.75000000  0.22252157  0.43991075  1
  S  S65  1  0.75000000  0.69689367  0.38729844  1
  S  S66  1  0.75000000  0.18225051  0.10606342  1
  S  S67  1  0.55048053  0.91746896  0.43870821  1
  S  S68  1  0.75000000  0.27747843  0.93991075  1
  S  S69  1  0.75000000  0.00679025  0.98690244  1
  S  S70  1  0.43735297  0.42699248  0.39490929  1
  S  S71  1  0.75000000  0.24352375  0.27746308  1
  S  S72  1  0.25000000  0.30310633  0.61270156  1
  S  S73  1  0.25000000  0.74352375  0.22253692  1
  S  S74  1  0.75000000  0.02676044  0.65443273  1
  S  S75  1  0.55582537  0.55153277  0.26695862  1
  S  S76  1  0.25000000  0.97323956  0.34556727  1
  S  S77  1  0.06264703  0.42699248  0.39490929  1
  S  S78  1  0.55048053  0.58253104  0.93870821  1
  S  S79  1  0.05048053  0.41746896  0.06129179  1
  S  S80  1  0.75000000  0.80133482  0.55642402  1
  S  S81  1  0.25000000  0.19866518  0.44357598  1
  S  S82  1  0.75000000  0.80310633  0.88729844  1
  S  S83  1  0.75000000  0.31774949  0.60606342  1
  S  S84  1  0.75000000  0.69866518  0.05642402  1
  S  S85  1  0.05582537  0.05153277  0.23304138  1
  S  S86  1  0.75000000  0.47323956  0.15443273  1
  S  S87  1  0.56264703  0.92699248  0.10509071  1
  S  S88  1  0.55582537  0.94846723  0.76695862  1
  S  S89  1  0.25000000  0.75647625  0.72253692  1
  S  S90  1  0.94417463  0.55153277  0.26695862  1
  S  S91  1  0.25000000  0.77747843  0.56008925  1
  S  S92  1  0.05582537  0.44846723  0.73304138  1
  S  S93  1  0.06264703  0.07300752  0.89490929  1
  S  S94  1  0.75000000  0.49320975  0.48690244  1
  S  S95  1  0.25000000  0.50679025  0.51309756  1
  S  S96  1  0.25000000  0.04610648  0.67707916  1
  S  S97  1  0.56264703  0.57300752  0.60509071  1
  S  S98  1  0.25000000  0.23907843  0.79809931  1
  S  S99  1  0.25000000  0.52676044  0.84556727  1
  S  S100  1  0.75000000  0.25647625  0.77746308  1
  S  S101  1  0.75000000  0.76092157  0.20190069  1
  S  S102  1  0.05048053  0.08253104  0.56129179  1
  S  S103  1  0.25000000  0.19689367  0.11270156  1
  S  S104  1  0.94951947  0.58253104  0.93870821  1
  S  S105  1  0.75000000  0.54610648  0.82292084  1
  S  S106  1  0.93735297  0.57300752  0.60509071  1
  S  S107  1  0.44951947  0.41746896  0.06129179  1
  S  S108  1  0.44417463  0.05153277  0.23304138  1
  S  S109  1  0.25000000  0.81774949  0.89393658  1
  S  S110  1  0.94417463  0.94846723  0.76695862  1
  S  S111  1  0.25000000  0.45389352  0.17707916  1
