# generated using pymatgen
data_NaV6O11
_symmetry_space_group_name_H-M   'P 1'
_cell_length_a   5.87462793
_cell_length_b   5.87462793
_cell_length_c   13.69435100
_cell_angle_alpha   90.00000000
_cell_angle_beta   90.00000000
_cell_angle_gamma   119.99999916
_symmetry_Int_Tables_number   1
_chemical_formula_structural   NaV6O11
_chemical_formula_sum   'Na2 V12 O22'
_cell_volume   409.29159028
_cell_formula_units_Z   2
loop_
 _symmetry_equiv_pos_site_id
 _symmetry_equiv_pos_as_xyz
  1  'x, y, z'
loop_
 _atom_site_type_symbol
 _atom_site_label
 _atom_site_symmetry_multiplicity
 _atom_site_fract_x
 _atom_site_fract_y
 _atom_site_fract_z
 _atom_site_occupancy
  Na  Na0  1  0.66666700  0.33333300  0.75000000  1
  Na  Na1  1  0.33333300  0.66666700  0.25000000  1
  V  V2  1  0.50000000  0.00000000  0.00000000  1
  V  V3  1  0.00000000  0.00000000  0.15017300  1
  V  V4  1  0.00000000  0.00000000  0.65017300  1
  V  V5  1  0.50000000  0.50000000  0.00000000  1
  V  V6  1  0.50000000  0.50000000  0.50000000  1
  V  V7  1  0.00000000  0.00000000  0.34982700  1
  V  V8  1  0.00000000  0.00000000  0.84982700  1
  V  V9  1  0.00000000  0.50000000  0.00000000  1
  V  V10  1  0.66666700  0.33333300  0.25000000  1
  V  V11  1  0.00000000  0.50000000  0.50000000  1
  V  V12  1  0.33333300  0.66666700  0.75000000  1
  V  V13  1  0.50000000  0.00000000  0.50000000  1
  O  O14  1  0.66103800  0.83051900  0.42728800  1
  O  O15  1  0.16948100  0.83051900  0.07271200  1
  O  O16  1  0.73365400  0.86682700  0.25000000  1
  O  O17  1  0.26634600  0.13317300  0.75000000  1
  O  O18  1  0.13317300  0.86682700  0.25000000  1
  O  O19  1  0.13317300  0.26634600  0.25000000  1
  O  O20  1  0.33896200  0.16948100  0.92728800  1
  O  O21  1  0.16948100  0.33896200  0.07271200  1
  O  O22  1  0.83051900  0.66103800  0.57271200  1
  O  O23  1  0.83051900  0.16948100  0.92728800  1
  O  O24  1  0.86682700  0.13317300  0.75000000  1
  O  O25  1  0.33333300  0.66666700  0.58657500  1
  O  O26  1  0.16948100  0.33896200  0.42728800  1
  O  O27  1  0.16948100  0.83051900  0.42728800  1
  O  O28  1  0.83051900  0.16948100  0.57271200  1
  O  O29  1  0.66666700  0.33333300  0.08657500  1
  O  O30  1  0.66103800  0.83051900  0.07271200  1
  O  O31  1  0.83051900  0.66103800  0.92728800  1
  O  O32  1  0.33896200  0.16948100  0.57271200  1
  O  O33  1  0.33333300  0.66666700  0.91342500  1
  O  O34  1  0.66666700  0.33333300  0.41342500  1
  O  O35  1  0.86682700  0.73365400  0.75000000  1
