# generated using pymatgen
data_Rb3Ti3(PO4)5
_symmetry_space_group_name_H-M   'P 1'
_cell_length_a   6.37505800
_cell_length_b   15.08531800
_cell_length_c   18.67948600
_cell_angle_alpha   90.00000000
_cell_angle_beta   90.00000000
_cell_angle_gamma   90.00000000
_symmetry_Int_Tables_number   1
_chemical_formula_structural   Rb3Ti3(PO4)5
_chemical_formula_sum   'Rb12 Ti12 P20 O80'
_cell_volume   1796.40200680
_cell_formula_units_Z   4
loop_
 _symmetry_equiv_pos_site_id
 _symmetry_equiv_pos_as_xyz
  1  'x, y, z'
loop_
 _atom_site_type_symbol
 _atom_site_label
 _atom_site_symmetry_multiplicity
 _atom_site_fract_x
 _atom_site_fract_y
 _atom_site_fract_z
 _atom_site_occupancy
  Rb  Rb0  1  0.63300100  0.47222500  0.84905600  1
  Rb  Rb1  1  0.65953000  0.75000000  0.82664400  1
  Rb  Rb2  1  0.36699900  0.02777500  0.34905600  1
  Rb  Rb3  1  0.63300100  0.52777500  0.65094400  1
  Rb  Rb4  1  0.36699900  0.52777500  0.15094400  1
  Rb  Rb5  1  0.63300100  0.02777500  0.84905600  1
  Rb  Rb6  1  0.63300100  0.97222500  0.65094400  1
  Rb  Rb7  1  0.65953000  0.25000000  0.67335600  1
  Rb  Rb8  1  0.34047000  0.75000000  0.32664400  1
  Rb  Rb9  1  0.34047000  0.25000000  0.17335600  1
  Rb  Rb10  1  0.36699900  0.97222500  0.15094400  1
  Rb  Rb11  1  0.36699900  0.47222500  0.34905600  1
  Ti  Ti12  1  0.25472300  0.25000000  0.85307400  1
  Ti  Ti13  1  0.75641900  0.36820300  0.04711700  1
  Ti  Ti14  1  0.75641900  0.63179700  0.45288300  1
  Ti  Ti15  1  0.24358100  0.13179700  0.54711700  1
  Ti  Ti16  1  0.75641900  0.86820300  0.45288300  1
  Ti  Ti17  1  0.25472300  0.75000000  0.64692600  1
  Ti  Ti18  1  0.24358100  0.63179700  0.95288300  1
  Ti  Ti19  1  0.24358100  0.36820300  0.54711700  1
  Ti  Ti20  1  0.74527700  0.75000000  0.14692600  1
  Ti  Ti21  1  0.74527700  0.25000000  0.35307400  1
  Ti  Ti22  1  0.75641900  0.13179700  0.04711700  1
  Ti  Ti23  1  0.24358100  0.86820300  0.95288300  1
  P  P24  1  0.74559500  0.10103100  0.49555800  1
  P  P25  1  0.24306600  0.25000000  0.39837900  1
  P  P26  1  0.74559500  0.39896900  0.49555800  1
  P  P27  1  0.25440500  0.60103100  0.50444200  1
  P  P28  1  0.14646800  0.59589900  0.77566700  1
  P  P29  1  0.74559500  0.60103100  0.00444200  1
  P  P30  1  0.14646800  0.40410100  0.72433300  1
  P  P31  1  0.85353200  0.90410100  0.27566700  1
  P  P32  1  0.85353200  0.09589900  0.22433300  1
  P  P33  1  0.24306600  0.75000000  0.10162100  1
  P  P34  1  0.74559500  0.89896900  0.00444200  1
  P  P35  1  0.25440500  0.89896900  0.50444200  1
  P  P36  1  0.85353200  0.40410100  0.22433300  1
  P  P37  1  0.14646800  0.90410100  0.77566700  1
  P  P38  1  0.25440500  0.10103100  0.99555800  1
  P  P39  1  0.75693400  0.25000000  0.89837900  1
  P  P40  1  0.25440500  0.39896900  0.99555800  1
  P  P41  1  0.85353200  0.59589900  0.27566700  1
  P  P42  1  0.75693400  0.75000000  0.60162100  1
  P  P43  1  0.14646800  0.09589900  0.72433300  1
  O  O44  1  0.74427700  0.00203700  0.47748900  1
  O  O45  1  0.08847100  0.09880500  0.22508800  1
  O  O46  1  0.75393900  0.83557700  0.55644300  1
  O  O47  1  0.95492500  0.25000000  0.85041100  1
  O  O48  1  0.25572300  0.99796300  0.52251100  1
  O  O49  1  0.91152900  0.40119500  0.72508800  1
  O  O50  1  0.26157300  0.34334100  0.92557500  1
  O  O51  1  0.43299400  0.25000000  0.34672800  1
  O  O52  1  0.74841300  0.39659400  0.14999600  1
  O  O53  1  0.24606100  0.33557700  0.44355700  1
  O  O54  1  0.05990400  0.87469800  0.45862600  1
  O  O55  1  0.94009600  0.37469800  0.54137400  1
  O  O56  1  0.24606100  0.66442300  0.05644300  1
  O  O57  1  0.25572300  0.49796300  0.97748900  1
  O  O58  1  0.25158700  0.60340600  0.85000400  1
  O  O59  1  0.74427700  0.50203700  0.02251100  1
  O  O60  1  0.73825200  0.84061700  0.22407400  1
  O  O61  1  0.55567300  0.37489600  0.54398200  1
  O  O62  1  0.25158700  0.10340600  0.64999600  1
  O  O63  1  0.26174800  0.65938300  0.72407400  1
  O  O64  1  0.26174800  0.15938300  0.77592600  1
  O  O65  1  0.26157300  0.84334100  0.57442500  1
  O  O66  1  0.43299400  0.75000000  0.15327200  1
  O  O67  1  0.25572300  0.50203700  0.52251100  1
  O  O68  1  0.23668600  0.50000000  0.75000000  1
  O  O69  1  0.73825200  0.65938300  0.22407400  1
  O  O70  1  0.73825200  0.15938300  0.27592600  1
  O  O71  1  0.23668600  0.00000000  0.75000000  1
  O  O72  1  0.25158700  0.89659400  0.85000400  1
  O  O73  1  0.76331400  0.50000000  0.25000000  1
  O  O74  1  0.08847100  0.90119500  0.27491200  1
  O  O75  1  0.24862500  0.75000000  0.93150500  1
  O  O76  1  0.24606100  0.16442300  0.44355700  1
  O  O77  1  0.91152900  0.59880500  0.77491200  1
  O  O78  1  0.74427700  0.49796300  0.47748900  1
  O  O79  1  0.75393900  0.33557700  0.94355700  1
  O  O80  1  0.94009600  0.12530200  0.54137400  1
  O  O81  1  0.44432700  0.62510400  0.45601800  1
  O  O82  1  0.05990400  0.37469800  0.04137400  1
  O  O83  1  0.73842700  0.15665900  0.42557500  1
  O  O84  1  0.75393900  0.66442300  0.55644300  1
  O  O85  1  0.75393900  0.16442300  0.94355700  1
  O  O86  1  0.44432700  0.87489600  0.45601800  1
  O  O87  1  0.04507500  0.75000000  0.14958900  1
  O  O88  1  0.95492500  0.75000000  0.64958900  1
  O  O89  1  0.26157300  0.65665900  0.57442500  1
  O  O90  1  0.55567300  0.12510400  0.54398200  1
  O  O91  1  0.73842700  0.84334100  0.07442500  1
  O  O92  1  0.56700600  0.75000000  0.65327200  1
  O  O93  1  0.26174800  0.34061700  0.77592600  1
  O  O94  1  0.75137500  0.25000000  0.06849500  1
  O  O95  1  0.73842700  0.34334100  0.42557500  1
  O  O96  1  0.05990400  0.12530200  0.04137400  1
  O  O97  1  0.94009600  0.62530200  0.95862600  1
  O  O98  1  0.05990400  0.62530200  0.45862600  1
  O  O99  1  0.44432700  0.12510400  0.04398200  1
  O  O100  1  0.76331400  0.00000000  0.25000000  1
  O  O101  1  0.55567300  0.62510400  0.95601800  1
  O  O102  1  0.26157300  0.15665900  0.92557500  1
  O  O103  1  0.25572300  0.00203700  0.97748900  1
  O  O104  1  0.44432700  0.37489600  0.04398200  1
  O  O105  1  0.56700600  0.25000000  0.84672800  1
  O  O106  1  0.24862500  0.25000000  0.56849500  1
  O  O107  1  0.74841300  0.60340600  0.35000400  1
  O  O108  1  0.26174800  0.84061700  0.72407400  1
  O  O109  1  0.94009600  0.87469800  0.95862600  1
  O  O110  1  0.74427700  0.99796300  0.02251100  1
  O  O111  1  0.73825200  0.34061700  0.27592600  1
  O  O112  1  0.25158700  0.39659400  0.64999600  1
  O  O113  1  0.24606100  0.83557700  0.05644300  1
  O  O114  1  0.04507500  0.25000000  0.35041100  1
  O  O115  1  0.74841300  0.89659400  0.35000400  1
  O  O116  1  0.55567300  0.87489600  0.95601800  1
  O  O117  1  0.91152900  0.90119500  0.77491200  1
  O  O118  1  0.75137500  0.75000000  0.43150500  1
  O  O119  1  0.74841300  0.10340600  0.14999600  1
  O  O120  1  0.08847100  0.59880500  0.27491200  1
  O  O121  1  0.91152900  0.09880500  0.72508800  1
  O  O122  1  0.73842700  0.65665900  0.07442500  1
  O  O123  1  0.08847100  0.40119500  0.22508800  1
