# generated using pymatgen
data_Sr5Cr3ClO12
_symmetry_space_group_name_H-M   'P 1'
_cell_length_a   10.30686755
_cell_length_b   10.30686755
_cell_length_c   7.37518200
_cell_angle_alpha   90.00000000
_cell_angle_beta   90.00000000
_cell_angle_gamma   119.99999710
_symmetry_Int_Tables_number   1
_chemical_formula_structural   Sr5Cr3ClO12
_chemical_formula_sum   'Sr10 Cr6 Cl2 O24'
_cell_volume   678.51081826
_cell_formula_units_Z   2
loop_
 _symmetry_equiv_pos_site_id
 _symmetry_equiv_pos_as_xyz
  1  'x, y, z'
loop_
 _atom_site_type_symbol
 _atom_site_label
 _atom_site_symmetry_multiplicity
 _atom_site_fract_x
 _atom_site_fract_y
 _atom_site_fract_z
 _atom_site_occupancy
  Sr  Sr0  1  0.00108200  0.74758400  0.75000000  1
  Sr  Sr1  1  0.33333300  0.66666700  0.50122800  1
  Sr  Sr2  1  0.74758400  0.74650200  0.25000000  1
  Sr  Sr3  1  0.66666700  0.33333300  0.49877200  1
  Sr  Sr4  1  0.25349800  0.00108200  0.25000000  1
  Sr  Sr5  1  0.25241600  0.25349800  0.75000000  1
  Sr  Sr6  1  0.99891800  0.25241600  0.25000000  1
  Sr  Sr7  1  0.66666700  0.33333300  0.00122800  1
  Sr  Sr8  1  0.74650200  0.99891800  0.75000000  1
  Sr  Sr9  1  0.33333300  0.66666700  0.99877200  1
  Cr  Cr10  1  0.03171800  0.40585200  0.75000000  1
  Cr  Cr11  1  0.37413400  0.96828200  0.75000000  1
  Cr  Cr12  1  0.59414800  0.62586600  0.75000000  1
  Cr  Cr13  1  0.96828200  0.59414800  0.25000000  1
  Cr  Cr14  1  0.62586600  0.03171800  0.25000000  1
  Cr  Cr15  1  0.40585200  0.37413400  0.25000000  1
  Cl  Cl16  1  0.00000000  0.00000000  0.50000000  1
  Cl  Cl17  1  0.00000000  0.00000000  0.00000000  1
  O  O18  1  0.16137500  0.68023100  0.25000000  1
  O  O19  1  0.73956500  0.09662300  0.44181700  1
  O  O20  1  0.09662300  0.35705800  0.55818300  1
  O  O21  1  0.26043500  0.90337700  0.94181700  1
  O  O22  1  0.13101600  0.60031800  0.75000000  1
  O  O23  1  0.26043500  0.90337700  0.55818300  1
  O  O24  1  0.51885600  0.83862500  0.25000000  1
  O  O25  1  0.48114400  0.16137500  0.75000000  1
  O  O26  1  0.64294200  0.73956500  0.55818300  1
  O  O27  1  0.39968200  0.53069800  0.75000000  1
  O  O28  1  0.31976900  0.48114400  0.25000000  1
  O  O29  1  0.35705800  0.26043500  0.44181700  1
  O  O30  1  0.90337700  0.64294200  0.05818300  1
  O  O31  1  0.83862500  0.31976900  0.75000000  1
  O  O32  1  0.86898400  0.39968200  0.25000000  1
  O  O33  1  0.09662300  0.35705800  0.94181700  1
  O  O34  1  0.90337700  0.64294200  0.44181700  1
  O  O35  1  0.60031800  0.46930200  0.25000000  1
  O  O36  1  0.35705800  0.26043500  0.05818300  1
  O  O37  1  0.68023100  0.51885600  0.75000000  1
  O  O38  1  0.64294200  0.73956500  0.94181700  1
  O  O39  1  0.73956500  0.09662300  0.05818300  1
  O  O40  1  0.46930200  0.86898400  0.75000000  1
  O  O41  1  0.53069800  0.13101600  0.25000000  1
