# generated using pymatgen
data_InGaPd2
_symmetry_space_group_name_H-M   'P 1'
_cell_length_a   10.90612506
_cell_length_b   10.90612506
_cell_length_c   10.90612506
_cell_angle_alpha   125.72261546
_cell_angle_beta   118.12235180
_cell_angle_gamma   86.83465002
_symmetry_Int_Tables_number   1
_chemical_formula_structural   InGaPd2
_chemical_formula_sum   'In1 Ga1 Pd2'
_cell_volume   883.88945446
_cell_formula_units_Z   1
loop_
 _symmetry_equiv_pos_site_id
 _symmetry_equiv_pos_as_xyz
  1  'x, y, z'
loop_
 _atom_site_type_symbol
 _atom_site_label
 _atom_site_symmetry_multiplicity
 _atom_site_fract_x
 _atom_site_fract_y
 _atom_site_fract_z
 _atom_site_occupancy
  In  In0  1  0.00000000  0.50000000  0.50000000  1
  Ga  Ga1  1  0.00000000  0.00000000  0.00000000  1
  Pd  Pd2  1  0.00000000  0.23739500  0.23739500  1
  Pd  Pd3  1  0.00000000  0.76260500  0.76260500  1
