# generated using pymatgen
data_ZnS
_symmetry_space_group_name_H-M   'P 1'
_cell_length_a   3.85156600
_cell_length_b   3.85156600
_cell_length_c   100.71844100
_cell_angle_alpha   90.00000000
_cell_angle_beta   90.00000000
_cell_angle_gamma   119.99999999
_symmetry_Int_Tables_number   1
_chemical_formula_structural   ZnS
_chemical_formula_sum   'Zn32 S32'
_cell_volume   1293.94052571
_cell_formula_units_Z   32
loop_
 _symmetry_equiv_pos_site_id
 _symmetry_equiv_pos_as_xyz
  1  'x, y, z'
loop_
 _atom_site_type_symbol
 _atom_site_label
 _atom_site_symmetry_multiplicity
 _atom_site_fract_x
 _atom_site_fract_y
 _atom_site_fract_z
 _atom_site_occupancy
  Zn  Zn0  1  0.00000000  0.00000000  0.87519900  1
  Zn  Zn1  1  0.66666700  0.33333300  0.03125400  1
  Zn  Zn2  1  0.33333300  0.66666700  0.68750900  1
  Zn  Zn3  1  0.66666700  0.33333300  0.49999800  1
  Zn  Zn4  1  0.00000000  0.00000000  0.15627300  1
  Zn  Zn5  1  0.33333300  0.66666700  0.28125100  1
  Zn  Zn6  1  0.33333300  0.66666700  0.84395200  1
  Zn  Zn7  1  0.00000000  0.00000000  0.96874400  1
  Zn  Zn8  1  0.33333300  0.66666700  0.37499200  1
  Zn  Zn9  1  0.33333300  0.66666700  0.78123100  1
  Zn  Zn10  1  0.66666700  0.33333300  0.12500600  1
  Zn  Zn11  1  0.66666700  0.33333300  0.71874500  1
  Zn  Zn12  1  0.00000000  0.00000000  0.46874400  1
  Zn  Zn13  1  0.33333300  0.66666700  0.18751300  1
  Zn  Zn14  1  0.00000000  0.00000000  0.74998800  1
  Zn  Zn15  1  0.00000000  0.00000000  0.34375300  1
  Zn  Zn16  1  0.66666700  0.33333300  0.90629100  1
  Zn  Zn17  1  0.66666700  0.33333300  0.21874900  1
  Zn  Zn18  1  0.33333300  0.66666700  0.53125300  1
  Zn  Zn19  1  0.00000000  0.00000000  0.56250400  1
  Zn  Zn20  1  0.00000000  0.00000000  0.06250400  1
  Zn  Zn21  1  0.00000000  0.00000000  0.81248600  1
  Zn  Zn22  1  0.33333300  0.66666700  0.09375500  1
  Zn  Zn23  1  0.33333300  0.66666700  0.93749100  1
  Zn  Zn24  1  0.66666700  0.33333300  0.31250500  1
  Zn  Zn25  1  0.66666700  0.33333300  0.40624600  1
  Zn  Zn26  1  0.33333300  0.66666700  0.43750600  1
  Zn  Zn27  1  0.00000000  0.00000000  0.65624900  1
  Zn  Zn28  1  0.00000000  0.00000000  0.24999800  1
  Zn  Zn29  1  0.33333300  0.66666700  0.62499300  1
  Zn  Zn30  1  0.66666700  0.33333300  0.59375400  1
  Zn  Zn31  1  0.33333300  0.66666700  0.00001100  1
  S  S32  1  0.66666700  0.33333300  0.24218700  1
  S  S33  1  0.00000000  0.00000000  0.49218500  1
  S  S34  1  0.00000000  0.00000000  0.08594500  1
  S  S35  1  0.66666700  0.33333300  0.52343800  1
  S  S36  1  0.33333300  0.66666700  0.46093600  1
  S  S37  1  0.33333300  0.66666700  0.02344000  1
  S  S38  1  0.00000000  0.00000000  0.58594400  1
  S  S39  1  0.66666700  0.33333300  0.74218200  1
  S  S40  1  0.66666700  0.33333300  0.92970400  1
  S  S41  1  0.33333300  0.66666700  0.21094400  1
  S  S42  1  0.33333300  0.66666700  0.30468900  1
  S  S43  1  0.33333300  0.66666700  0.86744700  1
  S  S44  1  0.00000000  0.00000000  0.17971900  1
  S  S45  1  0.66666700  0.33333300  0.42970900  1
  S  S46  1  0.00000000  0.00000000  0.67971700  1
  S  S47  1  0.00000000  0.00000000  0.36719100  1
  S  S48  1  0.00000000  0.00000000  0.89856500  1
  S  S49  1  0.33333300  0.66666700  0.64841800  1
  S  S50  1  0.33333300  0.66666700  0.55468900  1
  S  S51  1  0.66666700  0.33333300  0.33594400  1
  S  S52  1  0.66666700  0.33333300  0.05469000  1
  S  S53  1  0.00000000  0.00000000  0.77340600  1
  S  S54  1  0.33333300  0.66666700  0.39841900  1
  S  S55  1  0.00000000  0.00000000  0.27343500  1
  S  S56  1  0.33333300  0.66666700  0.96091500  1
  S  S57  1  0.00000000  0.00000000  0.99220800  1
  S  S58  1  0.66666700  0.33333300  0.14845100  1
  S  S59  1  0.33333300  0.66666700  0.11719700  1
  S  S60  1  0.33333300  0.66666700  0.71093600  1
  S  S61  1  0.33333300  0.66666700  0.80467200  1
  S  S62  1  0.00000000  0.00000000  0.83598600  1
  S  S63  1  0.66666700  0.33333300  0.61719400  1
