# generated using pymatgen
data_K5In(MoO4)4
_symmetry_space_group_name_H-M   'P 1'
_cell_length_a   9.67587507
_cell_length_b   9.67587507
_cell_length_c   10.72814871
_cell_angle_alpha   71.82441417
_cell_angle_beta   71.82441417
_cell_angle_gamma   79.10671995
_symmetry_Int_Tables_number   1
_chemical_formula_structural   K5In(MoO4)4
_chemical_formula_sum   'K10 In2 Mo8 O32'
_cell_volume   901.98035742
_cell_formula_units_Z   2
loop_
 _symmetry_equiv_pos_site_id
 _symmetry_equiv_pos_as_xyz
  1  'x, y, z'
loop_
 _atom_site_type_symbol
 _atom_site_label
 _atom_site_symmetry_multiplicity
 _atom_site_fract_x
 _atom_site_fract_y
 _atom_site_fract_z
 _atom_site_occupancy
  K  K0  1  0.07584800  0.34260900  0.92791600  1
  K  K1  1  0.38231100  0.18168900  0.06264500  1
  K  K2  1  0.61768900  0.81831100  0.93735500  1
  K  K3  1  0.81831100  0.61768900  0.43735500  1
  K  K4  1  0.92415200  0.65739100  0.07208400  1
  K  K5  1  0.65739100  0.92415200  0.57208400  1
  K  K6  1  0.34260900  0.07584800  0.42791600  1
  K  K7  1  0.18168900  0.38231100  0.56264500  1
  K  K8  1  0.39068400  0.60931600  0.75000000  1
  K  K9  1  0.60931600  0.39068400  0.25000000  1
  In  In10  1  0.11502700  0.88497300  0.25000000  1
  In  In11  1  0.88497300  0.11502700  0.75000000  1
  Mo  Mo12  1  0.04417000  0.78235500  0.63118200  1
  Mo  Mo13  1  0.26226700  0.53055600  0.15983000  1
  Mo  Mo14  1  0.95583000  0.21764500  0.36881800  1
  Mo  Mo15  1  0.21764500  0.95583000  0.86881800  1
  Mo  Mo16  1  0.73773300  0.46944400  0.84017000  1
  Mo  Mo17  1  0.53055600  0.26226700  0.65983000  1
  Mo  Mo18  1  0.46944400  0.73773300  0.34017000  1
  Mo  Mo19  1  0.78235500  0.04417000  0.13118200  1
  O  O20  1  0.47888500  0.21072300  0.53579600  1
  O  O21  1  0.57301700  0.38302800  0.92157600  1
  O  O22  1  0.78927700  0.52111500  0.96420400  1
  O  O23  1  0.59303100  0.06207900  0.21735500  1
  O  O24  1  0.70019000  0.63339700  0.71536500  1
  O  O25  1  0.63339700  0.70019000  0.21536500  1
  O  O26  1  0.93792100  0.40696900  0.28264500  1
  O  O27  1  0.40696900  0.93792100  0.78264500  1
  O  O28  1  0.61697200  0.42698300  0.57842400  1
  O  O29  1  0.90034000  0.88958200  0.73104000  1
  O  O30  1  0.38302800  0.57301700  0.42157600  1
  O  O31  1  0.19706000  0.99139700  0.03071700  1
  O  O32  1  0.00860300  0.80294000  0.46928300  1
  O  O33  1  0.21072300  0.47888500  0.03579600  1
  O  O34  1  0.42698300  0.61697200  0.07842400  1
  O  O35  1  0.21261700  0.84837300  0.59648300  1
  O  O36  1  0.88958200  0.90034000  0.23104000  1
  O  O37  1  0.11041800  0.09966000  0.76896000  1
  O  O38  1  0.66372300  0.12242900  0.73584600  1
  O  O39  1  0.12242900  0.66372300  0.23584600  1
  O  O40  1  0.06207900  0.59303100  0.71735500  1
  O  O41  1  0.52111500  0.78927700  0.46420400  1
  O  O42  1  0.87757100  0.33627700  0.76415400  1
  O  O43  1  0.33627700  0.87757100  0.26415400  1
  O  O44  1  0.80294000  0.00860300  0.96928300  1
  O  O45  1  0.09966000  0.11041800  0.26896000  1
  O  O46  1  0.99139700  0.19706000  0.53071700  1
  O  O47  1  0.15162700  0.78738300  0.90351700  1
  O  O48  1  0.29981000  0.36660300  0.28463500  1
  O  O49  1  0.84837300  0.21261700  0.09648300  1
  O  O50  1  0.78738300  0.15162700  0.40351700  1
  O  O51  1  0.36660300  0.29981000  0.78463500  1
