# generated using pymatgen
data_SiO2
_symmetry_space_group_name_H-M   'P 1'
_cell_length_a   4.52143700
_cell_length_b   8.27191300
_cell_length_c   9.47530000
_cell_angle_alpha   90.00000000
_cell_angle_beta   90.00000000
_cell_angle_gamma   90.00000000
_symmetry_Int_Tables_number   1
_chemical_formula_structural   SiO2
_chemical_formula_sum   'Si8 O16'
_cell_volume   354.38506518
_cell_formula_units_Z   8
loop_
 _symmetry_equiv_pos_site_id
 _symmetry_equiv_pos_as_xyz
  1  'x, y, z'
loop_
 _atom_site_type_symbol
 _atom_site_label
 _atom_site_symmetry_multiplicity
 _atom_site_fract_x
 _atom_site_fract_y
 _atom_site_fract_z
 _atom_site_occupancy
  Si  Si0  1  0.20164200  0.16562200  0.09899700  1
  Si  Si1  1  0.70164200  0.33437800  0.59899700  1
  Si  Si2  1  0.20164200  0.83437800  0.90100300  1
  Si  Si3  1  0.29835800  0.66562200  0.59899700  1
  Si  Si4  1  0.29835800  0.33437800  0.40100300  1
  Si  Si5  1  0.79835800  0.16562200  0.90100300  1
  Si  Si6  1  0.79835800  0.83437800  0.09899700  1
  Si  Si7  1  0.70164200  0.66562200  0.40100300  1
  O  O8  1  0.50000000  0.21646700  0.50000000  1
  O  O9  1  0.50000000  0.14853500  0.00000000  1
  O  O10  1  0.00000000  0.28353300  0.00000000  1
  O  O11  1  0.00000000  0.35146500  0.50000000  1
  O  O12  1  0.50000000  0.50000000  0.36342600  1
  O  O13  1  0.50000000  0.85146500  0.00000000  1
  O  O14  1  0.00000000  0.00000000  0.13657400  1
  O  O15  1  0.00000000  0.64853500  0.50000000  1
  O  O16  1  0.00000000  0.71646700  0.00000000  1
  O  O17  1  0.50000000  0.50000000  0.63657400  1
  O  O18  1  0.25000000  0.25000000  0.25000000  1
  O  O19  1  0.50000000  0.78353300  0.50000000  1
  O  O20  1  0.25000000  0.75000000  0.75000000  1
  O  O21  1  0.00000000  0.00000000  0.86342600  1
  O  O22  1  0.75000000  0.75000000  0.25000000  1
  O  O23  1  0.75000000  0.25000000  0.75000000  1
