# generated using pymatgen
data_Pr5Ti4FeO17
_symmetry_space_group_name_H-M   'P 1'
_cell_length_a   5.54064400
_cell_length_b   7.78651600
_cell_length_c   32.15888294
_cell_angle_alpha   82.99639727
_cell_angle_beta   90.00000000
_cell_angle_gamma   90.00000000
_symmetry_Int_Tables_number   1
_chemical_formula_structural   Pr5Ti4FeO17
_chemical_formula_sum   'Pr20 Ti16 Fe4 O68'
_cell_volume   1377.05643053
_cell_formula_units_Z   4
loop_
 _symmetry_equiv_pos_site_id
 _symmetry_equiv_pos_as_xyz
  1  'x, y, z'
loop_
 _atom_site_type_symbol
 _atom_site_label
 _atom_site_symmetry_multiplicity
 _atom_site_fract_x
 _atom_site_fract_y
 _atom_site_fract_z
 _atom_site_occupancy
  Pr  Pr0  1  0.48141700  0.21124900  0.58016800  1
  Pr  Pr1  1  0.98141700  0.78875100  0.91983200  1
  Pr  Pr2  1  0.95458200  0.64546900  0.70040800  1
  Pr  Pr3  1  0.04541800  0.35453100  0.29959200  1
  Pr  Pr4  1  0.38666800  0.85650600  0.77927900  1
  Pr  Pr5  1  0.00105300  0.70114800  0.09550300  1
  Pr  Pr6  1  0.99220700  0.74541200  0.50729500  1
  Pr  Pr7  1  0.49894700  0.70114800  0.59550300  1
  Pr  Pr8  1  0.99894700  0.29885200  0.90449700  1
  Pr  Pr9  1  0.50779300  0.74541200  0.00729500  1
  Pr  Pr10  1  0.50105300  0.29885200  0.40449700  1
  Pr  Pr11  1  0.49220700  0.25458800  0.99270500  1
  Pr  Pr12  1  0.01858300  0.21124900  0.08016800  1
  Pr  Pr13  1  0.00779300  0.25458800  0.49270500  1
  Pr  Pr14  1  0.45458200  0.35453100  0.79959200  1
  Pr  Pr15  1  0.61333200  0.14349400  0.22072100  1
  Pr  Pr16  1  0.54541800  0.64546900  0.20040800  1
  Pr  Pr17  1  0.88666800  0.14349400  0.72072100  1
  Pr  Pr18  1  0.11333200  0.85650600  0.27927900  1
  Pr  Pr19  1  0.51858300  0.78875100  0.41983200  1
  Ti  Ti20  1  0.98431100  0.95486000  0.59308700  1
  Ti  Ti21  1  0.01276100  0.54615400  0.40593500  1
  Ti  Ti22  1  0.51568900  0.95486000  0.09308700  1
  Ti  Ti23  1  0.44583000  0.40906200  0.67881300  1
  Ti  Ti24  1  0.45635900  0.92401500  0.67618000  1
  Ti  Ti25  1  0.55417000  0.59093800  0.32118700  1
  Ti  Ti26  1  0.04364100  0.92401500  0.17618000  1
  Ti  Ti27  1  0.48431100  0.04514000  0.90691300  1
  Ti  Ti28  1  0.48723900  0.54615400  0.90593500  1
  Ti  Ti29  1  0.94583000  0.59093800  0.82118700  1
  Ti  Ti30  1  0.51276100  0.45384600  0.09406500  1
  Ti  Ti31  1  0.01568900  0.04514000  0.40691300  1
  Ti  Ti32  1  0.98723900  0.45384600  0.59406500  1
  Ti  Ti33  1  0.05417000  0.40906200  0.17881300  1
  Ti  Ti34  1  0.54364100  0.07598500  0.32382000  1
  Ti  Ti35  1  0.95635900  0.07598500  0.82382000  1
  Fe  Fe36  1  0.00000000  0.50000000  0.00000000  1
  Fe  Fe37  1  0.50000000  0.00000000  0.50000000  1
  Fe  Fe38  1  0.50000000  0.50000000  0.50000000  1
  Fe  Fe39  1  0.00000000  0.00000000  0.00000000  1
  O  O40  1  0.18836200  0.91793000  0.71109000  1
  O  O41  1  0.41760600  0.75166400  0.49699100  1
  O  O42  1  0.84517400  0.40684700  0.22565600  1
  O  O43  1  0.10789500  0.66293400  0.17067300  1
  O  O44  1  0.82714300  0.86762000  0.22035600  1
  O  O45  1  0.81163800  0.08207000  0.28891000  1
  O  O46  1  0.28143400  0.48802000  0.44762600  1
  O  O47  1  0.21357400  0.12753700  0.36249500  1
  O  O48  1  0.58239400  0.24833600  0.50300900  1
  O  O49  1  0.17285700  0.13238000  0.77964400  1
  O  O50  1  0.70196700  0.03660300  0.38019400  1
  O  O51  1  0.29803300  0.96339700  0.61980600  1
  O  O52  1  0.29164300  0.50844400  0.86148700  1
  O  O53  1  0.70835700  0.49155600  0.13851300  1
  O  O54  1  0.28081100  0.06463500  0.44806500  1
  O  O55  1  0.28642600  0.12753700  0.86249500  1
  O  O56  1  0.33738900  0.37012500  0.20408500  1
  O  O57  1  0.71918900  0.93536500  0.55193500  1
  O  O58  1  0.32714300  0.13238000  0.27964400  1
  O  O59  1  0.16261100  0.37012500  0.70408500  1
  O  O60  1  0.66261100  0.62987500  0.79591500  1
  O  O61  1  0.92269500  0.20438900  0.59115100  1
  O  O62  1  0.78081100  0.93536500  0.05193500  1
  O  O63  1  0.79164300  0.49155600  0.63851300  1
  O  O64  1  0.31163800  0.91793000  0.21109000  1
  O  O65  1  0.78642600  0.87246300  0.63750500  1
  O  O66  1  0.08239400  0.75166400  0.99699100  1
  O  O67  1  0.78976600  0.97290000  0.46290500  1
  O  O68  1  0.79803300  0.03660300  0.88019400  1
  O  O69  1  0.68836200  0.08207000  0.78891000  1
  O  O70  1  0.20196700  0.96339700  0.11980600  1
  O  O71  1  0.30142200  0.41759900  0.61914400  1
  O  O72  1  0.21023400  0.02710000  0.53709500  1
  O  O73  1  0.04380300  0.83494800  0.82925300  1
  O  O74  1  0.28976600  0.02710000  0.03709500  1
  O  O75  1  0.20835700  0.50844400  0.36148700  1
  O  O76  1  0.39210500  0.66293400  0.67067300  1
  O  O77  1  0.60789500  0.33706600  0.32932700  1
  O  O78  1  0.07730500  0.79561100  0.40884900  1
  O  O79  1  0.57730500  0.20438900  0.09115100  1
  O  O80  1  0.28983700  0.43677700  0.03673800  1
  O  O81  1  0.71856600  0.51198000  0.55237400  1
  O  O82  1  0.80142200  0.58240100  0.88085600  1
  O  O83  1  0.57060800  0.29099800  0.91776100  1
  O  O84  1  0.78983700  0.56322300  0.46326200  1
  O  O85  1  0.34517400  0.59315300  0.27434400  1
  O  O86  1  0.19857800  0.41759900  0.11914400  1
  O  O87  1  0.92939200  0.29099800  0.41776100  1
  O  O88  1  0.42269500  0.79561100  0.90884900  1
  O  O89  1  0.21856600  0.48802000  0.94762600  1
  O  O90  1  0.83738900  0.62987500  0.29591500  1
  O  O91  1  0.07060800  0.70900200  0.58223900  1
  O  O92  1  0.78143400  0.51198000  0.05237400  1
  O  O93  1  0.95619700  0.16505200  0.17074700  1
  O  O94  1  0.42939200  0.70900200  0.08223900  1
  O  O95  1  0.71016300  0.56322300  0.96326200  1
  O  O96  1  0.67285700  0.86762000  0.72035600  1
  O  O97  1  0.21918900  0.06463500  0.94806500  1
  O  O98  1  0.65482600  0.40684700  0.72565600  1
  O  O99  1  0.71023400  0.97290000  0.96290500  1
  O  O100  1  0.21016300  0.43677700  0.53673800  1
  O  O101  1  0.89210500  0.33706600  0.82932700  1
  O  O102  1  0.71357400  0.87246300  0.13750500  1
  O  O103  1  0.15482600  0.59315300  0.77434400  1
  O  O104  1  0.91760600  0.24833600  0.00300900  1
  O  O105  1  0.69857800  0.58240100  0.38085600  1
  O  O106  1  0.45619700  0.83494800  0.32925300  1
  O  O107  1  0.54380300  0.16505200  0.67074700  1
