# generated using pymatgen
data_Nb2CrTc
_symmetry_space_group_name_H-M   'P 1'
_cell_length_a   10.63386103
_cell_length_b   10.63386103
_cell_length_c   10.63386103
_cell_angle_alpha   125.29138530
_cell_angle_beta   118.73999293
_cell_angle_gamma   86.64223338
_symmetry_Int_Tables_number   1
_chemical_formula_structural   Nb2CrTc
_chemical_formula_sum   'Nb2 Cr1 Tc1'
_cell_volume   819.20551782
_cell_formula_units_Z   1
loop_
 _symmetry_equiv_pos_site_id
 _symmetry_equiv_pos_as_xyz
  1  'x, y, z'
loop_
 _atom_site_type_symbol
 _atom_site_label
 _atom_site_symmetry_multiplicity
 _atom_site_fract_x
 _atom_site_fract_y
 _atom_site_fract_z
 _atom_site_occupancy
  Nb  Nb0  1  0.00000000  0.26976000  0.26976000  1
  Nb  Nb1  1  0.00000000  0.73024000  0.73024000  1
  Cr  Cr2  1  0.00000000  0.00000000  0.00000000  1
  Tc  Tc3  1  0.00000000  0.50000000  0.50000000  1
