# generated using pymatgen
data_Re2S2NCl11
_symmetry_space_group_name_H-M   'P 1'
_cell_length_a   9.14805691
_cell_length_b   9.14805691
_cell_length_c   11.95094740
_cell_angle_alpha   78.13114767
_cell_angle_beta   78.13114767
_cell_angle_gamma   93.85343408
_symmetry_Int_Tables_number   1
_chemical_formula_structural   Re2S2NCl11
_chemical_formula_sum   'Re4 S4 N2 Cl22'
_cell_volume   951.54935373
_cell_formula_units_Z   2
loop_
 _symmetry_equiv_pos_site_id
 _symmetry_equiv_pos_as_xyz
  1  'x, y, z'
loop_
 _atom_site_type_symbol
 _atom_site_label
 _atom_site_symmetry_multiplicity
 _atom_site_fract_x
 _atom_site_fract_y
 _atom_site_fract_z
 _atom_site_occupancy
  Re  Re0  1  0.07632900  0.72885500  0.71857300  1
  Re  Re1  1  0.27114500  0.92367100  0.78142700  1
  Re  Re2  1  0.72885500  0.07632900  0.21857300  1
  Re  Re3  1  0.92367100  0.27114500  0.28142700  1
  S  S4  1  0.75366700  0.39838300  0.62608400  1
  S  S5  1  0.39838300  0.75366700  0.12608400  1
  S  S6  1  0.24633300  0.60161700  0.37391600  1
  S  S7  1  0.60161700  0.24633300  0.87391600  1
  N  N8  1  0.29474400  0.70525600  0.25000000  1
  N  N9  1  0.70525600  0.29474400  0.75000000  1
  Cl  Cl10  1  0.83109000  0.32651900  0.10206500  1
  Cl  Cl11  1  0.38603800  0.44189600  0.39711100  1
  Cl  Cl12  1  0.55810400  0.61396200  0.10288900  1
  Cl  Cl13  1  0.16891000  0.67348100  0.89793500  1
  Cl  Cl14  1  0.83763700  0.63332600  0.82931600  1
  Cl  Cl15  1  0.67348100  0.16891000  0.39793500  1
  Cl  Cl16  1  0.02395400  0.97604600  0.75000000  1
  Cl  Cl17  1  0.50645600  0.86959100  0.81145300  1
  Cl  Cl18  1  0.97604600  0.02395400  0.25000000  1
  Cl  Cl19  1  0.49354400  0.13040900  0.18854700  1
  Cl  Cl20  1  0.98790700  0.77862200  0.54822300  1
  Cl  Cl21  1  0.86959100  0.50645600  0.31145300  1
  Cl  Cl22  1  0.77862200  0.98790700  0.04822300  1
  Cl  Cl23  1  0.63332600  0.83763700  0.32931600  1
  Cl  Cl24  1  0.61396200  0.55810400  0.60288900  1
  Cl  Cl25  1  0.22137800  0.01209300  0.95177700  1
  Cl  Cl26  1  0.36667400  0.16236300  0.67068400  1
  Cl  Cl27  1  0.13040900  0.49354400  0.68854700  1
  Cl  Cl28  1  0.44189600  0.38603800  0.89711100  1
  Cl  Cl29  1  0.16236300  0.36667400  0.17068400  1
  Cl  Cl30  1  0.32651900  0.83109000  0.60206500  1
  Cl  Cl31  1  0.01209300  0.22137800  0.45177700  1
