# generated using pymatgen
data_MgZn2Rh
_symmetry_space_group_name_H-M   'P 1'
_cell_length_a   10.85669103
_cell_length_b   10.85669103
_cell_length_c   10.85669103
_cell_angle_alpha   121.91311924
_cell_angle_beta   118.40994295
_cell_angle_gamma   89.74734961
_symmetry_Int_Tables_number   1
_chemical_formula_structural   MgZn2Rh
_chemical_formula_sum   'Mg1 Zn2 Rh1'
_cell_volume   901.57252705
_cell_formula_units_Z   1
loop_
 _symmetry_equiv_pos_site_id
 _symmetry_equiv_pos_as_xyz
  1  'x, y, z'
loop_
 _atom_site_type_symbol
 _atom_site_label
 _atom_site_symmetry_multiplicity
 _atom_site_fract_x
 _atom_site_fract_y
 _atom_site_fract_z
 _atom_site_occupancy
  Mg  Mg0  1  0.00000000  0.00000000  0.00000000  1
  Zn  Zn1  1  0.00000000  0.26970900  0.26970900  1
  Zn  Zn2  1  0.00000000  0.73029100  0.73029100  1
  Rh  Rh3  1  0.00000000  0.50000000  0.50000000  1
