# generated using pymatgen
data_Na2Ca3Al2F14
_symmetry_space_group_name_H-M   'P 1'
_cell_length_a   8.98290219
_cell_length_b   8.98290219
_cell_length_c   8.98290219
_cell_angle_alpha   109.47122063
_cell_angle_beta   109.47122063
_cell_angle_gamma   109.47122063
_symmetry_Int_Tables_number   1
_chemical_formula_structural   Na2Ca3Al2F14
_chemical_formula_sum   'Na4 Ca6 Al4 F28'
_cell_volume   557.99219292
_cell_formula_units_Z   2
loop_
 _symmetry_equiv_pos_site_id
 _symmetry_equiv_pos_as_xyz
  1  'x, y, z'
loop_
 _atom_site_type_symbol
 _atom_site_label
 _atom_site_symmetry_multiplicity
 _atom_site_fract_x
 _atom_site_fract_y
 _atom_site_fract_z
 _atom_site_occupancy
  Na  Na0  1  0.00000000  0.16967700  0.50000000  1
  Na  Na1  1  0.16967700  0.50000000  0.00000000  1
  Na  Na2  1  0.50000000  0.00000000  0.16967700  1
  Na  Na3  1  0.33032300  0.33032300  0.33032300  1
  Ca  Ca4  1  0.03342100  0.78342100  0.25000000  1
  Ca  Ca5  1  0.78342100  0.25000000  0.03342100  1
  Ca  Ca6  1  0.25000000  0.03342100  0.78342100  1
  Ca  Ca7  1  0.75000000  0.46657900  0.71657900  1
  Ca  Ca8  1  0.71657900  0.75000000  0.46657900  1
  Ca  Ca9  1  0.46657900  0.71657900  0.75000000  1
  Al  Al10  1  0.00000000  0.49640800  0.50000000  1
  Al  Al11  1  0.50000000  0.00000000  0.49640800  1
  Al  Al12  1  0.49640800  0.50000000  0.00000000  1
  Al  Al13  1  0.00359200  0.00359200  0.00359200  1
  F  F14  1  0.57761300  0.57761300  0.57761300  1
  F  F15  1  0.98190700  0.42653100  0.66826000  1
  F  F16  1  0.07346900  0.05537700  0.24172900  1
  F  F17  1  0.32352500  0.00121200  0.55108400  1
  F  F18  1  0.83174000  0.25827100  0.31364800  1
  F  F19  1  0.82231200  0.54987100  0.49878800  1
  F  F20  1  0.24172900  0.07346900  0.05537700  1
  F  F21  1  0.31364800  0.83174000  0.25827100  1
  F  F22  1  0.94891600  0.95012900  0.77244100  1
  F  F23  1  0.55108400  0.32352500  0.00121200  1
  F  F24  1  0.50000000  0.00000000  0.92238700  1
  F  F25  1  0.00000000  0.92238700  0.50000000  1
  F  F26  1  0.72755900  0.67768800  0.17647500  1
  F  F27  1  0.42653100  0.66826000  0.98190700  1
  F  F28  1  0.66826000  0.98190700  0.42653100  1
  F  F29  1  0.00121300  0.55108400  0.32352500  1
  F  F30  1  0.67768800  0.17647500  0.72755900  1
  F  F31  1  0.77244100  0.94891600  0.95012900  1
  F  F32  1  0.18635200  0.44462300  0.51809300  1
  F  F33  1  0.25827100  0.31364800  0.83174000  1
  F  F34  1  0.17647500  0.72755900  0.67768800  1
  F  F35  1  0.92238700  0.50000000  0.00000000  1
  F  F36  1  0.44462300  0.51809300  0.18635200  1
  F  F37  1  0.51809300  0.18635200  0.44462300  1
  F  F38  1  0.54987100  0.49878800  0.82231200  1
  F  F39  1  0.49878800  0.82231200  0.54987100  1
  F  F40  1  0.05537700  0.24172900  0.07346900  1
  F  F41  1  0.95012900  0.77244100  0.94891600  1
