# generated using pymatgen
data_Sm3OsO7
_symmetry_space_group_name_H-M   'P 1'
_cell_length_a   7.50236600
_cell_length_b   10.81043700
_cell_length_c   15.03172700
_cell_angle_alpha   90.00000000
_cell_angle_beta   90.00000000
_cell_angle_gamma   90.00000000
_symmetry_Int_Tables_number   1
_chemical_formula_structural   Sm3OsO7
_chemical_formula_sum   'Sm24 Os8 O56'
_cell_volume   1219.13100692
_cell_formula_units_Z   8
loop_
 _symmetry_equiv_pos_site_id
 _symmetry_equiv_pos_as_xyz
  1  'x, y, z'
loop_
 _atom_site_type_symbol
 _atom_site_label
 _atom_site_symmetry_multiplicity
 _atom_site_fract_x
 _atom_site_fract_y
 _atom_site_fract_z
 _atom_site_occupancy
  Sm  Sm0  1  0.00337200  0.17127300  0.11046400  1
  Sm  Sm1  1  0.49662800  0.17127300  0.61046400  1
  Sm  Sm2  1  0.49686700  0.68794200  0.86104600  1
  Sm  Sm3  1  0.75110300  0.94811100  0.97294700  1
  Sm  Sm4  1  0.00313300  0.68794200  0.36104600  1
  Sm  Sm5  1  0.74315500  0.91045400  0.22305900  1
  Sm  Sm6  1  0.99686700  0.18794200  0.63895400  1
  Sm  Sm7  1  0.23540100  0.89845900  0.52160300  1
  Sm  Sm8  1  0.75684500  0.45987800  0.72857200  1
  Sm  Sm9  1  0.50337200  0.67127300  0.38953600  1
  Sm  Sm10  1  0.24315500  0.41045400  0.27694100  1
  Sm  Sm11  1  0.25684500  0.95987800  0.77142800  1
  Sm  Sm12  1  0.99662800  0.67127300  0.88953600  1
  Sm  Sm13  1  0.75684500  0.91045400  0.72305900  1
  Sm  Sm14  1  0.25684500  0.41045400  0.77694100  1
  Sm  Sm15  1  0.25110300  0.44811100  0.52705300  1
  Sm  Sm16  1  0.24315500  0.95987800  0.27142800  1
  Sm  Sm17  1  0.74889700  0.94811100  0.47294700  1
  Sm  Sm18  1  0.74315500  0.45987800  0.22857200  1
  Sm  Sm19  1  0.26459900  0.89845900  0.02160300  1
  Sm  Sm20  1  0.76459900  0.39845900  0.47839700  1
  Sm  Sm21  1  0.73540100  0.39845900  0.97839700  1
  Sm  Sm22  1  0.50313300  0.18794200  0.13895400  1
  Sm  Sm23  1  0.24889700  0.44811100  0.02705300  1
  Os  Os24  1  0.49789200  0.67786100  0.12616800  1
  Os  Os25  1  0.99830100  0.68032700  0.12492300  1
  Os  Os26  1  0.50169900  0.68032700  0.62492300  1
  Os  Os27  1  0.99789200  0.17786100  0.37383200  1
  Os  Os28  1  0.00210800  0.67786100  0.62616800  1
  Os  Os29  1  0.49830100  0.18032700  0.37507700  1
  Os  Os30  1  0.50210800  0.17786100  0.87383200  1
  Os  Os31  1  0.00169900  0.18032700  0.87507700  1
  O  O32  1  0.24135200  0.04850400  0.63006400  1
  O  O33  1  0.73555000  0.81289600  0.35682900  1
  O  O34  1  0.45124400  0.83032700  0.19056800  1
  O  O35  1  0.46832700  0.30721500  0.46910700  1
  O  O36  1  0.26457900  0.81081900  0.38029800  1
  O  O37  1  0.03983300  0.05339900  0.96844200  1
  O  O38  1  0.76457900  0.31081900  0.11970200  1
  O  O39  1  0.75864800  0.54850400  0.36993600  1
  O  O40  1  0.23542100  0.81081900  0.88029800  1
  O  O41  1  0.46016700  0.05339900  0.46844200  1
  O  O42  1  0.74825500  0.68791000  0.16669200  1
  O  O43  1  0.46174500  0.57416600  0.23600200  1
  O  O44  1  0.95866600  0.52243000  0.56162600  1
  O  O45  1  0.96621900  0.30915000  0.78027500  1
  O  O46  1  0.46733400  0.55590600  0.72066000  1
  O  O47  1  0.26615000  0.54554300  0.89379500  1
  O  O48  1  0.96016700  0.55339900  0.03155800  1
  O  O49  1  0.46163700  0.28020600  0.98434800  1
  O  O50  1  0.24871300  0.66992300  0.08403700  1
  O  O51  1  0.03266600  0.55590600  0.22066000  1
  O  O52  1  0.75128700  0.16992300  0.91596300  1
  O  O53  1  0.03378100  0.80915000  0.21972500  1
  O  O54  1  0.96163700  0.78020600  0.51565200  1
  O  O55  1  0.96174500  0.07416600  0.26399800  1
  O  O56  1  0.25128700  0.66992300  0.58403700  1
  O  O57  1  0.04133400  0.02243000  0.43837400  1
  O  O58  1  0.04875600  0.83032700  0.69056800  1
  O  O59  1  0.03167300  0.30721500  0.96910700  1
  O  O60  1  0.26445000  0.31289600  0.64317100  1
  O  O61  1  0.23555000  0.31289600  0.14317100  1
  O  O62  1  0.53378100  0.30915000  0.28027500  1
  O  O63  1  0.76615000  0.04554300  0.60620500  1
  O  O64  1  0.53836300  0.78020600  0.01565200  1
  O  O65  1  0.45866600  0.02243000  0.93837400  1
  O  O66  1  0.74135200  0.54850400  0.86993600  1
  O  O67  1  0.76445000  0.81289600  0.85682900  1
  O  O68  1  0.25174500  0.18791000  0.83330800  1
  O  O69  1  0.53266600  0.05590600  0.27934000  1
  O  O70  1  0.25864800  0.04850400  0.13006400  1
  O  O71  1  0.23385000  0.54554300  0.39379500  1
  O  O72  1  0.53983300  0.55339900  0.53155800  1
  O  O73  1  0.53825500  0.07416600  0.76399800  1
  O  O74  1  0.54133400  0.52243000  0.06162600  1
  O  O75  1  0.73385000  0.04554300  0.10620500  1
  O  O76  1  0.95124400  0.33032700  0.30943200  1
  O  O77  1  0.03825500  0.57416600  0.73600200  1
  O  O78  1  0.73542100  0.31081900  0.61970200  1
  O  O79  1  0.53167300  0.80721500  0.53089300  1
  O  O80  1  0.46621900  0.80915000  0.71972500  1
  O  O81  1  0.96832700  0.80721500  0.03089300  1
  O  O82  1  0.54875600  0.33032700  0.80943200  1
  O  O83  1  0.75174500  0.68791000  0.66669200  1
  O  O84  1  0.74871300  0.16992300  0.41596300  1
  O  O85  1  0.96733400  0.05590600  0.77934000  1
  O  O86  1  0.03836300  0.28020600  0.48434800  1
  O  O87  1  0.24825500  0.18791000  0.33330800  1
