# generated using pymatgen
data_CuHgSBr
_symmetry_space_group_name_H-M   'P 1'
_cell_length_a   4.10716100
_cell_length_b   10.12859100
_cell_length_c   19.11187100
_cell_angle_alpha   90.00000000
_cell_angle_beta   90.00000000
_cell_angle_gamma   90.00000000
_symmetry_Int_Tables_number   1
_chemical_formula_structural   CuHgSBr
_chemical_formula_sum   'Cu8 Hg8 S8 Br8'
_cell_volume   795.04913094
_cell_formula_units_Z   8
loop_
 _symmetry_equiv_pos_site_id
 _symmetry_equiv_pos_as_xyz
  1  'x, y, z'
loop_
 _atom_site_type_symbol
 _atom_site_label
 _atom_site_symmetry_multiplicity
 _atom_site_fract_x
 _atom_site_fract_y
 _atom_site_fract_z
 _atom_site_occupancy
  Cu  Cu0  1  0.50000000  0.56855700  0.65274500  1
  Cu  Cu1  1  0.50000000  0.06855700  0.84725500  1
  Cu  Cu2  1  0.50000000  0.43144300  0.34725500  1
  Cu  Cu3  1  0.50000000  0.42861100  0.85110100  1
  Cu  Cu4  1  0.50000000  0.93144300  0.15274500  1
  Cu  Cu5  1  0.50000000  0.07138900  0.35110100  1
  Cu  Cu6  1  0.50000000  0.57138900  0.14889900  1
  Cu  Cu7  1  0.50000000  0.92861100  0.64889900  1
  Hg  Hg8  1  0.00000000  0.74969000  0.36272200  1
  Hg  Hg9  1  0.00000000  0.24969000  0.13727800  1
  Hg  Hg10  1  0.00000000  0.75031000  0.86272200  1
  Hg  Hg11  1  0.00000000  0.50000000  0.00000000  1
  Hg  Hg12  1  0.00000000  0.25031000  0.63727800  1
  Hg  Hg13  1  0.00000000  0.00000000  0.50000000  1
  Hg  Hg14  1  0.00000000  0.00000000  0.00000000  1
  Hg  Hg15  1  0.00000000  0.50000000  0.50000000  1
  S  S16  1  0.00000000  0.50998300  0.87233500  1
  S  S17  1  0.00000000  0.99066000  0.87191900  1
  S  S18  1  0.00000000  0.00934000  0.12808100  1
  S  S19  1  0.00000000  0.99001700  0.37233500  1
  S  S20  1  0.00000000  0.49001700  0.12766500  1
  S  S21  1  0.00000000  0.50934000  0.37191900  1
  S  S22  1  0.00000000  0.49066000  0.62808100  1
  S  S23  1  0.00000000  0.00998300  0.62766500  1
  Br  Br24  1  0.50000000  0.74879900  0.23584100  1
  Br  Br25  1  0.50000000  0.24956500  0.48102800  1
  Br  Br26  1  0.50000000  0.75120100  0.73584100  1
  Br  Br27  1  0.50000000  0.25120100  0.76415900  1
  Br  Br28  1  0.50000000  0.74956500  0.01897200  1
  Br  Br29  1  0.50000000  0.25043500  0.98102800  1
  Br  Br30  1  0.50000000  0.75043500  0.51897200  1
  Br  Br31  1  0.50000000  0.24879900  0.26415900  1
