# generated using pymatgen
data_LuPO4
_symmetry_space_group_name_H-M   'P 1'
_cell_length_a   6.47586767
_cell_length_b   6.47586767
_cell_length_c   6.47586767
_cell_angle_alpha   136.68928870
_cell_angle_beta   136.68928870
_cell_angle_gamma   62.91646523
_symmetry_Int_Tables_number   1
_chemical_formula_structural   LuPO4
_chemical_formula_sum   'Lu2 P2 O8'
_cell_volume   126.18845557
_cell_formula_units_Z   2
loop_
 _symmetry_equiv_pos_site_id
 _symmetry_equiv_pos_as_xyz
  1  'x, y, z'
loop_
 _atom_site_type_symbol
 _atom_site_label
 _atom_site_symmetry_multiplicity
 _atom_site_fract_x
 _atom_site_fract_y
 _atom_site_fract_z
 _atom_site_occupancy
  Lu  Lu0  1  0.00000000  0.00000000  0.00000000  1
  Lu  Lu1  1  0.75000000  0.25000000  0.50000000  1
  P  P2  1  0.50000000  0.50000000  0.00000000  1
  P  P3  1  0.25000000  0.75000000  0.50000000  1
  O  O4  1  0.56878600  0.69236300  0.61231100  1
  O  O5  1  0.66994800  0.29352500  0.11231100  1
  O  O6  1  0.08005200  0.95647500  0.38768900  1
  O  O7  1  0.44236300  0.33005200  0.62357700  1
  O  O8  1  0.04352500  0.43121400  0.12357700  1
  O  O9  1  0.70647500  0.81878600  0.37642300  1
  O  O10  1  0.30763700  0.91994800  0.87642300  1
  O  O11  1  0.18121400  0.55763700  0.88768900  1
