# generated using pymatgen
data_YbPS4
_symmetry_space_group_name_H-M   'P 1'
_cell_length_a   12.08757388
_cell_length_b   12.08757388
_cell_length_c   12.08757388
_cell_angle_alpha   124.80677196
_cell_angle_beta   124.80677196
_cell_angle_gamma   81.85832896
_symmetry_Int_Tables_number   1
_chemical_formula_structural   YbPS4
_chemical_formula_sum   'Yb8 P8 S32'
_cell_volume   1145.36105370
_cell_formula_units_Z   8
loop_
 _symmetry_equiv_pos_site_id
 _symmetry_equiv_pos_as_xyz
  1  'x, y, z'
loop_
 _atom_site_type_symbol
 _atom_site_label
 _atom_site_symmetry_multiplicity
 _atom_site_fract_x
 _atom_site_fract_y
 _atom_site_fract_z
 _atom_site_occupancy
  Yb  Yb0  1  0.00000000  0.50000000  0.50000000  1
  Yb  Yb1  1  0.25000000  0.25000000  0.00000000  1
  Yb  Yb2  1  0.50000000  0.00000000  0.50000000  1
  Yb  Yb3  1  0.00000000  0.00000000  0.00000000  1
  Yb  Yb4  1  0.50000000  0.50000000  0.00000000  1
  Yb  Yb5  1  0.25000000  0.75000000  0.50000000  1
  Yb  Yb6  1  0.75000000  0.75000000  0.00000000  1
  Yb  Yb7  1  0.75000000  0.25000000  0.50000000  1
  P  P8  1  0.62500000  0.92443000  0.79943000  1
  P  P9  1  0.57557000  0.87500000  0.20057000  1
  P  P10  1  0.07557000  0.87500000  0.70057000  1
  P  P11  1  0.67443000  0.37500000  0.79943000  1
  P  P12  1  0.12500000  0.32557000  0.70057000  1
  P  P13  1  0.17443000  0.37500000  0.29943000  1
  P  P14  1  0.12500000  0.82557000  0.20057000  1
  P  P15  1  0.62500000  0.42443000  0.29943000  1
  S  S16  1  0.03888600  0.84417100  0.31331500  1
  S  S17  1  0.27512900  0.22512700  0.24091800  1
  S  S18  1  0.53888600  0.22557100  0.19471500  1
  S  S19  1  0.71111400  0.40582900  0.18668500  1
  S  S20  1  0.47487100  0.02487300  0.25908200  1
  S  S21  1  0.26579000  0.52487300  0.55000100  1
  S  S22  1  0.77442900  0.96914400  0.31331500  1
  S  S23  1  0.65582900  0.46111400  0.68668500  1
  S  S24  1  0.96578900  0.72487100  0.94999900  1
  S  S25  1  0.53085600  0.72557100  0.68668500  1
  S  S26  1  0.59417100  0.78085600  0.30528500  1
  S  S27  1  0.47557100  0.28888600  0.69471500  1
  S  S28  1  0.21914400  0.52442900  0.81331500  1
  S  S29  1  0.28421100  0.73421000  0.25908200  1
  S  S30  1  0.76579000  0.21578900  0.74091800  1
  S  S31  1  0.97487100  0.71578900  0.44999900  1
  S  S32  1  0.47512700  0.02512900  0.74091800  1
  S  S33  1  0.21111400  0.02442900  0.30528500  1
  S  S34  1  0.77487300  0.01579000  0.05000100  1
  S  S35  1  0.03085600  0.34417100  0.80528500  1
  S  S36  1  0.98421000  0.03421100  0.75908200  1
  S  S37  1  0.46578900  0.51579000  0.24091800  1
  S  S38  1  0.97512700  0.23421000  0.44999900  1
  S  S39  1  0.27442900  0.96111400  0.80528500  1
  S  S40  1  0.15582900  0.46914400  0.19471500  1
  S  S41  1  0.71914400  0.90582900  0.69471500  1
  S  S42  1  0.48421000  0.72512700  0.94999900  1
  S  S43  1  0.97557100  0.28085600  0.18668500  1
  S  S44  1  0.09417100  0.78888600  0.81331500  1
  S  S45  1  0.77512900  0.53421100  0.05000100  1
  S  S46  1  0.78421100  0.52512900  0.55000100  1
  S  S47  1  0.27487300  0.22487100  0.75908200  1
