# generated using pymatgen
data_VS2Br2N3
_symmetry_space_group_name_H-M   'P 1'
_cell_length_a   6.05690600
_cell_length_b   7.86800771
_cell_length_c   8.30653910
_cell_angle_alpha   87.86843567
_cell_angle_beta   99.66079676
_cell_angle_gamma   108.04204053
_symmetry_Int_Tables_number   1
_chemical_formula_structural   VS2Br2N3
_chemical_formula_sum   'V2 S4 Br4 N6'
_cell_volume   371.00636119
_cell_formula_units_Z   2
loop_
 _symmetry_equiv_pos_site_id
 _symmetry_equiv_pos_as_xyz
  1  'x, y, z'
loop_
 _atom_site_type_symbol
 _atom_site_label
 _atom_site_symmetry_multiplicity
 _atom_site_fract_x
 _atom_site_fract_y
 _atom_site_fract_z
 _atom_site_occupancy
  V  V0  1  0.24050200  0.00330300  0.13481500  1
  V  V1  1  0.75949800  0.99669700  0.86518500  1
  S  S2  1  0.78666800  0.70901300  0.20206400  1
  S  S3  1  0.77845900  0.26639600  0.58210100  1
  S  S4  1  0.22154100  0.73360400  0.41789900  1
  S  S5  1  0.21333200  0.29098700  0.79793600  1
  Br  Br6  1  0.26383600  0.27792000  0.26943600  1
  Br  Br7  1  0.66349900  0.20063000  0.06325500  1
  Br  Br8  1  0.33650100  0.79937000  0.93674500  1
  Br  Br9  1  0.73616400  0.72208000  0.73056400  1
  N  N10  1  0.33374200  0.89438600  0.30597400  1
  N  N11  1  0.66625800  0.10561400  0.69402600  1
  N  N12  1  0.07062800  0.12470300  0.89425700  1
  N  N13  1  0.94454300  0.65025100  0.35241800  1
  N  N14  1  0.05545700  0.34974900  0.64758200  1
  N  N15  1  0.92937200  0.87529700  0.10574300  1
