# generated using pymatgen
data_Rb6Si10O23
_symmetry_space_group_name_H-M   'P 1'
_cell_length_a   9.59921503
_cell_length_b   9.59921503
_cell_length_c   8.24272400
_cell_angle_alpha   90.00000000
_cell_angle_beta   90.00000000
_cell_angle_gamma   120.79901408
_symmetry_Int_Tables_number   1
_chemical_formula_structural   Rb6Si10O23
_chemical_formula_sum   'Rb6 Si10 O23'
_cell_volume   652.40839602
_cell_formula_units_Z   1
loop_
 _symmetry_equiv_pos_site_id
 _symmetry_equiv_pos_as_xyz
  1  'x, y, z'
loop_
 _atom_site_type_symbol
 _atom_site_label
 _atom_site_symmetry_multiplicity
 _atom_site_fract_x
 _atom_site_fract_y
 _atom_site_fract_z
 _atom_site_occupancy
  Rb  Rb0  1  0.01690100  0.26173900  0.50000000  1
  Rb  Rb1  1  0.78151900  0.78151900  0.50000000  1
  Rb  Rb2  1  0.26173900  0.01690100  0.50000000  1
  Rb  Rb3  1  0.77401900  0.77401900  0.00000000  1
  Rb  Rb4  1  0.01864500  0.25594800  0.00000000  1
  Rb  Rb5  1  0.25594800  0.01864500  0.00000000  1
  Si  Si6  1  0.41700600  0.41700600  0.69589800  1
  Si  Si7  1  0.69903500  0.35909800  0.18829200  1
  Si  Si8  1  0.62756300  0.02767900  0.69119200  1
  Si  Si9  1  0.02767900  0.62756300  0.69119200  1
  Si  Si10  1  0.35909800  0.69903500  0.81170700  1
  Si  Si11  1  0.41700600  0.41700600  0.30410200  1
  Si  Si12  1  0.69903500  0.35909800  0.81170700  1
  Si  Si13  1  0.02767900  0.62756300  0.30880800  1
  Si  Si14  1  0.62756300  0.02767900  0.30880800  1
  Si  Si15  1  0.35909800  0.69903500  0.18829200  1
  O  O16  1  0.44297100  0.86184400  0.29974600  1
  O  O17  1  0.43352700  0.58488100  0.22719700  1
  O  O18  1  0.43352700  0.58488100  0.77280300  1
  O  O19  1  0.59758900  0.16305800  0.21177500  1
  O  O20  1  0.59758900  0.16305800  0.78822500  1
  O  O21  1  0.25368800  0.25368800  0.73543900  1
  O  O22  1  0.77426400  0.01045800  0.75279300  1
  O  O23  1  0.44297100  0.86184400  0.70025400  1
  O  O24  1  0.58488100  0.43352700  0.77280300  1
  O  O25  1  0.16305800  0.59758900  0.78822500  1
  O  O26  1  0.64413400  0.08559900  0.50000000  1
  O  O27  1  0.45766100  0.45766100  0.50000000  1
  O  O28  1  0.58488100  0.43352700  0.22719700  1
  O  O29  1  0.86184400  0.44297100  0.29974600  1
  O  O30  1  0.25368800  0.25368800  0.26456100  1
  O  O31  1  0.01045800  0.77426400  0.75279300  1
  O  O32  1  0.01045800  0.77426400  0.24720700  1
  O  O33  1  0.40146700  0.76052300  0.00000000  1
  O  O34  1  0.86184400  0.44297100  0.70025400  1
  O  O35  1  0.77426400  0.01045800  0.24720700  1
  O  O36  1  0.08559900  0.64413400  0.50000000  1
  O  O37  1  0.76052300  0.40146700  0.00000000  1
  O  O38  1  0.16305800  0.59758900  0.21177500  1
