data_image0
_chemical_formula_structural       F6MgPb
_chemical_formula_sum              "F6 Mg1 Pb1"
_cell_length_a       4.94379
_cell_length_b       4.94379
_cell_length_c       5.40274
_cell_angle_alpha    62.7724
_cell_angle_beta     117.228
_cell_angle_gamma    120

_space_group_name_H-M_alt    "P 1"
_space_group_IT_number       1

loop_
  _space_group_symop_operation_xyz
  'x, y, z'

loop_
  _atom_site_type_symbol
  _atom_site_label
  _atom_site_symmetry_multiplicity
  _atom_site_fract_x
  _atom_site_fract_y
  _atom_site_fract_z
  _atom_site_occupancy
  F   F1        1.0  0.06900  0.23800  0.24300  1.0000
  F   F2        1.0  0.76200  0.58800  0.24300  1.0000
  F   F3        1.0  0.41200  0.93100  0.24300  1.0000
  F   F4        1.0  0.58800  0.06900  0.75700  1.0000
  F   F5        1.0  0.23800  0.41200  0.75700  1.0000
  F   F6        1.0  0.93100  0.76200  0.75700  1.0000
  Mg  Mg1       1.0  0.00000  0.00000  0.00000  1.0000
  Pb  Pb1       1.0  0.50000  0.50000  0.50000  1.0000
