# generated using pymatgen
data_CaHg2Bi
_symmetry_space_group_name_H-M   'P 1'
_cell_length_a   12.36814200
_cell_length_b   12.36814200
_cell_length_c   12.36814200
_cell_angle_alpha   123.72882797
_cell_angle_beta   118.49653386
_cell_angle_gamma   88.14509504
_symmetry_Int_Tables_number   1
_chemical_formula_structural   CaHg2Bi
_chemical_formula_sum   'Ca1 Hg2 Bi1'
_cell_volume   1311.00522059
_cell_formula_units_Z   1
loop_
 _symmetry_equiv_pos_site_id
 _symmetry_equiv_pos_as_xyz
  1  'x, y, z'
loop_
 _atom_site_type_symbol
 _atom_site_label
 _atom_site_symmetry_multiplicity
 _atom_site_fract_x
 _atom_site_fract_y
 _atom_site_fract_z
 _atom_site_occupancy
  Ca  Ca0  1  0.00000000  0.00000000  0.00000000  1
  Hg  Hg1  1  0.00000000  0.25480600  0.25480600  1
  Hg  Hg2  1  0.00000000  0.74519400  0.74519400  1
  Bi  Bi3  1  0.00000000  0.50000000  0.50000000  1
