# generated using pymatgen
data_Ca4Al6WO16
_symmetry_space_group_name_H-M   'P 1'
_cell_length_a   8.12001255
_cell_length_b   8.12001255
_cell_length_c   26.38657500
_cell_angle_alpha   90.00000000
_cell_angle_beta   90.00000000
_cell_angle_gamma   109.03108265
_symmetry_Int_Tables_number   1
_chemical_formula_structural   Ca4Al6WO16
_chemical_formula_sum   'Ca16 Al24 W4 O64'
_cell_volume   1644.69469866
_cell_formula_units_Z   4
loop_
 _symmetry_equiv_pos_site_id
 _symmetry_equiv_pos_as_xyz
  1  'x, y, z'
loop_
 _atom_site_type_symbol
 _atom_site_label
 _atom_site_symmetry_multiplicity
 _atom_site_fract_x
 _atom_site_fract_y
 _atom_site_fract_z
 _atom_site_occupancy
  Ca  Ca0  1  0.75994600  0.73268600  0.87985700  1
  Ca  Ca1  1  0.50993400  0.98662000  0.75003400  1
  Ca  Ca2  1  0.75439000  0.80606600  0.63836700  1
  Ca  Ca3  1  0.25994600  0.23268600  0.62014300  1
  Ca  Ca4  1  0.73268600  0.75994600  0.12014300  1
  Ca  Ca5  1  0.43663200  0.97168700  0.48321500  1
  Ca  Ca6  1  0.00993400  0.48662000  0.74996600  1
  Ca  Ca7  1  0.93663200  0.47168700  0.01678500  1
  Ca  Ca8  1  0.23268600  0.25994600  0.37985700  1
  Ca  Ca9  1  0.25439000  0.30606600  0.86163300  1
  Ca  Ca10  1  0.47168700  0.93663200  0.98321500  1
  Ca  Ca11  1  0.97168700  0.43663200  0.51678500  1
  Ca  Ca12  1  0.30606600  0.25439000  0.13836700  1
  Ca  Ca13  1  0.80606600  0.75439000  0.36163300  1
  Ca  Ca14  1  0.48662000  0.00993400  0.25003400  1
  Ca  Ca15  1  0.98662000  0.50993400  0.24996600  1
  Al  Al16  1  0.36293200  0.59052200  0.06284300  1
  Al  Al17  1  0.59052200  0.36293200  0.93715700  1
  Al  Al18  1  0.09052200  0.86293200  0.56284300  1
  Al  Al19  1  0.87431200  0.12361200  0.81465500  1
  Al  Al20  1  0.36010200  0.62880900  0.55950300  1
  Al  Al21  1  0.75366400  0.75917000  0.24338600  1
  Al  Al22  1  0.24314500  0.24314500  0.50000000  1
  Al  Al23  1  0.38593600  0.63731300  0.18996500  1
  Al  Al24  1  0.22840900  0.22840900  0.00000000  1
  Al  Al25  1  0.75917000  0.75366400  0.75661400  1
  Al  Al26  1  0.13731300  0.88593600  0.68996500  1
  Al  Al27  1  0.25917000  0.25366400  0.74338600  1
  Al  Al28  1  0.63731300  0.38593600  0.81003500  1
  Al  Al29  1  0.12361200  0.87431200  0.18534500  1
  Al  Al30  1  0.37431200  0.62361200  0.68534500  1
  Al  Al31  1  0.25366400  0.25917000  0.25661400  1
  Al  Al32  1  0.74314500  0.74314500  0.00000000  1
  Al  Al33  1  0.88593600  0.13731300  0.31003500  1
  Al  Al34  1  0.62361200  0.37431200  0.31465500  1
  Al  Al35  1  0.86293200  0.09052200  0.43715700  1
  Al  Al36  1  0.62880900  0.36010200  0.44049700  1
  Al  Al37  1  0.86010200  0.12880900  0.94049700  1
  Al  Al38  1  0.72840900  0.72840900  0.50000000  1
  Al  Al39  1  0.12880900  0.86010200  0.05950300  1
  W  W40  1  0.24098100  0.76157800  0.86358900  1
  W  W41  1  0.26157800  0.74098100  0.36358900  1
  W  W42  1  0.74098100  0.26157800  0.63641100  1
  W  W43  1  0.76157800  0.24098100  0.13641100  1
  O  O44  1  0.40278600  0.26646600  0.45315900  1
  O  O45  1  0.92465800  0.82889700  0.71235400  1
  O  O46  1  0.32889700  0.42465800  0.21235400  1
  O  O47  1  0.24664100  0.02234900  0.01663800  1
  O  O48  1  0.86276800  0.79324600  0.55431500  1
  O  O49  1  0.71934100  0.56877400  0.28001200  1
  O  O50  1  0.74664100  0.52234900  0.48336200  1
  O  O51  1  0.29478900  0.08380300  0.70887700  1
  O  O52  1  0.29324600  0.36276800  0.05431500  1
  O  O53  1  0.44603700  0.65738000  0.62177100  1
  O  O54  1  0.72925800  0.23112400  0.29121600  1
  O  O55  1  0.76612000  0.40486200  0.08895100  1
  O  O56  1  0.60285800  0.43155000  0.87360700  1
  O  O57  1  0.19614100  0.67557700  0.04637100  1
  O  O58  1  0.77653200  0.04830600  0.10569400  1
  O  O59  1  0.58380300  0.79478900  0.20887700  1
  O  O60  1  0.56877400  0.71934100  0.71998800  1
  O  O61  1  0.17557700  0.69614100  0.54637100  1
  O  O62  1  0.44373000  0.82586400  0.32089200  1
  O  O63  1  0.94373000  0.32586400  0.17910800  1
  O  O64  1  0.21934100  0.06877400  0.21998800  1
  O  O65  1  0.74884500  0.90174800  0.80519100  1
  O  O66  1  0.26612000  0.90486200  0.41104900  1
  O  O67  1  0.23266400  0.05099800  0.53266000  1
  O  O68  1  0.69614100  0.17557700  0.45362900  1
  O  O69  1  0.55099800  0.73266400  0.03266000  1
  O  O70  1  0.10285800  0.93155000  0.62639300  1
  O  O71  1  0.23112400  0.72925800  0.70878400  1
  O  O72  1  0.26646600  0.40278600  0.54684100  1
  O  O73  1  0.04830600  0.77653200  0.89430600  1
  O  O74  1  0.73112400  0.22925800  0.79121600  1
  O  O75  1  0.82586400  0.44373000  0.67910800  1
  O  O76  1  0.76646600  0.90278600  0.95315900  1
  O  O77  1  0.93155000  0.10285800  0.37360700  1
  O  O78  1  0.40174800  0.24884500  0.30519100  1
  O  O79  1  0.42465800  0.32889700  0.78764600  1
  O  O80  1  0.52234900  0.74664100  0.51663800  1
  O  O81  1  0.18916500  0.55568100  0.82913700  1
  O  O82  1  0.90174800  0.74884500  0.19480900  1
  O  O83  1  0.15738000  0.94603700  0.12177100  1
  O  O84  1  0.40486200  0.76612000  0.91104900  1
  O  O85  1  0.79478900  0.58380300  0.79112300  1
  O  O86  1  0.65738000  0.44603700  0.37822900  1
  O  O87  1  0.79324600  0.86276800  0.44568500  1
  O  O88  1  0.08380300  0.29478900  0.29112300  1
  O  O89  1  0.22925800  0.73112400  0.20878400  1
  O  O90  1  0.73266400  0.55099800  0.96734000  1
  O  O91  1  0.02234900  0.24664100  0.98336200  1
  O  O92  1  0.82889700  0.92465800  0.28764600  1
  O  O93  1  0.90486200  0.26612000  0.58895100  1
  O  O94  1  0.54830600  0.27653200  0.60569400  1
  O  O95  1  0.43155000  0.60285800  0.12639300  1
  O  O96  1  0.94603700  0.15738000  0.87822900  1
  O  O97  1  0.32586400  0.94373000  0.82089200  1
  O  O98  1  0.36276800  0.29324600  0.94568500  1
  O  O99  1  0.67557700  0.19614100  0.95362900  1
  O  O100  1  0.90278600  0.76646600  0.04684100  1
  O  O101  1  0.05099800  0.23266400  0.46734000  1
  O  O102  1  0.27653200  0.54830600  0.39430600  1
  O  O103  1  0.06877400  0.21934100  0.78001200  1
  O  O104  1  0.05568100  0.68916500  0.32913700  1
  O  O105  1  0.68916500  0.05568100  0.67086300  1
  O  O106  1  0.24884500  0.40174800  0.69480900  1
  O  O107  1  0.55568100  0.18916500  0.17086300  1
