# generated using pymatgen
data_Fe12PbO19
_symmetry_space_group_name_H-M   'P 1'
_cell_length_a   6.00795058
_cell_length_b   6.00795058
_cell_length_c   23.35515800
_cell_angle_alpha   90.00000000
_cell_angle_beta   90.00000000
_cell_angle_gamma   120.00000644
_symmetry_Int_Tables_number   1
_chemical_formula_structural   Fe12PbO19
_chemical_formula_sum   'Fe24 Pb2 O38'
_cell_volume   730.07271373
_cell_formula_units_Z   2
loop_
 _symmetry_equiv_pos_site_id
 _symmetry_equiv_pos_as_xyz
  1  'x, y, z'
loop_
 _atom_site_type_symbol
 _atom_site_label
 _atom_site_symmetry_multiplicity
 _atom_site_fract_x
 _atom_site_fract_y
 _atom_site_fract_z
 _atom_site_occupancy
  Fe  Fe0  1  0.33621200  0.16810600  0.39077400  1
  Fe  Fe1  1  0.66666700  0.33333300  0.69091100  1
  Fe  Fe2  1  0.66378800  0.83189400  0.60922600  1
  Fe  Fe3  1  0.83189400  0.16810600  0.10922600  1
  Fe  Fe4  1  0.83189400  0.66378800  0.39077400  1
  Fe  Fe5  1  0.66666700  0.33333300  0.97207100  1
  Fe  Fe6  1  0.16810600  0.83189400  0.60922600  1
  Fe  Fe7  1  0.33333300  0.66666700  0.47207100  1
  Fe  Fe8  1  0.16810600  0.33621200  0.60922600  1
  Fe  Fe9  1  0.33621200  0.16810600  0.10922600  1
  Fe  Fe10  1  0.33333300  0.66666700  0.30908900  1
  Fe  Fe11  1  0.66666700  0.33333300  0.80908900  1
  Fe  Fe12  1  0.16810600  0.33621200  0.89077400  1
  Fe  Fe13  1  0.00000000  0.00000000  0.50000000  1
  Fe  Fe14  1  0.66666700  0.33333300  0.52792900  1
  Fe  Fe15  1  0.33333300  0.66666700  0.02792900  1
  Fe  Fe16  1  0.83189400  0.16810600  0.39077400  1
  Fe  Fe17  1  0.83189400  0.66378800  0.10922600  1
  Fe  Fe18  1  0.66378800  0.83189400  0.89077400  1
  Fe  Fe19  1  0.00000000  0.00000000  0.75000000  1
  Fe  Fe20  1  0.16810600  0.83189400  0.89077400  1
  Fe  Fe21  1  0.33333300  0.66666700  0.19091100  1
  Fe  Fe22  1  0.00000000  0.00000000  0.00000000  1
  Fe  Fe23  1  0.00000000  0.00000000  0.25000000  1
  Pb  Pb24  1  0.66666700  0.33333300  0.25000000  1
  Pb  Pb25  1  0.33333300  0.66666700  0.75000000  1
  O  O26  1  0.84472400  0.68944800  0.55291600  1
  O  O27  1  0.00989300  0.50494700  0.65057400  1
  O  O28  1  0.49505300  0.50494700  0.84942600  1
  O  O29  1  0.84472400  0.15527600  0.55291600  1
  O  O30  1  0.66666700  0.33333300  0.05519600  1
  O  O31  1  0.50494700  0.49505300  0.34942600  1
  O  O32  1  0.63384700  0.81692400  0.25000000  1
  O  O33  1  0.49505300  0.99010700  0.65057400  1
  O  O34  1  0.36615300  0.18307600  0.75000000  1
  O  O35  1  0.31055200  0.15527600  0.94708400  1
  O  O36  1  0.31055200  0.15527600  0.55291600  1
  O  O37  1  0.68944800  0.84472400  0.05291600  1
  O  O38  1  0.15527600  0.31055200  0.05291600  1
  O  O39  1  0.50494700  0.00989300  0.34942600  1
  O  O40  1  0.33333300  0.66666700  0.55519600  1
  O  O41  1  0.18307600  0.36615300  0.25000000  1
  O  O42  1  0.00000000  0.00000000  0.84792200  1
  O  O43  1  0.18307600  0.81692400  0.25000000  1
  O  O44  1  0.00000000  0.00000000  0.34792200  1
  O  O45  1  0.84472400  0.15527600  0.94708400  1
  O  O46  1  0.50494700  0.00989300  0.15057400  1
  O  O47  1  0.00989300  0.50494700  0.84942600  1
  O  O48  1  0.81692400  0.18307600  0.75000000  1
  O  O49  1  0.00000000  0.00000000  0.65207800  1
  O  O50  1  0.66666700  0.33333300  0.44480400  1
  O  O51  1  0.33333300  0.66666700  0.94480400  1
  O  O52  1  0.50494700  0.49505300  0.15057400  1
  O  O53  1  0.49505300  0.50494700  0.65057400  1
  O  O54  1  0.81692400  0.63384700  0.75000000  1
  O  O55  1  0.99010700  0.49505300  0.15057400  1
  O  O56  1  0.68944800  0.84472400  0.44708400  1
  O  O57  1  0.49505300  0.99010700  0.84942600  1
  O  O58  1  0.15527600  0.84472400  0.44708400  1
  O  O59  1  0.15527600  0.31055200  0.44708400  1
  O  O60  1  0.15527600  0.84472400  0.05291600  1
  O  O61  1  0.00000000  0.00000000  0.15207800  1
  O  O62  1  0.99010700  0.49505300  0.34942600  1
  O  O63  1  0.84472400  0.68944800  0.94708400  1
