# generated using pymatgen
data_Cs2AuI
_symmetry_space_group_name_H-M   'P 1'
_cell_length_a   13.49846847
_cell_length_b   13.49846847
_cell_length_c   13.49846847
_cell_angle_alpha   120.64618448
_cell_angle_beta   118.17193416
_cell_angle_gamma   91.03974176
_symmetry_Int_Tables_number   1
_chemical_formula_structural   Cs2AuI
_chemical_formula_sum   'Cs2 Au1 I1'
_cell_volume   1753.37733032
_cell_formula_units_Z   1
loop_
 _symmetry_equiv_pos_site_id
 _symmetry_equiv_pos_as_xyz
  1  'x, y, z'
loop_
 _atom_site_type_symbol
 _atom_site_label
 _atom_site_symmetry_multiplicity
 _atom_site_fract_x
 _atom_site_fract_y
 _atom_site_fract_z
 _atom_site_occupancy
  Cs  Cs0  1  0.25856700  0.00000000  0.25856700  1
  Cs  Cs1  1  0.74143300  0.00000000  0.74143300  1
  Au  Au2  1  0.50000000  0.00000000  0.50000000  1
  I  I3  1  0.00000000  0.00000000  0.00000000  1
