# generated using pymatgen
data_K10MgMo7O27
_symmetry_space_group_name_H-M   'P 1'
_cell_length_a   8.07949400
_cell_length_b   10.77526100
_cell_length_c   18.72941100
_cell_angle_alpha   90.00000000
_cell_angle_beta   90.00000000
_cell_angle_gamma   90.00000000
_symmetry_Int_Tables_number   1
_chemical_formula_structural   K10MgMo7O27
_chemical_formula_sum   'K20 Mg2 Mo14 O54'
_cell_volume   1630.55736053
_cell_formula_units_Z   2
loop_
 _symmetry_equiv_pos_site_id
 _symmetry_equiv_pos_as_xyz
  1  'x, y, z'
loop_
 _atom_site_type_symbol
 _atom_site_label
 _atom_site_symmetry_multiplicity
 _atom_site_fract_x
 _atom_site_fract_y
 _atom_site_fract_z
 _atom_site_occupancy
  K  K0  1  0.09631000  0.12164100  0.50000000  1
  K  K1  1  0.73342300  0.00854100  0.34756000  1
  K  K2  1  0.26098500  0.02343600  0.31566600  1
  K  K3  1  0.62017200  0.26743300  0.00000000  1
  K  K4  1  0.05462200  0.69484500  0.32078900  1
  K  K5  1  0.38149900  0.36589600  0.64067700  1
  K  K6  1  0.73901500  0.52343600  0.18433400  1
  K  K7  1  0.73901500  0.52343600  0.81566600  1
  K  K8  1  0.61850100  0.86589600  0.14067700  1
  K  K9  1  0.05462200  0.69484500  0.67921100  1
  K  K10  1  0.73342300  0.00854100  0.65244000  1
  K  K11  1  0.90369000  0.62164100  0.00000000  1
  K  K12  1  0.94537800  0.19484500  0.17921100  1
  K  K13  1  0.61850100  0.86589600  0.85932300  1
  K  K14  1  0.38149900  0.36589600  0.35932300  1
  K  K15  1  0.37982800  0.76743300  0.50000000  1
  K  K16  1  0.26657700  0.50854100  0.15244000  1
  K  K17  1  0.94537800  0.19484500  0.82078900  1
  K  K18  1  0.26657700  0.50854100  0.84756000  1
  K  K19  1  0.26098500  0.02343600  0.68433400  1
  Mg  Mg20  1  0.29010700  0.01326300  0.00000000  1
  Mg  Mg21  1  0.70989300  0.51326300  0.50000000  1
  Mo  Mo22  1  0.10853600  0.50069000  0.50000000  1
  Mo  Mo23  1  0.90686500  0.34880000  0.34646400  1
  Mo  Mo24  1  0.44053600  0.68602600  0.00000000  1
  Mo  Mo25  1  0.53685700  0.67757100  0.33355200  1
  Mo  Mo26  1  0.89146400  0.00069000  0.00000000  1
  Mo  Mo27  1  0.46314300  0.17757100  0.16644800  1
  Mo  Mo28  1  0.09313500  0.84880000  0.15353600  1
  Mo  Mo29  1  0.10162400  0.32228100  0.00000000  1
  Mo  Mo30  1  0.46314300  0.17757100  0.83355200  1
  Mo  Mo31  1  0.89837600  0.82228100  0.50000000  1
  Mo  Mo32  1  0.09313500  0.84880000  0.84646400  1
  Mo  Mo33  1  0.55946400  0.18602600  0.50000000  1
  Mo  Mo34  1  0.53685700  0.67757100  0.66644800  1
  Mo  Mo35  1  0.90686500  0.34880000  0.65353600  1
  O  O36  1  0.00042900  0.38558800  0.07735000  1
  O  O37  1  0.54880500  0.63211300  0.07833600  1
  O  O38  1  0.28042100  0.23508900  0.79023100  1
  O  O39  1  0.02765600  0.21008900  0.35461700  1
  O  O40  1  0.54880500  0.63211300  0.92166400  1
  O  O41  1  0.40200600  0.80527500  0.35367400  1
  O  O42  1  0.59266000  0.59957500  0.41607200  1
  O  O43  1  0.59799400  0.30527500  0.85367400  1
  O  O44  1  0.99957100  0.88558800  0.42265000  1
  O  O45  1  0.28042100  0.23508900  0.20976900  1
  O  O46  1  0.40200600  0.80527500  0.64632600  1
  O  O47  1  0.19718800  0.35047900  0.50000000  1
  O  O48  1  0.00642900  0.94283700  0.77684800  1
  O  O49  1  0.71957900  0.73508900  0.70976900  1
  O  O50  1  0.99357100  0.44283700  0.72315200  1
  O  O51  1  0.29473600  0.80601700  0.81952300  1
  O  O52  1  0.56980200  0.35433100  0.50000000  1
  O  O53  1  0.70526400  0.30601700  0.31952300  1
  O  O54  1  0.44028900  0.56823900  0.72578000  1
  O  O55  1  0.45119500  0.13211300  0.57833600  1
  O  O56  1  0.79514600  0.07299700  0.92530500  1
  O  O57  1  0.20485400  0.57299700  0.57469500  1
  O  O58  1  0.23419300  0.62774700  0.00000000  1
  O  O59  1  0.29473600  0.80601700  0.18047700  1
  O  O60  1  0.40734000  0.09957500  0.91607200  1
  O  O61  1  0.99957100  0.88558800  0.57735000  1
  O  O62  1  0.55971100  0.06823900  0.22578000  1
  O  O63  1  0.70526400  0.30601700  0.68047700  1
  O  O64  1  0.00042900  0.38558800  0.92265000  1
  O  O65  1  0.02765600  0.21008900  0.64538300  1
  O  O66  1  0.97234400  0.71008900  0.85461700  1
  O  O67  1  0.71957900  0.73508900  0.29023100  1
  O  O68  1  0.59266000  0.59957500  0.58392800  1
  O  O69  1  0.99357100  0.44283700  0.27684800  1
  O  O70  1  0.08707000  0.15120800  0.00000000  1
  O  O71  1  0.55971100  0.06823900  0.77422000  1
  O  O72  1  0.45119500  0.13211300  0.42166400  1
  O  O73  1  0.09974500  0.93860300  0.93083400  1
  O  O74  1  0.80281200  0.85047900  0.00000000  1
  O  O75  1  0.40734000  0.09957500  0.08392800  1
  O  O76  1  0.00642900  0.94283700  0.22315200  1
  O  O77  1  0.09974500  0.93860300  0.06916600  1
  O  O78  1  0.97234400  0.71008900  0.14538300  1
  O  O79  1  0.31249000  0.36444400  0.00000000  1
  O  O80  1  0.91293000  0.65120800  0.50000000  1
  O  O81  1  0.44028900  0.56823900  0.27422000  1
  O  O82  1  0.43019800  0.85433100  0.00000000  1
  O  O83  1  0.76580700  0.12774700  0.50000000  1
  O  O84  1  0.90025500  0.43860300  0.56916600  1
  O  O85  1  0.59799400  0.30527500  0.14632600  1
  O  O86  1  0.20485400  0.57299700  0.42530500  1
  O  O87  1  0.79514600  0.07299700  0.07469500  1
  O  O88  1  0.90025500  0.43860300  0.43083400  1
  O  O89  1  0.68751000  0.86444400  0.50000000  1
