# generated using pymatgen
data_Zr2CdHg
_symmetry_space_group_name_H-M   'P 1'
_cell_length_a   11.97942982
_cell_length_b   11.97942982
_cell_length_c   11.97942982
_cell_angle_alpha   121.19373117
_cell_angle_beta   120.09948309
_cell_angle_gamma   88.88630897
_symmetry_Int_Tables_number   1
_chemical_formula_structural   Zr2CdHg
_chemical_formula_sum   'Zr2 Cd1 Hg1'
_cell_volume   1203.33989366
_cell_formula_units_Z   1
loop_
 _symmetry_equiv_pos_site_id
 _symmetry_equiv_pos_as_xyz
  1  'x, y, z'
loop_
 _atom_site_type_symbol
 _atom_site_label
 _atom_site_symmetry_multiplicity
 _atom_site_fract_x
 _atom_site_fract_y
 _atom_site_fract_z
 _atom_site_occupancy
  Zr  Zr0  1  0.00000000  0.25282400  0.25282400  1
  Zr  Zr1  1  0.00000000  0.74717600  0.74717600  1
  Cd  Cd2  1  0.00000000  0.00000000  0.00000000  1
  Hg  Hg3  1  0.00000000  0.50000000  0.50000000  1
