# generated using pymatgen
data_Ca3Zn3(TeO6)2
_symmetry_space_group_name_H-M   'P 1'
_cell_length_a   11.24566376
_cell_length_b   11.24566376
_cell_length_c   11.24566376
_cell_angle_alpha   109.47122063
_cell_angle_beta   109.47122063
_cell_angle_gamma   109.47122063
_symmetry_Int_Tables_number   1
_chemical_formula_structural   Ca3Zn3(TeO6)2
_chemical_formula_sum   'Ca12 Zn12 Te8 O48'
_cell_volume   1094.79647887
_cell_formula_units_Z   4
loop_
 _symmetry_equiv_pos_site_id
 _symmetry_equiv_pos_as_xyz
  1  'x, y, z'
loop_
 _atom_site_type_symbol
 _atom_site_label
 _atom_site_symmetry_multiplicity
 _atom_site_fract_x
 _atom_site_fract_y
 _atom_site_fract_z
 _atom_site_occupancy
  Ca  Ca0  1  0.75000000  0.34359300  0.15640700  1
  Ca  Ca1  1  0.68718500  0.59359300  0.34359300  1
  Ca  Ca2  1  0.34359300  0.68718500  0.59359300  1
  Ca  Ca3  1  0.59359300  0.75000000  0.90640700  1
  Ca  Ca4  1  0.15640700  0.75000000  0.34359300  1
  Ca  Ca5  1  0.75000000  0.90640700  0.59359300  1
  Ca  Ca6  1  0.34359300  0.15640700  0.75000000  1
  Ca  Ca7  1  0.59359300  0.34359300  0.68718500  1
  Ca  Ca8  1  0.90640700  0.59359300  0.75000000  1
  Ca  Ca9  1  0.15640700  0.90640700  0.81281500  1
  Ca  Ca10  1  0.81281500  0.15640700  0.90640700  1
  Ca  Ca11  1  0.90640700  0.81281500  0.15640700  1
  Zn  Zn12  1  0.25000000  0.09539700  0.40460300  1
  Zn  Zn13  1  0.19079400  0.84539700  0.09539700  1
  Zn  Zn14  1  0.84539700  0.25000000  0.65460300  1
  Zn  Zn15  1  0.65460300  0.84539700  0.25000000  1
  Zn  Zn16  1  0.09539700  0.40460300  0.25000000  1
  Zn  Zn17  1  0.40460300  0.65460300  0.30920600  1
  Zn  Zn18  1  0.65460300  0.30920600  0.40460300  1
  Zn  Zn19  1  0.09539700  0.19079400  0.84539700  1
  Zn  Zn20  1  0.84539700  0.09539700  0.19079400  1
  Zn  Zn21  1  0.30920600  0.40460300  0.65460300  1
  Zn  Zn22  1  0.40460300  0.25000000  0.09539700  1
  Zn  Zn23  1  0.25000000  0.65460300  0.84539700  1
  Te  Te24  1  0.50000000  0.00000000  0.01471100  1
  Te  Te25  1  0.48528900  0.50000000  0.00000000  1
  Te  Te26  1  0.00000000  0.48528900  0.50000000  1
  Te  Te27  1  0.01471100  0.50000000  0.00000000  1
  Te  Te28  1  0.01471100  0.01471100  0.01471100  1
  Te  Te29  1  0.50000000  0.00000000  0.48528900  1
  Te  Te30  1  0.00000000  0.01471100  0.50000000  1
  Te  Te31  1  0.48528900  0.48528900  0.48528900  1
  O  O32  1  0.31611200  0.31858700  0.93890100  1
  O  O33  1  0.48956400  0.59370100  0.66524800  1
  O  O34  1  0.49752500  0.37721100  0.31611200  1
  O  O35  1  0.37721100  0.56109900  0.87968600  1
  O  O36  1  0.00247500  0.31858700  0.87968600  1
  O  O37  1  0.00247500  0.18388800  0.12278900  1
  O  O38  1  0.18141300  0.18388800  0.56109900  1
  O  O39  1  0.83475200  0.90629900  0.01043600  1
  O  O40  1  0.31858700  0.93890100  0.31611200  1
  O  O41  1  0.83475200  0.42845300  0.82431600  1
  O  O42  1  0.42845300  0.10413800  0.59370100  1
  O  O43  1  0.82431600  0.83475200  0.42845300  1
  O  O44  1  0.31858700  0.87968600  0.00247500  1
  O  O45  1  0.62031400  0.93890100  0.12278900  1
  O  O46  1  0.56109900  0.87968600  0.37721100  1
  O  O47  1  0.59370100  0.42845300  0.10413800  1
  O  O48  1  0.62031400  0.18141300  0.49752500  1
  O  O49  1  0.87968600  0.00247500  0.31858700  1
  O  O50  1  0.59370100  0.66524800  0.48956400  1
  O  O51  1  0.93890100  0.12278900  0.62031400  1
  O  O52  1  0.18388800  0.12278900  0.00247500  1
  O  O53  1  0.10413800  0.59370100  0.42845300  1
  O  O54  1  0.39586200  0.07154700  0.90629900  1
  O  O55  1  0.18388800  0.56109900  0.18141300  1
  O  O56  1  0.07154700  0.66524800  0.67568400  1
  O  O57  1  0.12278900  0.62031400  0.93890100  1
  O  O58  1  0.87968600  0.37721100  0.56109900  1
  O  O59  1  0.56109900  0.18141300  0.18388800  1
  O  O60  1  0.18141300  0.49752500  0.62031400  1
  O  O61  1  0.66524800  0.67568400  0.07154700  1
  O  O62  1  0.90629900  0.39586200  0.07154700  1
  O  O63  1  0.10413800  0.01043600  0.67568400  1
  O  O64  1  0.67568400  0.10413800  0.01043600  1
  O  O65  1  0.07154700  0.90629900  0.39586200  1
  O  O66  1  0.31611200  0.49752500  0.37721100  1
  O  O67  1  0.01043600  0.83475200  0.90629900  1
  O  O68  1  0.12278900  0.00247500  0.18388800  1
  O  O69  1  0.49752500  0.62031400  0.18141300  1
  O  O70  1  0.90629900  0.01043600  0.83475200  1
  O  O71  1  0.37721100  0.31611200  0.49752500  1
  O  O72  1  0.93890100  0.31611200  0.31858700  1
  O  O73  1  0.82431600  0.48956400  0.39586200  1
  O  O74  1  0.39586200  0.82431600  0.48956400  1
  O  O75  1  0.48956400  0.39586200  0.82431600  1
  O  O76  1  0.66524800  0.48956400  0.59370100  1
  O  O77  1  0.01043600  0.67568400  0.10413800  1
  O  O78  1  0.67568400  0.07154700  0.66524800  1
  O  O79  1  0.42845300  0.82431600  0.83475200  1
