# generated using pymatgen
data_NiP3H12NO7
_symmetry_space_group_name_H-M   'P 1'
_cell_length_a   15.03085600
_cell_length_b   7.42930100
_cell_length_c   9.82638363
_cell_angle_alpha   63.23803679
_cell_angle_beta   90.00000000
_cell_angle_gamma   90.00000000
_symmetry_Int_Tables_number   1
_chemical_formula_structural   NiP3H12NO7
_chemical_formula_sum   'Ni4 P12 H48 N4 O28'
_cell_volume   979.76265962
_cell_formula_units_Z   4
loop_
 _symmetry_equiv_pos_site_id
 _symmetry_equiv_pos_as_xyz
  1  'x, y, z'
loop_
 _atom_site_type_symbol
 _atom_site_label
 _atom_site_symmetry_multiplicity
 _atom_site_fract_x
 _atom_site_fract_y
 _atom_site_fract_z
 _atom_site_occupancy
  Ni  Ni0  1  0.17205300  0.99505600  0.90254200  1
  Ni  Ni1  1  0.67205300  0.00494400  0.59745800  1
  Ni  Ni2  1  0.82794700  0.00494400  0.09745800  1
  Ni  Ni3  1  0.32794700  0.99505600  0.40254200  1
  P  P4  1  0.65257500  0.90251500  0.95343900  1
  P  P5  1  0.84742500  0.90251500  0.45343900  1
  P  P6  1  0.33084400  0.77265700  0.80223200  1
  P  P7  1  0.92576100  0.57830000  0.22842100  1
  P  P8  1  0.83084400  0.22734300  0.69776800  1
  P  P9  1  0.15257500  0.09748500  0.54656100  1
  P  P10  1  0.66915600  0.22734300  0.19776800  1
  P  P11  1  0.16915600  0.77265700  0.30223200  1
  P  P12  1  0.07423900  0.42170000  0.77157900  1
  P  P13  1  0.42576100  0.42170000  0.27157900  1
  P  P14  1  0.57423900  0.57830000  0.72842100  1
  P  P15  1  0.34742500  0.09748500  0.04656100  1
  H  H16  1  0.35300000  0.32127100  0.55119600  1
  H  H17  1  0.59305900  0.55772200  0.36390100  1
  H  H18  1  0.69111600  0.46326700  0.45984500  1
  H  H19  1  0.04712700  0.76044400  0.84794600  1
  H  H20  1  0.38963600  0.91098500  0.81919500  1
  H  H21  1  0.93152100  0.81643700  0.51417900  1
  H  H22  1  0.30888400  0.53673300  0.54015500  1
  H  H23  1  0.11036400  0.91098500  0.31919500  1
  H  H24  1  0.99511600  0.15162500  0.04605500  1
  H  H25  1  0.15657600  0.50950600  0.70399400  1
  H  H26  1  0.61036400  0.08901500  0.18080500  1
  H  H27  1  0.95287300  0.23955600  0.15205400  1
  H  H28  1  0.85300000  0.67872900  0.94880400  1
  H  H29  1  0.36336500  0.88723500  0.11574900  1
  H  H30  1  0.09305900  0.44227800  0.13609900  1
  H  H31  1  0.64700000  0.67872900  0.44880400  1
  H  H32  1  0.65657600  0.49049400  0.79600600  1
  H  H33  1  0.12627300  0.58344000  0.38442800  1
  H  H34  1  0.80888400  0.46326700  0.95984500  1
  H  H35  1  0.37372700  0.58344000  0.88442800  1
  H  H36  1  0.49511600  0.84837500  0.45394500  1
  H  H37  1  0.19111600  0.53673300  0.04015500  1
  H  H38  1  0.50488400  0.15162500  0.54605500  1
  H  H39  1  0.86336500  0.11276500  0.38425100  1
  H  H40  1  0.31045100  0.32067300  0.71088600  1
  H  H41  1  0.14700000  0.32127100  0.05119600  1
  H  H42  1  0.43152100  0.18356300  0.98582100  1
  H  H43  1  0.54712700  0.23955600  0.65205400  1
  H  H44  1  0.96714300  0.62379900  0.33891500  1
  H  H45  1  0.40694100  0.44227800  0.63609900  1
  H  H46  1  0.63663500  0.11276500  0.88425100  1
  H  H47  1  0.87372700  0.41656000  0.61557200  1
  H  H48  1  0.45287300  0.76044400  0.34794600  1
  H  H49  1  0.88963600  0.08901500  0.68080500  1
  H  H50  1  0.46714300  0.37620100  0.16108500  1
  H  H51  1  0.56847900  0.81643700  0.01417900  1
  H  H52  1  0.68954900  0.67932700  0.28911400  1
  H  H53  1  0.53285700  0.62379900  0.83891500  1
  H  H54  1  0.18954900  0.32067300  0.21088600  1
  H  H55  1  0.62627300  0.41656000  0.11557200  1
  H  H56  1  0.13663500  0.88723500  0.61574900  1
  H  H57  1  0.00488400  0.84837500  0.95394500  1
  H  H58  1  0.81045100  0.67932700  0.78911400  1
  H  H59  1  0.03285700  0.37620100  0.66108500  1
  H  H60  1  0.90694100  0.55772200  0.86390100  1
  H  H61  1  0.84342400  0.49049400  0.29600600  1
  H  H62  1  0.34342400  0.50950600  0.20399400  1
  H  H63  1  0.06847900  0.18356300  0.48582100  1
  N  N64  1  0.84416100  0.59332400  0.89057400  1
  N  N65  1  0.34416100  0.40667600  0.60942600  1
  N  N66  1  0.15583900  0.40667600  0.10942600  1
  N  N67  1  0.65583900  0.59332400  0.39057400  1
  O  O68  1  0.18020600  0.16327400  0.66647900  1
  O  O69  1  0.51882600  0.42307100  0.70529600  1
  O  O70  1  0.48117400  0.57692900  0.29470400  1
  O  O71  1  0.21484800  0.15288200  0.41016600  1
  O  O72  1  0.75549000  0.23851500  0.11188200  1
  O  O73  1  0.24451000  0.76148500  0.88811800  1
  O  O74  1  0.40763100  0.22391500  0.41635600  1
  O  O75  1  0.25549000  0.76148500  0.38811800  1
  O  O76  1  0.68020600  0.83672600  0.83352100  1
  O  O77  1  0.55139800  0.12664300  0.62376700  1
  O  O78  1  0.71484800  0.84711800  0.08983400  1
  O  O79  1  0.90763100  0.77608500  0.08364400  1
  O  O80  1  0.44860200  0.87335700  0.37623300  1
  O  O81  1  0.31979400  0.16327400  0.16647900  1
  O  O82  1  0.28515200  0.15288200  0.91016600  1
  O  O83  1  0.05139800  0.87335700  0.87623300  1
  O  O84  1  0.98117400  0.42307100  0.20529600  1
  O  O85  1  0.32704200  0.81635800  0.63644500  1
  O  O86  1  0.94860200  0.12664300  0.12376700  1
  O  O87  1  0.78515200  0.84711800  0.58983400  1
  O  O88  1  0.09236900  0.22391500  0.91635600  1
  O  O89  1  0.01882600  0.57692900  0.79470400  1
  O  O90  1  0.17295800  0.81635800  0.13644500  1
  O  O91  1  0.82704200  0.18364200  0.86355500  1
  O  O92  1  0.81979400  0.83672600  0.33352100  1
  O  O93  1  0.74451000  0.23851500  0.61188200  1
  O  O94  1  0.67295800  0.18364200  0.36355500  1
  O  O95  1  0.59236900  0.77608500  0.58364400  1
