# generated using pymatgen
data_Er2SiSO4
_symmetry_space_group_name_H-M   'P 1'
_cell_length_a   8.19519934
_cell_length_b   8.19519934
_cell_length_c   6.85532600
_cell_angle_alpha   90.00000000
_cell_angle_beta   90.00000000
_cell_angle_gamma   98.20032348
_symmetry_Int_Tables_number   1
_chemical_formula_structural   Er2SiSO4
_chemical_formula_sum   'Er8 Si4 S4 O16'
_cell_volume   455.70503063
_cell_formula_units_Z   4
loop_
 _symmetry_equiv_pos_site_id
 _symmetry_equiv_pos_as_xyz
  1  'x, y, z'
loop_
 _atom_site_type_symbol
 _atom_site_label
 _atom_site_symmetry_multiplicity
 _atom_site_fract_x
 _atom_site_fract_y
 _atom_site_fract_z
 _atom_site_occupancy
  Er  Er0  1  0.67136100  0.32863900  0.02306500  1
  Er  Er1  1  0.81047100  0.68952900  0.75000000  1
  Er  Er2  1  0.17136100  0.82863900  0.47693500  1
  Er  Er3  1  0.18952900  0.31047100  0.25000000  1
  Er  Er4  1  0.68952900  0.81047100  0.25000000  1
  Er  Er5  1  0.82863900  0.17136100  0.52306500  1
  Er  Er6  1  0.32863900  0.67136100  0.97693500  1
  Er  Er7  1  0.31047100  0.18952900  0.75000000  1
  Si  Si8  1  0.56386400  0.93613600  0.75000000  1
  Si  Si9  1  0.43613600  0.06386400  0.25000000  1
  Si  Si10  1  0.06386400  0.43613600  0.75000000  1
  Si  Si11  1  0.93613600  0.56386400  0.25000000  1
  S  S12  1  0.49089600  0.50910400  0.25288300  1
  S  S13  1  0.00910400  0.99089600  0.75288300  1
  S  S14  1  0.99089600  0.00910400  0.24711700  1
  S  S15  1  0.50910400  0.49089600  0.74711700  1
  O  O16  1  0.39041400  0.86283800  0.23561200  1
  O  O17  1  0.86283800  0.39041400  0.76438800  1
  O  O18  1  0.83059800  0.61873300  0.06395100  1
  O  O19  1  0.88126700  0.66940200  0.43604900  1
  O  O20  1  0.13716200  0.60958600  0.23561200  1
  O  O21  1  0.89041400  0.36283800  0.26438800  1
  O  O22  1  0.33059800  0.11873300  0.43604900  1
  O  O23  1  0.63716200  0.10958600  0.26438800  1
  O  O24  1  0.60958600  0.13716200  0.76438800  1
  O  O25  1  0.38126700  0.16940200  0.06395100  1
  O  O26  1  0.10958600  0.63716200  0.73561200  1
  O  O27  1  0.16940200  0.38126700  0.93604900  1
  O  O28  1  0.11873300  0.33059800  0.56395100  1
  O  O29  1  0.36283800  0.89041400  0.73561200  1
  O  O30  1  0.61873300  0.83059800  0.93604900  1
  O  O31  1  0.66940200  0.88126700  0.56395100  1
