# generated using pymatgen
data_SrCaMg2
_symmetry_space_group_name_H-M   'P 1'
_cell_length_a   13.86546816
_cell_length_b   13.86546816
_cell_length_c   13.86546816
_cell_angle_alpha   121.79149416
_cell_angle_beta   114.79361515
_cell_angle_gamma   93.08511855
_symmetry_Int_Tables_number   1
_chemical_formula_structural   SrCaMg2
_chemical_formula_sum   'Sr1 Ca1 Mg2'
_cell_volume   1922.07913403
_cell_formula_units_Z   1
loop_
 _symmetry_equiv_pos_site_id
 _symmetry_equiv_pos_as_xyz
  1  'x, y, z'
loop_
 _atom_site_type_symbol
 _atom_site_label
 _atom_site_symmetry_multiplicity
 _atom_site_fract_x
 _atom_site_fract_y
 _atom_site_fract_z
 _atom_site_occupancy
  Sr  Sr0  1  0.50000000  0.00000000  0.50000000  1
  Ca  Ca1  1  0.00000000  0.00000000  0.00000000  1
  Mg  Mg2  1  0.75372400  0.00000000  0.75372400  1
  Mg  Mg3  1  0.24627600  0.00000000  0.24627600  1
