# generated using pymatgen
data_CaCO3
_symmetry_space_group_name_H-M   'P 1'
_cell_length_a   5.06699600
_cell_length_b   6.44366500
_cell_length_c   8.13136675
_cell_angle_alpha   72.40277561
_cell_angle_beta   90.00000000
_cell_angle_gamma   90.00000000
_symmetry_Int_Tables_number   1
_chemical_formula_structural   CaCO3
_chemical_formula_sum   'Ca4 C4 O12'
_cell_volume   253.06583637
_cell_formula_units_Z   4
loop_
 _symmetry_equiv_pos_site_id
 _symmetry_equiv_pos_as_xyz
  1  'x, y, z'
loop_
 _atom_site_type_symbol
 _atom_site_label
 _atom_site_symmetry_multiplicity
 _atom_site_fract_x
 _atom_site_fract_y
 _atom_site_fract_z
 _atom_site_occupancy
  Ca  Ca0  1  0.75493700  0.75720000  0.73329700  1
  Ca  Ca1  1  0.74506300  0.75720000  0.23329700  1
  Ca  Ca2  1  0.25493700  0.24280000  0.76670300  1
  Ca  Ca3  1  0.24506300  0.24280000  0.26670300  1
  C  C4  1  0.25329000  0.74632200  0.99861200  1
  C  C5  1  0.74671000  0.25367800  0.00138800  1
  C  C6  1  0.24671000  0.74632200  0.49861200  1
  C  C7  1  0.75329000  0.25367800  0.50138800  1
  O  O8  1  0.90042900  0.12817500  0.62205600  1
  O  O9  1  0.09957100  0.87182500  0.37794400  1
  O  O10  1  0.63755400  0.38677700  0.86586600  1
  O  O11  1  0.13755400  0.61322300  0.63413400  1
  O  O12  1  0.50198500  0.75839900  0.48482700  1
  O  O13  1  0.00198500  0.24160100  0.01517300  1
  O  O14  1  0.40042900  0.87182500  0.87794400  1
  O  O15  1  0.49801500  0.24160100  0.51517300  1
  O  O16  1  0.59957100  0.12817500  0.12205600  1
  O  O17  1  0.86244600  0.38677700  0.36586600  1
  O  O18  1  0.99801500  0.75839900  0.98482700  1
  O  O19  1  0.36244600  0.61322300  0.13413400  1
