# generated using pymatgen
data_NdPH5CO7
_symmetry_space_group_name_H-M   'P 1'
_cell_length_a   6.71554500
_cell_length_b   7.10743648
_cell_length_c   7.90832306
_cell_angle_alpha   111.37548679
_cell_angle_beta   96.30031793
_cell_angle_gamma   89.87662847
_symmetry_Int_Tables_number   1
_chemical_formula_structural   NdPH5CO7
_chemical_formula_sum   'Nd2 P2 H10 C2 O14'
_cell_volume   349.08635995
_cell_formula_units_Z   2
loop_
 _symmetry_equiv_pos_site_id
 _symmetry_equiv_pos_as_xyz
  1  'x, y, z'
loop_
 _atom_site_type_symbol
 _atom_site_label
 _atom_site_symmetry_multiplicity
 _atom_site_fract_x
 _atom_site_fract_y
 _atom_site_fract_z
 _atom_site_occupancy
  Nd  Nd0  1  0.87029300  0.77748800  0.06577600  1
  Nd  Nd1  1  0.12970700  0.22251200  0.93422400  1
  P  P2  1  0.32488100  0.74810900  0.98197700  1
  P  P3  1  0.67511900  0.25189100  0.01802300  1
  H  H4  1  0.47509100  0.86984400  0.58618000  1
  H  H5  1  0.71665400  0.66720100  0.64166300  1
  H  H6  1  0.52815100  0.74534900  0.39091800  1
  H  H7  1  0.52490900  0.13015600  0.41382000  1
  H  H8  1  0.28334600  0.33279900  0.35833700  1
  H  H9  1  0.83109900  0.47700400  0.67293800  1
  H  H10  1  0.62915700  0.29264000  0.19710100  1
  H  H11  1  0.16890100  0.52299600  0.32706200  1
  H  H12  1  0.47184900  0.25465100  0.60908200  1
  H  H13  1  0.37084300  0.70736000  0.80289900  1
  C  C14  1  0.06280600  0.90909100  0.50172700  1
  C  C15  1  0.93719400  0.09090900  0.49827300  1
  O  O16  1  0.81876400  0.42518700  0.02459100  1
  O  O17  1  0.83693300  0.07577600  0.34896700  1
  O  O18  1  0.52211300  0.77220000  0.10534100  1
  O  O19  1  0.58318100  0.79570500  0.51990700  1
  O  O20  1  0.47788700  0.22780000  0.89465900  1
  O  O21  1  0.21451300  0.38410900  0.26667000  1
  O  O22  1  0.94458000  0.24206500  0.64773000  1
  O  O23  1  0.18123600  0.57481300  0.97540900  1
  O  O24  1  0.19768500  0.93975200  0.03660300  1
  O  O25  1  0.16306700  0.92422400  0.65103300  1
  O  O26  1  0.80231500  0.06024800  0.96339700  1
  O  O27  1  0.05542000  0.75793500  0.35227000  1
  O  O28  1  0.78548700  0.61589100  0.73333000  1
  O  O29  1  0.41681900  0.20429500  0.48009300  1
