# generated using pymatgen
data_CdHgC4(SN)4
_symmetry_space_group_name_H-M   'P 1'
_cell_length_a   8.59142143
_cell_length_b   8.59142143
_cell_length_c   8.59142143
_cell_angle_alpha   93.98435733
_cell_angle_beta   93.98435733
_cell_angle_gamma   149.43262695
_symmetry_Int_Tables_number   1
_chemical_formula_structural   CdHgC4(SN)4
_chemical_formula_sum   'Cd1 Hg1 C4 S4 N4'
_cell_volume   311.09399895
_cell_formula_units_Z   1
loop_
 _symmetry_equiv_pos_site_id
 _symmetry_equiv_pos_as_xyz
  1  'x, y, z'
loop_
 _atom_site_type_symbol
 _atom_site_label
 _atom_site_symmetry_multiplicity
 _atom_site_fract_x
 _atom_site_fract_y
 _atom_site_fract_z
 _atom_site_occupancy
  Cd  Cd0  1  0.25000000  0.75000000  0.50000000  1
  Hg  Hg1  1  0.00000000  0.00000000  0.00000000  1
  C  C2  1  0.95033800  0.13658900  0.34462200  1
  C  C3  1  0.86341100  0.20803200  0.81374900  1
  C  C4  1  0.79196800  0.60571600  0.65537800  1
  C  C5  1  0.39428400  0.04966200  0.18625100  1
  S  S6  1  0.44778700  0.17725100  0.02806400  1
  S  S7  1  0.14918600  0.41972300  0.97193600  1
  S  S8  1  0.82274900  0.85081400  0.27053600  1
  S  S9  1  0.58027700  0.55221300  0.72946400  1
  N  N10  1  0.36423800  0.96249500  0.30007700  1
  N  N11  1  0.03750500  0.33758200  0.40174400  1
  N  N12  1  0.66241800  0.06416200  0.69992300  1
  N  N13  1  0.93583800  0.63576200  0.59825600  1
