# generated using pymatgen
data_SrAl4O7
_symmetry_space_group_name_H-M   'P 1'
_cell_length_a   8.20364879
_cell_length_b   8.20364879
_cell_length_c   4.84087100
_cell_angle_alpha   90.00000000
_cell_angle_beta   90.00000000
_cell_angle_gamma   111.30088142
_symmetry_Int_Tables_number   1
_chemical_formula_structural   SrAl4O7
_chemical_formula_sum   'Sr2 Al8 O14'
_cell_volume   303.53377996
_cell_formula_units_Z   2
loop_
 _symmetry_equiv_pos_site_id
 _symmetry_equiv_pos_as_xyz
  1  'x, y, z'
loop_
 _atom_site_type_symbol
 _atom_site_label
 _atom_site_symmetry_multiplicity
 _atom_site_fract_x
 _atom_site_fract_y
 _atom_site_fract_z
 _atom_site_occupancy
  Sr  Sr0  1  0.50000000  0.00000000  0.00000000  1
  Sr  Sr1  1  0.00000000  0.50000000  0.00000000  1
  Al  Al2  1  0.63065200  0.36934800  0.55637400  1
  Al  Al3  1  0.36934800  0.63065200  0.44362600  1
  Al  Al4  1  0.75000000  0.75000000  0.50000000  1
  Al  Al5  1  0.86934800  0.13065200  0.55637400  1
  Al  Al6  1  0.13065200  0.86934800  0.44362600  1
  Al  Al7  1  0.50000000  0.50000000  0.00000000  1
  Al  Al8  1  0.00000000  0.00000000  0.00000000  1
  Al  Al9  1  0.25000000  0.25000000  0.50000000  1
  O  O10  1  0.07302700  0.21227300  0.73231300  1
  O  O11  1  0.78772700  0.92697300  0.73231300  1
  O  O12  1  0.38350000  0.61650000  0.79842500  1
  O  O13  1  0.88350000  0.11650000  0.20157500  1
  O  O14  1  0.61650000  0.38350000  0.20157500  1
  O  O15  1  0.71227300  0.57302700  0.73231300  1
  O  O16  1  0.42697300  0.28772700  0.73231300  1
  O  O17  1  0.21227300  0.07302700  0.26768700  1
  O  O18  1  0.57302700  0.71227300  0.26768700  1
  O  O19  1  0.28772700  0.42697300  0.26768700  1
  O  O20  1  0.92697300  0.78772700  0.26768700  1
  O  O21  1  0.25000000  0.75000000  0.32164200  1
  O  O22  1  0.11650000  0.88350000  0.79842500  1
  O  O23  1  0.75000000  0.25000000  0.67835800  1
