# generated using pymatgen
data_Na5Ca4P4O16F
_symmetry_space_group_name_H-M   'P 1'
_cell_length_a   8.74760188
_cell_length_b   8.74760188
_cell_length_c   8.74760188
_cell_angle_alpha   95.61450444
_cell_angle_beta   95.61450444
_cell_angle_gamma   143.54563038
_symmetry_Int_Tables_number   1
_chemical_formula_structural   Na5Ca4P4O16F
_chemical_formula_sum   'Na5 Ca4 P4 O16 F1'
_cell_volume   377.77206605
_cell_formula_units_Z   1
loop_
 _symmetry_equiv_pos_site_id
 _symmetry_equiv_pos_as_xyz
  1  'x, y, z'
loop_
 _atom_site_type_symbol
 _atom_site_label
 _atom_site_symmetry_multiplicity
 _atom_site_fract_x
 _atom_site_fract_y
 _atom_site_fract_z
 _atom_site_occupancy
  Na  Na0  1  0.12881100  0.33433700  0.98219000  1
  Na  Na1  1  0.85337900  0.87118900  0.20552500  1
  Na  Na2  1  0.66566300  0.64785300  0.79447500  1
  Na  Na3  1  0.25000000  0.75000000  0.50000000  1
  Na  Na4  1  0.35214700  0.14662100  0.01781000  1
  Ca  Ca5  1  0.55212300  0.34219800  0.43303900  1
  Ca  Ca6  1  0.65780200  0.09084100  0.20992500  1
  Ca  Ca7  1  0.88091600  0.44787700  0.79007500  1
  Ca  Ca8  1  0.90915900  0.11908400  0.56696100  1
  P  P9  1  0.36498600  0.51048700  0.35480700  1
  P  P10  1  0.15568000  0.01017900  0.64519300  1
  P  P11  1  0.98982100  0.63501400  0.14550100  1
  P  P12  1  0.48951300  0.84432000  0.85449900  1
  O  O13  1  0.88971800  0.66894500  0.01450000  1
  O  O14  1  0.22144400  0.54201200  0.75471100  1
  O  O15  1  0.06689100  0.00385200  0.47953200  1
  O  O16  1  0.45798800  0.21269900  0.67943100  1
  O  O17  1  0.41264100  0.93310900  0.93696100  1
  O  O18  1  0.65932800  0.01654500  0.74221200  1
  O  O19  1  0.53326700  0.77855600  0.32056900  1
  O  O20  1  0.99614800  0.47568000  0.06303900  1
  O  O21  1  0.33105500  0.34555500  0.22077300  1
  O  O22  1  0.78730100  0.46673300  0.24528900  1
  O  O23  1  0.12478200  0.11028200  0.77922700  1
  O  O24  1  0.98345500  0.72566600  0.64278200  1
  O  O25  1  0.27433400  0.91711600  0.25778800  1
  O  O26  1  0.52432000  0.58735900  0.52046800  1
  O  O27  1  0.08288400  0.34067200  0.35721800  1
  O  O28  1  0.65444500  0.87521800  0.98550000  1
  F  F29  1  0.75000000  0.25000000  0.50000000  1
