# generated using pymatgen
data_SiO2
_symmetry_space_group_name_H-M   'P 1'
_cell_length_a   11.32424584
_cell_length_b   11.32424584
_cell_length_c   5.18401300
_cell_angle_alpha   90.00000000
_cell_angle_beta   90.00000000
_cell_angle_gamma   102.74905257
_symmetry_Int_Tables_number   1
_chemical_formula_structural   SiO2
_chemical_formula_sum   'Si12 O24'
_cell_volume   648.40051897
_cell_formula_units_Z   12
loop_
 _symmetry_equiv_pos_site_id
 _symmetry_equiv_pos_as_xyz
  1  'x, y, z'
loop_
 _atom_site_type_symbol
 _atom_site_label
 _atom_site_symmetry_multiplicity
 _atom_site_fract_x
 _atom_site_fract_y
 _atom_site_fract_z
 _atom_site_occupancy
  Si  Si0  1  0.41684900  0.99480700  0.78486000  1
  Si  Si1  1  0.27465600  0.72534400  0.82804200  1
  Si  Si2  1  0.58315100  0.00519300  0.28486000  1
  Si  Si3  1  0.24659300  0.34327900  0.27897900  1
  Si  Si4  1  0.65672100  0.75340700  0.27897900  1
  Si  Si5  1  0.75340700  0.65672100  0.77897900  1
  Si  Si6  1  0.72534400  0.27465600  0.32804200  1
  Si  Si7  1  0.37875700  0.62124300  0.32796100  1
  Si  Si8  1  0.34327900  0.24659300  0.77897900  1
  Si  Si9  1  0.00519300  0.58315100  0.78486000  1
  Si  Si10  1  0.62124300  0.37875700  0.82796100  1
  Si  Si11  1  0.99480700  0.41684900  0.28486000  1
  O  O12  1  0.68702500  0.12907300  0.29284400  1
  O  O13  1  0.00830900  0.48229300  0.00509900  1
  O  O14  1  0.87092700  0.31297500  0.29284400  1
  O  O15  1  0.66154000  0.52426400  0.79246700  1
  O  O16  1  0.68894600  0.31105400  0.61602800  1
  O  O17  1  0.33846000  0.47573600  0.29246700  1
  O  O18  1  0.89223200  0.64706100  0.83123800  1
  O  O19  1  0.10776800  0.35293900  0.33123800  1
  O  O20  1  0.52426400  0.66154000  0.29246700  1
  O  O21  1  0.34266600  0.65733400  0.61655200  1
  O  O22  1  0.99169100  0.51770700  0.50509900  1
  O  O23  1  0.65733400  0.34266600  0.11655200  1
  O  O24  1  0.25494600  0.28498300  0.99522100  1
  O  O25  1  0.47573600  0.33846000  0.79246700  1
  O  O26  1  0.31105400  0.68894600  0.11602800  1
  O  O27  1  0.64706100  0.89223200  0.33123800  1
  O  O28  1  0.48229300  0.00830900  0.50509900  1
  O  O29  1  0.74505400  0.71501700  0.49522100  1
  O  O30  1  0.35293900  0.10776800  0.83123800  1
  O  O31  1  0.31297500  0.87092700  0.79284400  1
  O  O32  1  0.71501700  0.74505400  0.99522100  1
  O  O33  1  0.51770700  0.99169100  0.00509900  1
  O  O34  1  0.28498300  0.25494600  0.49522100  1
  O  O35  1  0.12907300  0.68702500  0.79284400  1
