# generated using pymatgen
data_BeGaPt2
_symmetry_space_group_name_H-M   'P 1'
_cell_length_a   9.99135967
_cell_length_b   9.99135967
_cell_length_c   9.99135967
_cell_angle_alpha   127.20857878
_cell_angle_beta   117.71805326
_cell_angle_gamma   85.99523872
_symmetry_Int_Tables_number   1
_chemical_formula_structural   BeGaPt2
_chemical_formula_sum   'Be1 Ga1 Pt2'
_cell_volume   670.85576214
_cell_formula_units_Z   1
loop_
 _symmetry_equiv_pos_site_id
 _symmetry_equiv_pos_as_xyz
  1  'x, y, z'
loop_
 _atom_site_type_symbol
 _atom_site_label
 _atom_site_symmetry_multiplicity
 _atom_site_fract_x
 _atom_site_fract_y
 _atom_site_fract_z
 _atom_site_occupancy
  Be  Be0  1  0.00000000  0.00000000  0.00000000  1
  Ga  Ga1  1  0.00000000  0.50000000  0.50000000  1
  Pt  Pt2  1  0.00000000  0.23314300  0.23314300  1
  Pt  Pt3  1  0.00000000  0.76685700  0.76685700  1
