# generated using pymatgen
data_ZnCr6Si2Pb10(O16F)2
_symmetry_space_group_name_H-M   'P 1'
_cell_length_a   9.65360600
_cell_length_b   10.11368672
_cell_length_c   10.15031288
_cell_angle_alpha   65.72374284
_cell_angle_beta   72.35806191
_cell_angle_gamma   69.36589357
_symmetry_Int_Tables_number   1
_chemical_formula_structural   ZnCr6Si2Pb10(O16F)2
_chemical_formula_sum   'Zn1 Cr6 Si2 Pb10 O32 F2'
_cell_volume   830.76707065
_cell_formula_units_Z   1
loop_
 _symmetry_equiv_pos_site_id
 _symmetry_equiv_pos_as_xyz
  1  'x, y, z'
loop_
 _atom_site_type_symbol
 _atom_site_label
 _atom_site_symmetry_multiplicity
 _atom_site_fract_x
 _atom_site_fract_y
 _atom_site_fract_z
 _atom_site_occupancy
  Zn  Zn0  1  0.50000000  0.00000000  0.50000000  1
  Cr  Cr1  1  0.03448000  0.64340100  0.28253300  1
  Cr  Cr2  1  0.96552000  0.35659900  0.71746700  1
  Cr  Cr3  1  0.74095000  0.84563200  0.98042300  1
  Cr  Cr4  1  0.25905000  0.15436800  0.01957700  1
  Cr  Cr5  1  0.76989700  0.16231200  0.51151300  1
  Cr  Cr6  1  0.23010300  0.83768800  0.48848700  1
  Si  Si7  1  0.47549400  0.33816200  0.20932200  1
  Si  Si8  1  0.52450600  0.66183800  0.79067800  1
  Pb  Pb9  1  0.37119300  0.73970800  0.14895200  1
  Pb  Pb10  1  0.62880700  0.26029200  0.85104800  1
  Pb  Pb11  1  0.34756000  0.34142200  0.56788300  1
  Pb  Pb12  1  0.65244000  0.65857800  0.43211700  1
  Pb  Pb13  1  0.17759000  0.96903000  0.79002800  1
  Pb  Pb14  1  0.82241000  0.03097000  0.20997200  1
  Pb  Pb15  1  0.14643400  0.25185500  0.32719300  1
  Pb  Pb16  1  0.85356600  0.74814500  0.67280700  1
  Pb  Pb17  1  0.76510800  0.47000400  0.08031500  1
  Pb  Pb18  1  0.23489200  0.52999600  0.91968500  1
  O  O19  1  0.97782700  0.51484300  0.26350100  1
  O  O20  1  0.02217300  0.48515700  0.73649900  1
  O  O21  1  0.18412700  0.56107100  0.36295500  1
  O  O22  1  0.81587300  0.43892900  0.63704500  1
  O  O23  1  0.11218500  0.26365200  0.61715800  1
  O  O24  1  0.88781500  0.73634800  0.38284200  1
  O  O25  1  0.08321200  0.76619600  0.12041200  1
  O  O26  1  0.91678800  0.23380400  0.87958800  1
  O  O27  1  0.64981600  0.72859000  0.13010200  1
  O  O28  1  0.35018400  0.27141000  0.86989800  1
  O  O29  1  0.63360800  0.94239400  0.85769600  1
  O  O30  1  0.36639200  0.05760600  0.14230400  1
  O  O31  1  0.78517200  0.96780800  0.02196400  1
  O  O32  1  0.21482800  0.03219200  0.97803600  1
  O  O33  1  0.89467700  0.73487500  0.90862200  1
  O  O34  1  0.10532300  0.26512500  0.09137800  1
  O  O35  1  0.89256700  0.08451200  0.62030400  1
  O  O36  1  0.10743300  0.91548800  0.37969600  1
  O  O37  1  0.85053600  0.25675100  0.34525100  1
  O  O38  1  0.14946400  0.74324900  0.65474900  1
  O  O39  1  0.71765400  0.02646200  0.49314400  1
  O  O40  1  0.28234600  0.97353800  0.50685600  1
  O  O41  1  0.61917600  0.27949700  0.58106200  1
  O  O42  1  0.38082400  0.72050300  0.41893800  1
  O  O43  1  0.51260400  0.48837900  0.20544500  1
  O  O44  1  0.48739600  0.51162100  0.79455500  1
  O  O45  1  0.43023600  0.22962000  0.38261700  1
  O  O46  1  0.56976400  0.77038000  0.61738300  1
  O  O47  1  0.36634100  0.74211100  0.88336800  1
  O  O48  1  0.63365900  0.25788900  0.11663200  1
  O  O49  1  0.32624700  0.38412500  0.13789400  1
  O  O50  1  0.67375300  0.61587500  0.86210600  1
  F  F51  1  0.39093900  0.06929400  0.67848000  1
  F  F52  1  0.60906100  0.93070600  0.32152000  1
