# generated using pymatgen
data_Ba2NaTl
_symmetry_space_group_name_H-M   'P 1'
_cell_length_a   14.49022486
_cell_length_b   14.49022486
_cell_length_c   14.49022486
_cell_angle_alpha   120.47320685
_cell_angle_beta   119.81105418
_cell_angle_gamma   89.75495917
_symmetry_Int_Tables_number   1
_chemical_formula_structural   Ba2NaTl
_chemical_formula_sum   'Ba2 Na1 Tl1'
_cell_volume   2146.61347667
_cell_formula_units_Z   1
loop_
 _symmetry_equiv_pos_site_id
 _symmetry_equiv_pos_as_xyz
  1  'x, y, z'
loop_
 _atom_site_type_symbol
 _atom_site_label
 _atom_site_symmetry_multiplicity
 _atom_site_fract_x
 _atom_site_fract_y
 _atom_site_fract_z
 _atom_site_occupancy
  Ba  Ba0  1  0.00000000  0.26868400  0.26868400  1
  Ba  Ba1  1  0.00000000  0.73131600  0.73131600  1
  Na  Na2  1  0.00000000  0.00000000  0.00000000  1
  Tl  Tl3  1  0.00000000  0.50000000  0.50000000  1
