# generated using pymatgen
data_Na4Cu(MoO4)3
_symmetry_space_group_name_H-M   'P 1'
_cell_length_a   9.57932200
_cell_length_b   10.44097271
_cell_length_c   13.28951310
_cell_angle_alpha   106.22996615
_cell_angle_beta   92.55040805
_cell_angle_gamma   107.09476960
_symmetry_Int_Tables_number   1
_chemical_formula_structural   Na4Cu(MoO4)3
_chemical_formula_sum   'Na16 Cu4 Mo12 O48'
_cell_volume   1208.15590967
_cell_formula_units_Z   4
loop_
 _symmetry_equiv_pos_site_id
 _symmetry_equiv_pos_as_xyz
  1  'x, y, z'
loop_
 _atom_site_type_symbol
 _atom_site_label
 _atom_site_symmetry_multiplicity
 _atom_site_fract_x
 _atom_site_fract_y
 _atom_site_fract_z
 _atom_site_occupancy
  Na  Na0  1  0.43835500  0.49649900  0.37490400  1
  Na  Na1  1  0.48629400  0.13579200  0.61003300  1
  Na  Na2  1  0.22664800  0.01444000  0.23828500  1
  Na  Na3  1  0.22662400  0.50921700  0.73822400  1
  Na  Na4  1  0.77335200  0.98556000  0.76171500  1
  Na  Na5  1  0.99302600  0.25128600  0.24881300  1
  Na  Na6  1  0.49605100  0.62092500  0.13140700  1
  Na  Na7  1  0.87920600  0.59263800  0.03419600  1
  Na  Na8  1  0.00697400  0.74871400  0.75118700  1
  Na  Na9  1  0.00000000  0.00000000  0.00000000  1
  Na  Na10  1  0.50394900  0.37907500  0.86859300  1
  Na  Na11  1  0.51370600  0.86420800  0.38996700  1
  Na  Na12  1  0.56164500  0.50350100  0.62509600  1
  Na  Na13  1  0.12079400  0.40736200  0.96580400  1
  Na  Na14  1  0.77337600  0.49078300  0.26177600  1
  Na  Na15  1  0.00000000  0.50000000  0.50000000  1
  Cu  Cu16  1  0.53517700  0.98706300  0.12621700  1
  Cu  Cu17  1  0.86048400  0.07626300  0.53750200  1
  Cu  Cu18  1  0.46482300  0.01293700  0.87378300  1
  Cu  Cu19  1  0.13951600  0.92373700  0.46249800  1
  Mo  Mo20  1  0.81079400  0.74978200  0.51467800  1
  Mo  Mo21  1  0.18920600  0.25021800  0.48532200  1
  Mo  Mo22  1  0.38570800  0.26917500  0.09468100  1
  Mo  Mo23  1  0.23420900  0.78726900  0.97579100  1
  Mo  Mo24  1  0.76579100  0.21273100  0.02420900  1
  Mo  Mo25  1  0.17045800  0.12416200  0.74120300  1
  Mo  Mo26  1  0.38151400  0.77866200  0.61681400  1
  Mo  Mo27  1  0.61848600  0.22133800  0.38318600  1
  Mo  Mo28  1  0.16530000  0.63910200  0.25701000  1
  Mo  Mo29  1  0.83470000  0.36089800  0.74299000  1
  Mo  Mo30  1  0.82954200  0.87583800  0.25879700  1
  Mo  Mo31  1  0.61429200  0.73082500  0.90531900  1
  O  O32  1  0.79722100  0.31784700  0.36208800  1
  O  O33  1  0.20277900  0.68215300  0.63791200  1
  O  O34  1  0.49765800  0.89046000  0.74182500  1
  O  O35  1  0.15911900  0.29620100  0.79352400  1
  O  O36  1  0.36608600  0.88833700  0.53553600  1
  O  O37  1  0.24249400  0.61432200  0.92028700  1
  O  O38  1  0.35410400  0.37902100  0.01895600  1
  O  O39  1  0.67099300  0.12557600  0.88711500  1
  O  O40  1  0.30903100  0.36015200  0.60351800  1
  O  O41  1  0.63391400  0.11166300  0.46446400  1
  O  O42  1  0.64589600  0.62097900  0.98104400  1
  O  O43  1  0.88898700  0.41143000  0.88157400  1
  O  O44  1  0.35258300  0.63788200  0.27995100  1
  O  O45  1  0.83801800  0.18216900  0.67914400  1
  O  O46  1  0.72528800  0.11471600  0.11958400  1
  O  O47  1  0.84088100  0.70379900  0.20647600  1
  O  O48  1  0.00191400  0.76753100  0.49392700  1
  O  O49  1  0.32900700  0.87442400  0.11288500  1
  O  O50  1  0.04566500  0.77501600  0.98244300  1
  O  O51  1  0.75750600  0.38567800  0.07971300  1
  O  O52  1  0.95662300  0.48636800  0.69221000  1
  O  O53  1  0.64037600  0.86397000  0.22662900  1
  O  O54  1  0.11101300  0.58857000  0.11842600  1
  O  O55  1  0.79097700  0.65763800  0.60993800  1
  O  O56  1  0.24139100  0.09159600  0.42485600  1
  O  O57  1  0.46555900  0.65564600  0.54790500  1
  O  O58  1  0.12513900  0.06268800  0.59608500  1
  O  O59  1  0.20902300  0.34236200  0.39006200  1
  O  O60  1  0.95433500  0.22498400  0.01755700  1
  O  O61  1  0.75860900  0.90840400  0.57514400  1
  O  O62  1  0.50234200  0.10954000  0.25817500  1
  O  O63  1  0.21544400  0.17098600  0.12597000  1
  O  O64  1  0.95342600  0.99536100  0.20379800  1
  O  O65  1  0.99808600  0.23246900  0.50607300  1
  O  O66  1  0.35962400  0.13603000  0.77337100  1
  O  O67  1  0.69096900  0.63984800  0.39648200  1
  O  O68  1  0.78455600  0.82901400  0.87403000  1
  O  O69  1  0.47317600  0.14684500  0.01591900  1
  O  O70  1  0.49674800  0.61354700  0.78804800  1
  O  O71  1  0.50325200  0.38645300  0.21195200  1
  O  O72  1  0.52682400  0.85315500  0.98408100  1
  O  O73  1  0.64741700  0.36211800  0.72004900  1
  O  O74  1  0.87486100  0.93731200  0.40391500  1
  O  O75  1  0.04657400  0.00463900  0.79620200  1
  O  O76  1  0.04337700  0.51363200  0.30779000  1
  O  O77  1  0.27471200  0.88528400  0.88041600  1
  O  O78  1  0.53444100  0.34435400  0.45209500  1
  O  O79  1  0.16198200  0.81783100  0.32085600  1
