# generated using pymatgen
data_Ba2Ni2ClF7
_symmetry_space_group_name_H-M   'P 1'
_cell_length_a   5.84852700
_cell_length_b   7.74774100
_cell_length_c   8.94042871
_cell_angle_alpha   73.22385828
_cell_angle_beta   90.00000000
_cell_angle_gamma   90.00000000
_symmetry_Int_Tables_number   1
_chemical_formula_structural   Ba2Ni2ClF7
_chemical_formula_sum   'Ba4 Ni4 Cl2 F14'
_cell_volume   387.87465358
_cell_formula_units_Z   2
loop_
 _symmetry_equiv_pos_site_id
 _symmetry_equiv_pos_as_xyz
  1  'x, y, z'
loop_
 _atom_site_type_symbol
 _atom_site_label
 _atom_site_symmetry_multiplicity
 _atom_site_fract_x
 _atom_site_fract_y
 _atom_site_fract_z
 _atom_site_occupancy
  Ba  Ba0  1  0.25000000  0.66989300  0.58759900  1
  Ba  Ba1  1  0.25000000  0.70445100  0.07203600  1
  Ba  Ba2  1  0.75000000  0.33010700  0.41240100  1
  Ba  Ba3  1  0.75000000  0.29554900  0.92796400  1
  Ni  Ni4  1  0.25000000  0.17535000  0.73366000  1
  Ni  Ni5  1  0.75000000  0.81840900  0.82532000  1
  Ni  Ni6  1  0.75000000  0.82465000  0.26634000  1
  Ni  Ni7  1  0.25000000  0.18159100  0.17468000  1
  Cl  Cl8  1  0.75000000  0.88294300  0.52969300  1
  Cl  Cl9  1  0.25000000  0.11705700  0.47030700  1
  F  F10  1  0.99029700  0.63195400  0.83982900  1
  F  F11  1  0.75000000  0.75113400  0.06453400  1
  F  F12  1  0.00078700  0.99718700  0.82619600  1
  F  F13  1  0.49489900  0.36135600  0.65510300  1
  F  F14  1  0.25000000  0.24886600  0.93546600  1
  F  F15  1  0.00510100  0.36135600  0.65510300  1
  F  F16  1  0.50970300  0.63195400  0.83982900  1
  F  F17  1  0.00970300  0.36804600  0.16017100  1
  F  F18  1  0.99921300  0.00281300  0.17380400  1
  F  F19  1  0.50510100  0.63864400  0.34489700  1
  F  F20  1  0.49029700  0.36804600  0.16017100  1
  F  F21  1  0.49921300  0.99718700  0.82619600  1
  F  F22  1  0.99489900  0.63864400  0.34489700  1
  F  F23  1  0.50078700  0.00281300  0.17380400  1
