# generated using pymatgen
data_SiO2
_symmetry_space_group_name_H-M   'P 1'
_cell_length_a   4.22443100
_cell_length_b   7.62682700
_cell_length_c   8.49738900
_cell_angle_alpha   90.00000000
_cell_angle_beta   90.00000000
_cell_angle_gamma   90.00000000
_symmetry_Int_Tables_number   1
_chemical_formula_structural   SiO2
_chemical_formula_sum   'Si8 O16'
_cell_volume   273.77741367
_cell_formula_units_Z   8
loop_
 _symmetry_equiv_pos_site_id
 _symmetry_equiv_pos_as_xyz
  1  'x, y, z'
loop_
 _atom_site_type_symbol
 _atom_site_label
 _atom_site_symmetry_multiplicity
 _atom_site_fract_x
 _atom_site_fract_y
 _atom_site_fract_z
 _atom_site_occupancy
  Si  Si0  1  0.23159200  0.88084300  0.88462600  1
  Si  Si1  1  0.76840800  0.38084300  0.61537400  1
  Si  Si2  1  0.23159200  0.11915700  0.61537400  1
  Si  Si3  1  0.23159200  0.61915700  0.38462600  1
  Si  Si4  1  0.76840800  0.61915700  0.88462600  1
  Si  Si5  1  0.23159200  0.38084300  0.11537400  1
  Si  Si6  1  0.76840800  0.88084300  0.38462600  1
  Si  Si7  1  0.76840800  0.11915700  0.11537400  1
  O  O8  1  0.00000000  0.25000000  0.71230700  1
  O  O9  1  0.00000000  0.75000000  0.28769300  1
  O  O10  1  0.40540300  0.00000000  0.75000000  1
  O  O11  1  0.00000000  0.25000000  0.21230700  1
  O  O12  1  0.50000000  0.25000000  0.53194000  1
  O  O13  1  0.40540300  0.50000000  0.25000000  1
  O  O14  1  0.59459700  0.50000000  0.75000000  1
  O  O15  1  0.50000000  0.25000000  0.03194000  1
  O  O16  1  0.50000000  0.75000000  0.46806000  1
  O  O17  1  0.50000000  0.75000000  0.96806000  1
  O  O18  1  0.00000000  0.00000000  0.00000000  1
  O  O19  1  0.00000000  0.75000000  0.78769300  1
  O  O20  1  0.00000000  0.50000000  0.50000000  1
  O  O21  1  0.59459700  0.00000000  0.25000000  1
  O  O22  1  0.00000000  0.50000000  0.00000000  1
  O  O23  1  0.00000000  0.00000000  0.50000000  1
