# generated using pymatgen
data_Re2SCl12
_symmetry_space_group_name_H-M   'P 1'
_cell_length_a   11.39863000
_cell_length_b   8.72758500
_cell_length_c   9.15314683
_cell_angle_alpha   85.00479003
_cell_angle_beta   90.00000000
_cell_angle_gamma   90.00000000
_symmetry_Int_Tables_number   1
_chemical_formula_structural   Re2SCl12
_chemical_formula_sum   'Re4 S2 Cl24'
_cell_volume   907.11964812
_cell_formula_units_Z   2
loop_
 _symmetry_equiv_pos_site_id
 _symmetry_equiv_pos_as_xyz
  1  'x, y, z'
loop_
 _atom_site_type_symbol
 _atom_site_label
 _atom_site_symmetry_multiplicity
 _atom_site_fract_x
 _atom_site_fract_y
 _atom_site_fract_z
 _atom_site_occupancy
  Re  Re0  1  0.25000000  0.14038400  0.62587100  1
  Re  Re1  1  0.75000000  0.63900100  0.60779000  1
  Re  Re2  1  0.75000000  0.85961600  0.37412900  1
  Re  Re3  1  0.25000000  0.36099900  0.39221000  1
  S  S4  1  0.25000000  0.83039300  0.93339300  1
  S  S5  1  0.75000000  0.16960700  0.06660700  1
  Cl  Cl6  1  0.89525700  0.61457300  0.78296300  1
  Cl  Cl7  1  0.61176000  0.17190400  0.92586000  1
  Cl  Cl8  1  0.25000000  0.62007200  0.42042100  1
  Cl  Cl9  1  0.10474300  0.38542700  0.21703700  1
  Cl  Cl10  1  0.10541400  0.95347400  0.67698200  1
  Cl  Cl11  1  0.75000000  0.37992800  0.57957900  1
  Cl  Cl12  1  0.40253800  0.32928500  0.58083500  1
  Cl  Cl13  1  0.11176000  0.82809600  0.07414000  1
  Cl  Cl14  1  0.38824000  0.82809600  0.07414000  1
  Cl  Cl15  1  0.25000000  0.61171800  0.87796700  1
  Cl  Cl16  1  0.25000000  0.19008000  0.87318800  1
  Cl  Cl17  1  0.90253800  0.67071500  0.41916500  1
  Cl  Cl18  1  0.39525700  0.38542700  0.21703700  1
  Cl  Cl19  1  0.75000000  0.38828200  0.12203300  1
  Cl  Cl20  1  0.39458600  0.95347400  0.67698200  1
  Cl  Cl21  1  0.09746200  0.32928500  0.58083500  1
  Cl  Cl22  1  0.75000000  0.80992000  0.12681200  1
  Cl  Cl23  1  0.25000000  0.08272300  0.37320000  1
  Cl  Cl24  1  0.60541400  0.04652600  0.32301800  1
  Cl  Cl25  1  0.88824000  0.17190400  0.92586000  1
  Cl  Cl26  1  0.75000000  0.91727700  0.62680000  1
  Cl  Cl27  1  0.59746200  0.67071500  0.41916500  1
  Cl  Cl28  1  0.60474300  0.61457300  0.78296300  1
  Cl  Cl29  1  0.89458600  0.04652600  0.32301800  1
