# generated using pymatgen
data_ZnS
_symmetry_space_group_name_H-M   'P 1'
_cell_length_a   3.83338320
_cell_length_b   3.83338320
_cell_length_c   38.92690800
_cell_angle_alpha   90.00000000
_cell_angle_beta   90.00000000
_cell_angle_gamma   119.99998615
_symmetry_Int_Tables_number   1
_chemical_formula_structural   ZnS
_chemical_formula_sum   'Zn12 S12'
_cell_volume   495.38753070
_cell_formula_units_Z   12
loop_
 _symmetry_equiv_pos_site_id
 _symmetry_equiv_pos_as_xyz
  1  'x, y, z'
loop_
 _atom_site_type_symbol
 _atom_site_label
 _atom_site_symmetry_multiplicity
 _atom_site_fract_x
 _atom_site_fract_y
 _atom_site_fract_z
 _atom_site_occupancy
  Zn  Zn0  1  0.00000000  0.00000000  0.82109200  1
  Zn  Zn1  1  0.33333300  0.66666700  0.65669100  1
  Zn  Zn2  1  0.33333300  0.66666700  0.25055000  1
  Zn  Zn3  1  0.00000000  0.00000000  0.33291800  1
  Zn  Zn4  1  0.00000000  0.00000000  0.57640600  1
  Zn  Zn5  1  0.00000000  0.00000000  0.16808200  1
  Zn  Zn6  1  0.66666700  0.33333300  0.41466300  1
  Zn  Zn7  1  0.66666700  0.33333300  0.08589900  1
  Zn  Zn8  1  0.66666700  0.33333300  0.73670300  1
  Zn  Zn9  1  0.33333300  0.66666700  0.86734000  1
  Zn  Zn10  1  0.33333300  0.66666700  0.49576800  1
  Zn  Zn11  1  0.33333300  0.66666700  0.00403600  1
  S  S12  1  0.00000000  0.00000000  0.22950100  1
  S  S13  1  0.66666700  0.33333300  0.47556300  1
  S  S14  1  0.33333300  0.66666700  0.71706900  1
  S  S15  1  0.00000000  0.00000000  0.63696600  1
  S  S16  1  0.00000000  0.00000000  0.98468800  1
  S  S17  1  0.66666700  0.33333300  0.14725900  1
  S  S18  1  0.33333300  0.66666700  0.31204600  1
  S  S19  1  0.33333300  0.66666700  0.92363600  1
  S  S20  1  0.33333300  0.66666700  0.06558400  1
  S  S21  1  0.00000000  0.00000000  0.39408800  1
  S  S22  1  0.33333300  0.66666700  0.55640200  1
  S  S23  1  0.66666700  0.33333300  0.79704800  1
