# generated using pymatgen
data_ZnS
_symmetry_space_group_name_H-M   'P 1'
_cell_length_a   25.28356825
_cell_length_b   25.28356825
_cell_length_c   25.28356845
_cell_angle_alpha   8.74246984
_cell_angle_beta   8.74246984
_cell_angle_gamma   8.74246778
_symmetry_Int_Tables_number   1
_chemical_formula_structural   ZnS
_chemical_formula_sum   'Zn8 S8'
_cell_volume   323.99433262
_cell_formula_units_Z   8
loop_
 _symmetry_equiv_pos_site_id
 _symmetry_equiv_pos_as_xyz
  1  'x, y, z'
loop_
 _atom_site_type_symbol
 _atom_site_label
 _atom_site_symmetry_multiplicity
 _atom_site_fract_x
 _atom_site_fract_y
 _atom_site_fract_z
 _atom_site_occupancy
  Zn  Zn0  1  0.54167900  0.54167900  0.54167900  1
  Zn  Zn1  1  0.00001900  0.00001900  0.00001900  1
  Zn  Zn2  1  0.45834700  0.45834700  0.45834700  1
  Zn  Zn3  1  0.83335000  0.83335000  0.83335000  1
  Zn  Zn4  1  0.62502000  0.62502000  0.62502000  1
  Zn  Zn5  1  0.91668200  0.91668200  0.91668200  1
  Zn  Zn6  1  0.75000300  0.75000300  0.75000300  1
  Zn  Zn7  1  0.37501100  0.37501100  0.37501100  1
  S  S8  1  0.65626100  0.65626100  0.65626100  1
  S  S9  1  0.57290000  0.57290000  0.57290000  1
  S  S10  1  0.48956900  0.48956900  0.48956900  1
  S  S11  1  0.86457100  0.86457100  0.86457100  1
  S  S12  1  0.78123500  0.78123500  0.78123500  1
  S  S13  1  0.40621700  0.40621700  0.40621700  1
  S  S14  1  0.03123800  0.03123800  0.03123800  1
  S  S15  1  0.94790400  0.94790400  0.94790400  1
