# generated using pymatgen
data_SiO2
_symmetry_space_group_name_H-M   'P 1'
_cell_length_a   13.24241827
_cell_length_b   13.24241827
_cell_length_c   5.20295800
_cell_angle_alpha   90.00000000
_cell_angle_beta   90.00000000
_cell_angle_gamma   100.67033850
_symmetry_Int_Tables_number   1
_chemical_formula_structural   SiO2
_chemical_formula_sum   'Si16 O32'
_cell_volume   896.62276299
_cell_formula_units_Z   16
loop_
 _symmetry_equiv_pos_site_id
 _symmetry_equiv_pos_as_xyz
  1  'x, y, z'
loop_
 _atom_site_type_symbol
 _atom_site_label
 _atom_site_symmetry_multiplicity
 _atom_site_fract_x
 _atom_site_fract_y
 _atom_site_fract_z
 _atom_site_occupancy
  Si  Si0  1  0.26014500  0.10782200  0.46678100  1
  Si  Si1  1  0.73985500  0.89217800  0.46678100  1
  Si  Si2  1  0.50066600  0.87756800  0.46866000  1
  Si  Si3  1  0.62882100  0.18650800  0.97151300  1
  Si  Si4  1  0.18650800  0.62882100  0.02848700  1
  Si  Si5  1  0.21313800  0.97104300  0.96557600  1
  Si  Si6  1  0.97104300  0.21313800  0.03442400  1
  Si  Si7  1  0.02895700  0.78686200  0.03442400  1
  Si  Si8  1  0.37117900  0.81349200  0.97151300  1
  Si  Si9  1  0.81349200  0.37117900  0.02848700  1
  Si  Si10  1  0.49933400  0.12243200  0.46866000  1
  Si  Si11  1  0.87756800  0.50066600  0.53134000  1
  Si  Si12  1  0.12243200  0.49933400  0.53134000  1
  Si  Si13  1  0.89217800  0.73985500  0.53321900  1
  Si  Si14  1  0.10782200  0.26014500  0.53321900  1
  Si  Si15  1  0.78686200  0.02895700  0.96557600  1
  O  O16  1  0.79091900  0.79091900  0.50000000  1
  O  O17  1  0.93919400  0.76845200  0.81832300  1
  O  O18  1  0.29906700  0.70093300  0.00000000  1
  O  O19  1  0.45783600  0.82943300  0.19474700  1
  O  O20  1  0.76845200  0.93919400  0.18167700  1
  O  O21  1  0.02107700  0.21637500  0.31948000  1
  O  O22  1  0.38331300  0.14313500  0.50370300  1
  O  O23  1  0.89948900  0.10051100  0.00000000  1
  O  O24  1  0.09708800  0.69739500  0.00390400  1
  O  O25  1  0.21637500  0.02107700  0.68052000  1
  O  O26  1  0.23154800  0.06080600  0.18167700  1
  O  O27  1  0.70093300  0.29906700  0.00000000  1
  O  O28  1  0.42792000  0.81975200  0.69480100  1
  O  O29  1  0.20908100  0.20908100  0.50000000  1
  O  O30  1  0.06080600  0.23154800  0.81832300  1
  O  O31  1  0.54216400  0.17056700  0.19474700  1
  O  O32  1  0.61668700  0.85686500  0.50370300  1
  O  O33  1  0.97892300  0.78362500  0.31948000  1
  O  O34  1  0.18024800  0.57208000  0.30519900  1
  O  O35  1  0.30260500  0.90291200  0.99609600  1
  O  O36  1  0.78362500  0.97892300  0.68052000  1
  O  O37  1  0.90291200  0.30260500  0.00390400  1
  O  O38  1  0.69739500  0.09708800  0.99609600  1
  O  O39  1  0.50000000  0.00000000  0.47762000  1
  O  O40  1  0.14313500  0.38331300  0.49629700  1
  O  O41  1  0.82943300  0.45783600  0.80525300  1
  O  O42  1  0.81975200  0.42792000  0.30519900  1
  O  O43  1  0.10051100  0.89948900  0.00000000  1
  O  O44  1  0.85686500  0.61668700  0.49629700  1
  O  O45  1  0.57208000  0.18024800  0.69480100  1
  O  O46  1  0.17056700  0.54216400  0.80525300  1
  O  O47  1  0.00000000  0.50000000  0.52238000  1
