# generated using pymatgen
data_SiO2
_symmetry_space_group_name_H-M   'P 1'
_cell_length_a   11.22230900
_cell_length_b   11.22230900
_cell_length_c   4.96642900
_cell_angle_alpha   90.00000000
_cell_angle_beta   90.00000000
_cell_angle_gamma   90.00000000
_symmetry_Int_Tables_number   1
_chemical_formula_structural   SiO2
_chemical_formula_sum   'Si16 O32'
_cell_volume   625.47315736
_cell_formula_units_Z   16
loop_
 _symmetry_equiv_pos_site_id
 _symmetry_equiv_pos_as_xyz
  1  'x, y, z'
loop_
 _atom_site_type_symbol
 _atom_site_label
 _atom_site_symmetry_multiplicity
 _atom_site_fract_x
 _atom_site_fract_y
 _atom_site_fract_z
 _atom_site_occupancy
  Si  Si0  1  0.10998600  0.20427300  0.21844000  1
  Si  Si1  1  0.39001400  0.70427300  0.71844000  1
  Si  Si2  1  0.79572700  0.10998600  0.21844000  1
  Si  Si3  1  0.20427300  0.89001400  0.21844000  1
  Si  Si4  1  0.60998600  0.29572700  0.71844000  1
  Si  Si5  1  0.29572700  0.60998600  0.28156000  1
  Si  Si6  1  0.89001400  0.20427300  0.78156000  1
  Si  Si7  1  0.60998600  0.70427300  0.28156000  1
  Si  Si8  1  0.70427300  0.60998600  0.71844000  1
  Si  Si9  1  0.10998600  0.79572700  0.78156000  1
  Si  Si10  1  0.29572700  0.39001400  0.71844000  1
  Si  Si11  1  0.39001400  0.29572700  0.28156000  1
  Si  Si12  1  0.70427300  0.39001400  0.28156000  1
  Si  Si13  1  0.79572700  0.89001400  0.78156000  1
  Si  Si14  1  0.20427300  0.10998600  0.78156000  1
  Si  Si15  1  0.89001400  0.79572700  0.21844000  1
  O  O16  1  0.10236400  0.10236400  0.00000000  1
  O  O17  1  0.25000000  0.75000000  0.75000000  1
  O  O18  1  0.89763600  0.89763600  0.00000000  1
  O  O19  1  0.60236400  0.60236400  0.50000000  1
  O  O20  1  0.25000000  0.25000000  0.75000000  1
  O  O21  1  0.79438000  0.50000000  0.50000000  1
  O  O22  1  0.75000000  0.75000000  0.75000000  1
  O  O23  1  0.75000000  0.25000000  0.75000000  1
  O  O24  1  0.50000000  0.20562000  0.50000000  1
  O  O25  1  0.61686300  0.61686300  0.00000000  1
  O  O26  1  0.70562000  0.00000000  0.00000000  1
  O  O27  1  0.20562000  0.50000000  0.50000000  1
  O  O28  1  0.11686300  0.11686300  0.50000000  1
  O  O29  1  0.29438000  0.00000000  0.00000000  1
  O  O30  1  0.10236400  0.89763600  0.00000000  1
  O  O31  1  0.38313700  0.61686300  0.00000000  1
  O  O32  1  0.89763600  0.10236400  0.00000000  1
  O  O33  1  0.39763600  0.39763600  0.50000000  1
  O  O34  1  0.25000000  0.75000000  0.25000000  1
  O  O35  1  0.88313700  0.88313700  0.50000000  1
  O  O36  1  0.00000000  0.70562000  0.00000000  1
  O  O37  1  0.75000000  0.25000000  0.25000000  1
  O  O38  1  0.61686300  0.38313700  0.00000000  1
  O  O39  1  0.39763600  0.60236400  0.50000000  1
  O  O40  1  0.75000000  0.75000000  0.25000000  1
  O  O41  1  0.38313700  0.38313700  0.00000000  1
  O  O42  1  0.11686300  0.88313700  0.50000000  1
  O  O43  1  0.50000000  0.79438000  0.50000000  1
  O  O44  1  0.00000000  0.29438000  0.00000000  1
  O  O45  1  0.88313700  0.11686300  0.50000000  1
  O  O46  1  0.60236400  0.39763600  0.50000000  1
  O  O47  1  0.25000000  0.25000000  0.25000000  1
