# generated using pymatgen
data_BaCu6(GeS4)2
_symmetry_space_group_name_H-M   'P 1'
_cell_length_a   6.13776900
_cell_length_b   12.05974200
_cell_length_c   17.65606800
_cell_angle_alpha   90.00000000
_cell_angle_beta   90.00000000
_cell_angle_gamma   90.00000000
_symmetry_Int_Tables_number   1
_chemical_formula_structural   BaCu6(GeS4)2
_chemical_formula_sum   'Ba4 Cu24 Ge8 S32'
_cell_volume   1306.90057483
_cell_formula_units_Z   4
loop_
 _symmetry_equiv_pos_site_id
 _symmetry_equiv_pos_as_xyz
  1  'x, y, z'
loop_
 _atom_site_type_symbol
 _atom_site_label
 _atom_site_symmetry_multiplicity
 _atom_site_fract_x
 _atom_site_fract_y
 _atom_site_fract_z
 _atom_site_occupancy
  Ba  Ba0  1  0.92693900  0.77374100  0.25000000  1
  Ba  Ba1  1  0.07306100  0.27374100  0.25000000  1
  Ba  Ba2  1  0.92693900  0.72625900  0.75000000  1
  Ba  Ba3  1  0.07306100  0.22625900  0.75000000  1
  Cu  Cu4  1  0.49794500  0.29477400  0.37476300  1
  Cu  Cu5  1  0.44123700  0.59361800  0.45278200  1
  Cu  Cu6  1  0.49794500  0.20522600  0.87476300  1
  Cu  Cu7  1  0.95135200  0.50559500  0.37156200  1
  Cu  Cu8  1  0.49794500  0.29477400  0.12523700  1
  Cu  Cu9  1  0.55876300  0.40638200  0.95278200  1
  Cu  Cu10  1  0.95135200  0.99440500  0.87156200  1
  Cu  Cu11  1  0.04864800  0.49440500  0.87156200  1
  Cu  Cu12  1  0.44123700  0.90638200  0.95278200  1
  Cu  Cu13  1  0.50205500  0.70522600  0.62523700  1
  Cu  Cu14  1  0.55876300  0.09361800  0.45278200  1
  Cu  Cu15  1  0.55876300  0.40638200  0.54721800  1
  Cu  Cu16  1  0.04864800  0.00559500  0.12843800  1
  Cu  Cu17  1  0.44123700  0.59361800  0.04721800  1
  Cu  Cu18  1  0.50205500  0.70522600  0.87476300  1
  Cu  Cu19  1  0.44123700  0.90638200  0.54721800  1
  Cu  Cu20  1  0.04864800  0.49440500  0.62843800  1
  Cu  Cu21  1  0.95135200  0.99440500  0.62843800  1
  Cu  Cu22  1  0.95135200  0.50559500  0.12843800  1
  Cu  Cu23  1  0.50205500  0.79477400  0.37476300  1
  Cu  Cu24  1  0.50205500  0.79477400  0.12523700  1
  Cu  Cu25  1  0.04864800  0.00559500  0.37156200  1
  Cu  Cu26  1  0.49794500  0.20522600  0.62523700  1
  Cu  Cu27  1  0.55876300  0.09361800  0.04721800  1
  Ge  Ge28  1  0.54149300  0.45662400  0.75000000  1
  Ge  Ge29  1  0.54149300  0.04337600  0.25000000  1
  Ge  Ge30  1  0.45850700  0.95662400  0.75000000  1
  Ge  Ge31  1  0.98959600  0.75000000  0.50000000  1
  Ge  Ge32  1  0.45850700  0.54337600  0.25000000  1
  Ge  Ge33  1  0.98959600  0.75000000  0.00000000  1
  Ge  Ge34  1  0.01040400  0.25000000  0.50000000  1
  Ge  Ge35  1  0.01040400  0.25000000  0.00000000  1
  S  S36  1  0.22378400  0.87171700  0.05504700  1
  S  S37  1  0.77621600  0.37171700  0.44495300  1
  S  S38  1  0.23064700  0.33358600  0.91498700  1
  S  S39  1  0.81449200  0.50635400  0.25000000  1
  S  S40  1  0.23064700  0.33358600  0.58501300  1
  S  S41  1  0.68430800  0.52715600  0.85979200  1
  S  S42  1  0.23064700  0.16641400  0.41498700  1
  S  S43  1  0.81449200  0.99364600  0.75000000  1
  S  S44  1  0.18550800  0.00635400  0.25000000  1
  S  S45  1  0.68430800  0.97284400  0.14020800  1
  S  S46  1  0.77621600  0.12828300  0.55504700  1
  S  S47  1  0.58161000  0.22944500  0.25000000  1
  S  S48  1  0.68430800  0.97284400  0.35979200  1
  S  S49  1  0.22378400  0.87171700  0.44495300  1
  S  S50  1  0.58161000  0.27055500  0.75000000  1
  S  S51  1  0.31569200  0.02715600  0.85979200  1
  S  S52  1  0.22378400  0.62828300  0.94495300  1
  S  S53  1  0.76935300  0.66641400  0.08501300  1
  S  S54  1  0.41839000  0.72944500  0.25000000  1
  S  S55  1  0.76935300  0.83358600  0.58501300  1
  S  S56  1  0.18550800  0.49364600  0.75000000  1
  S  S57  1  0.41839000  0.77055500  0.75000000  1
  S  S58  1  0.76935300  0.83358600  0.91498700  1
  S  S59  1  0.77621600  0.12828300  0.94495300  1
  S  S60  1  0.22378400  0.62828300  0.55504700  1
  S  S61  1  0.77621600  0.37171700  0.05504700  1
  S  S62  1  0.31569200  0.47284400  0.14020800  1
  S  S63  1  0.31569200  0.02715600  0.64020800  1
  S  S64  1  0.31569200  0.47284400  0.35979200  1
  S  S65  1  0.68430800  0.52715600  0.64020800  1
  S  S66  1  0.23064700  0.16641400  0.08501300  1
  S  S67  1  0.76935300  0.66641400  0.41498700  1
