# generated using pymatgen
data_SiO2
_symmetry_space_group_name_H-M   'P 1'
_cell_length_a   8.81592903
_cell_length_b   8.81592903
_cell_length_c   8.81592903
_cell_angle_alpha   109.47122063
_cell_angle_beta   109.47122063
_cell_angle_gamma   109.47122063
_symmetry_Int_Tables_number   1
_chemical_formula_structural   SiO2
_chemical_formula_sum   'Si12 O24'
_cell_volume   527.45129833
_cell_formula_units_Z   12
loop_
 _symmetry_equiv_pos_site_id
 _symmetry_equiv_pos_as_xyz
  1  'x, y, z'
loop_
 _atom_site_type_symbol
 _atom_site_label
 _atom_site_symmetry_multiplicity
 _atom_site_fract_x
 _atom_site_fract_y
 _atom_site_fract_z
 _atom_site_occupancy
  Si  Si0  1  0.23019700  0.07768100  0.61549500  1
  Si  Si1  1  0.84748300  0.26980300  0.88529800  1
  Si  Si2  1  0.61470200  0.88450500  0.96218600  1
  Si  Si3  1  0.42231900  0.65251600  0.53781400  1
  Si  Si4  1  0.26980300  0.88529800  0.84748300  1
  Si  Si5  1  0.88529800  0.84748300  0.26980300  1
  Si  Si6  1  0.65251700  0.53781400  0.42231900  1
  Si  Si7  1  0.61549500  0.23019700  0.07768100  1
  Si  Si8  1  0.53781400  0.42231900  0.65251600  1
  Si  Si9  1  0.88450500  0.96218600  0.61470200  1
  Si  Si10  1  0.07768100  0.61549500  0.23019700  1
  Si  Si11  1  0.96218600  0.61470200  0.88450500  1
  O  O12  1  0.82494800  0.07494800  0.75000000  1
  O  O13  1  0.07494800  0.75000000  0.82494800  1
  O  O14  1  0.71163400  0.10560600  0.11695800  1
  O  O15  1  0.91758200  0.66758200  0.25000000  1
  O  O16  1  0.75000000  0.82494800  0.07494800  1
  O  O17  1  0.10602800  0.01135100  0.39439400  1
  O  O18  1  0.42505200  0.25000000  0.67505200  1
  O  O19  1  0.67505200  0.42505200  0.25000000  1
  O  O20  1  0.59467700  0.38304200  0.48864900  1
  O  O21  1  0.83241800  0.75000000  0.58241800  1
  O  O22  1  0.66758200  0.25000000  0.91758200  1
  O  O23  1  0.25000000  0.91758200  0.66758200  1
  O  O24  1  0.39439400  0.10602800  0.01135100  1
  O  O25  1  0.48864900  0.59467700  0.38304200  1
  O  O26  1  0.39397200  0.78836600  0.90532300  1
  O  O27  1  0.78836600  0.90532300  0.39397200  1
  O  O28  1  0.58241800  0.83241800  0.75000000  1
  O  O29  1  0.38304200  0.48864900  0.59467700  1
  O  O30  1  0.10560600  0.11695800  0.71163400  1
  O  O31  1  0.75000000  0.58241800  0.83241800  1
  O  O32  1  0.01135100  0.39439400  0.10602800  1
  O  O33  1  0.11695800  0.71163400  0.10560600  1
  O  O34  1  0.90532300  0.39397200  0.78836600  1
  O  O35  1  0.25000000  0.67505200  0.42505200  1
