# generated using pymatgen
data_GdPH5CO7
_symmetry_space_group_name_H-M   'P 1'
_cell_length_a   6.60790300
_cell_length_b   7.00049530
_cell_length_c   7.83768552
_cell_angle_alpha   111.67062822
_cell_angle_beta   96.28162075
_cell_angle_gamma   90.37917578
_symmetry_Int_Tables_number   1
_chemical_formula_structural   GdPH5CO7
_chemical_formula_sum   'Gd2 P2 H10 C2 O14'
_cell_volume   334.47815955
_cell_formula_units_Z   2
loop_
 _symmetry_equiv_pos_site_id
 _symmetry_equiv_pos_as_xyz
  1  'x, y, z'
loop_
 _atom_site_type_symbol
 _atom_site_label
 _atom_site_symmetry_multiplicity
 _atom_site_fract_x
 _atom_site_fract_y
 _atom_site_fract_z
 _atom_site_occupancy
  Gd  Gd0  1  0.12706500  0.22160000  0.93381900  1
  Gd  Gd1  1  0.87293500  0.77840000  0.06618100  1
  P  P2  1  0.67316500  0.25102400  0.01899200  1
  P  P3  1  0.32683500  0.74897600  0.98100800  1
  H  H4  1  0.48325300  0.88091100  0.59194900  1
  H  H5  1  0.71960200  0.67251900  0.64771500  1
  H  H6  1  0.52461000  0.74173800  0.39335400  1
  H  H7  1  0.51674700  0.11908900  0.40805100  1
  H  H8  1  0.28039800  0.32748100  0.35228500  1
  H  H9  1  0.83505100  0.47853000  0.67790700  1
  H  H10  1  0.47539000  0.25826200  0.60664600  1
  H  H11  1  0.62766500  0.29234600  0.19994000  1
  H  H12  1  0.16494900  0.52147000  0.32209300  1
  H  H13  1  0.37233500  0.70765400  0.80006000  1
  C  C14  1  0.94011900  0.09316900  0.49772700  1
  C  C15  1  0.05988100  0.90683100  0.50227300  1
  O  O16  1  0.15471700  0.91953000  0.65495800  1
  O  O17  1  0.58763200  0.79965800  0.52185700  1
  O  O18  1  0.80304900  0.05766600  0.96230700  1
  O  O19  1  0.41236800  0.20034200  0.47814300  1
  O  O20  1  0.18114300  0.57219300  0.97519300  1
  O  O21  1  0.21492900  0.38193200  0.26021300  1
  O  O22  1  0.81885700  0.42780700  0.02480700  1
  O  O23  1  0.05348300  0.75447300  0.34960100  1
  O  O24  1  0.47187400  0.22345000  0.89418100  1
  O  O25  1  0.52812600  0.77655000  0.10581900  1
  O  O26  1  0.19695100  0.94233400  0.03769300  1
  O  O27  1  0.78507100  0.61806800  0.73978700  1
  O  O28  1  0.94651700  0.24552700  0.65039900  1
  O  O29  1  0.84528300  0.08047000  0.34504200  1
