# generated using pymatgen
data_P2W2O11
_symmetry_space_group_name_H-M   'P 1'
_cell_length_a   6.43166100
_cell_length_b   7.79377800
_cell_length_c   7.96098700
_cell_angle_alpha   90.00000000
_cell_angle_beta   90.00000000
_cell_angle_gamma   90.00000000
_symmetry_Int_Tables_number   1
_chemical_formula_structural   P2W2O11
_chemical_formula_sum   'P4 W4 O22'
_cell_volume   399.05990181
_cell_formula_units_Z   2
loop_
 _symmetry_equiv_pos_site_id
 _symmetry_equiv_pos_as_xyz
  1  'x, y, z'
loop_
 _atom_site_type_symbol
 _atom_site_label
 _atom_site_symmetry_multiplicity
 _atom_site_fract_x
 _atom_site_fract_y
 _atom_site_fract_z
 _atom_site_occupancy
  P  P0  1  0.50000000  0.38368000  0.74739900  1
  P  P1  1  0.00000000  0.88368000  0.75260100  1
  P  P2  1  0.00000000  0.11632000  0.24739900  1
  P  P3  1  0.50000000  0.61632000  0.25260100  1
  W  W4  1  0.50000000  0.18460000  0.15778600  1
  W  W5  1  0.50000000  0.81540000  0.84221400  1
  W  W6  1  0.00000000  0.68460000  0.34221400  1
  W  W7  1  0.00000000  0.31540000  0.65778600  1
  O  O8  1  0.30994800  0.31191600  0.64860100  1
  O  O9  1  0.80994800  0.18808400  0.14860100  1
  O  O10  1  0.30994800  0.68808400  0.35139900  1
  O  O11  1  0.50000000  0.66990800  0.07008000  1
  O  O12  1  0.50000000  0.93418000  0.65922700  1
  O  O13  1  0.80994800  0.81191600  0.85139900  1
  O  O14  1  0.69005200  0.31191600  0.64860100  1
  O  O15  1  0.00000000  0.16990800  0.42992000  1
  O  O16  1  0.00000000  0.83009200  0.57008000  1
  O  O17  1  0.50000000  0.58322800  0.73256700  1
  O  O18  1  0.69005200  0.68808400  0.35139900  1
  O  O19  1  0.50000000  0.06582000  0.34077300  1
  O  O20  1  0.19005200  0.18808400  0.14860100  1
  O  O21  1  0.00000000  0.43418000  0.84077300  1
  O  O22  1  0.50000000  0.41677200  0.26743300  1
  O  O23  1  0.00000000  0.08322800  0.76743300  1
  O  O24  1  0.00000000  0.56582000  0.15922700  1
  O  O25  1  0.50000000  0.33009200  0.92992000  1
  O  O26  1  0.00000000  0.91677200  0.23256700  1
  O  O27  1  0.00000000  0.50000000  0.50000000  1
  O  O28  1  0.19005200  0.81191600  0.85139900  1
  O  O29  1  0.50000000  0.00000000  0.00000000  1
