# generated using pymatgen
data_Na8(CuO2)5
_symmetry_space_group_name_H-M   'P 1'
_cell_length_a   5.72652077
_cell_length_b   8.19449841
_cell_length_c   8.19449832
_cell_angle_alpha   118.52800982
_cell_angle_beta   101.00128185
_cell_angle_gamma   101.00127300
_symmetry_Int_Tables_number   1
_chemical_formula_structural   Na8(CuO2)5
_chemical_formula_sum   'Na8 Cu5 O10'
_cell_volume   313.41172156
_cell_formula_units_Z   1
loop_
 _symmetry_equiv_pos_site_id
 _symmetry_equiv_pos_as_xyz
  1  'x, y, z'
loop_
 _atom_site_type_symbol
 _atom_site_label
 _atom_site_symmetry_multiplicity
 _atom_site_fract_x
 _atom_site_fract_y
 _atom_site_fract_z
 _atom_site_occupancy
  Na  Na0  1  0.40157200  0.26279500  0.53993100  1
  Na  Na1  1  0.36645900  0.73716900  0.95846500  1
  Na  Na2  1  0.09064400  0.51926700  0.51926700  1
  Na  Na3  1  0.14056300  0.85238100  0.29527600  1
  Na  Na4  1  0.40157200  0.53993100  0.26279500  1
  Na  Na5  1  0.36645900  0.95846500  0.73716900  1
  Na  Na6  1  0.14056300  0.29527600  0.85238100  1
  Na  Na7  1  0.14690700  0.08947200  0.08947200  1
  Cu  Cu8  1  0.75088700  0.01898300  0.41713000  1
  Cu  Cu9  1  0.77930300  0.62799100  0.82769600  1
  Cu  Cu10  1  0.77930300  0.82769600  0.62799100  1
  Cu  Cu11  1  0.72272100  0.19841900  0.19841900  1
  Cu  Cu12  1  0.75088700  0.41713000  0.01898300  1
  O  O13  1  0.52782700  0.47879000  0.87544000  1
  O  O14  1  0.53026300  0.66321100  0.66321100  1
  O  O15  1  0.98154500  0.16050800  0.35807900  1
  O  O16  1  0.98154500  0.35807900  0.16050800  1
  O  O17  1  0.00566900  0.57098500  0.98489700  1
  O  O18  1  0.52782700  0.87544000  0.47879000  1
  O  O19  1  0.02684700  0.78159700  0.78159700  1
  O  O20  1  0.49008400  0.04592500  0.25978400  1
  O  O21  1  0.00566900  0.98489700  0.57098500  1
  O  O22  1  0.49008400  0.25978400  0.04592500  1
