# generated using pymatgen
data_CaAlB3O7
_symmetry_space_group_name_H-M   'P 1'
_cell_length_a   7.14232107
_cell_length_b   7.14232107
_cell_length_c   4.41193800
_cell_angle_alpha   90.00000000
_cell_angle_beta   90.00000000
_cell_angle_gamma   111.53086852
_symmetry_Int_Tables_number   1
_chemical_formula_structural   CaAlB3O7
_chemical_formula_sum   'Ca2 Al2 B6 O14'
_cell_volume   209.36004449
_cell_formula_units_Z   2
loop_
 _symmetry_equiv_pos_site_id
 _symmetry_equiv_pos_as_xyz
  1  'x, y, z'
loop_
 _atom_site_type_symbol
 _atom_site_label
 _atom_site_symmetry_multiplicity
 _atom_site_fract_x
 _atom_site_fract_y
 _atom_site_fract_z
 _atom_site_occupancy
  Ca  Ca0  1  0.00000000  0.50000000  0.00000000  1
  Ca  Ca1  1  0.50000000  0.00000000  0.00000000  1
  Al  Al2  1  0.50000000  0.50000000  0.00000000  1
  Al  Al3  1  0.00000000  0.00000000  0.00000000  1
  B  B4  1  0.86326100  0.13673900  0.45903900  1
  B  B5  1  0.36326100  0.63673900  0.54096100  1
  B  B6  1  0.25000000  0.25000000  0.50000000  1
  B  B7  1  0.63673900  0.36326100  0.45903900  1
  B  B8  1  0.13673900  0.86326100  0.54096100  1
  B  B9  1  0.75000000  0.75000000  0.50000000  1
  O  O10  1  0.13146900  0.86853100  0.22365000  1
  O  O11  1  0.63146900  0.36853100  0.77635000  1
  O  O12  1  0.28054200  0.42667100  0.69914700  1
  O  O13  1  0.57332900  0.71945800  0.69914700  1
  O  O14  1  0.21945800  0.07332900  0.69914700  1
  O  O15  1  0.71945800  0.57332900  0.30085300  1
  O  O16  1  0.92667100  0.78054200  0.69914700  1
  O  O17  1  0.86853100  0.13146900  0.77635000  1
  O  O18  1  0.42667100  0.28054200  0.30085300  1
  O  O19  1  0.75000000  0.25000000  0.32983000  1
  O  O20  1  0.25000000  0.75000000  0.67017000  1
  O  O21  1  0.78054200  0.92667100  0.30085300  1
  O  O22  1  0.07332900  0.21945800  0.30085300  1
  O  O23  1  0.36853100  0.63146900  0.22365000  1
