# generated using pymatgen
data_Ta2TiRe
_symmetry_space_group_name_H-M   'P 1'
_cell_length_a   11.14314296
_cell_length_b   11.14314296
_cell_length_c   11.14314296
_cell_angle_alpha   129.78565489
_cell_angle_beta   119.64054813
_cell_angle_gamma   82.27177146
_symmetry_Int_Tables_number   1
_chemical_formula_structural   Ta2TiRe
_chemical_formula_sum   'Ta2 Ti1 Re1'
_cell_volume   889.14507570
_cell_formula_units_Z   1
loop_
 _symmetry_equiv_pos_site_id
 _symmetry_equiv_pos_as_xyz
  1  'x, y, z'
loop_
 _atom_site_type_symbol
 _atom_site_label
 _atom_site_symmetry_multiplicity
 _atom_site_fract_x
 _atom_site_fract_y
 _atom_site_fract_z
 _atom_site_occupancy
  Ta  Ta0  1  0.00000000  0.26013700  0.26013700  1
  Ta  Ta1  1  0.00000000  0.73986300  0.73986300  1
  Ti  Ti2  1  0.00000000  0.00000000  0.00000000  1
  Re  Re3  1  0.00000000  0.50000000  0.50000000  1
