# generated using pymatgen
data_Y2(MoO4)3
_symmetry_space_group_name_H-M   'P 1'
_cell_length_a   10.52553500
_cell_length_b   10.54187800
_cell_length_c   10.73499800
_cell_angle_alpha   90.00000000
_cell_angle_beta   90.00000000
_cell_angle_gamma   90.00000000
_symmetry_Int_Tables_number   1
_chemical_formula_structural   Y2(MoO4)3
_chemical_formula_sum   'Y8 Mo12 O48'
_cell_volume   1191.14363243
_cell_formula_units_Z   4
loop_
 _symmetry_equiv_pos_site_id
 _symmetry_equiv_pos_as_xyz
  1  'x, y, z'
loop_
 _atom_site_type_symbol
 _atom_site_label
 _atom_site_symmetry_multiplicity
 _atom_site_fract_x
 _atom_site_fract_y
 _atom_site_fract_z
 _atom_site_occupancy
  Y  Y0  1  0.68795200  0.00093100  0.74092700  1
  Y  Y1  1  0.31204800  0.99906900  0.74092700  1
  Y  Y2  1  0.81204800  0.50093100  0.74092700  1
  Y  Y3  1  0.49721600  0.31200200  0.26644700  1
  Y  Y4  1  0.00278400  0.81200200  0.26644700  1
  Y  Y5  1  0.18795200  0.49906900  0.74092700  1
  Y  Y6  1  0.99721600  0.18799800  0.26644700  1
  Y  Y7  1  0.50278400  0.68799800  0.26644700  1
  Mo  Mo8  1  0.75259100  0.75207200  0.00344000  1
  Mo  Mo9  1  0.99807600  0.79317600  0.64689900  1
  Mo  Mo10  1  0.50192400  0.29317600  0.64689900  1
  Mo  Mo11  1  0.74740900  0.25207200  0.00344000  1
  Mo  Mo12  1  0.29378100  0.99235100  0.35980600  1
  Mo  Mo13  1  0.79378100  0.50764900  0.35980600  1
  Mo  Mo14  1  0.49807600  0.70682400  0.64689900  1
  Mo  Mo15  1  0.70621900  0.00764900  0.35980600  1
  Mo  Mo16  1  0.25259100  0.74792800  0.00344000  1
  Mo  Mo17  1  0.20621900  0.49235100  0.35980600  1
  Mo  Mo18  1  0.24740900  0.24792800  0.00344000  1
  Mo  Mo19  1  0.00192400  0.20682400  0.64689900  1
  O  O20  1  0.87512100  0.12092100  0.71781100  1
  O  O21  1  0.48425400  0.30386100  0.48192200  1
  O  O22  1  0.69436800  0.00320600  0.52534700  1
  O  O23  1  0.01574600  0.80386100  0.48192200  1
  O  O24  1  0.84999900  0.65879300  0.30943000  1
  O  O25  1  0.12721600  0.17800200  0.09909800  1
  O  O26  1  0.37278400  0.67800200  0.09909800  1
  O  O27  1  0.87278400  0.82199800  0.09909800  1
  O  O28  1  0.88164200  0.37947600  0.29378800  1
  O  O29  1  0.99602200  0.37344400  0.69593500  1
  O  O30  1  0.49602200  0.12655600  0.69593500  1
  O  O31  1  0.80563200  0.50320600  0.52534700  1
  O  O32  1  0.61835800  0.87947600  0.29378800  1
  O  O33  1  0.86352300  0.17967000  0.10278500  1
  O  O34  1  0.62721600  0.32199800  0.09909800  1
  O  O35  1  0.34999900  0.84120700  0.30943000  1
  O  O36  1  0.17664400  0.36449400  0.90401500  1
  O  O37  1  0.36352300  0.32033000  0.10278500  1
  O  O38  1  0.11835800  0.62052400  0.29378800  1
  O  O39  1  0.37512100  0.37907900  0.71781100  1
  O  O40  1  0.84615700  0.85242600  0.69167300  1
  O  O41  1  0.12678100  0.00444600  0.31198500  1
  O  O42  1  0.68095800  0.87150500  0.90769300  1
  O  O43  1  0.15000100  0.34120700  0.30943000  1
  O  O44  1  0.00397800  0.62655600  0.69593500  1
  O  O45  1  0.38164200  0.12052400  0.29378800  1
  O  O46  1  0.51574600  0.69613900  0.48192200  1
  O  O47  1  0.12487900  0.87907900  0.71781100  1
  O  O48  1  0.13647700  0.82033000  0.10278500  1
  O  O49  1  0.65000100  0.15879300  0.30943000  1
  O  O50  1  0.30563200  0.99679400  0.52534700  1
  O  O51  1  0.37321900  0.50444600  0.31198500  1
  O  O52  1  0.19436800  0.49679400  0.52534700  1
  O  O53  1  0.81904200  0.37150500  0.90769300  1
  O  O54  1  0.63647700  0.67967000  0.10278500  1
  O  O55  1  0.62678100  0.49555400  0.31198500  1
  O  O56  1  0.62487900  0.62092100  0.71781100  1
  O  O57  1  0.34615700  0.64757400  0.69167300  1
  O  O58  1  0.98425400  0.19613900  0.48192200  1
  O  O59  1  0.67664400  0.13550600  0.90401500  1
  O  O60  1  0.87321900  0.99555400  0.31198500  1
  O  O61  1  0.65384300  0.35242600  0.69167300  1
  O  O62  1  0.50397800  0.87344400  0.69593500  1
  O  O63  1  0.32335600  0.86449400  0.90401500  1
  O  O64  1  0.18095800  0.62849500  0.90769300  1
  O  O65  1  0.31904200  0.12849500  0.90769300  1
  O  O66  1  0.82335600  0.63550600  0.90401500  1
  O  O67  1  0.15384300  0.14757400  0.69167300  1
