# generated using pymatgen
data_La3TiCl5O4
_symmetry_space_group_name_H-M   'P 1'
_cell_length_a   4.08248100
_cell_length_b   14.80485200
_cell_length_c   16.95447300
_cell_angle_alpha   90.00000000
_cell_angle_beta   90.00000000
_cell_angle_gamma   90.00000000
_symmetry_Int_Tables_number   1
_chemical_formula_structural   La3TiCl5O4
_chemical_formula_sum   'La12 Ti4 Cl20 O16'
_cell_volume   1024.73728309
_cell_formula_units_Z   4
loop_
 _symmetry_equiv_pos_site_id
 _symmetry_equiv_pos_as_xyz
  1  'x, y, z'
loop_
 _atom_site_type_symbol
 _atom_site_label
 _atom_site_symmetry_multiplicity
 _atom_site_fract_x
 _atom_site_fract_y
 _atom_site_fract_z
 _atom_site_occupancy
  La  La0  1  0.75000000  0.08066900  0.62046200  1
  La  La1  1  0.25000000  0.91933100  0.37953800  1
  La  La2  1  0.75000000  0.91564300  0.87915700  1
  La  La3  1  0.25000000  0.23918800  0.86995500  1
  La  La4  1  0.75000000  0.41933100  0.12046200  1
  La  La5  1  0.25000000  0.08435700  0.12084300  1
  La  La6  1  0.75000000  0.58435700  0.37915700  1
  La  La7  1  0.25000000  0.58066900  0.87953800  1
  La  La8  1  0.75000000  0.73918800  0.63004500  1
  La  La9  1  0.25000000  0.26081200  0.36995500  1
  La  La10  1  0.25000000  0.41564300  0.62084300  1
  La  La11  1  0.75000000  0.76081200  0.13004500  1
  Ti  Ti12  1  0.75000000  0.41078000  0.79160200  1
  Ti  Ti13  1  0.25000000  0.91078000  0.70839800  1
  Ti  Ti14  1  0.75000000  0.08922000  0.29160200  1
  Ti  Ti15  1  0.25000000  0.58922000  0.20839800  1
  Cl  Cl16  1  0.25000000  0.89921700  0.20198400  1
  Cl  Cl17  1  0.75000000  0.39921700  0.29801600  1
  Cl  Cl18  1  0.75000000  0.55649600  0.55449600  1
  Cl  Cl19  1  0.25000000  0.71568600  0.47872400  1
  Cl  Cl20  1  0.25000000  0.09638400  0.48364300  1
  Cl  Cl21  1  0.25000000  0.44350400  0.44550400  1
  Cl  Cl22  1  0.75000000  0.59638400  0.01635700  1
  Cl  Cl23  1  0.25000000  0.22490700  0.67977300  1
  Cl  Cl24  1  0.75000000  0.77509300  0.32022700  1
  Cl  Cl25  1  0.25000000  0.27509300  0.17977300  1
  Cl  Cl26  1  0.75000000  0.90361600  0.51635700  1
  Cl  Cl27  1  0.25000000  0.40361600  0.98364300  1
  Cl  Cl28  1  0.25000000  0.05649600  0.94550400  1
  Cl  Cl29  1  0.75000000  0.72490700  0.82022700  1
  Cl  Cl30  1  0.25000000  0.78431400  0.97872400  1
  Cl  Cl31  1  0.75000000  0.94350400  0.05449600  1
  Cl  Cl32  1  0.25000000  0.60078300  0.70198400  1
  Cl  Cl33  1  0.75000000  0.10078300  0.79801600  1
  Cl  Cl34  1  0.75000000  0.28431400  0.52127600  1
  Cl  Cl35  1  0.75000000  0.21568600  0.02127600  1
  O  O36  1  0.25000000  0.90999100  0.81767800  1
  O  O37  1  0.25000000  0.48206600  0.15198600  1
  O  O38  1  0.75000000  0.51793400  0.84801400  1
  O  O39  1  0.75000000  0.09000900  0.18232200  1
  O  O40  1  0.25000000  0.59000900  0.31767800  1
  O  O41  1  0.75000000  0.98206600  0.34801400  1
  O  O42  1  0.75000000  0.30171300  0.84537100  1
  O  O43  1  0.25000000  0.01793400  0.65198600  1
  O  O44  1  0.75000000  0.59144900  0.20841700  1
  O  O45  1  0.75000000  0.90855100  0.70841700  1
  O  O46  1  0.25000000  0.69828700  0.15462900  1
  O  O47  1  0.75000000  0.19828700  0.34537100  1
  O  O48  1  0.25000000  0.40855100  0.79158300  1
  O  O49  1  0.25000000  0.80171300  0.65462900  1
  O  O50  1  0.25000000  0.09144900  0.29158300  1
  O  O51  1  0.75000000  0.40999100  0.68232200  1
