# generated using pymatgen
data_NaFe3(PO4)3
_symmetry_space_group_name_H-M   'P 1'
_cell_length_a   8.55873206
_cell_length_b   8.55873206
_cell_length_c   6.55128317
_cell_angle_alpha   73.79653728
_cell_angle_beta   73.79653728
_cell_angle_gamma   93.39921852
_symmetry_Int_Tables_number   1
_chemical_formula_structural   NaFe3(PO4)3
_chemical_formula_sum   'Na2 Fe6 P6 O24'
_cell_volume   437.60257889
_cell_formula_units_Z   2
loop_
 _symmetry_equiv_pos_site_id
 _symmetry_equiv_pos_as_xyz
  1  'x, y, z'
loop_
 _atom_site_type_symbol
 _atom_site_label
 _atom_site_symmetry_multiplicity
 _atom_site_fract_x
 _atom_site_fract_y
 _atom_site_fract_z
 _atom_site_occupancy
  Na  Na0  1  0.01940200  0.98059800  0.25000000  1
  Na  Na1  1  0.98059800  0.01940200  0.75000000  1
  Fe  Fe2  1  0.62081500  0.94580200  0.12184200  1
  Fe  Fe3  1  0.37918500  0.05419800  0.87815800  1
  Fe  Fe4  1  0.28268500  0.71731500  0.75000000  1
  Fe  Fe5  1  0.05419800  0.37918500  0.37815800  1
  Fe  Fe6  1  0.71731500  0.28268500  0.25000000  1
  Fe  Fe7  1  0.94580200  0.62081500  0.62184200  1
  P  P8  1  0.88405500  0.66155700  0.11202400  1
  P  P9  1  0.66155700  0.88405500  0.61202400  1
  P  P10  1  0.11594500  0.33844300  0.88797600  1
  P  P11  1  0.33844300  0.11594500  0.38797600  1
  P  P12  1  0.68951800  0.31048200  0.75000000  1
  P  P13  1  0.31048200  0.68951800  0.25000000  1
  O  O14  1  0.51151300  0.26989900  0.76240900  1
  O  O15  1  0.47525100  0.25592100  0.34705000  1
  O  O16  1  0.52474900  0.74407900  0.65295000  1
  O  O17  1  0.98135000  0.31521900  0.12042300  1
  O  O18  1  0.68478100  0.01865000  0.37957700  1
  O  O19  1  0.25592100  0.47525100  0.84705000  1
  O  O20  1  0.48848700  0.73010100  0.23759100  1
  O  O21  1  0.01865000  0.68478100  0.87957700  1
  O  O22  1  0.16622200  0.16598100  0.90017000  1
  O  O23  1  0.19717600  0.72585800  0.46676200  1
  O  O24  1  0.27414200  0.80282400  0.03323800  1
  O  O25  1  0.80282400  0.27414200  0.53323800  1
  O  O26  1  0.74407900  0.52474900  0.15295000  1
  O  O27  1  0.16598100  0.16622200  0.40017000  1
  O  O28  1  0.83401900  0.83377800  0.59983000  1
  O  O29  1  0.73010100  0.48848700  0.73759100  1
  O  O30  1  0.03460200  0.38918700  0.69885900  1
  O  O31  1  0.26989900  0.51151300  0.26240900  1
  O  O32  1  0.72585800  0.19717600  0.96676200  1
  O  O33  1  0.38918700  0.03460200  0.19885900  1
  O  O34  1  0.83377800  0.83401900  0.09983000  1
  O  O35  1  0.31521900  0.98135000  0.62042300  1
  O  O36  1  0.96539800  0.61081300  0.30114100  1
  O  O37  1  0.61081300  0.96539800  0.80114100  1
