# generated using pymatgen
data_Ba5Hf4S13
_symmetry_space_group_name_H-M   'P 1'
_cell_length_a   23.15322739
_cell_length_b   23.15322739
_cell_length_c   23.15322739
_cell_angle_alpha   167.59249077
_cell_angle_beta   167.59249077
_cell_angle_gamma   17.58149923
_symmetry_Int_Tables_number   1
_chemical_formula_structural   Ba5Hf4S13
_chemical_formula_sum   'Ba5 Hf4 S13'
_cell_volume   572.96605181
_cell_formula_units_Z   1
loop_
 _symmetry_equiv_pos_site_id
 _symmetry_equiv_pos_as_xyz
  1  'x, y, z'
loop_
 _atom_site_type_symbol
 _atom_site_label
 _atom_site_symmetry_multiplicity
 _atom_site_fract_x
 _atom_site_fract_y
 _atom_site_fract_z
 _atom_site_occupancy
  Ba  Ba0  1  0.71102100  0.71102100  0.00000000  1
  Ba  Ba1  1  0.60745100  0.60745100  0.00000000  1
  Ba  Ba2  1  0.28897900  0.28897900  0.00000000  1
  Ba  Ba3  1  0.50000000  0.50000000  0.00000000  1
  Ba  Ba4  1  0.39254900  0.39254900  0.00000000  1
  Hf  Hf5  1  0.83383800  0.83383800  0.00000000  1
  Hf  Hf6  1  0.05526500  0.05526500  0.00000000  1
  Hf  Hf7  1  0.16616200  0.16616200  0.00000000  1
  Hf  Hf8  1  0.94473500  0.94473500  0.00000000  1
  S  S9  1  0.89023300  0.89023300  0.00000000  1
  S  S10  1  0.33657600  0.83657600  0.50000000  1
  S  S11  1  0.44524000  0.94524000  0.50000000  1
  S  S12  1  0.05476000  0.55476000  0.50000000  1
  S  S13  1  0.10976700  0.10976700  0.00000000  1
  S  S14  1  0.77947200  0.77947200  0.00000000  1
  S  S15  1  0.22052800  0.22052800  0.00000000  1
  S  S16  1  0.83657600  0.33657600  0.50000000  1
  S  S17  1  0.16342400  0.66342400  0.50000000  1
  S  S18  1  0.94524000  0.44524000  0.50000000  1
  S  S19  1  0.66342400  0.16342400  0.50000000  1
  S  S20  1  0.00000000  0.00000000  0.00000000  1
  S  S21  1  0.55476000  0.05476000  0.50000000  1
