# generated using pymatgen
data_K3V(PO4)2
_symmetry_space_group_name_H-M   'P 1'
_cell_length_a   11.29016700
_cell_length_b   9.73015400
_cell_length_c   18.42018260
_cell_angle_alpha   58.32977541
_cell_angle_beta   90.00000000
_cell_angle_gamma   90.00000000
_symmetry_Int_Tables_number   1
_chemical_formula_structural   K3V(PO4)2
_chemical_formula_sum   'K24 V8 P16 O64'
_cell_volume   1722.21145402
_cell_formula_units_Z   8
loop_
 _symmetry_equiv_pos_site_id
 _symmetry_equiv_pos_as_xyz
  1  'x, y, z'
loop_
 _atom_site_type_symbol
 _atom_site_label
 _atom_site_symmetry_multiplicity
 _atom_site_fract_x
 _atom_site_fract_y
 _atom_site_fract_z
 _atom_site_occupancy
  K  K0  1  0.07746100  0.43354600  0.68093900  1
  K  K1  1  0.61991600  0.70973400  0.99274600  1
  K  K2  1  0.36092500  0.44379700  0.74038500  1
  K  K3  1  0.09979100  0.74025800  0.99872300  1
  K  K4  1  0.13907500  0.44379700  0.24038500  1
  K  K5  1  0.11812400  0.98269000  0.42091400  1
  K  K6  1  0.38008400  0.29026600  0.00725400  1
  K  K7  1  0.59787500  0.96121000  0.74564100  1
  K  K8  1  0.42253900  0.43354600  0.18093900  1
  K  K9  1  0.40212500  0.03879000  0.25435900  1
  K  K10  1  0.88008400  0.70973400  0.49274600  1
  K  K11  1  0.40020900  0.74025800  0.49872300  1
  K  K12  1  0.86092500  0.55620300  0.75961500  1
  K  K13  1  0.63907500  0.55620300  0.25961500  1
  K  K14  1  0.59979100  0.25974200  0.50127700  1
  K  K15  1  0.38187600  0.98269000  0.92091400  1
  K  K16  1  0.90212500  0.96121000  0.24564100  1
  K  K17  1  0.92253900  0.56645400  0.31906100  1
  K  K18  1  0.57746100  0.56645400  0.81906100  1
  K  K19  1  0.11991600  0.29026600  0.50725400  1
  K  K20  1  0.09787500  0.03879000  0.75435900  1
  K  K21  1  0.90020900  0.25974200  0.00127700  1
  K  K22  1  0.61812400  0.01731000  0.07908600  1
  K  K23  1  0.88187600  0.01731000  0.57908600  1
  V  V24  1  0.13122000  0.55350100  0.86820400  1
  V  V25  1  0.36878000  0.55350100  0.36820400  1
  V  V26  1  0.84404300  0.03871400  0.88620600  1
  V  V27  1  0.34404300  0.96128600  0.61379400  1
  V  V28  1  0.15595700  0.96128600  0.11379400  1
  V  V29  1  0.63122000  0.44649900  0.63179600  1
  V  V30  1  0.65595700  0.03871400  0.38620600  1
  V  V31  1  0.86878000  0.44649900  0.13179600  1
  P  P32  1  0.86115000  0.21026900  0.35398200  1
  P  P33  1  0.37668100  0.17672100  0.39995600  1
  P  P34  1  0.36115000  0.78973100  0.14601800  1
  P  P35  1  0.12331900  0.17672100  0.89995600  1
  P  P36  1  0.36011800  0.32805000  0.59167200  1
  P  P37  1  0.86011800  0.67195000  0.90832800  1
  P  P38  1  0.87668100  0.82327900  0.10004400  1
  P  P39  1  0.63988200  0.67195000  0.40832800  1
  P  P40  1  0.13988200  0.32805000  0.09167200  1
  P  P41  1  0.63885000  0.21026900  0.85398200  1
  P  P42  1  0.62331900  0.82327900  0.60004400  1
  P  P43  1  0.33650000  0.72172500  0.83563300  1
  P  P44  1  0.83650000  0.27827500  0.66436700  1
  P  P45  1  0.13885000  0.78973100  0.64601800  1
  P  P46  1  0.16350000  0.72172500  0.33563300  1
  P  P47  1  0.66350000  0.27827500  0.16436700  1
  O  O48  1  0.45678400  0.78642500  0.08754600  1
  O  O49  1  0.74226100  0.68481600  0.86458500  1
  O  O50  1  0.65556100  0.55374400  0.50663000  1
  O  O51  1  0.31632300  0.54612200  0.85230200  1
  O  O52  1  0.51816800  0.93125700  0.59323400  1
  O  O53  1  0.93235700  0.27464400  0.60669700  1
  O  O54  1  0.20971400  0.76477900  0.85289900  1
  O  O55  1  0.95678400  0.21357500  0.41245400  1
  O  O56  1  0.04250900  0.39927600  0.12243500  1
  O  O57  1  0.81632300  0.45387800  0.64769800  1
  O  O58  1  0.84647200  0.04001400  0.36518400  1
  O  O59  1  0.95749100  0.60072400  0.87756500  1
  O  O60  1  0.30661800  0.08898500  0.48711800  1
  O  O61  1  0.12312400  0.83433900  0.24148600  1
  O  O62  1  0.87687600  0.16566100  0.75851400  1
  O  O63  1  0.54250900  0.60072400  0.37756500  1
  O  O64  1  0.98183200  0.93125700  0.09323400  1
  O  O65  1  0.07333700  0.34223200  0.88047900  1
  O  O66  1  0.56764300  0.27464400  0.10669700  1
  O  O67  1  0.29028600  0.76477900  0.35289900  1
  O  O68  1  0.73323400  0.24361700  0.37649200  1
  O  O69  1  0.20910000  0.19997800  0.82951100  1
  O  O70  1  0.54321600  0.21357500  0.91245400  1
  O  O71  1  0.15556100  0.44625600  0.99337000  1
  O  O72  1  0.92666300  0.65776800  0.11952100  1
  O  O73  1  0.59598200  0.83879800  0.39040500  1
  O  O74  1  0.70910000  0.80002200  0.67048900  1
  O  O75  1  0.48183200  0.06874300  0.40676600  1
  O  O76  1  0.37687600  0.83433900  0.74148600  1
  O  O77  1  0.89367600  0.34426500  0.26065600  1
  O  O78  1  0.04321600  0.78642500  0.58754600  1
  O  O79  1  0.42666300  0.34223200  0.38047900  1
  O  O80  1  0.06764300  0.72535600  0.39330300  1
  O  O81  1  0.70971400  0.23522100  0.64710100  1
  O  O82  1  0.76676600  0.24361700  0.87649200  1
  O  O83  1  0.62312400  0.16566100  0.25851400  1
  O  O84  1  0.34443900  0.44625600  0.49337000  1
  O  O85  1  0.90401800  0.83879800  0.89040500  1
  O  O86  1  0.75773900  0.68481600  0.36458500  1
  O  O87  1  0.10632400  0.65573500  0.73934400  1
  O  O88  1  0.19338200  0.08898500  0.98711800  1
  O  O89  1  0.25773900  0.31518400  0.13541500  1
  O  O90  1  0.60632400  0.34426500  0.76065600  1
  O  O91  1  0.43235700  0.72535600  0.89330300  1
  O  O92  1  0.40401800  0.16120200  0.60959500  1
  O  O93  1  0.26676600  0.75638300  0.62350800  1
  O  O94  1  0.34647200  0.95998600  0.13481600  1
  O  O95  1  0.65352800  0.04001400  0.86518400  1
  O  O96  1  0.18367700  0.54612200  0.35230200  1
  O  O97  1  0.80661800  0.91101500  0.01288200  1
  O  O98  1  0.69338200  0.91101500  0.51288200  1
  O  O99  1  0.23323400  0.75638300  0.12350800  1
  O  O100  1  0.68367700  0.45387800  0.14769800  1
  O  O101  1  0.01816800  0.06874300  0.90676600  1
  O  O102  1  0.57333700  0.65776800  0.61952100  1
  O  O103  1  0.24226100  0.31518400  0.63541500  1
  O  O104  1  0.15352800  0.95998600  0.63481600  1
  O  O105  1  0.09598200  0.16120200  0.10959500  1
  O  O106  1  0.39367600  0.65573500  0.23934400  1
  O  O107  1  0.45749100  0.39927600  0.62243500  1
  O  O108  1  0.79090000  0.80002200  0.17048900  1
  O  O109  1  0.84443900  0.55374400  0.00663000  1
  O  O110  1  0.29090000  0.19997800  0.32951100  1
  O  O111  1  0.79028600  0.23522100  0.14710100  1
