# generated using pymatgen
data_Be2PdAu
_symmetry_space_group_name_H-M   'P 1'
_cell_length_a   9.40418555
_cell_length_b   9.40418555
_cell_length_c   9.40418555
_cell_angle_alpha   125.57142944
_cell_angle_beta   118.20413550
_cell_angle_gamma   86.88548247
_symmetry_Int_Tables_number   1
_chemical_formula_structural   Be2PdAu
_chemical_formula_sum   'Be2 Pd1 Au1'
_cell_volume   567.23920898
_cell_formula_units_Z   1
loop_
 _symmetry_equiv_pos_site_id
 _symmetry_equiv_pos_as_xyz
  1  'x, y, z'
loop_
 _atom_site_type_symbol
 _atom_site_label
 _atom_site_symmetry_multiplicity
 _atom_site_fract_x
 _atom_site_fract_y
 _atom_site_fract_z
 _atom_site_occupancy
  Be  Be0  1  0.00000000  0.24359000  0.24359000  1
  Be  Be1  1  0.00000000  0.75641000  0.75641000  1
  Pd  Pd2  1  0.00000000  0.00000000  0.00000000  1
  Au  Au3  1  0.00000000  0.50000000  0.50000000  1
