data_image0
_chemical_formula_structural       Bi2O4Rb2
_chemical_formula_sum              "Bi2 O4 Rb2"
_cell_length_a       5.77573
_cell_length_b       5.77573
_cell_length_c       6.01987
_cell_angle_alpha    112.884
_cell_angle_beta     112.884
_cell_angle_gamma    91.6111

_space_group_name_H-M_alt    "P 1"
_space_group_IT_number       1

loop_
  _space_group_symop_operation_xyz
  'x, y, z'

loop_
  _atom_site_type_symbol
  _atom_site_label
  _atom_site_symmetry_multiplicity
  _atom_site_fract_x
  _atom_site_fract_y
  _atom_site_fract_z
  _atom_site_occupancy
  Bi  Bi1       1.0  0.89900  0.10100  0.25000  1.0000
  Bi  Bi2       1.0  0.10100  0.89900  0.75000  1.0000
  O   O1        1.0  0.24900  0.12400  0.21600  1.0000
  O   O2        1.0  0.87600  0.75100  0.28400  1.0000
  O   O3        1.0  0.12400  0.24900  0.71600  1.0000
  O   O4        1.0  0.75100  0.87600  0.78400  1.0000
  Rb  Rb1       1.0  0.36700  0.63300  0.25000  1.0000
  Rb  Rb2       1.0  0.63300  0.36700  0.75000  1.0000
