# generated using pymatgen
data_V2Cu5(HO3)4
_symmetry_space_group_name_H-M   'P 1'
_cell_length_a   5.52096277
_cell_length_b   6.30386621
_cell_length_c   6.94612635
_cell_angle_alpha   86.43083855
_cell_angle_beta   90.57181647
_cell_angle_gamma   89.64545072
_symmetry_Int_Tables_number   1
_chemical_formula_structural   V2Cu5(HO3)4
_chemical_formula_sum   'V2 Cu5 H4 O12'
_cell_volume   241.26235486
_cell_formula_units_Z   1
loop_
 _symmetry_equiv_pos_site_id
 _symmetry_equiv_pos_as_xyz
  1  'x, y, z'
loop_
 _atom_site_type_symbol
 _atom_site_label
 _atom_site_symmetry_multiplicity
 _atom_site_fract_x
 _atom_site_fract_y
 _atom_site_fract_z
 _atom_site_occupancy
  V  V0  1  0.44267500  0.19125300  0.68615700  1
  V  V1  1  0.55732500  0.80874700  0.31384300  1
  Cu  Cu2  1  0.99644100  0.84679300  0.66177200  1
  Cu  Cu3  1  0.00000000  0.50000000  0.00000000  1
  Cu  Cu4  1  0.00355900  0.15320700  0.33822800  1
  Cu  Cu5  1  0.49661600  0.68306600  0.82175000  1
  Cu  Cu6  1  0.50338400  0.31693400  0.17825000  1
  H  H7  1  0.20927400  0.87851600  0.00926300  1
  H  H8  1  0.79868900  0.47375100  0.65519600  1
  H  H9  1  0.79072600  0.12148400  0.99073700  1
  H  H10  1  0.20131100  0.52624900  0.34480400  1
  O  O11  1  0.38825800  0.38699800  0.85094200  1
  O  O12  1  0.60647200  0.97891800  0.80437700  1
  O  O13  1  0.84938100  0.88346100  0.40522700  1
  O  O14  1  0.37531300  0.70475800  0.49099600  1
  O  O15  1  0.62468700  0.29524200  0.50900400  1
  O  O16  1  0.61174200  0.61300200  0.14905800  1
  O  O17  1  0.39352800  0.02108200  0.19562300  1
  O  O18  1  0.16845400  0.41745300  0.24930200  1
  O  O19  1  0.83422200  0.22851200  0.08480100  1
  O  O20  1  0.15061900  0.11653900  0.59477300  1
  O  O21  1  0.83154600  0.58254700  0.75069800  1
  O  O22  1  0.16577800  0.77148800  0.91519900  1
