# generated using pymatgen
data_Ti2ZnMo
_symmetry_space_group_name_H-M   'P 1'
_cell_length_a   10.56894238
_cell_length_b   10.56894238
_cell_length_c   10.56894238
_cell_angle_alpha   123.42546363
_cell_angle_beta   118.85938811
_cell_angle_gamma   88.07946199
_symmetry_Int_Tables_number   1
_chemical_formula_structural   Ti2ZnMo
_chemical_formula_sum   'Ti2 Zn1 Mo1'
_cell_volume   818.18183375
_cell_formula_units_Z   1
loop_
 _symmetry_equiv_pos_site_id
 _symmetry_equiv_pos_as_xyz
  1  'x, y, z'
loop_
 _atom_site_type_symbol
 _atom_site_label
 _atom_site_symmetry_multiplicity
 _atom_site_fract_x
 _atom_site_fract_y
 _atom_site_fract_z
 _atom_site_occupancy
  Ti  Ti0  1  0.00000000  0.28522600  0.28522600  1
  Ti  Ti1  1  0.00000000  0.71477400  0.71477400  1
  Zn  Zn2  1  0.00000000  0.00000000  0.00000000  1
  Mo  Mo3  1  0.00000000  0.50000000  0.50000000  1
