# generated using pymatgen
data_SiO2
_symmetry_space_group_name_H-M   'P 1'
_cell_length_a   11.27882100
_cell_length_b   11.27882100
_cell_length_c   5.16380000
_cell_angle_alpha   90.00000000
_cell_angle_beta   90.00000000
_cell_angle_gamma   90.00000000
_symmetry_Int_Tables_number   1
_chemical_formula_structural   SiO2
_chemical_formula_sum   'Si16 O32'
_cell_volume   656.89630911
_cell_formula_units_Z   16
loop_
 _symmetry_equiv_pos_site_id
 _symmetry_equiv_pos_as_xyz
  1  'x, y, z'
loop_
 _atom_site_type_symbol
 _atom_site_label
 _atom_site_symmetry_multiplicity
 _atom_site_fract_x
 _atom_site_fract_y
 _atom_site_fract_z
 _atom_site_occupancy
  Si  Si0  1  0.38060100  0.80678600  0.37657600  1
  Si  Si1  1  0.19321400  0.61939900  0.62342400  1
  Si  Si2  1  0.19321400  0.38060100  0.37657600  1
  Si  Si3  1  0.88060100  0.69321400  0.87657600  1
  Si  Si4  1  0.30678600  0.11939900  0.12342400  1
  Si  Si5  1  0.80678600  0.61939900  0.37657600  1
  Si  Si6  1  0.11939900  0.30678600  0.87657600  1
  Si  Si7  1  0.61939900  0.19321400  0.37657600  1
  Si  Si8  1  0.69321400  0.88060100  0.12342400  1
  Si  Si9  1  0.11939900  0.69321400  0.12342400  1
  Si  Si10  1  0.38060100  0.19321400  0.62342400  1
  Si  Si11  1  0.88060100  0.30678600  0.12342400  1
  Si  Si12  1  0.30678600  0.88060100  0.87657600  1
  Si  Si13  1  0.61939900  0.80678600  0.62342400  1
  Si  Si14  1  0.80678600  0.38060100  0.62342400  1
  Si  Si15  1  0.69321400  0.11939900  0.87657600  1
  O  O16  1  0.13309100  0.40889800  0.09862000  1
  O  O17  1  0.90889800  0.36690900  0.40138000  1
  O  O18  1  0.09110200  0.63309100  0.40138000  1
  O  O19  1  0.25000000  0.75000000  0.75000000  1
  O  O20  1  0.50000000  0.26844100  0.50000000  1
  O  O21  1  0.86690900  0.59110200  0.09862000  1
  O  O22  1  0.75000000  0.75000000  0.25000000  1
  O  O23  1  0.50000000  0.73155900  0.50000000  1
  O  O24  1  0.63309100  0.90889800  0.40138000  1
  O  O25  1  0.36690900  0.90889800  0.59862000  1
  O  O26  1  0.73155900  0.50000000  0.50000000  1
  O  O27  1  0.00000000  0.76844100  0.00000000  1
  O  O28  1  0.25000000  0.75000000  0.25000000  1
  O  O29  1  0.86690900  0.40889800  0.90138000  1
  O  O30  1  0.25000000  0.25000000  0.25000000  1
  O  O31  1  0.13309100  0.59110200  0.90138000  1
  O  O32  1  0.63309100  0.09110200  0.59862000  1
  O  O33  1  0.26844100  0.50000000  0.50000000  1
  O  O34  1  0.23155900  0.00000000  0.00000000  1
  O  O35  1  0.36690900  0.09110200  0.40138000  1
  O  O36  1  0.76844100  0.00000000  0.00000000  1
  O  O37  1  0.75000000  0.75000000  0.75000000  1
  O  O38  1  0.59110200  0.13309100  0.09862000  1
  O  O39  1  0.90889800  0.63309100  0.59862000  1
  O  O40  1  0.25000000  0.25000000  0.75000000  1
  O  O41  1  0.00000000  0.23155900  0.00000000  1
  O  O42  1  0.40889800  0.13309100  0.90138000  1
  O  O43  1  0.75000000  0.25000000  0.25000000  1
  O  O44  1  0.59110200  0.86690900  0.90138000  1
  O  O45  1  0.09110200  0.36690900  0.59862000  1
  O  O46  1  0.75000000  0.25000000  0.75000000  1
  O  O47  1  0.40889800  0.86690900  0.09862000  1
