# generated using pymatgen
data_PtS4N3Cl
_symmetry_space_group_name_H-M   'P 1'
_cell_length_a   5.47800800
_cell_length_b   11.42353500
_cell_length_c   13.82715600
_cell_angle_alpha   90.00000000
_cell_angle_beta   90.00000000
_cell_angle_gamma   90.00000000
_symmetry_Int_Tables_number   1
_chemical_formula_structural   PtS4N3Cl
_chemical_formula_sum   'Pt4 S16 N12 Cl4'
_cell_volume   865.27875647
_cell_formula_units_Z   4
loop_
 _symmetry_equiv_pos_site_id
 _symmetry_equiv_pos_as_xyz
  1  'x, y, z'
loop_
 _atom_site_type_symbol
 _atom_site_label
 _atom_site_symmetry_multiplicity
 _atom_site_fract_x
 _atom_site_fract_y
 _atom_site_fract_z
 _atom_site_occupancy
  Pt  Pt0  1  0.48195400  0.67217900  0.25000000  1
  Pt  Pt1  1  0.51804600  0.32782100  0.75000000  1
  Pt  Pt2  1  0.01804600  0.17217900  0.25000000  1
  Pt  Pt3  1  0.98195400  0.82782100  0.75000000  1
  S  S4  1  0.46719700  0.66850100  0.41319300  1
  S  S5  1  0.90210500  0.49078500  0.64317000  1
  S  S6  1  0.59789500  0.99078500  0.85683000  1
  S  S7  1  0.53280300  0.33149900  0.91319300  1
  S  S8  1  0.03280300  0.16850100  0.08680700  1
  S  S9  1  0.96719700  0.83149900  0.91319300  1
  S  S10  1  0.40210500  0.00921500  0.35683000  1
  S  S11  1  0.09789500  0.50921500  0.35683000  1
  S  S12  1  0.96719700  0.83149900  0.58680700  1
  S  S13  1  0.03280300  0.16850100  0.41319300  1
  S  S14  1  0.46719700  0.66850100  0.08680700  1
  S  S15  1  0.53280300  0.33149900  0.58680700  1
  S  S16  1  0.59789500  0.99078500  0.64317000  1
  S  S17  1  0.90210500  0.49078500  0.85683000  1
  S  S18  1  0.09789500  0.50921500  0.14317000  1
  S  S19  1  0.40210500  0.00921500  0.14317000  1
  N  N20  1  0.25238400  0.07565000  0.06384000  1
  N  N21  1  0.75238400  0.42435000  0.93616000  1
  N  N22  1  0.74761600  0.92435000  0.56384000  1
  N  N23  1  0.24761600  0.57565000  0.43616000  1
  N  N24  1  0.78468300  0.44576400  0.75000000  1
  N  N25  1  0.74761600  0.92435000  0.93616000  1
  N  N26  1  0.75238400  0.42435000  0.56384000  1
  N  N27  1  0.24761600  0.57565000  0.06384000  1
  N  N28  1  0.71531700  0.94576400  0.75000000  1
  N  N29  1  0.28468300  0.05423600  0.25000000  1
  N  N30  1  0.25238400  0.07565000  0.43616000  1
  N  N31  1  0.21531700  0.55423600  0.25000000  1
  Cl  Cl32  1  0.78962900  0.81316400  0.25000000  1
  Cl  Cl33  1  0.21037100  0.18683600  0.75000000  1
  Cl  Cl34  1  0.28962900  0.68683600  0.75000000  1
  Cl  Cl35  1  0.71037100  0.31316400  0.25000000  1
