# generated using pymatgen
data_CIClF4
_symmetry_space_group_name_H-M   'P 1'
_cell_length_a   5.23568745
_cell_length_b   5.23568745
_cell_length_c   20.69882300
_cell_angle_alpha   90.00000000
_cell_angle_beta   90.00000000
_cell_angle_gamma   91.16125995
_symmetry_Int_Tables_number   1
_chemical_formula_structural   CIClF4
_chemical_formula_sum   'C4 I4 Cl4 F16'
_cell_volume   567.28835626
_cell_formula_units_Z   4
loop_
 _symmetry_equiv_pos_site_id
 _symmetry_equiv_pos_as_xyz
  1  'x, y, z'
loop_
 _atom_site_type_symbol
 _atom_site_label
 _atom_site_symmetry_multiplicity
 _atom_site_fract_x
 _atom_site_fract_y
 _atom_site_fract_z
 _atom_site_occupancy
  C  C0  1  0.28194500  0.71805500  0.42069300  1
  C  C1  1  0.78194500  0.21805500  0.07930700  1
  C  C2  1  0.71805500  0.28194500  0.57930700  1
  C  C3  1  0.21805500  0.78194500  0.92069300  1
  I  I4  1  0.65568400  0.34431600  0.68567500  1
  I  I5  1  0.84431600  0.15568400  0.18567500  1
  I  I6  1  0.34431600  0.65568400  0.31432500  1
  I  I7  1  0.15568400  0.84431600  0.81432500  1
  Cl  Cl8  1  0.15640800  0.84359200  0.14920600  1
  Cl  Cl9  1  0.65640800  0.34359200  0.35079400  1
  Cl  Cl10  1  0.34359200  0.65640800  0.64920600  1
  Cl  Cl11  1  0.84359200  0.15640800  0.85079400  1
  F  F12  1  0.39479200  0.60520800  0.92941000  1
  F  F13  1  0.89479200  0.10520800  0.57059000  1
  F  F14  1  0.60520800  0.39479200  0.07059000  1
  F  F15  1  0.10520800  0.89479200  0.42941000  1
  F  F16  1  0.20442400  0.49663000  0.44761800  1
  F  F17  1  0.29557600  0.00337000  0.94761800  1
  F  F18  1  0.00337000  0.29557600  0.05238200  1
  F  F19  1  0.49663000  0.20442400  0.55238200  1
  F  F20  1  0.99663000  0.70442400  0.94761800  1
  F  F21  1  0.92892600  0.07107400  0.69759800  1
  F  F22  1  0.50337000  0.79557600  0.44761800  1
  F  F23  1  0.57107400  0.42892600  0.19759800  1
  F  F24  1  0.07107400  0.92892600  0.30240200  1
  F  F25  1  0.79557600  0.50337000  0.55238200  1
  F  F26  1  0.42892600  0.57107400  0.80240200  1
  F  F27  1  0.70442400  0.99663000  0.05238200  1
