# generated using pymatgen
data_NaFe2(MoO4)3
_symmetry_space_group_name_H-M   'P 1'
_cell_length_a   6.97376200
_cell_length_b   6.99698755
_cell_length_c   11.92080116
_cell_angle_alpha   103.35291307
_cell_angle_beta   103.41423175
_cell_angle_gamma   88.26938814
_symmetry_Int_Tables_number   1
_chemical_formula_structural   NaFe2(MoO4)3
_chemical_formula_sum   'Na2 Fe4 Mo6 O24'
_cell_volume   550.34609001
_cell_formula_units_Z   2
loop_
 _symmetry_equiv_pos_site_id
 _symmetry_equiv_pos_as_xyz
  1  'x, y, z'
loop_
 _atom_site_type_symbol
 _atom_site_label
 _atom_site_symmetry_multiplicity
 _atom_site_fract_x
 _atom_site_fract_y
 _atom_site_fract_z
 _atom_site_occupancy
  Na  Na0  1  0.81973400  0.39756200  0.86804600  1
  Na  Na1  1  0.18026600  0.60243800  0.13195400  1
  Fe  Fe2  1  0.30223700  0.29731800  0.59110400  1
  Fe  Fe3  1  0.67074400  0.30758500  0.18861900  1
  Fe  Fe4  1  0.69776300  0.70268200  0.40889600  1
  Fe  Fe5  1  0.32925600  0.69241500  0.81138100  1
  Mo  Mo6  1  0.24746900  0.75469200  0.50002600  1
  Mo  Mo7  1  0.80501200  0.79892000  0.74333300  1
  Mo  Mo8  1  0.34731400  0.25014100  0.89300200  1
  Mo  Mo9  1  0.19498800  0.20108000  0.25666700  1
  Mo  Mo10  1  0.65268600  0.74985900  0.10699800  1
  Mo  Mo11  1  0.75253100  0.24530800  0.49997400  1
  O  O12  1  0.64343500  0.63130500  0.23242700  1
  O  O13  1  0.69192300  0.00526400  0.16536800  1
  O  O14  1  0.15101100  0.34553300  0.95715300  1
  O  O15  1  0.72394800  0.39925000  0.39290400  1
  O  O16  1  0.26080700  0.26383700  0.41970600  1
  O  O17  1  0.30807700  0.99473600  0.83463200  1
  O  O18  1  0.37887200  0.29607700  0.19934200  1
  O  O19  1  0.73919300  0.73616300  0.58029400  1
  O  O20  1  0.42321300  0.70494400  0.99781500  1
  O  O21  1  0.99477600  0.73895600  0.42149200  1
  O  O22  1  0.39752400  0.67632500  0.39474700  1
  O  O23  1  0.17546200  0.94501800  0.20800300  1
  O  O24  1  0.84898900  0.65446700  0.04284700  1
  O  O25  1  0.68122900  0.99772000  0.42256400  1
  O  O26  1  0.35656500  0.36869500  0.76757300  1
  O  O27  1  0.97034300  0.32175300  0.20573600  1
  O  O28  1  0.60247600  0.32367500  0.60525300  1
  O  O29  1  0.31877100  0.00228000  0.57743600  1
  O  O30  1  0.62112800  0.70392300  0.80065800  1
  O  O31  1  0.82453800  0.05498200  0.79199700  1
  O  O32  1  0.27605200  0.60075000  0.60709600  1
  O  O33  1  0.57678700  0.29505600  0.00218500  1
  O  O34  1  0.02965700  0.67824700  0.79426400  1
  O  O35  1  0.00522400  0.26104400  0.57850800  1
