# generated using pymatgen
data_Sn3WO6
_symmetry_space_group_name_H-M   'P 1'
_cell_length_a   7.78445855
_cell_length_b   7.78445855
_cell_length_c   14.18806700
_cell_angle_alpha   70.82285548
_cell_angle_beta   70.82285548
_cell_angle_gamma   63.85474283
_symmetry_Int_Tables_number   1
_chemical_formula_structural   Sn3WO6
_chemical_formula_sum   'Sn12 W4 O24'
_cell_volume   711.64217317
_cell_formula_units_Z   4
loop_
 _symmetry_equiv_pos_site_id
 _symmetry_equiv_pos_as_xyz
  1  'x, y, z'
loop_
 _atom_site_type_symbol
 _atom_site_label
 _atom_site_symmetry_multiplicity
 _atom_site_fract_x
 _atom_site_fract_y
 _atom_site_fract_z
 _atom_site_occupancy
  Sn  Sn0  1  0.32032800  0.01026400  0.61527300  1
  Sn  Sn1  1  0.95521700  0.20444700  0.88573300  1
  Sn  Sn2  1  0.67967200  0.98973600  0.38472700  1
  Sn  Sn3  1  0.98973600  0.67967200  0.88472700  1
  Sn  Sn4  1  0.59394100  0.72400600  0.12203900  1
  Sn  Sn5  1  0.01026400  0.32032800  0.11527300  1
  Sn  Sn6  1  0.72400600  0.59394100  0.62203900  1
  Sn  Sn7  1  0.04478300  0.79555300  0.11426700  1
  Sn  Sn8  1  0.79555300  0.04478300  0.61426700  1
  Sn  Sn9  1  0.20444700  0.95521700  0.38573300  1
  Sn  Sn10  1  0.27599400  0.40605900  0.37796100  1
  Sn  Sn11  1  0.40605900  0.27599400  0.87796100  1
  W  W12  1  0.29278100  0.55564800  0.58891600  1
  W  W13  1  0.44435200  0.70721900  0.91108400  1
  W  W14  1  0.70721900  0.44435200  0.41108400  1
  W  W15  1  0.55564800  0.29278100  0.08891600  1
  O  O16  1  0.42421300  0.20499500  0.03428500  1
  O  O17  1  0.82580100  0.50807500  0.28000900  1
  O  O18  1  0.10289400  0.81436100  0.54349500  1
  O  O19  1  0.57578700  0.79500500  0.96571500  1
  O  O20  1  0.49192500  0.17419900  0.21999100  1
  O  O21  1  0.64874100  0.92443500  0.55834800  1
  O  O22  1  0.64424600  0.44261200  0.92316300  1
  O  O23  1  0.79500500  0.57578700  0.46571500  1
  O  O24  1  0.70517300  0.41979500  0.11795700  1
  O  O25  1  0.50807500  0.82580100  0.78000900  1
  O  O26  1  0.89710600  0.18563900  0.45650500  1
  O  O27  1  0.07556500  0.35125900  0.94165200  1
  O  O28  1  0.29482700  0.58020500  0.88204300  1
  O  O29  1  0.35125900  0.07556500  0.44165200  1
  O  O30  1  0.17419900  0.49192500  0.71999100  1
  O  O31  1  0.41979500  0.70517300  0.61795700  1
  O  O32  1  0.35575400  0.55738800  0.07683700  1
  O  O33  1  0.55738800  0.35575400  0.57683700  1
  O  O34  1  0.58020500  0.29482700  0.38204300  1
  O  O35  1  0.20499500  0.42421300  0.53428500  1
  O  O36  1  0.81436100  0.10289400  0.04349500  1
  O  O37  1  0.18563900  0.89710600  0.95650500  1
  O  O38  1  0.44261200  0.64424600  0.42316300  1
  O  O39  1  0.92443500  0.64874100  0.05834800  1
