# generated using pymatgen
data_Nd5Ti4FeO17
_symmetry_space_group_name_H-M   'P 1'
_cell_length_a   5.50361300
_cell_length_b   7.74454300
_cell_length_c   32.16366416
_cell_angle_alpha   83.03061515
_cell_angle_beta   90.00000000
_cell_angle_gamma   90.00000000
_symmetry_Int_Tables_number   1
_chemical_formula_structural   Nd5Ti4FeO17
_chemical_formula_sum   'Nd20 Ti16 Fe4 O68'
_cell_volume   1360.78133034
_cell_formula_units_Z   4
loop_
 _symmetry_equiv_pos_site_id
 _symmetry_equiv_pos_as_xyz
  1  'x, y, z'
loop_
 _atom_site_type_symbol
 _atom_site_label
 _atom_site_symmetry_multiplicity
 _atom_site_fract_x
 _atom_site_fract_y
 _atom_site_fract_z
 _atom_site_occupancy
  Nd  Nd0  1  0.04200300  0.35540400  0.29924500  1
  Nd  Nd1  1  0.00126900  0.70047400  0.09658400  1
  Nd  Nd2  1  0.50126900  0.29952600  0.40341600  1
  Nd  Nd3  1  0.47904300  0.21192200  0.57898400  1
  Nd  Nd4  1  0.52095700  0.78807800  0.42101600  1
  Nd  Nd5  1  0.54200300  0.64459600  0.20075500  1
  Nd  Nd6  1  0.38653800  0.85738100  0.77844600  1
  Nd  Nd7  1  0.49873100  0.70047400  0.59658400  1
  Nd  Nd8  1  0.97904300  0.78807800  0.92101600  1
  Nd  Nd9  1  0.88653800  0.14261900  0.72155400  1
  Nd  Nd10  1  0.45799700  0.35540400  0.79924500  1
  Nd  Nd11  1  0.99006500  0.74458300  0.50861100  1
  Nd  Nd12  1  0.49006500  0.25541700  0.99138900  1
  Nd  Nd13  1  0.95799700  0.64459600  0.70075500  1
  Nd  Nd14  1  0.00993500  0.25541700  0.49138900  1
  Nd  Nd15  1  0.50993500  0.74458300  0.00861100  1
  Nd  Nd16  1  0.02095700  0.21192200  0.07898400  1
  Nd  Nd17  1  0.11346200  0.85738100  0.27844600  1
  Nd  Nd18  1  0.61346200  0.14261900  0.22155400  1
  Nd  Nd19  1  0.99873100  0.29952600  0.90341600  1
  Ti  Ti20  1  0.04164000  0.92392100  0.17616500  1
  Ti  Ti21  1  0.01428800  0.54688100  0.40545800  1
  Ti  Ti22  1  0.54164000  0.07607900  0.32383500  1
  Ti  Ti23  1  0.01689900  0.04504300  0.40657200  1
  Ti  Ti24  1  0.48310100  0.04504300  0.90657200  1
  Ti  Ti25  1  0.98571200  0.45311900  0.59454200  1
  Ti  Ti26  1  0.55249900  0.59260000  0.32110600  1
  Ti  Ti27  1  0.98310100  0.95495700  0.59342800  1
  Ti  Ti28  1  0.51689900  0.95495700  0.09342800  1
  Ti  Ti29  1  0.95836000  0.07607900  0.82383500  1
  Ti  Ti30  1  0.45836000  0.92392100  0.67616500  1
  Ti  Ti31  1  0.51428800  0.45311900  0.09454200  1
  Ti  Ti32  1  0.05249900  0.40740000  0.17889400  1
  Ti  Ti33  1  0.44750100  0.40740000  0.67889400  1
  Ti  Ti34  1  0.94750100  0.59260000  0.82110600  1
  Ti  Ti35  1  0.48571200  0.54688100  0.90545800  1
  Fe  Fe36  1  0.50000000  0.50000000  0.50000000  1
  Fe  Fe37  1  0.00000000  0.00000000  0.00000000  1
  Fe  Fe38  1  0.00000000  0.50000000  0.00000000  1
  Fe  Fe39  1  0.50000000  0.00000000  0.50000000  1
  O  O40  1  0.30044200  0.96619100  0.61948100  1
  O  O41  1  0.83946200  0.63207800  0.29643800  1
  O  O42  1  0.20644700  0.02956500  0.53654500  1
  O  O43  1  0.29329000  0.43487700  0.03618600  1
  O  O44  1  0.78521100  0.51480900  0.05303900  1
  O  O45  1  0.69648200  0.58457900  0.38119200  1
  O  O46  1  0.71274600  0.86987600  0.13804800  1
  O  O47  1  0.11310400  0.66307000  0.17061200  1
  O  O48  1  0.42586200  0.70894900  0.08242600  1
  O  O49  1  0.80351800  0.58457900  0.88119200  1
  O  O50  1  0.28725400  0.13012400  0.86195200  1
  O  O51  1  0.79355300  0.97043500  0.46345500  1
  O  O52  1  0.71507900  0.93193800  0.55260500  1
  O  O53  1  0.18790500  0.91900900  0.71116000  1
  O  O54  1  0.19955800  0.96619100  0.11948100  1
  O  O55  1  0.58806900  0.24799700  0.50369200  1
  O  O56  1  0.79329000  0.56512300  0.46381400  1
  O  O57  1  0.78492100  0.93193800  0.05260500  1
  O  O58  1  0.07413800  0.70894900  0.58242600  1
  O  O59  1  0.66053800  0.63207800  0.79643800  1
  O  O60  1  0.91682000  0.20426000  0.59174200  1
  O  O61  1  0.68790500  0.08099100  0.78884000  1
  O  O62  1  0.28492100  0.06806200  0.44739500  1
  O  O63  1  0.31209500  0.91900900  0.21116000  1
  O  O64  1  0.81209500  0.08099100  0.28884000  1
  O  O65  1  0.08318000  0.79574000  0.40825800  1
  O  O66  1  0.20823600  0.50633400  0.36088300  1
  O  O67  1  0.17455700  0.13418500  0.77948400  1
  O  O68  1  0.29355300  0.02956500  0.03654500  1
  O  O69  1  0.30351800  0.41542100  0.61880800  1
  O  O70  1  0.70644700  0.97043500  0.96345500  1
  O  O71  1  0.79176400  0.49366600  0.63911700  1
  O  O72  1  0.80044200  0.03380900  0.88051900  1
  O  O73  1  0.57413800  0.29105100  0.91757400  1
  O  O74  1  0.41193100  0.75200300  0.49630800  1
  O  O75  1  0.08806900  0.75200300  0.99630800  1
  O  O76  1  0.32544300  0.13418500  0.27948400  1
  O  O77  1  0.21274600  0.13012400  0.36195200  1
  O  O78  1  0.04917300  0.83511900  0.82853500  1
  O  O79  1  0.58318000  0.20426000  0.09174200  1
  O  O80  1  0.95082700  0.16488100  0.17146500  1
  O  O81  1  0.65525900  0.40751500  0.72609900  1
  O  O82  1  0.45082700  0.83511900  0.32853500  1
  O  O83  1  0.21478900  0.48519100  0.94696100  1
  O  O84  1  0.21507900  0.06806200  0.94739500  1
  O  O85  1  0.92586200  0.29105100  0.41757400  1
  O  O86  1  0.28521100  0.48519100  0.44696100  1
  O  O87  1  0.38689600  0.66307000  0.67061200  1
  O  O88  1  0.33946200  0.36792200  0.20356200  1
  O  O89  1  0.78725400  0.86987600  0.63804800  1
  O  O90  1  0.20671000  0.43487700  0.53618600  1
  O  O91  1  0.29176400  0.50633400  0.86088300  1
  O  O92  1  0.41682000  0.79574000  0.90825800  1
  O  O93  1  0.70671000  0.56512300  0.96381400  1
  O  O94  1  0.15525900  0.59248500  0.77390100  1
  O  O95  1  0.54917300  0.16488100  0.67146500  1
  O  O96  1  0.61310400  0.33693000  0.32938800  1
  O  O97  1  0.69955800  0.03380900  0.38051900  1
  O  O98  1  0.34474100  0.59248500  0.27390100  1
  O  O99  1  0.71478900  0.51480900  0.55303900  1
  O  O100  1  0.16053800  0.36792200  0.70356200  1
  O  O101  1  0.91193100  0.24799700  0.00369200  1
  O  O102  1  0.70823600  0.49366600  0.13911700  1
  O  O103  1  0.82544300  0.86581500  0.22051600  1
  O  O104  1  0.67455700  0.86581500  0.72051600  1
  O  O105  1  0.88689600  0.33693000  0.82938800  1
  O  O106  1  0.19648200  0.41542100  0.11880800  1
  O  O107  1  0.84474100  0.40751500  0.22609900  1
