# generated using pymatgen
data_Ho2(Ni5B3)3
_symmetry_space_group_name_H-M   'P 1'
_cell_length_a   9.81824413
_cell_length_b   9.81824413
_cell_length_c   11.23353900
_cell_angle_alpha   90.00000000
_cell_angle_beta   90.00000000
_cell_angle_gamma   107.66972106
_symmetry_Int_Tables_number   1
_chemical_formula_structural   Ho2(Ni5B3)3
_chemical_formula_sum   'Ho8 Ni60 B36'
_cell_volume   1031.80121775
_cell_formula_units_Z   4
loop_
 _symmetry_equiv_pos_site_id
 _symmetry_equiv_pos_as_xyz
  1  'x, y, z'
loop_
 _atom_site_type_symbol
 _atom_site_label
 _atom_site_symmetry_multiplicity
 _atom_site_fract_x
 _atom_site_fract_y
 _atom_site_fract_z
 _atom_site_occupancy
  Ho  Ho0  1  0.30752300  0.80752300  0.25000000  1
  Ho  Ho1  1  0.19247700  0.69247700  0.75000000  1
  Ho  Ho2  1  0.69247700  0.19247700  0.75000000  1
  Ho  Ho3  1  0.80752300  0.30752300  0.25000000  1
  Ho  Ho4  1  0.23909500  0.23909500  0.45905300  1
  Ho  Ho5  1  0.26090500  0.26090500  0.95905300  1
  Ho  Ho6  1  0.73909500  0.73909500  0.04094700  1
  Ho  Ho7  1  0.76090500  0.76090500  0.54094700  1
  Ni  Ni8  1  0.00000000  0.00000000  0.00000000  1
  Ni  Ni9  1  0.50000000  0.50000000  0.50000000  1
  Ni  Ni10  1  0.50789700  0.31539000  0.33968800  1
  Ni  Ni11  1  0.99210300  0.18461000  0.83968800  1
  Ni  Ni12  1  0.81539000  0.00789700  0.16031200  1
  Ni  Ni13  1  0.68461000  0.49210300  0.66031200  1
  Ni  Ni14  1  0.49210300  0.68461000  0.66031200  1
  Ni  Ni15  1  0.00789700  0.81539000  0.16031200  1
  Ni  Ni16  1  0.18461000  0.99210300  0.83968800  1
  Ni  Ni17  1  0.31539000  0.50789700  0.33968800  1
  Ni  Ni18  1  0.50000000  0.50000000  0.00000000  1
  Ni  Ni19  1  0.00000000  0.00000000  0.50000000  1
  Ni  Ni20  1  0.56827500  0.06827500  0.25000000  1
  Ni  Ni21  1  0.93172500  0.43172500  0.75000000  1
  Ni  Ni22  1  0.43172500  0.93172500  0.75000000  1
  Ni  Ni23  1  0.06827500  0.56827500  0.25000000  1
  Ni  Ni24  1  0.26484000  0.26484000  0.21170200  1
  Ni  Ni25  1  0.23516000  0.23516000  0.71170200  1
  Ni  Ni26  1  0.76484000  0.76484000  0.28829800  1
  Ni  Ni27  1  0.73516000  0.73516000  0.78829800  1
  Ni  Ni28  1  0.66242900  0.13543300  0.02984700  1
  Ni  Ni29  1  0.83757100  0.36456700  0.52984700  1
  Ni  Ni30  1  0.63543300  0.16242900  0.47015300  1
  Ni  Ni31  1  0.86456700  0.33757100  0.97015300  1
  Ni  Ni32  1  0.33757100  0.86456700  0.97015300  1
  Ni  Ni33  1  0.16242900  0.63543300  0.47015300  1
  Ni  Ni34  1  0.36456700  0.83757100  0.52984700  1
  Ni  Ni35  1  0.13543300  0.66242900  0.02984700  1
  Ni  Ni36  1  0.16742900  0.00973500  0.30671700  1
  Ni  Ni37  1  0.33257100  0.49026500  0.80671700  1
  Ni  Ni38  1  0.50973500  0.66742900  0.19328300  1
  Ni  Ni39  1  0.99026500  0.83257100  0.69328300  1
  Ni  Ni40  1  0.83257100  0.99026500  0.69328300  1
  Ni  Ni41  1  0.66742900  0.50973500  0.19328300  1
  Ni  Ni42  1  0.49026500  0.33257100  0.80671700  1
  Ni  Ni43  1  0.00973500  0.16742900  0.30671700  1
  Ni  Ni44  1  0.39232700  0.05245900  0.41446300  1
  Ni  Ni45  1  0.10767300  0.44754100  0.91446300  1
  Ni  Ni46  1  0.55245900  0.89232700  0.08553700  1
  Ni  Ni47  1  0.94754100  0.60767300  0.58553700  1
  Ni  Ni48  1  0.60767300  0.94754100  0.58553700  1
  Ni  Ni49  1  0.89232700  0.55245900  0.08553700  1
  Ni  Ni50  1  0.44754100  0.10767300  0.91446300  1
  Ni  Ni51  1  0.05245900  0.39232700  0.41446300  1
  Ni  Ni52  1  0.50436900  0.27173000  0.11749400  1
  Ni  Ni53  1  0.99563100  0.22827000  0.61749400  1
  Ni  Ni54  1  0.77173000  0.00436900  0.38250600  1
  Ni  Ni55  1  0.72827000  0.49563100  0.88250600  1
  Ni  Ni56  1  0.49563100  0.72827000  0.88250600  1
  Ni  Ni57  1  0.00436900  0.77173000  0.38250600  1
  Ni  Ni58  1  0.22827000  0.99563100  0.61749400  1
  Ni  Ni59  1  0.27173000  0.50436900  0.11749400  1
  Ni  Ni60  1  0.24221800  0.02873000  0.09744500  1
  Ni  Ni61  1  0.25778200  0.47127000  0.59744500  1
  Ni  Ni62  1  0.52873000  0.74221800  0.40255500  1
  Ni  Ni63  1  0.97127000  0.75778200  0.90255500  1
  Ni  Ni64  1  0.75778200  0.97127000  0.90255500  1
  Ni  Ni65  1  0.74221800  0.52873000  0.40255500  1
  Ni  Ni66  1  0.47127000  0.25778200  0.59744500  1
  Ni  Ni67  1  0.02873000  0.24221800  0.09744500  1
  B  B68  1  0.13484800  0.86515200  0.00000000  1
  B  B69  1  0.36515200  0.63484800  0.50000000  1
  B  B70  1  0.86515200  0.13484800  0.00000000  1
  B  B71  1  0.63484800  0.36515200  0.50000000  1
  B  B72  1  0.04387500  0.04387500  0.17251300  1
  B  B73  1  0.45612500  0.45612500  0.67251300  1
  B  B74  1  0.54387500  0.54387500  0.32748700  1
  B  B75  1  0.95612500  0.95612500  0.82748700  1
  B  B76  1  0.44143300  0.44143300  0.19890600  1
  B  B77  1  0.05856700  0.05856700  0.69890600  1
  B  B78  1  0.94143300  0.94143300  0.30109400  1
  B  B79  1  0.55856700  0.55856700  0.80109400  1
  B  B80  1  0.37828600  0.12024300  0.24372900  1
  B  B81  1  0.12171400  0.37975700  0.74372900  1
  B  B82  1  0.62024300  0.87828600  0.25627100  1
  B  B83  1  0.87975700  0.62171400  0.75627100  1
  B  B84  1  0.62171400  0.87975700  0.75627100  1
  B  B85  1  0.87828600  0.62024300  0.25627100  1
  B  B86  1  0.37975700  0.12171400  0.74372900  1
  B  B87  1  0.12024300  0.37828600  0.24372900  1
  B  B88  1  0.20252600  0.90565300  0.44902600  1
  B  B89  1  0.29747400  0.59434700  0.94902600  1
  B  B90  1  0.40565300  0.70252600  0.05097400  1
  B  B91  1  0.09434700  0.79747400  0.55097400  1
  B  B92  1  0.79747400  0.09434700  0.55097400  1
  B  B93  1  0.70252600  0.40565300  0.05097400  1
  B  B94  1  0.59434700  0.29747400  0.94902600  1
  B  B95  1  0.90565300  0.20252600  0.44902600  1
  B  B96  1  0.44984200  0.04922400  0.09956100  1
  B  B97  1  0.05015800  0.45077600  0.59956100  1
  B  B98  1  0.54922400  0.94984200  0.40043900  1
  B  B99  1  0.95077600  0.55015800  0.90043900  1
  B  B100  1  0.55015800  0.95077600  0.90043900  1
  B  B101  1  0.94984200  0.54922400  0.40043900  1
  B  B102  1  0.45077600  0.05015800  0.59956100  1
  B  B103  1  0.04922400  0.44984200  0.09956100  1
