# generated using pymatgen
data_FeS4N4Cl3
_symmetry_space_group_name_H-M   'P 1'
_cell_length_a   11.79893300
_cell_length_b   7.10244400
_cell_length_c   14.49995990
_cell_angle_alpha   84.68260944
_cell_angle_beta   90.00000000
_cell_angle_gamma   90.00000000
_symmetry_Int_Tables_number   1
_chemical_formula_structural   FeS4N4Cl3
_chemical_formula_sum   'Fe4 S16 N16 Cl12'
_cell_volume   1209.88581601
_cell_formula_units_Z   4
loop_
 _symmetry_equiv_pos_site_id
 _symmetry_equiv_pos_as_xyz
  1  'x, y, z'
loop_
 _atom_site_type_symbol
 _atom_site_label
 _atom_site_symmetry_multiplicity
 _atom_site_fract_x
 _atom_site_fract_y
 _atom_site_fract_z
 _atom_site_occupancy
  Fe  Fe0  1  0.40370700  0.23052400  0.23874100  1
  Fe  Fe1  1  0.09629300  0.23052400  0.73874100  1
  Fe  Fe2  1  0.59629300  0.76947600  0.76125900  1
  Fe  Fe3  1  0.90370700  0.76947600  0.26125900  1
  S  S4  1  0.64629200  0.73362700  0.17580400  1
  S  S5  1  0.38144000  0.20834100  0.53738700  1
  S  S6  1  0.14629200  0.26637300  0.32419600  1
  S  S7  1  0.19205100  0.50061700  0.89073500  1
  S  S8  1  0.29898300  0.96219700  0.97160000  1
  S  S9  1  0.70101700  0.03780300  0.02840000  1
  S  S10  1  0.79898300  0.03780300  0.52840000  1
  S  S11  1  0.88144000  0.79165900  0.96261300  1
  S  S12  1  0.11856000  0.20834100  0.03738700  1
  S  S13  1  0.69205100  0.49938300  0.60926500  1
  S  S14  1  0.20101700  0.96219700  0.47160000  1
  S  S15  1  0.35370800  0.26637300  0.82419600  1
  S  S16  1  0.30794900  0.50061700  0.39073500  1
  S  S17  1  0.85370800  0.73362700  0.67580400  1
  S  S18  1  0.80794900  0.49938300  0.10926500  1
  S  S19  1  0.61856000  0.79165900  0.46261300  1
  N  N20  1  0.86021000  0.59150600  0.01443100  1
  N  N21  1  0.86814900  0.91429800  0.60329500  1
  N  N22  1  0.82545100  0.97329800  0.00106000  1
  N  N23  1  0.63185100  0.91429800  0.10329500  1
  N  N24  1  0.36814900  0.08570200  0.89670500  1
  N  N25  1  0.71771800  0.66423100  0.68193400  1
  N  N26  1  0.17454900  0.02670200  0.99894000  1
  N  N27  1  0.32545100  0.02670200  0.49894000  1
  N  N28  1  0.67454900  0.97329800  0.50106000  1
  N  N29  1  0.13185100  0.08570200  0.39670500  1
  N  N30  1  0.36021000  0.40849400  0.48556900  1
  N  N31  1  0.78228200  0.66423100  0.18193400  1
  N  N32  1  0.21771800  0.33576900  0.81806600  1
  N  N33  1  0.13979000  0.40849400  0.98556900  1
  N  N34  1  0.63979000  0.59150600  0.51443100  1
  N  N35  1  0.28228200  0.33576900  0.31806600  1
  Cl  Cl36  1  0.59905800  0.62132500  0.90057900  1
  Cl  Cl37  1  0.09905800  0.37867500  0.59942100  1
  Cl  Cl38  1  0.86265800  0.06983900  0.26409900  1
  Cl  Cl39  1  0.90094200  0.62132500  0.40057900  1
  Cl  Cl40  1  0.40094200  0.37867500  0.09942100  1
  Cl  Cl41  1  0.43649900  0.71731300  0.69171200  1
  Cl  Cl42  1  0.93649900  0.28268700  0.80828800  1
  Cl  Cl43  1  0.13734200  0.93016100  0.73590100  1
  Cl  Cl44  1  0.63734200  0.06983900  0.76409900  1
  Cl  Cl45  1  0.56350100  0.28268700  0.30828800  1
  Cl  Cl46  1  0.36265800  0.93016100  0.23590100  1
  Cl  Cl47  1  0.06350100  0.71731300  0.19171200  1
