# generated using pymatgen
data_Sm7V(Se2O)4
_symmetry_space_group_name_H-M   'P 1'
_cell_length_a   3.99021800
_cell_length_b   14.33389100
_cell_length_c   15.74942700
_cell_angle_alpha   90.00000000
_cell_angle_beta   90.00000000
_cell_angle_gamma   90.00000000
_symmetry_Int_Tables_number   1
_chemical_formula_structural   Sm7V(Se2O)4
_chemical_formula_sum   'Sm14 V2 Se16 O8'
_cell_volume   900.79398765
_cell_formula_units_Z   2
loop_
 _symmetry_equiv_pos_site_id
 _symmetry_equiv_pos_as_xyz
  1  'x, y, z'
loop_
 _atom_site_type_symbol
 _atom_site_label
 _atom_site_symmetry_multiplicity
 _atom_site_fract_x
 _atom_site_fract_y
 _atom_site_fract_z
 _atom_site_occupancy
  Sm  Sm0  1  0.50000000  0.50748900  0.31031300  1
  Sm  Sm1  1  0.50000000  0.49251100  0.68968700  1
  Sm  Sm2  1  0.50000000  0.00748900  0.18968700  1
  Sm  Sm3  1  0.50000000  0.99251100  0.81031300  1
  Sm  Sm4  1  0.50000000  0.71959700  0.16465700  1
  Sm  Sm5  1  0.50000000  0.28040300  0.83534300  1
  Sm  Sm6  1  0.50000000  0.21959700  0.33534300  1
  Sm  Sm7  1  0.50000000  0.78040300  0.66465700  1
  Sm  Sm8  1  0.00000000  0.70954000  0.38111800  1
  Sm  Sm9  1  0.00000000  0.29046000  0.61888200  1
  Sm  Sm10  1  0.00000000  0.20954000  0.11888200  1
  Sm  Sm11  1  0.00000000  0.79046000  0.88111800  1
  Sm  Sm12  1  0.00000000  0.50000000  0.00000000  1
  Sm  Sm13  1  0.00000000  0.00000000  0.50000000  1
  V  V14  1  0.00000000  0.50000000  0.50000000  1
  V  V15  1  0.00000000  0.00000000  0.00000000  1
  Se  Se16  1  0.50000000  0.85453100  0.47134200  1
  Se  Se17  1  0.50000000  0.14546900  0.52865800  1
  Se  Se18  1  0.50000000  0.35453100  0.02865800  1
  Se  Se19  1  0.50000000  0.64546900  0.97134200  1
  Se  Se20  1  0.50000000  0.88020400  0.03285400  1
  Se  Se21  1  0.50000000  0.11979600  0.96714600  1
  Se  Se22  1  0.50000000  0.38020400  0.46714600  1
  Se  Se23  1  0.50000000  0.61979600  0.53285400  1
  Se  Se24  1  0.00000000  0.56986300  0.17160100  1
  Se  Se25  1  0.00000000  0.43013700  0.82839900  1
  Se  Se26  1  0.00000000  0.06986300  0.32839900  1
  Se  Se27  1  0.00000000  0.93013700  0.67160100  1
  Se  Se28  1  0.00000000  0.84411900  0.23554100  1
  Se  Se29  1  0.00000000  0.15588100  0.76445900  1
  Se  Se30  1  0.00000000  0.34411900  0.26445900  1
  Se  Se31  1  0.00000000  0.65588100  0.73554100  1
  O  O32  1  0.50000000  0.67281600  0.31169700  1
  O  O33  1  0.50000000  0.32718400  0.68830300  1
  O  O34  1  0.50000000  0.17281600  0.18830300  1
  O  O35  1  0.50000000  0.82718400  0.81169700  1
  O  O36  1  0.00000000  0.54567100  0.38038900  1
  O  O37  1  0.00000000  0.45432900  0.61961100  1
  O  O38  1  0.00000000  0.04567100  0.11961100  1
  O  O39  1  0.00000000  0.95432900  0.88038900  1
