# generated using pymatgen
data_K4Ru(NO2)6
_symmetry_space_group_name_H-M   'P 1'
_cell_length_a   8.70904473
_cell_length_b   8.70904473
_cell_length_c   8.70904471
_cell_angle_alpha   51.73121398
_cell_angle_beta   51.73121398
_cell_angle_gamma   51.73121499
_symmetry_Int_Tables_number   1
_chemical_formula_structural   K4Ru(NO2)6
_chemical_formula_sum   'K4 Ru1 N6 O12'
_cell_volume   376.21319293
_cell_formula_units_Z   1
loop_
 _symmetry_equiv_pos_site_id
 _symmetry_equiv_pos_as_xyz
  1  'x, y, z'
loop_
 _atom_site_type_symbol
 _atom_site_label
 _atom_site_symmetry_multiplicity
 _atom_site_fract_x
 _atom_site_fract_y
 _atom_site_fract_z
 _atom_site_occupancy
  K  K0  1  0.62097100  0.62097100  0.62097100  1
  K  K1  1  0.37902900  0.37902900  0.37902900  1
  K  K2  1  0.19252000  0.19252000  0.19252000  1
  K  K3  1  0.80748000  0.80748000  0.80748000  1
  Ru  Ru4  1  0.00000000  0.00000000  0.00000000  1
  N  N5  1  0.30759600  0.92739400  0.92803300  1
  N  N6  1  0.92803300  0.30759600  0.92739400  1
  N  N7  1  0.07260600  0.07196700  0.69240400  1
  N  N8  1  0.92739400  0.92803300  0.30759600  1
  N  N9  1  0.07196700  0.69240400  0.07260600  1
  N  N10  1  0.69240400  0.07260600  0.07196700  1
  O  O11  1  0.85796100  0.06812500  0.36717600  1
  O  O12  1  0.06812500  0.36717600  0.85796100  1
  O  O13  1  0.63282400  0.14203900  0.93187500  1
  O  O14  1  0.04330100  0.26055300  0.55761900  1
  O  O15  1  0.73944700  0.44238100  0.95669900  1
  O  O16  1  0.14203900  0.93187500  0.63282400  1
  O  O17  1  0.95669900  0.73944700  0.44238100  1
  O  O18  1  0.44238100  0.95669900  0.73944700  1
  O  O19  1  0.36717600  0.85796100  0.06812500  1
  O  O20  1  0.55761900  0.04330100  0.26055300  1
  O  O21  1  0.26055300  0.55761900  0.04330100  1
  O  O22  1  0.93187500  0.63282400  0.14203900  1
