# generated using pymatgen
data_Ca3Mn2(Si2O7)2
_symmetry_space_group_name_H-M   'P 1'
_cell_length_a   9.41907053
_cell_length_b   9.41907053
_cell_length_c   10.17611826
_cell_angle_alpha   60.00865677
_cell_angle_beta   60.00865677
_cell_angle_gamma   48.51824308
_symmetry_Int_Tables_number   1
_chemical_formula_structural   Ca3Mn2(Si2O7)2
_chemical_formula_sum   'Ca6 Mn4 Si8 O28'
_cell_volume   565.63277003
_cell_formula_units_Z   2
loop_
 _symmetry_equiv_pos_site_id
 _symmetry_equiv_pos_as_xyz
  1  'x, y, z'
loop_
 _atom_site_type_symbol
 _atom_site_label
 _atom_site_symmetry_multiplicity
 _atom_site_fract_x
 _atom_site_fract_y
 _atom_site_fract_z
 _atom_site_occupancy
  Ca  Ca0  1  0.23085900  0.16139800  0.54185900  1
  Ca  Ca1  1  0.83860200  0.76914100  0.95814100  1
  Ca  Ca2  1  0.16139800  0.23085900  0.04185900  1
  Ca  Ca3  1  0.65441500  0.34558500  0.25000000  1
  Ca  Ca4  1  0.76914100  0.83860200  0.45814100  1
  Ca  Ca5  1  0.34558500  0.65441500  0.75000000  1
  Mn  Mn6  1  0.21417700  0.78582300  0.25000000  1
  Mn  Mn7  1  0.78582300  0.21417700  0.75000000  1
  Mn  Mn8  1  0.00000000  0.00000000  0.00000000  1
  Mn  Mn9  1  0.00000000  0.00000000  0.50000000  1
  Si  Si10  1  0.11086600  0.53410000  0.65882400  1
  Si  Si11  1  0.53410000  0.11086600  0.15882400  1
  Si  Si12  1  0.21415900  0.53289800  0.14586900  1
  Si  Si13  1  0.53289800  0.21415900  0.64586900  1
  Si  Si14  1  0.46590000  0.88913400  0.84117600  1
  Si  Si15  1  0.78584100  0.46710200  0.85413100  1
  Si  Si16  1  0.46710200  0.78584100  0.35413100  1
  Si  Si17  1  0.88913400  0.46590000  0.34117600  1
  O  O18  1  0.29635800  0.87570400  0.50370500  1
  O  O19  1  0.89518300  0.97203900  0.71869100  1
  O  O20  1  0.64894200  0.45740700  0.81028600  1
  O  O21  1  0.97203900  0.89518300  0.21869100  1
  O  O22  1  0.94279800  0.26444400  0.48176800  1
  O  O23  1  0.50847100  0.05014000  0.81454600  1
  O  O24  1  0.45740700  0.64894200  0.31028600  1
  O  O25  1  0.73555600  0.05720200  0.01823200  1
  O  O26  1  0.49152900  0.94986000  0.18545400  1
  O  O27  1  0.67528500  0.65667900  0.40619600  1
  O  O28  1  0.10481700  0.02796100  0.28130900  1
  O  O29  1  0.05720200  0.73555600  0.51823200  1
  O  O30  1  0.94986000  0.49152900  0.68545400  1
  O  O31  1  0.87570400  0.29635800  0.00370500  1
  O  O32  1  0.65667900  0.67528500  0.90619600  1
  O  O33  1  0.26444400  0.94279800  0.98176800  1
  O  O34  1  0.47110500  0.89424500  0.67793500  1
  O  O35  1  0.32471500  0.34332100  0.59380400  1
  O  O36  1  0.10575500  0.52889500  0.82206500  1
  O  O37  1  0.34332100  0.32471500  0.09380400  1
  O  O38  1  0.05014000  0.50847100  0.31454600  1
  O  O39  1  0.02796100  0.10481700  0.78130900  1
  O  O40  1  0.89424500  0.47110500  0.17793500  1
  O  O41  1  0.35105800  0.54259300  0.18971400  1
  O  O42  1  0.52889500  0.10575500  0.32206500  1
  O  O43  1  0.54259300  0.35105800  0.68971400  1
  O  O44  1  0.12429600  0.70364200  0.99629500  1
  O  O45  1  0.70364200  0.12429600  0.49629500  1
