# generated using pymatgen
data_Bi14Te13S8
_symmetry_space_group_name_H-M   'P 1'
_cell_length_a   12.39169835
_cell_length_b   12.39169835
_cell_length_c   12.39169804
_cell_angle_alpha   54.33466598
_cell_angle_beta   54.33466598
_cell_angle_gamma   54.33466699
_symmetry_Int_Tables_number   1
_chemical_formula_structural   Bi14Te13S8
_chemical_formula_sum   'Bi14 Te13 S8'
_cell_volume   1167.65869711
_cell_formula_units_Z   1
loop_
 _symmetry_equiv_pos_site_id
 _symmetry_equiv_pos_as_xyz
  1  'x, y, z'
loop_
 _atom_site_type_symbol
 _atom_site_label
 _atom_site_symmetry_multiplicity
 _atom_site_fract_x
 _atom_site_fract_y
 _atom_site_fract_z
 _atom_site_occupancy
  Bi  Bi0  1  0.39092700  0.39092700  0.39092700  1
  Bi  Bi1  1  0.11218500  0.25543100  0.81103100  1
  Bi  Bi2  1  0.60907300  0.60907300  0.60907300  1
  Bi  Bi3  1  0.53537700  0.95103900  0.67931600  1
  Bi  Bi4  1  0.04896100  0.32068400  0.46462300  1
  Bi  Bi5  1  0.25543100  0.81103100  0.11218500  1
  Bi  Bi6  1  0.88781500  0.74456900  0.18896900  1
  Bi  Bi7  1  0.46462300  0.04896100  0.32068400  1
  Bi  Bi8  1  0.95103900  0.67931600  0.53537700  1
  Bi  Bi9  1  0.74456900  0.18896900  0.88781500  1
  Bi  Bi10  1  0.32068400  0.46462300  0.04896100  1
  Bi  Bi11  1  0.81103100  0.11218500  0.25543100  1
  Bi  Bi12  1  0.67931600  0.53537700  0.95103900  1
  Bi  Bi13  1  0.18896900  0.88781500  0.74456900  1
  Te  Te14  1  0.48992200  0.37121200  0.79324700  1
  Te  Te15  1  0.06176300  0.92500600  0.35508500  1
  Te  Te16  1  0.64491500  0.93823700  0.07499400  1
  Te  Te17  1  0.20675300  0.51007800  0.62878800  1
  Te  Te18  1  0.37121200  0.79324700  0.48992200  1
  Te  Te19  1  0.62878800  0.20675300  0.51007800  1
  Te  Te20  1  0.00000000  0.00000000  0.00000000  1
  Te  Te21  1  0.07499400  0.64491500  0.93823700  1
  Te  Te22  1  0.79324700  0.48992200  0.37121200  1
  Te  Te23  1  0.93823700  0.07499400  0.64491500  1
  Te  Te24  1  0.92500600  0.35508500  0.06176300  1
  Te  Te25  1  0.51007800  0.62878800  0.20675300  1
  Te  Te26  1  0.35508500  0.06176300  0.92500600  1
  S  S27  1  0.57199900  0.29195900  0.13828700  1
  S  S28  1  0.76565000  0.76565000  0.76565000  1
  S  S29  1  0.13828700  0.57199900  0.29195900  1
  S  S30  1  0.42800100  0.70804100  0.86171300  1
  S  S31  1  0.86171300  0.42800100  0.70804100  1
  S  S32  1  0.29195900  0.13828700  0.57199900  1
  S  S33  1  0.70804100  0.86171300  0.42800100  1
  S  S34  1  0.23435000  0.23435000  0.23435000  1
