# generated using pymatgen
data_MnAsO4
_symmetry_space_group_name_H-M   'P 1'
_cell_length_a   4.91252853
_cell_length_b   6.87832075
_cell_length_c   9.09682500
_cell_angle_alpha   90.00000000
_cell_angle_beta   90.00000000
_cell_angle_gamma   94.45223851
_symmetry_Int_Tables_number   1
_chemical_formula_structural   MnAsO4
_chemical_formula_sum   'Mn4 As4 O16'
_cell_volume   306.45367751
_cell_formula_units_Z   4
loop_
 _symmetry_equiv_pos_site_id
 _symmetry_equiv_pos_as_xyz
  1  'x, y, z'
loop_
 _atom_site_type_symbol
 _atom_site_label
 _atom_site_symmetry_multiplicity
 _atom_site_fract_x
 _atom_site_fract_y
 _atom_site_fract_z
 _atom_site_occupancy
  Mn  Mn0  1  0.50000000  0.50000000  0.50000000  1
  Mn  Mn1  1  0.00000000  0.00000000  0.00000000  1
  Mn  Mn2  1  0.00000000  0.50000000  0.00000000  1
  Mn  Mn3  1  0.50000000  0.00000000  0.50000000  1
  As  As4  1  0.96264200  0.78321200  0.32082000  1
  As  As5  1  0.46264200  0.28321200  0.17918000  1
  As  As6  1  0.03735800  0.21678800  0.67918000  1
  As  As7  1  0.53735800  0.71678800  0.82082000  1
  O  O8  1  0.30833900  0.06421900  0.12243800  1
  O  O9  1  0.68684600  0.51223200  0.87579000  1
  O  O10  1  0.19166100  0.43578100  0.62243800  1
  O  O11  1  0.70274000  0.21222600  0.62030700  1
  O  O12  1  0.79726000  0.28777400  0.12030700  1
  O  O13  1  0.58172600  0.72758800  0.62992400  1
  O  O14  1  0.08172600  0.22758800  0.87007600  1
  O  O15  1  0.91827400  0.77241200  0.12992400  1
  O  O16  1  0.69166100  0.93578100  0.87756200  1
  O  O17  1  0.18684600  0.01223200  0.62421000  1
  O  O18  1  0.80833900  0.56421900  0.37756200  1
  O  O19  1  0.20274000  0.71222600  0.87969300  1
  O  O20  1  0.81315400  0.98776800  0.37579000  1
  O  O21  1  0.29726000  0.78777400  0.37969300  1
  O  O22  1  0.41827400  0.27241200  0.37007600  1
  O  O23  1  0.31315400  0.48776800  0.12421000  1
