# generated using pymatgen
data_ScH3(CO2)3
_symmetry_space_group_name_H-M   'P 1'
_cell_length_a   6.77083000
_cell_length_b   9.19388200
_cell_length_c   10.54948067
_cell_angle_alpha   81.76662614
_cell_angle_beta   90.00000000
_cell_angle_gamma   90.00000000
_symmetry_Int_Tables_number   1
_chemical_formula_structural   ScH3(CO2)3
_chemical_formula_sum   'Sc4 H12 C12 O24'
_cell_volume   649.93871484
_cell_formula_units_Z   4
loop_
 _symmetry_equiv_pos_site_id
 _symmetry_equiv_pos_as_xyz
  1  'x, y, z'
loop_
 _atom_site_type_symbol
 _atom_site_label
 _atom_site_symmetry_multiplicity
 _atom_site_fract_x
 _atom_site_fract_y
 _atom_site_fract_z
 _atom_site_occupancy
  Sc  Sc0  1  0.50000000  0.50000000  0.00000000  1
  Sc  Sc1  1  0.00000000  0.00000000  0.00000000  1
  Sc  Sc2  1  0.50000000  0.00000000  0.50000000  1
  Sc  Sc3  1  0.00000000  0.50000000  0.50000000  1
  H  H4  1  0.34540700  0.79384300  0.26188600  1
  H  H5  1  0.03723400  0.36876000  0.87203200  1
  H  H6  1  0.53723400  0.13124000  0.12796800  1
  H  H7  1  0.29639600  0.70775600  0.67621300  1
  H  H8  1  0.20360400  0.20775600  0.67621300  1
  H  H9  1  0.70360400  0.29224400  0.32378700  1
  H  H10  1  0.84540700  0.70615700  0.73811400  1
  H  H11  1  0.79639600  0.79224400  0.32378700  1
  H  H12  1  0.15459300  0.29384300  0.26188600  1
  H  H13  1  0.96276600  0.63124000  0.12796800  1
  H  H14  1  0.65459300  0.20615700  0.73811400  1
  H  H15  1  0.46276600  0.86876000  0.87203200  1
  C  C16  1  0.40598100  0.15571100  0.06649900  1
  C  C17  1  0.19978000  0.08893600  0.71290800  1
  C  C18  1  0.09401900  0.65571100  0.06649900  1
  C  C19  1  0.90598100  0.34428900  0.93350100  1
  C  C20  1  0.80022000  0.91106400  0.28709200  1
  C  C21  1  0.59401900  0.84428900  0.93350100  1
  C  C22  1  0.30022000  0.58893600  0.71290800  1
  C  C23  1  0.29161600  0.75183500  0.35946200  1
  C  C24  1  0.70838400  0.24816500  0.64053800  1
  C  C25  1  0.79161600  0.74816500  0.64053800  1
  C  C26  1  0.69978000  0.41106400  0.28709200  1
  C  C27  1  0.20838400  0.25183500  0.35946200  1
  O  O28  1  0.19986700  0.50258500  0.65426400  1
  O  O29  1  0.32109600  0.14103400  0.37103900  1
  O  O30  1  0.82109600  0.35896600  0.62896100  1
  O  O31  1  0.84561300  0.68217400  0.54867700  1
  O  O32  1  0.78191600  0.44761800  0.93515200  1
  O  O33  1  0.30013300  0.00258500  0.65426400  1
  O  O34  1  0.34561300  0.81782600  0.45132300  1
  O  O35  1  0.21808400  0.55238200  0.06484800  1
  O  O36  1  0.69986700  0.99741500  0.34573600  1
  O  O37  1  0.28191600  0.05238200  0.06484800  1
  O  O38  1  0.80013300  0.49741500  0.34573600  1
  O  O39  1  0.15438700  0.31782600  0.45132300  1
  O  O40  1  0.38854900  0.28268900  0.00273500  1
  O  O41  1  0.61145100  0.71731100  0.99726500  1
  O  O42  1  0.59421300  0.45314900  0.19000600  1
  O  O43  1  0.09421300  0.04685100  0.80999400  1
  O  O44  1  0.88854900  0.21731100  0.99726500  1
  O  O45  1  0.11145100  0.78268900  0.00273500  1
  O  O46  1  0.17890400  0.64103400  0.37103900  1
  O  O47  1  0.67890400  0.85896600  0.62896100  1
  O  O48  1  0.40578700  0.54685100  0.80999400  1
  O  O49  1  0.71808400  0.94761800  0.93515200  1
  O  O50  1  0.65438700  0.18217400  0.54867700  1
  O  O51  1  0.90578700  0.95314900  0.19000600  1
