# generated using pymatgen
data_PCl2OF
_symmetry_space_group_name_H-M   'P 1'
_cell_length_a   5.76086500
_cell_length_b   9.77851000
_cell_length_c   10.03144780
_cell_angle_alpha   63.94021369
_cell_angle_beta   90.00000000
_cell_angle_gamma   90.00000000
_symmetry_Int_Tables_number   1
_chemical_formula_structural   PCl2OF
_chemical_formula_sum   'P4 Cl8 O4 F4'
_cell_volume   507.64821913
_cell_formula_units_Z   4
loop_
 _symmetry_equiv_pos_site_id
 _symmetry_equiv_pos_as_xyz
  1  'x, y, z'
loop_
 _atom_site_type_symbol
 _atom_site_label
 _atom_site_symmetry_multiplicity
 _atom_site_fract_x
 _atom_site_fract_y
 _atom_site_fract_z
 _atom_site_occupancy
  P  P0  1  0.36855900  0.45056300  0.22568000  1
  P  P1  1  0.63144100  0.54943700  0.77432000  1
  P  P2  1  0.13144100  0.95056300  0.22568000  1
  P  P3  1  0.86855900  0.04943700  0.77432000  1
  Cl  Cl4  1  0.58666100  0.61876400  0.19708900  1
  Cl  Cl5  1  0.70287800  0.09817500  0.58361300  1
  Cl  Cl6  1  0.91333900  0.11876400  0.19708900  1
  Cl  Cl7  1  0.41333900  0.38123600  0.80291100  1
  Cl  Cl8  1  0.08666100  0.88123600  0.80291100  1
  Cl  Cl9  1  0.20287800  0.40182500  0.41638700  1
  Cl  Cl10  1  0.29712200  0.90182500  0.41638700  1
  Cl  Cl11  1  0.79712200  0.59817500  0.58361300  1
  O  O12  1  0.02862700  0.81922500  0.21380100  1
  O  O13  1  0.52862700  0.68077500  0.78619900  1
  O  O14  1  0.47137300  0.31922500  0.21380100  1
  O  O15  1  0.97137300  0.18077500  0.78619900  1
  F  F16  1  0.17413600  0.53346000  0.10837900  1
  F  F17  1  0.67413600  0.96654000  0.89162100  1
  F  F18  1  0.82586400  0.46654000  0.89162100  1
  F  F19  1  0.32586400  0.03346000  0.10837900  1
