# generated using pymatgen
data_Ag2INO3
_symmetry_space_group_name_H-M   'P 1'
_cell_length_a   7.34794700
_cell_length_b   7.93799600
_cell_length_c   17.57969300
_cell_angle_alpha   90.00000000
_cell_angle_beta   90.00000000
_cell_angle_gamma   90.00000000
_symmetry_Int_Tables_number   1
_chemical_formula_structural   Ag2INO3
_chemical_formula_sum   'Ag16 I8 N8 O24'
_cell_volume   1025.38787437
_cell_formula_units_Z   8
loop_
 _symmetry_equiv_pos_site_id
 _symmetry_equiv_pos_as_xyz
  1  'x, y, z'
loop_
 _atom_site_type_symbol
 _atom_site_label
 _atom_site_symmetry_multiplicity
 _atom_site_fract_x
 _atom_site_fract_y
 _atom_site_fract_z
 _atom_site_occupancy
  Ag  Ag0  1  0.83300100  0.01421100  0.69386500  1
  Ag  Ag1  1  0.16699900  0.51421100  0.80613500  1
  Ag  Ag2  1  0.74711400  0.52817600  0.05867800  1
  Ag  Ag3  1  0.25288600  0.02817600  0.44132200  1
  Ag  Ag4  1  0.24711400  0.97182400  0.94132200  1
  Ag  Ag5  1  0.21523800  0.96984700  0.68526000  1
  Ag  Ag6  1  0.78476200  0.46984700  0.81474000  1
  Ag  Ag7  1  0.66699900  0.98578900  0.19386500  1
  Ag  Ag8  1  0.83281800  0.96884900  0.94175500  1
  Ag  Ag9  1  0.66718200  0.03115100  0.44175500  1
  Ag  Ag10  1  0.75288600  0.47182400  0.55867800  1
  Ag  Ag11  1  0.28476200  0.03015300  0.18526000  1
  Ag  Ag12  1  0.16718200  0.46884900  0.55824500  1
  Ag  Ag13  1  0.33300100  0.48578900  0.30613500  1
  Ag  Ag14  1  0.71523800  0.53015300  0.31474000  1
  Ag  Ag15  1  0.33281800  0.53115100  0.05824500  1
  I  I16  1  0.54611400  0.85232900  0.04887300  1
  I  I17  1  0.02658600  0.15759000  0.82092000  1
  I  I18  1  0.04611400  0.64767100  0.95112700  1
  I  I19  1  0.95388600  0.14767100  0.54887300  1
  I  I20  1  0.47341400  0.84241000  0.32092000  1
  I  I21  1  0.52658600  0.34241000  0.17908000  1
  I  I22  1  0.97341400  0.65759000  0.67908000  1
  I  I23  1  0.45388600  0.35232900  0.45112700  1
  N  N24  1  0.00052700  0.71108100  0.42957000  1
  N  N25  1  0.97562900  0.14696100  0.29482300  1
  N  N26  1  0.02437100  0.64696100  0.20517700  1
  N  N27  1  0.50052700  0.78891900  0.57043000  1
  N  N28  1  0.49947300  0.28891900  0.92957000  1
  N  N29  1  0.52437100  0.85303900  0.79482300  1
  N  N30  1  0.47562900  0.35303900  0.70517700  1
  N  N31  1  0.99947300  0.21108100  0.07043000  1
  O  O32  1  0.91652700  0.57036200  0.42870200  1
  O  O33  1  0.08347300  0.07036200  0.07129800  1
  O  O34  1  0.95343500  0.83044500  0.38692100  1
  O  O35  1  0.54656500  0.16955500  0.88692100  1
  O  O36  1  0.36452000  0.27023800  0.97496800  1
  O  O37  1  0.86857700  0.68511500  0.17976800  1
  O  O38  1  0.41652700  0.92963800  0.57129800  1
  O  O39  1  0.16864900  0.69579900  0.17349600  1
  O  O40  1  0.33135100  0.30420100  0.67349600  1
  O  O41  1  0.53304000  0.94573500  0.73450900  1
  O  O42  1  0.63548000  0.77023800  0.52503200  1
  O  O43  1  0.86452000  0.22976200  0.02503200  1
  O  O44  1  0.83135100  0.19579900  0.32650400  1
  O  O45  1  0.13142300  0.18511500  0.32023200  1
  O  O46  1  0.63142300  0.31488500  0.67976800  1
  O  O47  1  0.03304000  0.55426500  0.26549100  1
  O  O48  1  0.13548000  0.72976200  0.47496800  1
  O  O49  1  0.04656500  0.33044500  0.11307900  1
  O  O50  1  0.36857700  0.81488500  0.82023200  1
  O  O51  1  0.46696000  0.44573500  0.76549100  1
  O  O52  1  0.66864900  0.80420100  0.82650400  1
  O  O53  1  0.45343500  0.66955500  0.61307900  1
  O  O54  1  0.58347300  0.42963800  0.92870200  1
  O  O55  1  0.96696000  0.05426500  0.23450900  1
