# generated using pymatgen
data_K3Na(MoO4)2
_symmetry_space_group_name_H-M   'P 1'
_cell_length_a   6.15585675
_cell_length_b   6.15585675
_cell_length_c   15.51974102
_cell_angle_alpha   89.94647205
_cell_angle_beta   89.94647205
_cell_angle_gamma   59.90303109
_symmetry_Int_Tables_number   1
_chemical_formula_structural   K3Na(MoO4)2
_chemical_formula_sum   'K6 Na2 Mo4 O16'
_cell_volume   508.82292449
_cell_formula_units_Z   2
loop_
 _symmetry_equiv_pos_site_id
 _symmetry_equiv_pos_as_xyz
  1  'x, y, z'
loop_
 _atom_site_type_symbol
 _atom_site_label
 _atom_site_symmetry_multiplicity
 _atom_site_fract_x
 _atom_site_fract_y
 _atom_site_fract_z
 _atom_site_occupancy
  K  K0  1  0.69143300  0.65001600  0.08461700  1
  K  K1  1  0.30856700  0.34998400  0.91538300  1
  K  K2  1  0.05543800  0.94456200  0.25000000  1
  K  K3  1  0.94456200  0.05543800  0.75000000  1
  K  K4  1  0.34998400  0.30856700  0.41538300  1
  K  K5  1  0.65001600  0.69143300  0.58461700  1
  Na  Na6  1  0.00000000  0.00000000  0.00000000  1
  Na  Na7  1  0.00000000  0.00000000  0.50000000  1
  Mo  Mo8  1  0.64252900  0.68246000  0.86099800  1
  Mo  Mo9  1  0.35747100  0.31754000  0.13900200  1
  Mo  Mo10  1  0.31754000  0.35747100  0.63900200  1
  Mo  Mo11  1  0.68246000  0.64252900  0.36099800  1
  O  O12  1  0.37948900  0.27731300  0.75053600  1
  O  O13  1  0.22357800  0.14414600  0.09106400  1
  O  O14  1  0.69141300  0.15080700  0.12039700  1
  O  O15  1  0.38682800  0.77606500  0.41774200  1
  O  O16  1  0.77642200  0.85585400  0.90893600  1
  O  O17  1  0.84919300  0.30858700  0.37960300  1
  O  O18  1  0.85585400  0.77642200  0.40893600  1
  O  O19  1  0.15080700  0.69141300  0.62039700  1
  O  O20  1  0.61317200  0.22393500  0.58225800  1
  O  O21  1  0.62051100  0.72268700  0.24946400  1
  O  O22  1  0.30858700  0.84919300  0.87960300  1
  O  O23  1  0.22393500  0.61317200  0.08225800  1
  O  O24  1  0.72268700  0.62051100  0.74946400  1
  O  O25  1  0.27731300  0.37948900  0.25053600  1
  O  O26  1  0.77606500  0.38682800  0.91774200  1
  O  O27  1  0.14414600  0.22357800  0.59106400  1
