# generated using pymatgen
data_V2ZnPbO7
_symmetry_space_group_name_H-M   'P 1'
_cell_length_a   15.07180000
_cell_length_b   7.02697500
_cell_length_c   11.56438101
_cell_angle_alpha   80.33353614
_cell_angle_beta   90.00000000
_cell_angle_gamma   90.00000000
_symmetry_Int_Tables_number   1
_chemical_formula_structural   V2ZnPbO7
_chemical_formula_sum   'V16 Zn8 Pb8 O56'
_cell_volume   1207.38446141
_cell_formula_units_Z   8
loop_
 _symmetry_equiv_pos_site_id
 _symmetry_equiv_pos_as_xyz
  1  'x, y, z'
loop_
 _atom_site_type_symbol
 _atom_site_label
 _atom_site_symmetry_multiplicity
 _atom_site_fract_x
 _atom_site_fract_y
 _atom_site_fract_z
 _atom_site_occupancy
  V  V0  1  0.70358100  0.47619200  0.80056000  1
  V  V1  1  0.98636100  0.40791800  0.32268700  1
  V  V2  1  0.36107000  0.13365400  0.98254400  1
  V  V3  1  0.63800000  0.15124000  0.47764000  1
  V  V4  1  0.36200000  0.84876000  0.52236000  1
  V  V5  1  0.29641900  0.52380800  0.19944000  1
  V  V6  1  0.86200000  0.15124000  0.97764000  1
  V  V7  1  0.79641900  0.47619200  0.30056000  1
  V  V8  1  0.01363900  0.59208200  0.67731300  1
  V  V9  1  0.48636100  0.59208200  0.17731300  1
  V  V10  1  0.20358100  0.52380800  0.69944000  1
  V  V11  1  0.13800000  0.84876000  0.02236000  1
  V  V12  1  0.63893000  0.86634600  0.01745600  1
  V  V13  1  0.13893000  0.13365400  0.48254400  1
  V  V14  1  0.86107000  0.86634600  0.51745600  1
  V  V15  1  0.51363900  0.40791800  0.82268700  1
  Zn  Zn16  1  0.75422500  0.98855600  0.24684200  1
  Zn  Zn17  1  0.32853600  0.64931300  0.92140300  1
  Zn  Zn18  1  0.82853600  0.35068700  0.57859700  1
  Zn  Zn19  1  0.24577500  0.01144400  0.75315800  1
  Zn  Zn20  1  0.74577500  0.98855600  0.74684200  1
  Zn  Zn21  1  0.25422500  0.01144400  0.25315800  1
  Zn  Zn22  1  0.67146400  0.35068700  0.07859700  1
  Zn  Zn23  1  0.17146400  0.64931300  0.42140300  1
  Pb  Pb24  1  0.51361200  0.92024700  0.73596900  1
  Pb  Pb25  1  0.48638800  0.07975300  0.26403100  1
  Pb  Pb26  1  0.37106900  0.34150300  0.53267900  1
  Pb  Pb27  1  0.12893100  0.34150300  0.03267900  1
  Pb  Pb28  1  0.62893100  0.65849700  0.46732100  1
  Pb  Pb29  1  0.01361200  0.07975300  0.76403100  1
  Pb  Pb30  1  0.98638800  0.92024700  0.23596900  1
  Pb  Pb31  1  0.87106900  0.65849700  0.96732100  1
  O  O32  1  0.60419900  0.56399500  0.72122200  1
  O  O33  1  0.10419900  0.43600500  0.77877800  1
  O  O34  1  0.78867700  0.67602500  0.54342400  1
  O  O35  1  0.65328300  0.99820900  0.37363000  1
  O  O36  1  0.53291700  0.23825200  0.45516300  1
  O  O37  1  0.35613400  0.99387800  0.38312300  1
  O  O38  1  0.85822100  0.96250000  0.36750400  1
  O  O39  1  0.55884000  0.40738400  0.16885900  1
  O  O40  1  0.15328300  0.00179100  0.12637000  1
  O  O41  1  0.21474000  0.65289500  0.04497100  1
  O  O42  1  0.96858100  0.77282200  0.54994500  1
  O  O43  1  0.46708300  0.76174800  0.54483700  1
  O  O44  1  0.76641100  0.68144300  0.79485300  1
  O  O45  1  0.64177900  0.96250000  0.86750400  1
  O  O46  1  0.75278200  0.31023900  0.22024800  1
  O  O47  1  0.16427500  0.96069700  0.39197200  1
  O  O48  1  0.23358900  0.31855700  0.20514700  1
  O  O49  1  0.25278200  0.68976100  0.27975200  1
  O  O50  1  0.03291700  0.76174800  0.04483700  1
  O  O51  1  0.83572500  0.03930300  0.60802800  1
  O  O52  1  0.98366400  0.71875400  0.78525900  1
  O  O53  1  0.38001600  0.61401000  0.08397900  1
  O  O54  1  0.84671700  0.99820900  0.87363000  1
  O  O55  1  0.28867700  0.32397500  0.95657600  1
  O  O56  1  0.89580100  0.56399500  0.22122200  1
  O  O57  1  0.64386600  0.00612200  0.61687700  1
  O  O58  1  0.01633600  0.28124600  0.21474100  1
  O  O59  1  0.53141900  0.77282200  0.04994500  1
  O  O60  1  0.94116000  0.40738400  0.66885900  1
  O  O61  1  0.33572500  0.96069700  0.89197200  1
  O  O62  1  0.61998400  0.38599000  0.91602100  1
  O  O63  1  0.35822100  0.03750000  0.13249600  1
  O  O64  1  0.24721800  0.68976100  0.77975200  1
  O  O65  1  0.21132300  0.32397500  0.45657600  1
  O  O66  1  0.74721800  0.31023900  0.72024800  1
  O  O67  1  0.48366400  0.28124600  0.71474100  1
  O  O68  1  0.46858100  0.22717800  0.95005500  1
  O  O69  1  0.88001600  0.38599000  0.41602100  1
  O  O70  1  0.26641100  0.31855700  0.70514700  1
  O  O71  1  0.51633600  0.71875400  0.28525900  1
  O  O72  1  0.96708300  0.23825200  0.95516300  1
  O  O73  1  0.39580100  0.43600500  0.27877800  1
  O  O74  1  0.85613400  0.00612200  0.11687700  1
  O  O75  1  0.14177900  0.03750000  0.63249600  1
  O  O76  1  0.28526000  0.65289500  0.54497100  1
  O  O77  1  0.78526000  0.34710500  0.95502900  1
  O  O78  1  0.73358900  0.68144300  0.29485300  1
  O  O79  1  0.66427500  0.03930300  0.10802800  1
  O  O80  1  0.05884000  0.59261600  0.33114100  1
  O  O81  1  0.71132300  0.67602500  0.04342400  1
  O  O82  1  0.71474000  0.34710500  0.45502900  1
  O  O83  1  0.34671700  0.00179100  0.62637000  1
  O  O84  1  0.03141900  0.22717800  0.45005500  1
  O  O85  1  0.14386600  0.99387800  0.88312300  1
  O  O86  1  0.44116000  0.59261600  0.83114100  1
  O  O87  1  0.11998400  0.61401000  0.58397900  1
