# generated using pymatgen
data_AlPO4
_symmetry_space_group_name_H-M   'P 1'
_cell_length_a   12.25563203
_cell_length_b   12.25563203
_cell_length_c   12.25563239
_cell_angle_alpha   118.14622290
_cell_angle_beta   118.14622290
_cell_angle_gamma   118.14622373
_symmetry_Int_Tables_number   1
_chemical_formula_structural   AlPO4
_chemical_formula_sum   'Al6 P6 O24'
_cell_volume   644.26135382
_cell_formula_units_Z   6
loop_
 _symmetry_equiv_pos_site_id
 _symmetry_equiv_pos_as_xyz
  1  'x, y, z'
loop_
 _atom_site_type_symbol
 _atom_site_label
 _atom_site_symmetry_multiplicity
 _atom_site_fract_x
 _atom_site_fract_y
 _atom_site_fract_z
 _atom_site_occupancy
  Al  Al0  1  0.64640800  0.94372500  0.49770800  1
  Al  Al1  1  0.35359200  0.05627500  0.50229200  1
  Al  Al2  1  0.94372500  0.49770800  0.64640800  1
  Al  Al3  1  0.49770800  0.64640800  0.94372500  1
  Al  Al4  1  0.50229200  0.35359200  0.05627500  1
  Al  Al5  1  0.05627500  0.50229200  0.35359200  1
  P  P6  1  0.26025100  0.40448200  0.96424600  1
  P  P7  1  0.73974900  0.59551800  0.03575400  1
  P  P8  1  0.59551800  0.03575400  0.73974900  1
  P  P9  1  0.03575400  0.73974900  0.59551800  1
  P  P10  1  0.96424600  0.26025100  0.40448200  1
  P  P11  1  0.40448200  0.96424600  0.26025100  1
  O  O12  1  0.97230800  0.30505700  0.30846800  1
  O  O13  1  0.68706700  0.95013700  0.15077600  1
  O  O14  1  0.02769200  0.69494300  0.69153200  1
  O  O15  1  0.30846800  0.97230800  0.30505700  1
  O  O16  1  0.99743500  0.40457800  0.56123400  1
  O  O17  1  0.00256500  0.59542200  0.43876600  1
  O  O18  1  0.79953500  0.61978300  0.40331100  1
  O  O19  1  0.04986300  0.84922400  0.31293300  1
  O  O20  1  0.40457800  0.56123400  0.99743500  1
  O  O21  1  0.95013700  0.15077600  0.68706700  1
  O  O22  1  0.40331100  0.79953500  0.61978300  1
  O  O23  1  0.15077600  0.68706700  0.95013700  1
  O  O24  1  0.31293300  0.04986300  0.84922400  1
  O  O25  1  0.20046500  0.38021700  0.59668900  1
  O  O26  1  0.61978300  0.40331100  0.79953500  1
  O  O27  1  0.84922400  0.31293300  0.04986300  1
  O  O28  1  0.69153200  0.02769200  0.69494300  1
  O  O29  1  0.59542200  0.43876600  0.00256500  1
  O  O30  1  0.30505700  0.30846800  0.97230800  1
  O  O31  1  0.56123400  0.99743500  0.40457800  1
  O  O32  1  0.43876600  0.00256500  0.59542200  1
  O  O33  1  0.69494300  0.69153200  0.02769200  1
  O  O34  1  0.59668900  0.20046500  0.38021700  1
  O  O35  1  0.38021700  0.59668900  0.20046500  1
