# generated using pymatgen
data_TlNO3
_symmetry_space_group_name_H-M   'P 1'
_cell_length_a   10.58512152
_cell_length_b   10.58512152
_cell_length_c   7.59971900
_cell_angle_alpha   90.00000000
_cell_angle_beta   90.00000000
_cell_angle_gamma   119.99999700
_symmetry_Int_Tables_number   1
_chemical_formula_structural   TlNO3
_chemical_formula_sum   'Tl9 N9 O27'
_cell_volume   737.42842804
_cell_formula_units_Z   9
loop_
 _symmetry_equiv_pos_site_id
 _symmetry_equiv_pos_as_xyz
  1  'x, y, z'
loop_
 _atom_site_type_symbol
 _atom_site_label
 _atom_site_symmetry_multiplicity
 _atom_site_fract_x
 _atom_site_fract_y
 _atom_site_fract_z
 _atom_site_occupancy
  Tl  Tl0  1  0.11424400  0.21703500  0.98370600  1
  Tl  Tl1  1  0.44502600  0.22213100  0.28259700  1
  Tl  Tl2  1  0.42938000  0.88397800  0.95214600  1
  Tl  Tl3  1  0.45459800  0.57062000  0.61881300  1
  Tl  Tl4  1  0.77786900  0.22289500  0.61593000  1
  Tl  Tl5  1  0.78296500  0.89720800  0.31703900  1
  Tl  Tl6  1  0.77710500  0.55497400  0.94926400  1
  Tl  Tl7  1  0.11602200  0.54540200  0.28548000  1
  Tl  Tl8  1  0.10279200  0.88575600  0.65037300  1
  N  N9  1  0.79724100  0.54017800  0.44026700  1
  N  N10  1  0.45982200  0.25706400  0.77360100  1
  N  N11  1  0.74293600  0.20275900  0.10693400  1
  N  N12  1  0.79410300  0.88920000  0.83788200  1
  N  N13  1  0.09509700  0.20589700  0.50454900  1
  N  N14  1  0.43380900  0.56164500  0.09701700  1
  N  N15  1  0.43835500  0.87216400  0.43035000  1
  N  N16  1  0.11080000  0.90490300  0.17121500  1
  N  N17  1  0.12783600  0.56619100  0.76368300  1
  O  O18  1  0.22894000  0.25788800  0.53635800  1
  O  O19  1  0.34791500  0.90945000  0.37906400  1
  O  O20  1  0.06824500  0.58892600  0.89429500  1
  O  O21  1  0.05060600  0.24803000  0.37463900  1
  O  O22  1  0.52068100  0.93175500  0.56096200  1
  O  O23  1  0.42544000  0.31104000  0.90237800  1
  O  O24  1  0.44626500  0.77085400  0.34727000  1
  O  O25  1  0.65561800  0.21749700  0.00343500  1
  O  O26  1  0.72551800  0.60341800  0.41335300  1
  O  O27  1  0.68896000  0.11440000  0.23571100  1
  O  O28  1  0.56187900  0.34438200  0.67010100  1
  O  O29  1  0.10688400  0.99999300  0.27226000  1
  O  O30  1  0.00000700  0.10689100  0.60559300  1
  O  O31  1  0.56153500  0.65208500  0.04573000  1
  O  O32  1  0.19742400  0.94939400  0.04130600  1
  O  O33  1  0.78250300  0.43812100  0.33676800  1
  O  O34  1  0.02894800  0.77106000  0.20302400  1
  O  O35  1  0.39658200  0.12209900  0.74668600  1
  O  O36  1  0.75197000  0.80257600  0.70797200  1
  O  O37  1  0.74211200  0.97105200  0.86969100  1
  O  O38  1  0.09055000  0.43846500  0.71239700  1
  O  O39  1  0.22914600  0.67541100  0.68060400  1
  O  O40  1  0.89310900  0.89311600  0.93892700  1
  O  O41  1  0.88560000  0.57456000  0.56904500  1
  O  O42  1  0.41107400  0.47931900  0.22762800  1
  O  O43  1  0.87790100  0.27448200  0.08001900  1
  O  O44  1  0.32458900  0.55373500  0.01393700  1
