# generated using pymatgen
data_MoSeCl7O
_symmetry_space_group_name_H-M   'P 1'
_cell_length_a   8.17154400
_cell_length_b   8.57027856
_cell_length_c   9.98508401
_cell_angle_alpha   89.61958062
_cell_angle_beta   113.03357790
_cell_angle_gamma   108.55392259
_symmetry_Int_Tables_number   1
_chemical_formula_structural   MoSeCl7O
_chemical_formula_sum   'Mo2 Se2 Cl14 O2'
_cell_volume   604.48948392
_cell_formula_units_Z   2
loop_
 _symmetry_equiv_pos_site_id
 _symmetry_equiv_pos_as_xyz
  1  'x, y, z'
loop_
 _atom_site_type_symbol
 _atom_site_label
 _atom_site_symmetry_multiplicity
 _atom_site_fract_x
 _atom_site_fract_y
 _atom_site_fract_z
 _atom_site_occupancy
  Mo  Mo0  1  0.17362600  0.34709500  0.38801000  1
  Mo  Mo1  1  0.82637400  0.65290500  0.61199000  1
  Se  Se2  1  0.50422500  0.75584400  0.21958000  1
  Se  Se3  1  0.49577500  0.24415600  0.78042000  1
  Cl  Cl4  1  0.77213500  0.84394700  0.19348400  1
  Cl  Cl5  1  0.12054300  0.23370100  0.15633600  1
  Cl  Cl6  1  0.39113900  0.50898400  0.62696500  1
  Cl  Cl7  1  0.67175000  0.38161700  0.00397200  1
  Cl  Cl8  1  0.56975800  0.01784600  0.81518400  1
  Cl  Cl9  1  0.29684700  0.12874400  0.48138700  1
  Cl  Cl10  1  0.81558800  0.38945000  0.70063100  1
  Cl  Cl11  1  0.43024200  0.98215400  0.18481600  1
  Cl  Cl12  1  0.22786500  0.15605300  0.80651600  1
  Cl  Cl13  1  0.32825000  0.61838300  0.99602800  1
  Cl  Cl14  1  0.70315300  0.87125600  0.51861300  1
  Cl  Cl15  1  0.87945700  0.76629900  0.84366400  1
  Cl  Cl16  1  0.60886100  0.49101600  0.37303500  1
  Cl  Cl17  1  0.18441200  0.61055000  0.29936900  1
  O  O18  1  0.95985800  0.28254600  0.39548800  1
  O  O19  1  0.04014200  0.71745400  0.60451200  1
