# generated using pymatgen
data_S
_symmetry_space_group_name_H-M   'P 1'
_cell_length_a   7.81767900
_cell_length_b   11.16927700
_cell_length_c   17.36298043
_cell_angle_alpha   51.44522114
_cell_angle_beta   90.00000000
_cell_angle_gamma   90.00000000
_symmetry_Int_Tables_number   1
_chemical_formula_structural   S
_chemical_formula_sum   S36
_cell_volume   1185.60750273
_cell_formula_units_Z   36
loop_
 _symmetry_equiv_pos_site_id
 _symmetry_equiv_pos_as_xyz
  1  'x, y, z'
loop_
 _atom_site_type_symbol
 _atom_site_label
 _atom_site_symmetry_multiplicity
 _atom_site_fract_x
 _atom_site_fract_y
 _atom_site_fract_z
 _atom_site_occupancy
  S  S0  1  0.52851400  0.83625200  0.44794000  1
  S  S1  1  0.57296000  0.28546300  0.41206100  1
  S  S2  1  0.48140600  0.35514000  0.66039400  1
  S  S3  1  0.97148600  0.83625200  0.94794000  1
  S  S4  1  0.01859400  0.35514000  0.16039400  1
  S  S5  1  0.94356900  0.50919900  0.18186800  1
  S  S6  1  0.03838000  0.83387700  0.35251800  1
  S  S7  1  0.73389200  0.75643700  0.25410900  1
  S  S8  1  0.53838000  0.16612300  0.14748200  1
  S  S9  1  0.75056000  0.94511500  0.93912900  1
  S  S10  1  0.42704000  0.71453700  0.58793900  1
  S  S11  1  0.07296000  0.71453700  0.08793900  1
  S  S12  1  0.94637500  0.66738800  0.34608500  1
  S  S13  1  0.44356900  0.49080100  0.31813200  1
  S  S14  1  0.45183400  0.20194200  0.02204900  1
  S  S15  1  0.55362500  0.66738800  0.84608500  1
  S  S16  1  0.92704000  0.28546300  0.91206100  1
  S  S17  1  0.24944000  0.05488500  0.06087100  1
  S  S18  1  0.46162000  0.83387700  0.85251800  1
  S  S19  1  0.25056000  0.05488500  0.56087100  1
  S  S20  1  0.98140600  0.64486000  0.83960600  1
  S  S21  1  0.55643100  0.50919900  0.68186800  1
  S  S22  1  0.47148600  0.16374800  0.55206000  1
  S  S23  1  0.54816600  0.79805800  0.97795100  1
  S  S24  1  0.51859400  0.64486000  0.33960600  1
  S  S25  1  0.96162000  0.16612300  0.64748200  1
  S  S26  1  0.05362500  0.33261200  0.65391500  1
  S  S27  1  0.26610800  0.24356300  0.74589100  1
  S  S28  1  0.76610800  0.75643700  0.75410900  1
  S  S29  1  0.05643100  0.49080100  0.81813200  1
  S  S30  1  0.74944000  0.94511500  0.43912900  1
  S  S31  1  0.23389200  0.24356300  0.24589100  1
  S  S32  1  0.95183400  0.79805800  0.47795100  1
  S  S33  1  0.02851400  0.16374800  0.05206000  1
  S  S34  1  0.44637500  0.33261200  0.15391500  1
  S  S35  1  0.04816600  0.20194200  0.52204900  1
