# generated using pymatgen
data_Yb2MoO6
_symmetry_space_group_name_H-M   'P 1'
_cell_length_a   9.75011980
_cell_length_b   9.75011980
_cell_length_c   5.46551929
_cell_angle_alpha   76.06701902
_cell_angle_beta   76.06701902
_cell_angle_gamma   72.20493009
_symmetry_Int_Tables_number   1
_chemical_formula_structural   Yb2MoO6
_chemical_formula_sum   'Yb8 Mo4 O24'
_cell_volume   472.24009820
_cell_formula_units_Z   4
loop_
 _symmetry_equiv_pos_site_id
 _symmetry_equiv_pos_as_xyz
  1  'x, y, z'
loop_
 _atom_site_type_symbol
 _atom_site_label
 _atom_site_symmetry_multiplicity
 _atom_site_fract_x
 _atom_site_fract_y
 _atom_site_fract_z
 _atom_site_occupancy
  Yb  Yb0  1  0.12590900  0.87409100  0.25000000  1
  Yb  Yb1  1  0.78787800  0.55663000  0.60278400  1
  Yb  Yb2  1  0.63531600  0.36468400  0.25000000  1
  Yb  Yb3  1  0.21212200  0.44337000  0.39721600  1
  Yb  Yb4  1  0.44337000  0.21212200  0.89721600  1
  Yb  Yb5  1  0.36468400  0.63531600  0.75000000  1
  Yb  Yb6  1  0.87409100  0.12590900  0.75000000  1
  Yb  Yb7  1  0.55663000  0.78787800  0.10278400  1
  Mo  Mo8  1  0.70498900  0.98835000  0.42122500  1
  Mo  Mo9  1  0.01165000  0.29501100  0.07877500  1
  Mo  Mo10  1  0.98835000  0.70498900  0.92122500  1
  Mo  Mo11  1  0.29501100  0.01165000  0.57877500  1
  O  O12  1  0.16962900  0.65618800  0.09873600  1
  O  O13  1  0.95253800  0.88714200  0.97311400  1
  O  O14  1  0.32044100  0.87763200  0.87515700  1
  O  O15  1  0.67955900  0.12236800  0.12484300  1
  O  O16  1  0.57997000  0.56811600  0.44098500  1
  O  O17  1  0.88714200  0.95253800  0.47311400  1
  O  O18  1  0.56811600  0.57997000  0.94098500  1
  O  O19  1  0.97946700  0.56701700  0.23768800  1
  O  O20  1  0.43298300  0.02053300  0.26231200  1
  O  O21  1  0.30116000  0.18833600  0.62613700  1
  O  O22  1  0.69884000  0.81166400  0.37386300  1
  O  O23  1  0.11285800  0.04746200  0.52688600  1
  O  O24  1  0.42003000  0.43188400  0.55901500  1
  O  O25  1  0.65618800  0.16962900  0.59873600  1
  O  O26  1  0.83037100  0.34381200  0.90126400  1
  O  O27  1  0.34381200  0.83037100  0.40126400  1
  O  O28  1  0.56701700  0.97946700  0.73768800  1
  O  O29  1  0.87763200  0.32044100  0.37515700  1
  O  O30  1  0.18833600  0.30116000  0.12613700  1
  O  O31  1  0.81166400  0.69884000  0.87386300  1
  O  O32  1  0.02053300  0.43298300  0.76231200  1
  O  O33  1  0.12236800  0.67955900  0.62484300  1
  O  O34  1  0.43188400  0.42003000  0.05901500  1
  O  O35  1  0.04746200  0.11285800  0.02688600  1
