# generated using pymatgen
data_SiO2
_symmetry_space_group_name_H-M   'P 1'
_cell_length_a   6.86624337
_cell_length_b   6.86624337
_cell_length_c   13.58805900
_cell_angle_alpha   90.00000000
_cell_angle_beta   90.00000000
_cell_angle_gamma   119.99999389
_symmetry_Int_Tables_number   1
_chemical_formula_structural   SiO2
_chemical_formula_sum   'Si12 O24'
_cell_volume   554.78724427
_cell_formula_units_Z   12
loop_
 _symmetry_equiv_pos_site_id
 _symmetry_equiv_pos_as_xyz
  1  'x, y, z'
loop_
 _atom_site_type_symbol
 _atom_site_label
 _atom_site_symmetry_multiplicity
 _atom_site_fract_x
 _atom_site_fract_y
 _atom_site_fract_z
 _atom_site_occupancy
  Si  Si0  1  0.17727300  0.77225000  0.04889300  1
  Si  Si1  1  0.77225000  0.59497700  0.38222600  1
  Si  Si2  1  0.59497700  0.82272700  0.71556000  1
  Si  Si3  1  0.22775000  0.40502300  0.38222600  1
  Si  Si4  1  0.77225000  0.17727300  0.28444000  1
  Si  Si5  1  0.40502300  0.17727300  0.71556000  1
  Si  Si6  1  0.17727300  0.40502300  0.61777400  1
  Si  Si7  1  0.82272700  0.59497700  0.61777400  1
  Si  Si8  1  0.59497700  0.77225000  0.95110700  1
  Si  Si9  1  0.40502300  0.22775000  0.95110700  1
  Si  Si10  1  0.22775000  0.82272700  0.28444000  1
  Si  Si11  1  0.82272700  0.22775000  0.04889300  1
  O  O12  1  0.81233200  0.62466500  0.50000000  1
  O  O13  1  0.00000000  0.18348300  0.33333300  1
  O  O14  1  0.00000000  0.50000000  0.63702500  1
  O  O15  1  0.00000000  0.81651700  0.33333300  1
  O  O16  1  0.78743000  0.39371500  0.33333300  1
  O  O17  1  0.39371500  0.78743000  0.00000000  1
  O  O18  1  0.50000000  0.50000000  0.97035800  1
  O  O19  1  0.50000000  0.00000000  0.69630800  1
  O  O20  1  0.18348300  0.18348300  0.66666700  1
  O  O21  1  0.18766800  0.37533500  0.50000000  1
  O  O22  1  0.81651700  0.00000000  0.00000000  1
  O  O23  1  0.39371500  0.60628500  0.66666700  1
  O  O24  1  0.81651700  0.81651700  0.66666700  1
  O  O25  1  0.00000000  0.50000000  0.02964200  1
  O  O26  1  0.50000000  0.00000000  0.30369200  1
  O  O27  1  0.50000000  0.50000000  0.36297500  1
  O  O28  1  0.60628500  0.21257000  0.00000000  1
  O  O29  1  0.18766800  0.81233200  0.16666700  1
  O  O30  1  0.81233200  0.18766800  0.16666700  1
  O  O31  1  0.21257000  0.60628500  0.33333300  1
  O  O32  1  0.18348300  0.00000000  0.00000000  1
  O  O33  1  0.60628500  0.39371500  0.66666700  1
  O  O34  1  0.62466500  0.81233200  0.83333300  1
  O  O35  1  0.37533500  0.18766800  0.83333300  1
