# generated using pymatgen
data_KIn(WO4)2
_symmetry_space_group_name_H-M   'P 1'
_cell_length_a   5.90397000
_cell_length_b   5.90397000
_cell_length_c   15.14094600
_cell_angle_alpha   90.00000000
_cell_angle_beta   90.00000000
_cell_angle_gamma   119.99999997
_symmetry_Int_Tables_number   1
_chemical_formula_structural   KIn(WO4)2
_chemical_formula_sum   'K2 In2 W4 O16'
_cell_volume   457.05864316
_cell_formula_units_Z   2
loop_
 _symmetry_equiv_pos_site_id
 _symmetry_equiv_pos_as_xyz
  1  'x, y, z'
loop_
 _atom_site_type_symbol
 _atom_site_label
 _atom_site_symmetry_multiplicity
 _atom_site_fract_x
 _atom_site_fract_y
 _atom_site_fract_z
 _atom_site_occupancy
  K  K0  1  0.00000000  0.00000000  0.25000000  1
  K  K1  1  0.00000000  0.00000000  0.75000000  1
  In  In2  1  0.00000000  0.00000000  0.50000000  1
  In  In3  1  0.00000000  0.00000000  0.00000000  1
  W  W4  1  0.33333300  0.66666700  0.12330500  1
  W  W5  1  0.66666700  0.33333300  0.87669500  1
  W  W6  1  0.33333300  0.66666700  0.62330500  1
  W  W7  1  0.66666700  0.33333300  0.37669500  1
  O  O8  1  0.88052200  0.21058900  0.91319900  1
  O  O9  1  0.33333300  0.66666700  0.74039100  1
  O  O10  1  0.66666700  0.33333300  0.75960900  1
  O  O11  1  0.11947800  0.33006700  0.58680100  1
  O  O12  1  0.33006700  0.11947800  0.91319900  1
  O  O13  1  0.66993300  0.78941100  0.58680100  1
  O  O14  1  0.78941100  0.11947800  0.41319900  1
  O  O15  1  0.33333300  0.66666700  0.24039100  1
  O  O16  1  0.21058900  0.33006700  0.08680100  1
  O  O17  1  0.78941100  0.66993300  0.91319900  1
  O  O18  1  0.11947800  0.78941100  0.08680100  1
  O  O19  1  0.66993300  0.88052200  0.08680100  1
  O  O20  1  0.21058900  0.88052200  0.58680100  1
  O  O21  1  0.33006700  0.21058900  0.41319900  1
  O  O22  1  0.66666700  0.33333300  0.25960900  1
  O  O23  1  0.88052200  0.66993300  0.41319900  1
