# generated using pymatgen
data_BaCr4S7
_symmetry_space_group_name_H-M   'P 1'
_cell_length_a   22.94238600
_cell_length_b   6.01299300
_cell_length_c   6.82437934
_cell_angle_alpha   89.96413336
_cell_angle_beta   90.00000000
_cell_angle_gamma   90.00000000
_symmetry_Int_Tables_number   1
_chemical_formula_structural   BaCr4S7
_chemical_formula_sum   'Ba4 Cr16 S28'
_cell_volume   941.43936743
_cell_formula_units_Z   4
loop_
 _symmetry_equiv_pos_site_id
 _symmetry_equiv_pos_as_xyz
  1  'x, y, z'
loop_
 _atom_site_type_symbol
 _atom_site_label
 _atom_site_symmetry_multiplicity
 _atom_site_fract_x
 _atom_site_fract_y
 _atom_site_fract_z
 _atom_site_occupancy
  Ba  Ba0  1  0.17274200  0.89039200  0.62706700  1
  Ba  Ba1  1  0.32725800  0.39039200  0.62706700  1
  Ba  Ba2  1  0.82725800  0.10960800  0.37293300  1
  Ba  Ba3  1  0.67274200  0.60960800  0.37293300  1
  Cr  Cr4  1  0.37452300  0.74452500  0.12842900  1
  Cr  Cr5  1  0.74644600  0.88363300  0.87118400  1
  Cr  Cr6  1  0.62547700  0.25547500  0.87157100  1
  Cr  Cr7  1  0.99894900  0.26432800  0.62455900  1
  Cr  Cr8  1  0.99263700  0.25402100  0.12424400  1
  Cr  Cr9  1  0.50105100  0.76432800  0.62455900  1
  Cr  Cr10  1  0.50736300  0.75402100  0.12424400  1
  Cr  Cr11  1  0.49894900  0.23567200  0.37544100  1
  Cr  Cr12  1  0.49263700  0.24597900  0.87575600  1
  Cr  Cr13  1  0.12547700  0.24452500  0.12842900  1
  Cr  Cr14  1  0.24644600  0.61636700  0.12881600  1
  Cr  Cr15  1  0.87452300  0.75547500  0.87157100  1
  Cr  Cr16  1  0.00105100  0.73567200  0.37544100  1
  Cr  Cr17  1  0.00736300  0.74597900  0.87575600  1
  Cr  Cr18  1  0.75355400  0.38363300  0.87118400  1
  Cr  Cr19  1  0.25355400  0.11636700  0.12881600  1
  S  S20  1  0.94051200  0.43652700  0.87212800  1
  S  S21  1  0.55991400  0.91937000  0.37779800  1
  S  S22  1  0.55948800  0.93652700  0.87212800  1
  S  S23  1  0.16969100  0.88535700  0.12756800  1
  S  S24  1  0.94409800  0.91454900  0.62783300  1
  S  S25  1  0.20072000  0.36422400  0.89907500  1
  S  S26  1  0.94105100  0.90527500  0.12298500  1
  S  S27  1  0.79936700  0.63680700  0.64048300  1
  S  S28  1  0.44409800  0.58545100  0.37216700  1
  S  S29  1  0.05590200  0.08545100  0.37216700  1
  S  S30  1  0.05991400  0.58063000  0.62220200  1
  S  S31  1  0.20063300  0.36319300  0.35951700  1
  S  S32  1  0.55590200  0.41454900  0.62783300  1
  S  S33  1  0.70072000  0.13577600  0.10092500  1
  S  S34  1  0.33030900  0.38535700  0.12756800  1
  S  S35  1  0.83030900  0.11464300  0.87243200  1
  S  S36  1  0.29936700  0.86319300  0.35951700  1
  S  S37  1  0.44008600  0.08063000  0.62220200  1
  S  S38  1  0.44051200  0.06347300  0.12787200  1
  S  S39  1  0.66969100  0.61464300  0.87243200  1
  S  S40  1  0.55894900  0.40527500  0.12298500  1
  S  S41  1  0.44105100  0.59472500  0.87701500  1
  S  S42  1  0.29928000  0.86422400  0.89907500  1
  S  S43  1  0.05894900  0.09472500  0.87701500  1
  S  S44  1  0.94008600  0.41937000  0.37779800  1
  S  S45  1  0.05948800  0.56347300  0.12787200  1
  S  S46  1  0.70063300  0.13680700  0.64048300  1
  S  S47  1  0.79928000  0.63577600  0.10092500  1
