# generated using pymatgen
data_Cu3Se2(ClO3)2
_symmetry_space_group_name_H-M   'P 1'
_cell_length_a   6.17100800
_cell_length_b   8.05440646
_cell_length_c   8.67900808
_cell_angle_alpha   91.08256421
_cell_angle_beta   94.85878066
_cell_angle_gamma   91.84453925
_symmetry_Int_Tables_number   1
_chemical_formula_structural   Cu3Se2(ClO3)2
_chemical_formula_sum   'Cu6 Se4 Cl4 O12'
_cell_volume   429.50560989
_cell_formula_units_Z   2
loop_
 _symmetry_equiv_pos_site_id
 _symmetry_equiv_pos_as_xyz
  1  'x, y, z'
loop_
 _atom_site_type_symbol
 _atom_site_label
 _atom_site_symmetry_multiplicity
 _atom_site_fract_x
 _atom_site_fract_y
 _atom_site_fract_z
 _atom_site_occupancy
  Cu  Cu0  1  0.60569700  0.82213800  0.92482900  1
  Cu  Cu1  1  0.90226900  0.59712600  0.12880200  1
  Cu  Cu2  1  0.39430300  0.17786200  0.07517100  1
  Cu  Cu3  1  0.69492400  0.40290700  0.43193200  1
  Cu  Cu4  1  0.09773100  0.40287400  0.87119800  1
  Cu  Cu5  1  0.30507600  0.59709300  0.56806800  1
  Se  Se6  1  0.10087500  0.81838600  0.82117400  1
  Se  Se7  1  0.89912500  0.18161400  0.17882600  1
  Se  Se8  1  0.38090500  0.69755600  0.22421700  1
  Se  Se9  1  0.61909500  0.30244400  0.77578300  1
  Cl  Cl10  1  0.96571000  0.27256500  0.56658500  1
  Cl  Cl11  1  0.03429000  0.72743500  0.43341500  1
  Cl  Cl12  1  0.58747300  0.87540500  0.67521600  1
  Cl  Cl13  1  0.41252700  0.12459500  0.32478400  1
  O  O14  1  0.31337000  0.88283300  0.95564100  1
  O  O15  1  0.52848500  0.42814600  0.61729200  1
  O  O16  1  0.20826500  0.55564100  0.11996700  1
  O  O17  1  0.68663000  0.11716700  0.04435900  1
  O  O18  1  0.82216900  0.38395800  0.23152200  1
  O  O19  1  0.08609500  0.22179200  0.04020200  1
  O  O20  1  0.47151500  0.57185400  0.38270800  1
  O  O21  1  0.61547700  0.69074200  0.11859500  1
  O  O22  1  0.79173500  0.44435900  0.88003300  1
  O  O23  1  0.17783100  0.61604200  0.76847800  1
  O  O24  1  0.38452300  0.30925800  0.88140500  1
  O  O25  1  0.91390500  0.77820800  0.95979800  1
