# generated using pymatgen
data_Zn(GaS2)2
_symmetry_space_group_name_H-M   'P 1'
_cell_length_a   3.73111889
_cell_length_b   3.73111889
_cell_length_c   24.20867700
_cell_angle_alpha   90.00000000
_cell_angle_beta   90.00000000
_cell_angle_gamma   120.00001578
_symmetry_Int_Tables_number   1
_chemical_formula_structural   Zn(GaS2)2
_chemical_formula_sum   'Zn2 Ga4 S8'
_cell_volume   291.86350539
_cell_formula_units_Z   2
loop_
 _symmetry_equiv_pos_site_id
 _symmetry_equiv_pos_as_xyz
  1  'x, y, z'
loop_
 _atom_site_type_symbol
 _atom_site_label
 _atom_site_symmetry_multiplicity
 _atom_site_fract_x
 _atom_site_fract_y
 _atom_site_fract_z
 _atom_site_occupancy
  Zn  Zn0  1  0.00000000  0.00000000  0.09176000  1
  Zn  Zn1  1  0.00000000  0.00000000  0.59176000  1
  Ga  Ga2  1  0.66666700  0.33333300  0.24732800  1
  Ga  Ga3  1  0.33333300  0.66666700  0.74732800  1
  Ga  Ga4  1  0.33333300  0.66666700  0.40094500  1
  Ga  Ga5  1  0.66666700  0.33333300  0.90094500  1
  S  S6  1  0.00000000  0.00000000  0.44027000  1
  S  S7  1  0.00000000  0.00000000  0.94027000  1
  S  S8  1  0.33333300  0.66666700  0.30690000  1
  S  S9  1  0.66666700  0.33333300  0.80690000  1
  S  S10  1  0.00000000  0.00000000  0.19910000  1
  S  S11  1  0.00000000  0.00000000  0.69910000  1
  S  S12  1  0.66666700  0.33333300  0.06319900  1
  S  S13  1  0.33333300  0.66666700  0.56319900  1
