# generated using pymatgen
data_DyTaO4
_symmetry_space_group_name_H-M   'P 1'
_cell_length_a   6.56579447
_cell_length_b   6.56579447
_cell_length_c   5.11211323
_cell_angle_alpha   69.33116654
_cell_angle_beta   69.33116654
_cell_angle_gamma   114.86477433
_symmetry_Int_Tables_number   1
_chemical_formula_structural   DyTaO4
_chemical_formula_sum   'Dy2 Ta2 O8'
_cell_volume   150.96656372
_cell_formula_units_Z   2
loop_
 _symmetry_equiv_pos_site_id
 _symmetry_equiv_pos_as_xyz
  1  'x, y, z'
loop_
 _atom_site_type_symbol
 _atom_site_label
 _atom_site_symmetry_multiplicity
 _atom_site_fract_x
 _atom_site_fract_y
 _atom_site_fract_z
 _atom_site_occupancy
  Dy  Dy0  1  0.63043800  0.36956200  0.75000000  1
  Dy  Dy1  1  0.36956200  0.63043800  0.25000000  1
  Ta  Ta2  1  0.10373900  0.89626100  0.75000000  1
  Ta  Ta3  1  0.89626100  0.10373900  0.25000000  1
  O  O4  1  0.27725700  0.21365200  0.29170800  1
  O  O5  1  0.63103400  0.05107200  0.16078800  1
  O  O6  1  0.72274300  0.78634800  0.70829200  1
  O  O7  1  0.05107200  0.63103400  0.66078800  1
  O  O8  1  0.78634800  0.72274300  0.20829200  1
  O  O9  1  0.94892800  0.36896600  0.33921200  1
  O  O10  1  0.36896600  0.94892800  0.83921200  1
  O  O11  1  0.21365200  0.27725700  0.79170800  1
