# generated using pymatgen
data_AlPO4
_symmetry_space_group_name_H-M   'P 1'
_cell_length_a   12.60414313
_cell_length_b   12.60414313
_cell_length_c   12.60414313
_cell_angle_alpha   139.57883151
_cell_angle_beta   113.22319477
_cell_angle_gamma   81.04766351
_symmetry_Int_Tables_number   1
_chemical_formula_structural   AlPO4
_chemical_formula_sum   'Al10 P10 O40'
_cell_volume   1157.47660537
_cell_formula_units_Z   10
loop_
 _symmetry_equiv_pos_site_id
 _symmetry_equiv_pos_as_xyz
  1  'x, y, z'
loop_
 _atom_site_type_symbol
 _atom_site_label
 _atom_site_symmetry_multiplicity
 _atom_site_fract_x
 _atom_site_fract_y
 _atom_site_fract_z
 _atom_site_occupancy
  Al  Al0  1  0.94522300  0.20459500  0.35714700  1
  Al  Al1  1  0.65255200  0.91192400  0.35714700  1
  Al  Al2  1  0.82131300  0.77220600  0.66571200  1
  Al  Al3  1  0.34744800  0.70459500  0.25937200  1
  Al  Al4  1  0.10781500  0.05941400  0.66722900  1
  Al  Al5  1  0.17868700  0.84439900  0.95089300  1
  Al  Al6  1  0.39350600  0.34439900  0.66571200  1
  Al  Al7  1  0.89218500  0.55941400  0.95159900  1
  Al  Al8  1  0.60649400  0.27220600  0.95089300  1
  Al  Al9  1  0.05477700  0.41192400  0.25937200  1
  P  P10  1  0.39056200  0.71928900  0.03789300  1
  P  P11  1  0.34494200  0.07803000  0.63359300  1
  P  P12  1  0.11403500  0.43396000  0.04799500  1
  P  P13  1  0.81860400  0.14733100  0.03789300  1
  P  P14  1  0.05556300  0.78865100  0.63359300  1
  P  P15  1  0.65505800  0.28865100  0.73308800  1
  P  P16  1  0.94443700  0.57803000  0.73308800  1
  P  P17  1  0.60943800  0.64733100  0.32872700  1
  P  P18  1  0.18139600  0.21928900  0.32872700  1
  P  P19  1  0.88596500  0.93396000  0.31992500  1
  O  O20  1  0.91163500  0.27756900  0.11017500  1
  O  O21  1  0.89666300  0.05402300  0.32090000  1
  O  O22  1  0.89013400  0.75868500  0.14881900  1
  O  O23  1  0.33290800  0.19802300  0.62912800  1
  O  O24  1  0.33260600  0.69854000  0.11017500  1
  O  O25  1  0.30559600  0.29967500  0.48322700  1
  O  O26  1  0.01170400  0.49942500  0.01112900  1
  O  O27  1  0.81974600  0.96940500  0.86600500  1
  O  O28  1  0.69440400  0.17763100  0.99407900  1
  O  O29  1  0.53886300  0.33184500  0.68475500  1
  O  O30  1  0.94944200  0.40447200  0.56046200  1
  O  O31  1  0.98829600  0.99942500  0.48772100  1
  O  O32  1  0.76687700  0.92423700  0.32090000  1
  O  O33  1  0.10986600  0.25868500  0.86855200  1
  O  O34  1  0.66739400  0.77756900  0.36593400  1
  O  O35  1  0.68355200  0.67763100  0.48322700  1
  O  O36  1  0.23312300  0.55402300  0.15736000  1
  O  O37  1  0.05055800  0.61102000  0.45503000  1
  O  O38  1  0.18025400  0.04625900  0.14965900  1
  O  O39  1  0.24035800  0.06281100  0.65667800  1
  O  O40  1  0.65599100  0.11102000  0.56046200  1
  O  O41  1  0.90613300  0.56281100  0.82245300  1
  O  O42  1  0.60340000  0.46940500  0.14965900  1
  O  O43  1  0.66709200  0.29622000  0.86511500  1
  O  O44  1  0.84570100  0.16362400  0.18022600  1
  O  O45  1  0.51660200  0.83452500  0.18022600  1
  O  O46  1  0.09386700  0.91632000  0.65667800  1
  O  O47  1  0.48339800  0.66362400  0.31792300  1
  O  O48  1  0.14709000  0.83184500  0.79298200  1
  O  O49  1  0.31644800  0.79967500  0.99407900  1
  O  O50  1  0.10333700  0.42423700  0.15736000  1
  O  O51  1  0.93110500  0.79622000  0.62912800  1
  O  O52  1  0.75964200  0.41632000  0.82245300  1
  O  O53  1  0.34400900  0.90447200  0.45503000  1
  O  O54  1  0.46113700  0.14589200  0.79298200  1
  O  O55  1  0.39660000  0.54625900  0.86600500  1
  O  O56  1  0.06889500  0.69802300  0.86511500  1
  O  O57  1  0.85291000  0.64589200  0.68475500  1
  O  O58  1  0.15429900  0.33452500  0.31792300  1
  O  O59  1  0.08836500  0.19854000  0.36593400  1
