# generated using pymatgen
data_Ce3Si2BO10
_symmetry_space_group_name_H-M   'P 1'
_cell_length_a   7.22198535
_cell_length_b   9.93927085
_cell_length_c   23.42685527
_cell_angle_alpha   90.00000000
_cell_angle_beta   90.00000000
_cell_angle_gamma   90.00000000
_symmetry_Int_Tables_number   1
_chemical_formula_structural   Ce3Si2BO10
_chemical_formula_sum   'Ce24 Si16 B8 O80'
_cell_volume   1681.60938751
_cell_formula_units_Z   8
loop_
 _symmetry_equiv_pos_site_id
 _symmetry_equiv_pos_as_xyz
  1  'x, y, z'
loop_
 _atom_site_type_symbol
 _atom_site_label
 _atom_site_symmetry_multiplicity
 _atom_site_fract_x
 _atom_site_fract_y
 _atom_site_fract_z
 _atom_site_occupancy
  Ce  Ce0  1  0.90734604  0.73217262  0.81719485  1
  Ce  Ce1  1  0.82322329  0.36516270  0.33646316  1
  Ce  Ce2  1  0.09265396  0.76782738  0.31719485  1
  Ce  Ce3  1  0.67677671  0.86516270  0.66353684  1
  Ce  Ce4  1  0.09265396  0.26782738  0.18280515  1
  Ce  Ce5  1  0.67677671  0.36516270  0.83646316  1
  Ce  Ce6  1  0.13738198  0.99078223  0.57215219  1
  Ce  Ce7  1  0.40734604  0.76782738  0.81719485  1
  Ce  Ce8  1  0.82322329  0.86516270  0.16353684  1
  Ce  Ce9  1  0.59265396  0.23217262  0.18280515  1
  Ce  Ce10  1  0.17677671  0.63483730  0.66353684  1
  Ce  Ce11  1  0.40734604  0.26782738  0.68280515  1
  Ce  Ce12  1  0.36261802  0.99078223  0.07215219  1
  Ce  Ce13  1  0.32322329  0.63483730  0.16353684  1
  Ce  Ce14  1  0.63738198  0.00921777  0.92784781  1
  Ce  Ce15  1  0.90734604  0.23217262  0.68280515  1
  Ce  Ce16  1  0.63738198  0.50921777  0.57215219  1
  Ce  Ce17  1  0.13738198  0.49078223  0.92784781  1
  Ce  Ce18  1  0.17677671  0.13483730  0.83646316  1
  Ce  Ce19  1  0.86261802  0.00921777  0.42784781  1
  Ce  Ce20  1  0.86261802  0.50921777  0.07215219  1
  Ce  Ce21  1  0.36261802  0.49078223  0.42784781  1
  Ce  Ce22  1  0.59265396  0.73217262  0.31719485  1
  Ce  Ce23  1  0.32322329  0.13483730  0.33646316  1
  Si  Si24  1  0.14271983  0.87624985  0.92147823  1
  Si  Si25  1  0.68568286  0.56135069  0.72056384  1
  Si  Si26  1  0.85728017  0.12375015  0.07852177  1
  Si  Si27  1  0.81431714  0.06135069  0.27943616  1
  Si  Si28  1  0.14271983  0.37624985  0.57852177  1
  Si  Si29  1  0.31431714  0.93864931  0.22056384  1
  Si  Si30  1  0.85728017  0.62375015  0.42147823  1
  Si  Si31  1  0.81431714  0.56135069  0.22056384  1
  Si  Si32  1  0.64271983  0.62375015  0.92147823  1
  Si  Si33  1  0.31431714  0.43864931  0.27943616  1
  Si  Si34  1  0.35728017  0.37624985  0.07852177  1
  Si  Si35  1  0.18568286  0.93864931  0.72056384  1
  Si  Si36  1  0.64271983  0.12375015  0.57852177  1
  Si  Si37  1  0.18568286  0.43864931  0.77943616  1
  Si  Si38  1  0.35728017  0.87624985  0.42147823  1
  Si  Si39  1  0.68568286  0.06135069  0.77943616  1
  B  B40  1  0.65751120  0.25620827  0.47244886  1
  B  B41  1  0.34248880  0.24379173  0.97244886  1
  B  B42  1  0.15751120  0.74379173  0.02755114  1
  B  B43  1  0.34248880  0.74379173  0.52755114  1
  B  B44  1  0.84248880  0.75620827  0.52755114  1
  B  B45  1  0.15751120  0.24379173  0.47244886  1
  B  B46  1  0.84248880  0.25620827  0.97244886  1
  B  B47  1  0.65751120  0.75620827  0.02755114  1
  O  O48  1  0.53714543  0.10801325  0.82821871  1
  O  O49  1  0.29454782  0.10390750  0.22116133  1
  O  O50  1  0.33734960  0.86041107  0.49194537  1
  O  O51  1  0.03771222  0.03838891  0.09925104  1
  O  O52  1  0.03714543  0.89198675  0.67178129  1
  O  O53  1  0.79454782  0.39609250  0.22116133  1
  O  O54  1  0.82479882  0.54837407  0.89420711  1
  O  O55  1  0.96228778  0.96161109  0.90074896  1
  O  O56  1  0.73551255  0.73867761  0.08041375  1
  O  O57  1  0.03771222  0.53838891  0.40074896  1
  O  O58  1  0.16265040  0.36041107  0.50805463  1
  O  O59  1  0.12754945  0.34642942  0.28933803  1
  O  O60  1  0.35423352  0.72661468  0.39044299  1
  O  O61  1  0.37245055  0.84642942  0.71066197  1
  O  O62  1  0.76448745  0.73867761  0.58041375  1
  O  O63  1  0.63049739  0.09786635  0.71249863  1
  O  O64  1  0.85423352  0.77338532  0.39044299  1
  O  O65  1  0.26448745  0.76132239  0.58041375  1
  O  O66  1  0.20545218  0.10390750  0.72116133  1
  O  O67  1  0.46228778  0.53838891  0.90074896  1
  O  O68  1  0.53771222  0.46161109  0.09925104  1
  O  O69  1  0.16265040  0.86041107  0.99194537  1
  O  O70  1  0.79454782  0.89609250  0.27883867  1
  O  O71  1  0.46228778  0.03838891  0.59925104  1
  O  O72  1  0.36950261  0.40213365  0.21249863  1
  O  O73  1  0.57990195  0.87222460  0.00860495  1
  O  O74  1  0.42009805  0.62777540  0.50860495  1
  O  O75  1  0.37245055  0.34642942  0.78933803  1
  O  O76  1  0.14576648  0.72661468  0.89044299  1
  O  O77  1  0.73551255  0.23867761  0.41958625  1
  O  O78  1  0.63049739  0.59786635  0.78750137  1
  O  O79  1  0.53771222  0.96161109  0.40074896  1
  O  O80  1  0.46285457  0.89198675  0.17178129  1
  O  O81  1  0.64576648  0.77338532  0.89044299  1
  O  O82  1  0.96285457  0.10801325  0.32821871  1
  O  O83  1  0.96228778  0.46161109  0.59925104  1
  O  O84  1  0.82479882  0.04837407  0.60579289  1
  O  O85  1  0.92009805  0.37222460  0.99139505  1
  O  O86  1  0.14576648  0.22661468  0.60955701  1
  O  O87  1  0.86950261  0.09786635  0.21249863  1
  O  O88  1  0.87245055  0.65357058  0.71066197  1
  O  O89  1  0.29454782  0.60390750  0.27883867  1
  O  O90  1  0.67520118  0.04837407  0.10579289  1
  O  O91  1  0.35423352  0.22661468  0.10955701  1
  O  O92  1  0.87245055  0.15357058  0.78933803  1
  O  O93  1  0.70545218  0.39609250  0.72116133  1
  O  O94  1  0.92009805  0.87222460  0.50860495  1
  O  O95  1  0.17520118  0.95162593  0.39420711  1
  O  O96  1  0.67520118  0.54837407  0.39420711  1
  O  O97  1  0.64576648  0.27338532  0.60955701  1
  O  O98  1  0.96285457  0.60801325  0.17178129  1
  O  O99  1  0.13049739  0.40213365  0.71249863  1
  O  O100  1  0.23551255  0.26132239  0.41958625  1
  O  O101  1  0.76448745  0.23867761  0.91958625  1
  O  O102  1  0.42009805  0.12777540  0.99139505  1
  O  O103  1  0.26448745  0.26132239  0.91958625  1
  O  O104  1  0.85423352  0.27338532  0.10955701  1
  O  O105  1  0.36950261  0.90213365  0.28750137  1
  O  O106  1  0.70545218  0.89609250  0.77883867  1
  O  O107  1  0.03714543  0.39198675  0.82821871  1
  O  O108  1  0.57990195  0.37222460  0.49139505  1
  O  O109  1  0.46285457  0.39198675  0.32821871  1
  O  O110  1  0.32479882  0.45162593  0.60579289  1
  O  O111  1  0.83734960  0.13958893  0.00805463  1
  O  O112  1  0.07990195  0.12777540  0.49139505  1
  O  O113  1  0.13049739  0.90213365  0.78750137  1
  O  O114  1  0.53714543  0.60801325  0.67178129  1
  O  O115  1  0.86950261  0.59786635  0.28750137  1
  O  O116  1  0.20545218  0.60390750  0.77883867  1
  O  O117  1  0.66265040  0.13958893  0.50805463  1
  O  O118  1  0.17520118  0.45162593  0.10579289  1
  O  O119  1  0.62754945  0.65357058  0.21066197  1
  O  O120  1  0.12754945  0.84642942  0.21066197  1
  O  O121  1  0.33734960  0.36041107  0.00805463  1
  O  O122  1  0.23551255  0.76132239  0.08041375  1
  O  O123  1  0.62754945  0.15357058  0.28933803  1
  O  O124  1  0.32479882  0.95162593  0.89420711  1
  O  O125  1  0.83734960  0.63958893  0.49194537  1
  O  O126  1  0.66265040  0.63958893  0.99194537  1
  O  O127  1  0.07990195  0.62777540  0.00860495  1
