# generated using pymatgen
data_K2MoSeO6
_symmetry_space_group_name_H-M   'P 1'
_cell_length_a   15.55646500
_cell_length_b   6.29360700
_cell_length_c   7.77543278
_cell_angle_alpha   67.31509158
_cell_angle_beta   90.00000000
_cell_angle_gamma   90.00000000
_symmetry_Int_Tables_number   1
_chemical_formula_structural   K2MoSeO6
_chemical_formula_sum   'K8 Mo4 Se4 O24'
_cell_volume   702.37209255
_cell_formula_units_Z   4
loop_
 _symmetry_equiv_pos_site_id
 _symmetry_equiv_pos_as_xyz
  1  'x, y, z'
loop_
 _atom_site_type_symbol
 _atom_site_label
 _atom_site_symmetry_multiplicity
 _atom_site_fract_x
 _atom_site_fract_y
 _atom_site_fract_z
 _atom_site_occupancy
  K  K0  1  0.05432400  0.89423900  0.31335700  1
  K  K1  1  0.19828100  0.35821400  0.38918700  1
  K  K2  1  0.94567600  0.10576100  0.68664300  1
  K  K3  1  0.44567600  0.89423900  0.81335700  1
  K  K4  1  0.80171900  0.64178600  0.61081300  1
  K  K5  1  0.69828100  0.64178600  0.11081300  1
  K  K6  1  0.55432400  0.10576100  0.18664300  1
  K  K7  1  0.30171900  0.35821400  0.88918700  1
  Mo  Mo8  1  0.93694000  0.46060800  0.18318300  1
  Mo  Mo9  1  0.43694000  0.53939200  0.31681700  1
  Mo  Mo10  1  0.06306000  0.53939200  0.81681700  1
  Mo  Mo11  1  0.56306000  0.46060800  0.68318300  1
  Se  Se12  1  0.82615800  0.10157500  0.12184200  1
  Se  Se13  1  0.67384200  0.10157500  0.62184200  1
  Se  Se14  1  0.17384200  0.89842500  0.87815800  1
  Se  Se15  1  0.32615800  0.89842500  0.37815800  1
  O  O16  1  0.22863100  0.95092100  0.27701200  1
  O  O17  1  0.02222000  0.37097300  0.34796200  1
  O  O18  1  0.13677100  0.41483600  0.70927200  1
  O  O19  1  0.33539300  0.59587000  0.49141600  1
  O  O20  1  0.16460700  0.59587000  0.99141600  1
  O  O21  1  0.51962800  0.70865200  0.49193100  1
  O  O22  1  0.27136900  0.95092100  0.77701200  1
  O  O23  1  0.01962800  0.29134800  0.00806900  1
  O  O24  1  0.52222000  0.62902700  0.15203800  1
  O  O25  1  0.60418800  0.10543200  0.80167700  1
  O  O26  1  0.39581200  0.89456800  0.19832300  1
  O  O27  1  0.98037200  0.70865200  0.99193100  1
  O  O28  1  0.48037200  0.29134800  0.50806900  1
  O  O29  1  0.47778000  0.37097300  0.84796200  1
  O  O30  1  0.77136900  0.04907900  0.72298800  1
  O  O31  1  0.89581200  0.10543200  0.30167700  1
  O  O32  1  0.63677100  0.58516400  0.79072800  1
  O  O33  1  0.36322900  0.41483600  0.20927200  1
  O  O34  1  0.97778000  0.62902700  0.65203800  1
  O  O35  1  0.72863100  0.04907900  0.22298800  1
  O  O36  1  0.86322900  0.58516400  0.29072800  1
  O  O37  1  0.83539300  0.40413000  0.00858400  1
  O  O38  1  0.10418800  0.89456800  0.69832300  1
  O  O39  1  0.66460700  0.40413000  0.50858400  1
