# generated using pymatgen
data_BaGe2O5
_symmetry_space_group_name_H-M   'P 1'
_cell_length_a   13.26971900
_cell_length_b   9.69559900
_cell_length_c   13.40660810
_cell_angle_alpha   85.95011706
_cell_angle_beta   90.00000000
_cell_angle_gamma   90.00000000
_symmetry_Int_Tables_number   1
_chemical_formula_structural   BaGe2O5
_chemical_formula_sum   'Ba16 Ge32 O80'
_cell_volume   1720.55860675
_cell_formula_units_Z   16
loop_
 _symmetry_equiv_pos_site_id
 _symmetry_equiv_pos_as_xyz
  1  'x, y, z'
loop_
 _atom_site_type_symbol
 _atom_site_label
 _atom_site_symmetry_multiplicity
 _atom_site_fract_x
 _atom_site_fract_y
 _atom_site_fract_z
 _atom_site_occupancy
  Ba  Ba0  1  0.75366000  0.87879200  0.36602500  1
  Ba  Ba1  1  0.99039600  0.38782400  0.13162400  1
  Ba  Ba2  1  0.49039600  0.61217600  0.36837600  1
  Ba  Ba3  1  0.48608900  0.38701300  0.13294800  1
  Ba  Ba4  1  0.24754600  0.86261600  0.38433400  1
  Ba  Ba5  1  0.24634000  0.12120800  0.63397500  1
  Ba  Ba6  1  0.75245400  0.13738400  0.61566600  1
  Ba  Ba7  1  0.51391100  0.61298700  0.86705200  1
  Ba  Ba8  1  0.74754600  0.13738400  0.11566600  1
  Ba  Ba9  1  0.01391100  0.38701300  0.63294800  1
  Ba  Ba10  1  0.00960400  0.61217600  0.86837600  1
  Ba  Ba11  1  0.50960400  0.38782400  0.63162400  1
  Ba  Ba12  1  0.74634000  0.87879200  0.86602500  1
  Ba  Ba13  1  0.25245400  0.86261600  0.88433400  1
  Ba  Ba14  1  0.25366000  0.12120800  0.13397500  1
  Ba  Ba15  1  0.98608900  0.61298700  0.36705200  1
  Ge  Ge16  1  0.50018400  0.01248700  0.76139100  1
  Ge  Ge17  1  0.39354900  0.74981000  0.61337300  1
  Ge  Ge18  1  0.36789800  0.24070800  0.87962800  1
  Ge  Ge19  1  0.63210200  0.75929200  0.12037200  1
  Ge  Ge20  1  0.13111500  0.24024000  0.90859700  1
  Ge  Ge21  1  0.25457100  0.47430000  0.51685800  1
  Ge  Ge22  1  0.86789800  0.75929200  0.62037200  1
  Ge  Ge23  1  0.89354900  0.25019000  0.88662700  1
  Ge  Ge24  1  0.34848200  0.73546900  0.10839900  1
  Ge  Ge25  1  0.13210200  0.24070800  0.37962800  1
  Ge  Ge26  1  0.72656500  0.48061400  0.23947700  1
  Ge  Ge27  1  0.15151800  0.73546900  0.60839900  1
  Ge  Ge28  1  0.74542900  0.52570000  0.48314200  1
  Ge  Ge29  1  0.84848200  0.26453100  0.39160100  1
  Ge  Ge30  1  0.00000000  0.00000000  0.00000000  1
  Ge  Ge31  1  0.49981600  0.98751300  0.23860900  1
  Ge  Ge32  1  0.22656500  0.51938600  0.26052300  1
  Ge  Ge33  1  0.75457100  0.52570000  0.98314200  1
  Ge  Ge34  1  0.65151800  0.26453100  0.89160100  1
  Ge  Ge35  1  0.00018400  0.98751300  0.73860900  1
  Ge  Ge36  1  0.86888500  0.75976000  0.09140300  1
  Ge  Ge37  1  0.99981600  0.01248700  0.26139100  1
  Ge  Ge38  1  0.00000000  0.00000000  0.50000000  1
  Ge  Ge39  1  0.50000000  0.00000000  0.50000000  1
  Ge  Ge40  1  0.77343500  0.48061400  0.73947700  1
  Ge  Ge41  1  0.36888500  0.24024000  0.40859700  1
  Ge  Ge42  1  0.24542900  0.47430000  0.01685800  1
  Ge  Ge43  1  0.27343500  0.51938600  0.76052300  1
  Ge  Ge44  1  0.63111500  0.75976000  0.59140300  1
  Ge  Ge45  1  0.50000000  0.00000000  0.00000000  1
  Ge  Ge46  1  0.60645100  0.25019000  0.38662700  1
  Ge  Ge47  1  0.10645100  0.74981000  0.11337300  1
  O  O48  1  0.35045800  0.32763700  0.51839900  1
  O  O49  1  0.64954200  0.67236300  0.48160100  1
  O  O50  1  0.05249500  0.82276000  0.98755500  1
  O  O51  1  0.65297100  0.38558400  0.98948100  1
  O  O52  1  0.63215600  0.41345900  0.44673700  1
  O  O53  1  0.28966100  0.51865300  0.37964900  1
  O  O54  1  0.65071500  0.66537200  0.00560300  1
  O  O55  1  0.50748700  0.10250400  0.12774300  1
  O  O56  1  0.97188000  0.68864900  0.16210700  1
  O  O57  1  0.85738100  0.36217300  0.27839500  1
  O  O58  1  0.85045800  0.67236300  0.98160100  1
  O  O59  1  0.26249300  0.21946800  0.33181500  1
  O  O60  1  0.12541200  0.06758900  0.96373000  1
  O  O61  1  0.23282400  0.41774200  0.65858500  1
  O  O62  1  0.05855900  0.94544300  0.15014600  1
  O  O63  1  0.04091200  0.82711200  0.57088100  1
  O  O64  1  0.36784400  0.58654100  0.55326300  1
  O  O65  1  0.45908800  0.82711200  0.07088100  1
  O  O66  1  0.73665500  0.16279200  0.41188400  1
  O  O67  1  0.76249300  0.78053200  0.16818500  1
  O  O68  1  0.41566000  0.15685200  0.76445500  1
  O  O69  1  0.55249500  0.17724000  0.51244500  1
  O  O70  1  0.73282400  0.58225800  0.84141500  1
  O  O71  1  0.26334500  0.83720800  0.58811600  1
  O  O72  1  0.84775200  0.31846700  0.75635400  1
  O  O73  1  0.44750500  0.82276000  0.48755500  1
  O  O74  1  0.15224800  0.68153300  0.24364600  1
  O  O75  1  0.58434000  0.84314800  0.23554500  1
  O  O76  1  0.87049000  0.93166200  0.53512800  1
  O  O77  1  0.08434000  0.15685200  0.26445500  1
  O  O78  1  0.62541200  0.93241100  0.53627000  1
  O  O79  1  0.14954200  0.32763700  0.01839900  1
  O  O80  1  0.84702900  0.38558400  0.48948100  1
  O  O81  1  0.02812000  0.31135100  0.83789300  1
  O  O82  1  0.14261900  0.63782700  0.72160500  1
  O  O83  1  0.37458800  0.06758900  0.46373000  1
  O  O84  1  0.78966100  0.48134700  0.12035100  1
  O  O85  1  0.73750700  0.78053200  0.66818500  1
  O  O86  1  0.54091200  0.17288800  0.92911900  1
  O  O87  1  0.00748700  0.89749600  0.37225700  1
  O  O88  1  0.94144100  0.05455700  0.84985400  1
  O  O89  1  0.34775200  0.68153300  0.74364600  1
  O  O90  1  0.62951000  0.93166200  0.03512800  1
  O  O91  1  0.34928500  0.33462800  0.99439700  1
  O  O92  1  0.76717600  0.58225800  0.34141500  1
  O  O93  1  0.23665500  0.83720800  0.08811600  1
  O  O94  1  0.99251300  0.10250400  0.62774300  1
  O  O95  1  0.52812000  0.68864900  0.66210700  1
  O  O96  1  0.91566000  0.84314800  0.73554500  1
  O  O97  1  0.44144100  0.94544300  0.65014600  1
  O  O98  1  0.71033900  0.48134700  0.62035100  1
  O  O99  1  0.49251300  0.89749600  0.87225700  1
  O  O100  1  0.23750700  0.21946800  0.83181500  1
  O  O101  1  0.84928500  0.66537200  0.50560300  1
  O  O102  1  0.86784400  0.41345900  0.94673700  1
  O  O103  1  0.47188000  0.31135100  0.33789300  1
  O  O104  1  0.21033900  0.51865300  0.87964900  1
  O  O105  1  0.15297100  0.61441600  0.51051900  1
  O  O106  1  0.34702900  0.61441600  0.01051900  1
  O  O107  1  0.64261900  0.36217300  0.77839500  1
  O  O108  1  0.87458800  0.93241100  0.03627000  1
  O  O109  1  0.65224800  0.31846700  0.25635400  1
  O  O110  1  0.35738100  0.63782700  0.22160500  1
  O  O111  1  0.55855900  0.05455700  0.34985400  1
  O  O112  1  0.62611800  0.05194800  0.74534600  1
  O  O113  1  0.37049000  0.06833800  0.96487200  1
  O  O114  1  0.94750500  0.17724000  0.01244500  1
  O  O115  1  0.88944800  0.58590700  0.69725500  1
  O  O116  1  0.26717600  0.41774200  0.15858500  1
  O  O117  1  0.11055200  0.41409300  0.30274500  1
  O  O118  1  0.38944800  0.41409300  0.80274500  1
  O  O119  1  0.12611800  0.94805200  0.75465400  1
  O  O120  1  0.12951000  0.06833800  0.46487200  1
  O  O121  1  0.95908800  0.17288800  0.42911900  1
  O  O122  1  0.61055200  0.58590700  0.19725500  1
  O  O123  1  0.87388200  0.05194800  0.24534600  1
  O  O124  1  0.76334500  0.16279200  0.91188400  1
  O  O125  1  0.37388200  0.94805200  0.25465400  1
  O  O126  1  0.15071500  0.33462800  0.49439700  1
  O  O127  1  0.13215600  0.58654100  0.05326300  1
