# generated using pymatgen
data_Mn5Pb(SO4)6
_symmetry_space_group_name_H-M   'P 1'
_cell_length_a   14.86085976
_cell_length_b   14.86085976
_cell_length_c   7.61216200
_cell_angle_alpha   90.00000000
_cell_angle_beta   90.00000000
_cell_angle_gamma   119.99999891
_symmetry_Int_Tables_number   1
_chemical_formula_structural   Mn5Pb(SO4)6
_chemical_formula_sum   'Mn15 Pb3 S18 O72'
_cell_volume   1455.88318499
_cell_formula_units_Z   3
loop_
 _symmetry_equiv_pos_site_id
 _symmetry_equiv_pos_as_xyz
  1  'x, y, z'
loop_
 _atom_site_type_symbol
 _atom_site_label
 _atom_site_symmetry_multiplicity
 _atom_site_fract_x
 _atom_site_fract_y
 _atom_site_fract_z
 _atom_site_occupancy
  Mn  Mn0  1  0.34801300  0.34526500  0.03446200  1
  Mn  Mn1  1  0.65198700  0.65473500  0.96553800  1
  Mn  Mn2  1  0.67822100  0.99679300  0.45310900  1
  Mn  Mn3  1  0.00274800  0.34801300  0.96553800  1
  Mn  Mn4  1  0.00320700  0.68142800  0.45310900  1
  Mn  Mn5  1  0.99725200  0.65198700  0.03446200  1
  Mn  Mn6  1  0.31857200  0.32177900  0.45310900  1
  Mn  Mn7  1  0.00000000  0.00000000  0.00000000  1
  Mn  Mn8  1  0.34526500  0.99725200  0.96553800  1
  Mn  Mn9  1  0.65473500  0.00274800  0.03446200  1
  Mn  Mn10  1  0.33333300  0.66666700  0.49844100  1
  Mn  Mn11  1  0.66666700  0.33333300  0.50155900  1
  Mn  Mn12  1  0.99679300  0.31857200  0.54689100  1
  Mn  Mn13  1  0.68142800  0.67822100  0.54689100  1
  Mn  Mn14  1  0.32177900  0.00320700  0.54689100  1
  Pb  Pb15  1  0.33333300  0.66666700  0.00158900  1
  Pb  Pb16  1  0.66666700  0.33333300  0.99841100  1
  Pb  Pb17  1  0.00000000  0.00000000  0.50000000  1
  S  S18  1  0.22672700  0.09698500  0.24313300  1
  S  S19  1  0.77327300  0.90301500  0.75686700  1
  S  S20  1  0.23457900  0.79419300  0.25686600  1
  S  S21  1  0.76542100  0.20580700  0.74313400  1
  S  S22  1  0.20580700  0.44038600  0.25686600  1
  S  S23  1  0.46205700  0.89236500  0.73968000  1
  S  S24  1  0.10763500  0.56969200  0.73968000  1
  S  S25  1  0.90301500  0.12974200  0.24313300  1
  S  S26  1  0.56969200  0.46205700  0.26032000  1
  S  S27  1  0.12974200  0.22672700  0.75686700  1
  S  S28  1  0.43030800  0.53794300  0.73968000  1
  S  S29  1  0.44038600  0.23457900  0.74313400  1
  S  S30  1  0.53794300  0.10763500  0.26032000  1
  S  S31  1  0.55961400  0.76542100  0.25686600  1
  S  S32  1  0.87025800  0.77327300  0.24313300  1
  S  S33  1  0.79419300  0.55961400  0.74313400  1
  S  S34  1  0.09698500  0.87025800  0.75686700  1
  S  S35  1  0.89236500  0.43030800  0.26032000  1
  O  O36  1  0.78674100  0.74415300  0.11427000  1
  O  O37  1  0.59054500  0.72590600  0.40792800  1
  O  O38  1  0.45496800  0.42338500  0.25620400  1
  O  O39  1  0.83323400  0.77628100  0.42450600  1
  O  O40  1  0.13536100  0.40945500  0.40792800  1
  O  O41  1  0.95741200  0.21325900  0.11427000  1
  O  O42  1  0.95896200  0.87920500  0.20361600  1
  O  O43  1  0.87920500  0.92024300  0.79638400  1
  O  O44  1  0.62040700  0.54000000  0.39884400  1
  O  O45  1  0.84563800  0.55681700  0.90932800  1
  O  O46  1  0.72590600  0.13536100  0.59207200  1
  O  O47  1  0.88003000  0.24599000  0.76227200  1
  O  O48  1  0.08040700  0.62040700  0.60115600  1
  O  O49  1  0.55681700  0.71117900  0.09067200  1
  O  O50  1  0.54000000  0.91959300  0.60115600  1
  O  O51  1  0.63404000  0.88003000  0.23772800  1
  O  O52  1  0.49436800  0.10808500  0.08354100  1
  O  O53  1  0.58569400  0.37191900  0.29339000  1
  O  O54  1  0.61371700  0.50563200  0.08354100  1
  O  O55  1  0.40945500  0.27409400  0.59207200  1
  O  O56  1  0.04258800  0.78674100  0.88573000  1
  O  O57  1  0.15436200  0.44318300  0.09067200  1
  O  O58  1  0.91959300  0.37959300  0.39884400  1
  O  O59  1  0.50563200  0.89191500  0.91645900  1
  O  O60  1  0.36596000  0.11997000  0.76227200  1
  O  O61  1  0.42338500  0.96841700  0.74379600  1
  O  O62  1  0.21167700  0.90922300  0.76087000  1
  O  O63  1  0.21377500  0.58569400  0.70661000  1
  O  O64  1  0.16676600  0.22371900  0.57549400  1
  O  O65  1  0.74913000  0.29622100  0.71223200  1
  O  O66  1  0.28882100  0.84563800  0.09067200  1
  O  O67  1  0.70377900  0.45290900  0.71223200  1
  O  O68  1  0.37191900  0.78622500  0.70661000  1
  O  O69  1  0.75401000  0.63404000  0.76227200  1
  O  O70  1  0.25087000  0.70377900  0.28776800  1
  O  O71  1  0.37959300  0.46000000  0.60115600  1
  O  O72  1  0.27409400  0.86463900  0.40792800  1
  O  O73  1  0.71117900  0.15436200  0.90932800  1
  O  O74  1  0.41430600  0.62808100  0.70661000  1
  O  O75  1  0.46000000  0.08040700  0.39884400  1
  O  O76  1  0.89191500  0.38628300  0.08354100  1
  O  O77  1  0.90922300  0.69754600  0.23913000  1
  O  O78  1  0.12079500  0.07975700  0.20361600  1
  O  O79  1  0.94304600  0.16676600  0.42450600  1
  O  O80  1  0.11997000  0.75401000  0.23772800  1
  O  O81  1  0.10808500  0.61371700  0.91645900  1
  O  O82  1  0.74415300  0.95741200  0.88573000  1
  O  O83  1  0.38628300  0.49436800  0.91645900  1
  O  O84  1  0.69754600  0.78832300  0.76087000  1
  O  O85  1  0.78832300  0.09077700  0.23913000  1
  O  O86  1  0.24599000  0.36596000  0.23772800  1
  O  O87  1  0.62808100  0.21377500  0.29339000  1
  O  O88  1  0.78622500  0.41430600  0.29339000  1
  O  O89  1  0.57661500  0.03158300  0.25620400  1
  O  O90  1  0.29622100  0.54709100  0.28776800  1
  O  O91  1  0.22371900  0.05695400  0.42450600  1
  O  O92  1  0.25584700  0.04258800  0.11427000  1
  O  O93  1  0.54709100  0.25087000  0.71223200  1
  O  O94  1  0.54503200  0.57661500  0.74379600  1
  O  O95  1  0.07975700  0.95896200  0.79638400  1
  O  O96  1  0.30245400  0.21167700  0.23913000  1
  O  O97  1  0.03158300  0.45496800  0.74379600  1
  O  O98  1  0.45290900  0.74913000  0.28776800  1
  O  O99  1  0.04103800  0.12079500  0.79638400  1
  O  O100  1  0.92024300  0.04103800  0.20361600  1
  O  O101  1  0.21325900  0.25584700  0.88573000  1
  O  O102  1  0.96841700  0.54503200  0.25620400  1
  O  O103  1  0.44318300  0.28882100  0.90932800  1
  O  O104  1  0.86463900  0.59054500  0.59207200  1
  O  O105  1  0.09077700  0.30245400  0.76087000  1
  O  O106  1  0.05695400  0.83323400  0.57549400  1
  O  O107  1  0.77628100  0.94304600  0.57549400  1
