# generated using pymatgen
data_SiO2
_symmetry_space_group_name_H-M   'P 1'
_cell_length_a   9.27309428
_cell_length_b   9.27309428
_cell_length_c   9.00393474
_cell_angle_alpha   81.27292928
_cell_angle_beta   81.27292928
_cell_angle_gamma   110.96464556
_symmetry_Int_Tables_number   1
_chemical_formula_structural   SiO2
_chemical_formula_sum   'Si12 O24'
_cell_volume   696.59717016
_cell_formula_units_Z   12
loop_
 _symmetry_equiv_pos_site_id
 _symmetry_equiv_pos_as_xyz
  1  'x, y, z'
loop_
 _atom_site_type_symbol
 _atom_site_label
 _atom_site_symmetry_multiplicity
 _atom_site_fract_x
 _atom_site_fract_y
 _atom_site_fract_z
 _atom_site_occupancy
  Si  Si0  1  0.10806400  0.59577100  0.10541700  1
  Si  Si1  1  0.79957900  0.00240700  0.31046300  1
  Si  Si2  1  0.20042100  0.99759300  0.68953700  1
  Si  Si3  1  0.89193600  0.40422900  0.89458300  1
  Si  Si4  1  0.99759300  0.20042100  0.68953700  1
  Si  Si5  1  0.29757600  0.09453200  0.32942600  1
  Si  Si6  1  0.59577100  0.10806400  0.10541700  1
  Si  Si7  1  0.09453200  0.29757600  0.32942600  1
  Si  Si8  1  0.40422900  0.89193600  0.89458300  1
  Si  Si9  1  0.70242400  0.90546800  0.67057400  1
  Si  Si10  1  0.00240700  0.79957900  0.31046300  1
  Si  Si11  1  0.90546800  0.70242400  0.67057400  1
  O  O12  1  0.82149700  0.06245300  0.71501100  1
  O  O13  1  0.00000000  0.50000000  0.00000000  1
  O  O14  1  0.27539000  0.72461000  0.00000000  1
  O  O15  1  0.12213900  0.12213900  0.73170700  1
  O  O16  1  0.68206200  0.00946600  0.19670800  1
  O  O17  1  0.17850300  0.93754700  0.28498900  1
  O  O18  1  0.14674200  0.47483200  0.22818600  1
  O  O19  1  0.06245300  0.82149700  0.71501100  1
  O  O20  1  0.76021300  0.76021300  0.70807200  1
  O  O21  1  0.30033300  0.05663500  0.51137200  1
  O  O22  1  0.52516800  0.85325800  0.77181400  1
  O  O23  1  0.69966700  0.94336500  0.48862800  1
  O  O24  1  0.47483200  0.14674200  0.22818600  1
  O  O25  1  0.31793800  0.99053400  0.80329200  1
  O  O26  1  0.87786100  0.87786100  0.26829300  1
  O  O27  1  0.85325800  0.52516800  0.77181400  1
  O  O28  1  0.72461000  0.27539000  0.00000000  1
  O  O29  1  0.93754700  0.17850300  0.28498900  1
  O  O30  1  0.50000000  0.00000000  0.00000000  1
  O  O31  1  0.94336500  0.69966700  0.48862800  1
  O  O32  1  0.99053400  0.31793800  0.80329200  1
  O  O33  1  0.23978700  0.23978700  0.29192800  1
  O  O34  1  0.05663500  0.30033300  0.51137200  1
  O  O35  1  0.00946600  0.68206200  0.19670800  1
