# generated using pymatgen
data_RbFeO2
_symmetry_space_group_name_H-M   'P 1'
_cell_length_a   5.82768100
_cell_length_b   11.72609900
_cell_length_c   16.68361400
_cell_angle_alpha   90.00000000
_cell_angle_beta   90.00000000
_cell_angle_gamma   90.00000000
_symmetry_Int_Tables_number   1
_chemical_formula_structural   RbFeO2
_chemical_formula_sum   'Rb16 Fe16 O32'
_cell_volume   1140.09085147
_cell_formula_units_Z   16
loop_
 _symmetry_equiv_pos_site_id
 _symmetry_equiv_pos_as_xyz
  1  'x, y, z'
loop_
 _atom_site_type_symbol
 _atom_site_label
 _atom_site_symmetry_multiplicity
 _atom_site_fract_x
 _atom_site_fract_y
 _atom_site_fract_z
 _atom_site_occupancy
  Rb  Rb0  1  0.30034700  0.23940200  0.81464900  1
  Rb  Rb1  1  0.80034700  0.26059800  0.18535100  1
  Rb  Rb2  1  0.24820600  0.51083700  0.43800500  1
  Rb  Rb3  1  0.75179400  0.01083700  0.06199500  1
  Rb  Rb4  1  0.24820600  0.98916300  0.93800500  1
  Rb  Rb5  1  0.74820600  0.51083700  0.06199500  1
  Rb  Rb6  1  0.80034700  0.23940200  0.68535100  1
  Rb  Rb7  1  0.19965300  0.73940200  0.81464900  1
  Rb  Rb8  1  0.25179400  0.01083700  0.43800500  1
  Rb  Rb9  1  0.19965300  0.76059800  0.31464900  1
  Rb  Rb10  1  0.74820600  0.98916300  0.56199500  1
  Rb  Rb11  1  0.69965300  0.73940200  0.68535100  1
  Rb  Rb12  1  0.69965300  0.76059800  0.18535100  1
  Rb  Rb13  1  0.30034700  0.26059800  0.31464900  1
  Rb  Rb14  1  0.75179400  0.48916300  0.56199500  1
  Rb  Rb15  1  0.25179400  0.48916300  0.93800500  1
  Fe  Fe16  1  0.21473300  0.73904200  0.56363100  1
  Fe  Fe17  1  0.21473300  0.76095800  0.06363100  1
  Fe  Fe18  1  0.28526700  0.26095800  0.06363100  1
  Fe  Fe19  1  0.75459100  0.49443300  0.81126500  1
  Fe  Fe20  1  0.24540900  0.50556700  0.18873500  1
  Fe  Fe21  1  0.24540900  0.99443300  0.68873500  1
  Fe  Fe22  1  0.28526700  0.23904200  0.56363100  1
  Fe  Fe23  1  0.78526700  0.23904200  0.93636900  1
  Fe  Fe24  1  0.74540900  0.99443300  0.81126500  1
  Fe  Fe25  1  0.78526700  0.26095800  0.43636900  1
  Fe  Fe26  1  0.75459100  0.00556700  0.31126500  1
  Fe  Fe27  1  0.71473300  0.76095800  0.43636900  1
  Fe  Fe28  1  0.74540900  0.50556700  0.31126500  1
  Fe  Fe29  1  0.25459100  0.49443300  0.68873500  1
  Fe  Fe30  1  0.71473300  0.73904200  0.93636900  1
  Fe  Fe31  1  0.25459100  0.00556700  0.18873500  1
  O  O32  1  0.80654100  0.15764800  0.34840500  1
  O  O33  1  0.05761200  0.02046000  0.78095100  1
  O  O34  1  0.69345900  0.65764800  0.34840500  1
  O  O35  1  0.83207100  0.90244600  0.39590600  1
  O  O36  1  0.91777200  0.71048000  0.51894400  1
  O  O37  1  0.66792900  0.09755400  0.89590600  1
  O  O38  1  0.58222800  0.21048000  0.51894400  1
  O  O39  1  0.94238800  0.97954000  0.21904900  1
  O  O40  1  0.69345900  0.84235200  0.84840500  1
  O  O41  1  0.91777200  0.78952000  0.01894400  1
  O  O42  1  0.94238800  0.52046000  0.71904900  1
  O  O43  1  0.19345900  0.65764800  0.15159500  1
  O  O44  1  0.16792900  0.09755400  0.60409400  1
  O  O45  1  0.55761200  0.47954000  0.21904900  1
  O  O46  1  0.58222800  0.28952000  0.01894400  1
  O  O47  1  0.83207100  0.59755400  0.89590600  1
  O  O48  1  0.16792900  0.40244600  0.10409400  1
  O  O49  1  0.44238800  0.52046000  0.78095100  1
  O  O50  1  0.41777200  0.78952000  0.48105600  1
  O  O51  1  0.05761200  0.47954000  0.28095100  1
  O  O52  1  0.41777200  0.71048000  0.98105600  1
  O  O53  1  0.44238800  0.97954000  0.28095100  1
  O  O54  1  0.33207100  0.90244600  0.10409400  1
  O  O55  1  0.66792900  0.40244600  0.39590600  1
  O  O56  1  0.30654100  0.15764800  0.15159500  1
  O  O57  1  0.30654100  0.34235200  0.65159500  1
  O  O58  1  0.33207100  0.59755400  0.60409400  1
  O  O59  1  0.19345900  0.84235200  0.65159500  1
  O  O60  1  0.08222800  0.21048000  0.98105600  1
  O  O61  1  0.80654100  0.34235200  0.84840500  1
  O  O62  1  0.08222800  0.28952000  0.48105600  1
  O  O63  1  0.55761200  0.02046000  0.71904900  1
