# generated using pymatgen
data_CaHf4O9
_symmetry_space_group_name_H-M   'P 1'
_cell_length_a   11.48200194
_cell_length_b   11.48200194
_cell_length_c   12.03851775
_cell_angle_alpha   67.88418410
_cell_angle_beta   67.88418410
_cell_angle_gamma   79.18231461
_symmetry_Int_Tables_number   1
_chemical_formula_structural   CaHf4O9
_chemical_formula_sum   'Ca8 Hf32 O72'
_cell_volume   1360.20791663
_cell_formula_units_Z   8
loop_
 _symmetry_equiv_pos_site_id
 _symmetry_equiv_pos_as_xyz
  1  'x, y, z'
loop_
 _atom_site_type_symbol
 _atom_site_label
 _atom_site_symmetry_multiplicity
 _atom_site_fract_x
 _atom_site_fract_y
 _atom_site_fract_z
 _atom_site_occupancy
  Ca  Ca0  1  0.88654900  0.51145200  0.14974200  1
  Ca  Ca1  1  0.48854800  0.11345100  0.35025800  1
  Ca  Ca2  1  0.51145200  0.88654900  0.64974200  1
  Ca  Ca3  1  0.06306100  0.93693900  0.25000000  1
  Ca  Ca4  1  0.93693900  0.06306100  0.75000000  1
  Ca  Ca5  1  0.56387300  0.43612700  0.25000000  1
  Ca  Ca6  1  0.43612700  0.56387300  0.75000000  1
  Ca  Ca7  1  0.11345100  0.48854800  0.85025800  1
  Hf  Hf8  1  0.37475000  0.99349100  0.17755100  1
  Hf  Hf9  1  0.06409000  0.15140300  0.93576300  1
  Hf  Hf10  1  0.84859700  0.93591000  0.56423700  1
  Hf  Hf11  1  0.18525100  0.81474900  0.75000000  1
  Hf  Hf12  1  0.69587800  0.06502800  0.05082800  1
  Hf  Hf13  1  0.93591000  0.84859700  0.06423700  1
  Hf  Hf14  1  0.41666300  0.78903200  0.44882900  1
  Hf  Hf15  1  0.51568900  0.66520500  0.95040100  1
  Hf  Hf16  1  0.68759000  0.31241000  0.75000000  1
  Hf  Hf17  1  0.88275200  0.74346200  0.84888100  1
  Hf  Hf18  1  0.30412200  0.93497200  0.94917200  1
  Hf  Hf19  1  0.00650900  0.62525000  0.32244900  1
  Hf  Hf20  1  0.74920800  0.64133000  0.62024800  1
  Hf  Hf21  1  0.66520500  0.51568900  0.45040100  1
  Hf  Hf22  1  0.48431100  0.33479500  0.04959900  1
  Hf  Hf23  1  0.74346200  0.88275200  0.34888100  1
  Hf  Hf24  1  0.99349100  0.37475000  0.67755100  1
  Hf  Hf25  1  0.62525000  0.00650900  0.82244900  1
  Hf  Hf26  1  0.64133000  0.74920800  0.12024800  1
  Hf  Hf27  1  0.81474900  0.18525100  0.25000000  1
  Hf  Hf28  1  0.06502800  0.69587800  0.55082800  1
  Hf  Hf29  1  0.33479500  0.48431100  0.54959900  1
  Hf  Hf30  1  0.25653800  0.11724800  0.65111900  1
  Hf  Hf31  1  0.11724800  0.25653800  0.15111900  1
  Hf  Hf32  1  0.35867000  0.25079200  0.87975200  1
  Hf  Hf33  1  0.58333700  0.21096800  0.55117100  1
  Hf  Hf34  1  0.15140300  0.06409000  0.43576300  1
  Hf  Hf35  1  0.21096800  0.58333700  0.05117100  1
  Hf  Hf36  1  0.25079200  0.35867000  0.37975200  1
  Hf  Hf37  1  0.31241000  0.68759000  0.25000000  1
  Hf  Hf38  1  0.78903200  0.41666300  0.94882900  1
  Hf  Hf39  1  0.93497200  0.30412200  0.44917200  1
  O  O40  1  0.26781600  0.68233600  0.47767400  1
  O  O41  1  0.90053500  0.55273600  0.92021900  1
  O  O42  1  0.60667200  0.93729300  0.02012300  1
  O  O43  1  0.55273600  0.90053500  0.42021900  1
  O  O44  1  0.10558700  0.95469300  0.02140700  1
  O  O45  1  0.65029000  0.49189500  0.63703300  1
  O  O46  1  0.44726400  0.09946500  0.57978100  1
  O  O47  1  0.50810500  0.34971000  0.86296700  1
  O  O48  1  0.51558400  0.39369300  0.49219600  1
  O  O49  1  0.32733200  0.42054000  0.73709100  1
  O  O50  1  0.64062300  0.22038000  0.36867500  1
  O  O51  1  0.60630700  0.48441600  0.00780400  1
  O  O52  1  0.31764400  0.27410400  0.05866100  1
  O  O53  1  0.42054000  0.32733200  0.23709100  1
  O  O54  1  0.67811900  0.04006500  0.62196500  1
  O  O55  1  0.32188100  0.95993500  0.37803500  1
  O  O56  1  0.06270700  0.39332800  0.47987700  1
  O  O57  1  0.49189500  0.65029000  0.13703300  1
  O  O58  1  0.00658800  0.85169500  0.87192100  1
  O  O59  1  0.86876400  0.73506700  0.67210500  1
  O  O60  1  0.72589600  0.68235600  0.44133900  1
  O  O61  1  0.57946000  0.67266800  0.76290900  1
  O  O62  1  0.27899500  0.87679700  0.15088300  1
  O  O63  1  0.50473500  0.11605200  0.14304400  1
  O  O64  1  0.77962000  0.35937700  0.13132500  1
  O  O65  1  0.95993500  0.32188100  0.87803500  1
  O  O66  1  0.72045600  0.07364000  0.21393900  1
  O  O67  1  0.27410400  0.31764400  0.55866100  1
  O  O68  1  0.09946500  0.44726400  0.07978100  1
  O  O69  1  0.54340900  0.19359300  0.74579200  1
  O  O70  1  0.87679700  0.27899500  0.65088300  1
  O  O71  1  0.12320300  0.72100500  0.34911700  1
  O  O72  1  0.35937700  0.77962000  0.63132500  1
  O  O73  1  0.80640700  0.45659100  0.75420800  1
  O  O74  1  0.18926000  0.07575500  0.24081100  1
  O  O75  1  0.22038000  0.64062300  0.86867500  1
  O  O76  1  0.16381700  0.27416900  0.95643400  1
  O  O77  1  0.73506700  0.86876400  0.17210500  1
  O  O78  1  0.07575500  0.18926000  0.74081100  1
  O  O79  1  0.39332800  0.06270700  0.97987700  1
  O  O80  1  0.04006500  0.67811900  0.12196500  1
  O  O81  1  0.04530700  0.89441300  0.47859300  1
  O  O82  1  0.85169500  0.00658800  0.37192100  1
  O  O83  1  0.13123600  0.26493300  0.32789500  1
  O  O84  1  0.48441600  0.60630700  0.50780400  1
  O  O85  1  0.88394800  0.49526500  0.35695600  1
  O  O86  1  0.19359300  0.54340900  0.24579200  1
  O  O87  1  0.93729300  0.60667200  0.52012300  1
  O  O88  1  0.95469300  0.10558700  0.52140700  1
  O  O89  1  0.68235600  0.72589600  0.94133900  1
  O  O90  1  0.14830500  0.99341200  0.62807900  1
  O  O91  1  0.27954400  0.92636000  0.78606100  1
  O  O92  1  0.07364000  0.72045600  0.71393900  1
  O  O93  1  0.73218400  0.31766400  0.52232600  1
  O  O94  1  0.11605200  0.50473500  0.64304400  1
  O  O95  1  0.68233600  0.26781600  0.97767400  1
  O  O96  1  0.92636000  0.27954400  0.28606100  1
  O  O97  1  0.49526500  0.88394800  0.85695600  1
  O  O98  1  0.27416900  0.16381700  0.45643400  1
  O  O99  1  0.34971000  0.50810500  0.36296700  1
  O  O100  1  0.26493300  0.13123600  0.82789500  1
  O  O101  1  0.81074000  0.92424500  0.75918900  1
  O  O102  1  0.99341200  0.14830500  0.12807900  1
  O  O103  1  0.83618300  0.72583100  0.04356600  1
  O  O104  1  0.89441300  0.04530700  0.97859300  1
  O  O105  1  0.45659100  0.80640700  0.25420800  1
  O  O106  1  0.72100500  0.12320300  0.84911700  1
  O  O107  1  0.39369300  0.51558400  0.99219600  1
  O  O108  1  0.72583100  0.83618300  0.54356600  1
  O  O109  1  0.31766400  0.73218400  0.02232600  1
  O  O110  1  0.92424500  0.81074000  0.25918900  1
  O  O111  1  0.67266800  0.57946000  0.26290900  1
