data_image0
_chemical_formula_structural       Pr2Se2Te4
_chemical_formula_sum              "Pr2 Se2 Te4"
_cell_length_a       4.31145
_cell_length_b       4.3115
_cell_length_c       13.2127
_cell_angle_alpha    80.6098
_cell_angle_beta     90
_cell_angle_gamma    90

_space_group_name_H-M_alt    "P 1"
_space_group_IT_number       1

loop_
  _space_group_symop_operation_xyz
  'x, y, z'

loop_
  _atom_site_type_symbol
  _atom_site_label
  _atom_site_symmetry_multiplicity
  _atom_site_fract_x
  _atom_site_fract_y
  _atom_site_fract_z
  _atom_site_occupancy
  Pr  Pr1       1.0  0.25000  0.82100  0.35700  1.0000
  Pr  Pr2       1.0  0.75000  0.17900  0.64300  1.0000
  Se  Se1       1.0  0.75000  0.29500  0.41000  1.0000
  Se  Se2       1.0  0.25000  0.70500  0.59000  1.0000
  Te  Te1       1.0  0.75000  0.92400  0.15100  1.0000
  Te  Te2       1.0  0.25000  0.42400  0.15100  1.0000
  Te  Te3       1.0  0.75000  0.57600  0.84900  1.0000
  Te  Te4       1.0  0.25000  0.07570  0.84900  1.0000
