# generated using pymatgen
data_Ag2PO3F
_symmetry_space_group_name_H-M   'P 1'
_cell_length_a   5.50267259
_cell_length_b   5.50267259
_cell_length_c   15.24917491
_cell_angle_alpha   88.01806063
_cell_angle_beta   88.01806063
_cell_angle_gamma   61.78974953
_symmetry_Int_Tables_number   1
_chemical_formula_structural   Ag2PO3F
_chemical_formula_sum   'Ag8 P4 O12 F4'
_cell_volume   406.55984994
_cell_formula_units_Z   4
loop_
 _symmetry_equiv_pos_site_id
 _symmetry_equiv_pos_as_xyz
  1  'x, y, z'
loop_
 _atom_site_type_symbol
 _atom_site_label
 _atom_site_symmetry_multiplicity
 _atom_site_fract_x
 _atom_site_fract_y
 _atom_site_fract_z
 _atom_site_occupancy
  Ag  Ag0  1  0.61366500  0.68763300  0.33295700  1
  Ag  Ag1  1  0.02788700  0.97211300  0.75000000  1
  Ag  Ag2  1  0.38633500  0.31236700  0.66704300  1
  Ag  Ag3  1  0.68763300  0.61366500  0.83295700  1
  Ag  Ag4  1  0.31236700  0.38633500  0.16704300  1
  Ag  Ag5  1  0.97211300  0.02788700  0.25000000  1
  Ag  Ag6  1  0.00000000  0.00000000  0.00000000  1
  Ag  Ag7  1  0.00000000  0.00000000  0.50000000  1
  P  P8  1  0.64379000  0.73132000  0.12021700  1
  P  P9  1  0.35621000  0.26868000  0.87978300  1
  P  P10  1  0.73132000  0.64379000  0.62021700  1
  P  P11  1  0.26868000  0.35621000  0.37978300  1
  O  O12  1  0.16116500  0.48987400  0.81509000  1
  O  O13  1  0.66094900  0.19316300  0.86591300  1
  O  O14  1  0.69751600  0.98037200  0.10852800  1
  O  O15  1  0.19316300  0.66094900  0.36591300  1
  O  O16  1  0.83883500  0.51012600  0.18491000  1
  O  O17  1  0.51012600  0.83883500  0.68491000  1
  O  O18  1  0.98037200  0.69751600  0.60852800  1
  O  O19  1  0.48987400  0.16116500  0.31509000  1
  O  O20  1  0.01962800  0.30248400  0.39147200  1
  O  O21  1  0.30248400  0.01962800  0.89147200  1
  O  O22  1  0.80683700  0.33905100  0.63408700  1
  O  O23  1  0.33905100  0.80683700  0.13408700  1
  F  F24  1  0.41650200  0.27487900  0.47352800  1
  F  F25  1  0.58349800  0.72512100  0.52647200  1
  F  F26  1  0.72512100  0.58349800  0.02647200  1
  F  F27  1  0.27487900  0.41650200  0.97352800  1
