# generated using pymatgen
data_AsC2S2(OF3)3
_symmetry_space_group_name_H-M   'P 1'
_cell_length_a   7.75723300
_cell_length_b   7.95647200
_cell_length_c   16.79459700
_cell_angle_alpha   90.00000000
_cell_angle_beta   90.00000000
_cell_angle_gamma   90.00000000
_symmetry_Int_Tables_number   1
_chemical_formula_structural   AsC2S2(OF3)3
_chemical_formula_sum   'As4 C8 S8 O12 F36'
_cell_volume   1036.56600604
_cell_formula_units_Z   4
loop_
 _symmetry_equiv_pos_site_id
 _symmetry_equiv_pos_as_xyz
  1  'x, y, z'
loop_
 _atom_site_type_symbol
 _atom_site_label
 _atom_site_symmetry_multiplicity
 _atom_site_fract_x
 _atom_site_fract_y
 _atom_site_fract_z
 _atom_site_occupancy
  As  As0  1  0.87126700  0.75000000  0.38306000  1
  As  As1  1  0.62873300  0.25000000  0.88306000  1
  As  As2  1  0.37126700  0.75000000  0.11694000  1
  As  As3  1  0.12873300  0.25000000  0.61694000  1
  C  C4  1  0.84617400  0.41116300  0.11948500  1
  C  C5  1  0.15382600  0.91116300  0.88051500  1
  C  C6  1  0.65382600  0.58883700  0.61948500  1
  C  C7  1  0.34617400  0.41116300  0.38051500  1
  C  C8  1  0.65382600  0.91116300  0.61948500  1
  C  C9  1  0.84617400  0.08883700  0.11948500  1
  C  C10  1  0.15382600  0.58883700  0.88051500  1
  C  C11  1  0.34617400  0.08883700  0.38051500  1
  S  S12  1  0.52235200  0.25000000  0.35595600  1
  S  S13  1  0.19163500  0.25000000  0.43021100  1
  S  S14  1  0.02235200  0.25000000  0.14404400  1
  S  S15  1  0.47764800  0.75000000  0.64404400  1
  S  S16  1  0.97764800  0.75000000  0.85595600  1
  S  S17  1  0.80836500  0.75000000  0.56978900  1
  S  S18  1  0.30836500  0.75000000  0.93021100  1
  S  S19  1  0.69163500  0.25000000  0.06978900  1
  O  O20  1  0.64900800  0.25000000  0.41811600  1
  O  O21  1  0.73131700  0.75000000  0.48483200  1
  O  O22  1  0.94079800  0.75000000  0.77222700  1
  O  O23  1  0.14900800  0.25000000  0.08188400  1
  O  O24  1  0.85099200  0.75000000  0.91811600  1
  O  O25  1  0.44079800  0.75000000  0.72777300  1
  O  O26  1  0.35099200  0.75000000  0.58188400  1
  O  O27  1  0.26868300  0.25000000  0.51516800  1
  O  O28  1  0.76868300  0.25000000  0.98483200  1
  O  O29  1  0.23131700  0.75000000  0.01516800  1
  O  O30  1  0.55920200  0.25000000  0.27222700  1
  O  O31  1  0.05920200  0.25000000  0.22777300  1
  F  F32  1  0.00292900  0.90555300  0.42735100  1
  F  F33  1  0.39216600  0.97169900  0.43250300  1
  F  F34  1  0.49707100  0.09444700  0.92735100  1
  F  F35  1  0.51388800  0.25000000  0.79433200  1
  F  F36  1  0.89216600  0.52830100  0.06749700  1
  F  F37  1  0.22212700  0.52182500  0.81511000  1
  F  F38  1  0.27787300  0.47817500  0.31511000  1
  F  F39  1  0.27787300  0.02182500  0.31511000  1
  F  F40  1  0.72617200  0.90564900  0.35203700  1
  F  F41  1  0.22617200  0.59435100  0.14796300  1
  F  F42  1  0.00292900  0.59444700  0.42735100  1
  F  F43  1  0.72212700  0.52182500  0.68489000  1
  F  F44  1  0.50292900  0.90555300  0.07264900  1
  F  F45  1  0.77787300  0.02182500  0.18489000  1
  F  F46  1  0.50292900  0.59444700  0.07264900  1
  F  F47  1  0.22617200  0.90564900  0.14796300  1
  F  F48  1  0.01388800  0.25000000  0.70566800  1
  F  F49  1  0.77382800  0.40564900  0.85203700  1
  F  F50  1  0.77382800  0.09435100  0.85203700  1
  F  F51  1  0.60783400  0.47169900  0.56749700  1
  F  F52  1  0.22212700  0.97817500  0.81511000  1
  F  F53  1  0.72212700  0.97817500  0.68489000  1
  F  F54  1  0.49707100  0.40555300  0.92735100  1
  F  F55  1  0.39216600  0.52830100  0.43250300  1
  F  F56  1  0.27382800  0.09435100  0.64796300  1
  F  F57  1  0.98611200  0.75000000  0.29433200  1
  F  F58  1  0.48611200  0.75000000  0.20566800  1
  F  F59  1  0.99707100  0.09444700  0.57264900  1
  F  F60  1  0.60783400  0.02830100  0.56749700  1
  F  F61  1  0.10783400  0.47169900  0.93250300  1
  F  F62  1  0.89216600  0.97169900  0.06749700  1
  F  F63  1  0.72617200  0.59435100  0.35203700  1
  F  F64  1  0.77787300  0.47817500  0.18489000  1
  F  F65  1  0.10783400  0.02830100  0.93250300  1
  F  F66  1  0.27382800  0.40564900  0.64796300  1
  F  F67  1  0.99707100  0.40555300  0.57264900  1
