# generated using pymatgen
data_SrEr2O4
_symmetry_space_group_name_H-M   'P 1'
_cell_length_a   3.23161500
_cell_length_b   6.04980500
_cell_length_c   7.82931240
_cell_angle_alpha   86.19840899
_cell_angle_beta   90.00000000
_cell_angle_gamma   90.00000000
_symmetry_Int_Tables_number   1
_chemical_formula_structural   SrEr2O4
_chemical_formula_sum   'Sr1 Er2 O4'
_cell_volume   152.73126606
_cell_formula_units_Z   1
loop_
 _symmetry_equiv_pos_site_id
 _symmetry_equiv_pos_as_xyz
  1  'x, y, z'
loop_
 _atom_site_type_symbol
 _atom_site_label
 _atom_site_symmetry_multiplicity
 _atom_site_fract_x
 _atom_site_fract_y
 _atom_site_fract_z
 _atom_site_occupancy
  Sr  Sr0  1  0.50000000  0.33709200  0.82054400  1
  Er  Er1  1  0.00000000  0.47808300  0.34882700  1
  Er  Er2  1  0.00000000  0.99344800  0.15620000  1
  O  O3  1  0.50000000  0.23999000  0.21823300  1
  O  O4  1  0.50000000  0.73919300  0.22208500  1
  O  O5  1  0.50000000  0.45315600  0.53096300  1
  O  O6  1  0.00000000  0.08582000  0.89975000  1
