# generated using pymatgen
data_Na2Zn(SiO3)2
_symmetry_space_group_name_H-M   'P 1'
_cell_length_a   5.74237485
_cell_length_b   5.74237485
_cell_length_c   10.04527611
_cell_angle_alpha   88.57839587
_cell_angle_beta   88.57839587
_cell_angle_gamma   114.12457768
_symmetry_Int_Tables_number   1
_chemical_formula_structural   Na2Zn(SiO3)2
_chemical_formula_sum   'Na4 Zn2 Si4 O12'
_cell_volume   301.99580815
_cell_formula_units_Z   2
loop_
 _symmetry_equiv_pos_site_id
 _symmetry_equiv_pos_as_xyz
  1  'x, y, z'
loop_
 _atom_site_type_symbol
 _atom_site_label
 _atom_site_symmetry_multiplicity
 _atom_site_fract_x
 _atom_site_fract_y
 _atom_site_fract_z
 _atom_site_occupancy
  Na  Na0  1  0.25693300  0.61466600  0.10380500  1
  Na  Na1  1  0.38533400  0.74306700  0.39619500  1
  Na  Na2  1  0.74306700  0.38533400  0.89619500  1
  Na  Na3  1  0.61466600  0.25693300  0.60380500  1
  Zn  Zn4  1  0.72422500  0.27577500  0.25000000  1
  Zn  Zn5  1  0.27577500  0.72422500  0.75000000  1
  Si  Si6  1  0.85868700  0.83910600  0.13793000  1
  Si  Si7  1  0.14131300  0.16089400  0.86207000  1
  Si  Si8  1  0.83910600  0.85868700  0.63793000  1
  Si  Si9  1  0.16089400  0.14131300  0.36207000  1
  O  O10  1  0.08532900  0.91467100  0.25000000  1
  O  O11  1  0.46277700  0.23032300  0.39086100  1
  O  O12  1  0.08341600  0.37018700  0.31108800  1
  O  O13  1  0.53722300  0.76967700  0.60913900  1
  O  O14  1  0.23032300  0.46277700  0.89086100  1
  O  O15  1  0.76967700  0.53722300  0.10913900  1
  O  O16  1  0.91658400  0.62981300  0.68891200  1
  O  O17  1  0.00000000  0.00000000  0.50000000  1
  O  O18  1  0.37018700  0.08341600  0.81108800  1
  O  O19  1  0.62981300  0.91658400  0.18891200  1
  O  O20  1  0.91467100  0.08532900  0.75000000  1
  O  O21  1  0.00000000  0.00000000  0.00000000  1
