# generated using pymatgen
data_Sr2Cd2Cu(SO)2
_symmetry_space_group_name_H-M   'P 1'
_cell_length_a   10.85773349
_cell_length_b   10.85773349
_cell_length_c   10.85773349
_cell_angle_alpha   158.43816629
_cell_angle_beta   158.43816629
_cell_angle_gamma   30.67858931
_symmetry_Int_Tables_number   1
_chemical_formula_structural   Sr2Cd2Cu(SO)2
_chemical_formula_sum   'Sr2 Cd2 Cu1 S2 O2'
_cell_volume   172.76615443
_cell_formula_units_Z   1
loop_
 _symmetry_equiv_pos_site_id
 _symmetry_equiv_pos_as_xyz
  1  'x, y, z'
loop_
 _atom_site_type_symbol
 _atom_site_label
 _atom_site_symmetry_multiplicity
 _atom_site_fract_x
 _atom_site_fract_y
 _atom_site_fract_z
 _atom_site_occupancy
  Sr  Sr0  1  0.57848300  0.57848300  0.00000000  1
  Sr  Sr1  1  0.42151700  0.42151700  0.00000000  1
  Cd  Cd2  1  0.25000000  0.75000000  0.50000000  1
  Cd  Cd3  1  0.75000000  0.25000000  0.50000000  1
  Cu  Cu4  1  0.00000000  0.00000000  0.00000000  1
  S  S5  1  0.85544400  0.85544400  0.00000000  1
  S  S6  1  0.14455600  0.14455600  0.00000000  1
  O  O7  1  0.00000000  0.50000000  0.50000000  1
  O  O8  1  0.50000000  0.00000000  0.50000000  1
