data_image0
_chemical_formula_structural       F6RbSb
_chemical_formula_sum              "F6 Rb1 Sb1"
_cell_length_a       4.82946
_cell_length_b       4.82946
_cell_length_c       4.82946
_cell_angle_alpha    97.2308
_cell_angle_beta     97.2308
_cell_angle_gamma    97.2308

_space_group_name_H-M_alt    "P 1"
_space_group_IT_number       1

loop_
  _space_group_symop_operation_xyz
  'x, y, z'

loop_
  _atom_site_type_symbol
  _atom_site_label
  _atom_site_symmetry_multiplicity
  _atom_site_fract_x
  _atom_site_fract_y
  _atom_site_fract_z
  _atom_site_occupancy
  F   F1        1.0  0.79200  0.66200  0.07610  1.0000
  F   F2        1.0  0.33800  0.92400  0.20800  1.0000
  F   F3        1.0  0.92400  0.20800  0.33800  1.0000
  F   F4        1.0  0.07610  0.79200  0.66200  1.0000
  F   F5        1.0  0.66200  0.07610  0.79200  1.0000
  F   F6        1.0  0.20800  0.33800  0.92400  1.0000
  Rb  Rb1       1.0  0.50000  0.50000  0.50000  1.0000
  Sb  Sb1       1.0  0.00000  0.00000  0.00000  1.0000
