# generated using pymatgen
data_Mn3(PO4)2
_symmetry_space_group_name_H-M   'P 1'
_cell_length_a   6.77737400
_cell_length_b   5.31620500
_cell_length_c   10.12124939
_cell_angle_alpha   63.53665281
_cell_angle_beta   90.00000000
_cell_angle_gamma   90.00000000
_symmetry_Int_Tables_number   1
_chemical_formula_structural   Mn3(PO4)2
_chemical_formula_sum   'Mn6 P4 O16'
_cell_volume   326.45767865
_cell_formula_units_Z   2
loop_
 _symmetry_equiv_pos_site_id
 _symmetry_equiv_pos_as_xyz
  1  'x, y, z'
loop_
 _atom_site_type_symbol
 _atom_site_label
 _atom_site_symmetry_multiplicity
 _atom_site_fract_x
 _atom_site_fract_y
 _atom_site_fract_z
 _atom_site_occupancy
  Mn  Mn0  1  0.65640000  0.78480700  0.12765700  1
  Mn  Mn1  1  0.34360000  0.21519300  0.87234300  1
  Mn  Mn2  1  0.84360000  0.78480700  0.62765700  1
  Mn  Mn3  1  0.50000000  0.50000000  0.50000000  1
  Mn  Mn4  1  0.15640000  0.21519300  0.37234300  1
  Mn  Mn5  1  0.00000000  0.50000000  0.00000000  1
  P  P6  1  0.83344600  0.15640200  0.80746700  1
  P  P7  1  0.66655400  0.15640200  0.30746700  1
  P  P8  1  0.16655400  0.84359800  0.19253300  1
  P  P9  1  0.33344600  0.84359800  0.69253300  1
  O  O10  1  0.87269700  0.85917000  0.81706800  1
  O  O11  1  0.62730300  0.85917000  0.31706800  1
  O  O12  1  0.48646100  0.26409500  0.36298900  1
  O  O13  1  0.29093300  0.63121000  0.85514400  1
  O  O14  1  0.70906700  0.36879000  0.14485600  1
  O  O15  1  0.34336700  0.87008800  0.08872000  1
  O  O16  1  0.12730300  0.14083000  0.18293200  1
  O  O17  1  0.37269700  0.14083000  0.68293200  1
  O  O18  1  0.65663300  0.12991200  0.91128000  1
  O  O19  1  0.20906700  0.63121000  0.35514400  1
  O  O20  1  0.79093300  0.36879000  0.64485600  1
  O  O21  1  0.51353900  0.73590500  0.63701100  1
  O  O22  1  0.01353900  0.26409500  0.86298900  1
  O  O23  1  0.98646100  0.73590500  0.13701100  1
  O  O24  1  0.84336700  0.12991200  0.41128000  1
  O  O25  1  0.15663300  0.87008800  0.58872000  1
