# generated using pymatgen
data_ScF3
_symmetry_space_group_name_H-M   'P 1'
_cell_length_a   4.81515500
_cell_length_b   5.47159800
_cell_length_c   6.96614400
_cell_angle_alpha   90.00000000
_cell_angle_beta   90.00000000
_cell_angle_gamma   90.00000000
_symmetry_Int_Tables_number   1
_chemical_formula_structural   ScF3
_chemical_formula_sum   'Sc4 F12'
_cell_volume   183.53415704
_cell_formula_units_Z   4
loop_
 _symmetry_equiv_pos_site_id
 _symmetry_equiv_pos_as_xyz
  1  'x, y, z'
loop_
 _atom_site_type_symbol
 _atom_site_label
 _atom_site_symmetry_multiplicity
 _atom_site_fract_x
 _atom_site_fract_y
 _atom_site_fract_z
 _atom_site_occupancy
  Sc  Sc0  1  0.96041700  0.63117900  0.75000000  1
  Sc  Sc1  1  0.46041700  0.86882100  0.25000000  1
  Sc  Sc2  1  0.53958300  0.13117900  0.75000000  1
  Sc  Sc3  1  0.03958300  0.36882100  0.25000000  1
  F  F4  1  0.31907600  0.15253500  0.42471100  1
  F  F5  1  0.81907600  0.34746500  0.57528900  1
  F  F6  1  0.18092400  0.65253500  0.07528900  1
  F  F7  1  0.68092400  0.84746500  0.92471100  1
  F  F8  1  0.67566600  0.55575600  0.25000000  1
  F  F9  1  0.17566600  0.94424400  0.75000000  1
  F  F10  1  0.82433400  0.05575600  0.25000000  1
  F  F11  1  0.32433400  0.44424400  0.75000000  1
  F  F12  1  0.31907600  0.15253500  0.07528900  1
  F  F13  1  0.81907600  0.34746500  0.92471100  1
  F  F14  1  0.18092400  0.65253500  0.42471100  1
  F  F15  1  0.68092400  0.84746500  0.57528900  1
