# generated using pymatgen
data_P
_symmetry_space_group_name_H-M   'P 1'
_cell_length_a   19.80988200
_cell_length_b   5.59831800
_cell_length_c   6.34420666
_cell_angle_alpha   76.07025759
_cell_angle_beta   90.00000000
_cell_angle_gamma   90.00000000
_symmetry_Int_Tables_number   1
_chemical_formula_structural   P
_chemical_formula_sum   P10
_cell_volume   682.89404273
_cell_formula_units_Z   10
loop_
 _symmetry_equiv_pos_site_id
 _symmetry_equiv_pos_as_xyz
  1  'x, y, z'
loop_
 _atom_site_type_symbol
 _atom_site_label
 _atom_site_symmetry_multiplicity
 _atom_site_fract_x
 _atom_site_fract_y
 _atom_site_fract_z
 _atom_site_occupancy
  P  P0  1  0.58723400  0.85390300  0.69200600  1
  P  P1  1  0.55686300  0.82816300  0.36158500  1
  P  P2  1  0.44313700  0.82816300  0.36158500  1
  P  P3  1  0.41276600  0.85390300  0.69200600  1
  P  P4  1  0.50000000  0.77640300  0.91695600  1
  P  P5  1  0.41323300  0.45276100  0.32778100  1
  P  P6  1  0.44223600  0.24866000  0.65866400  1
  P  P7  1  0.55776400  0.24866000  0.65866400  1
  P  P8  1  0.58676700  0.45276100  0.32778100  1
  P  P9  1  0.50000000  0.38598500  0.12096200  1
