# generated using pymatgen
data_Ba3V2(PO5)3
_symmetry_space_group_name_H-M   'P 1'
_cell_length_a   5.19695800
_cell_length_b   12.64911000
_cell_length_c   21.18741900
_cell_angle_alpha   90.00000000
_cell_angle_beta   90.00000000
_cell_angle_gamma   90.00000000
_symmetry_Int_Tables_number   1
_chemical_formula_structural   Ba3V2(PO5)3
_chemical_formula_sum   'Ba12 V8 P12 O60'
_cell_volume   1392.79510438
_cell_formula_units_Z   4
loop_
 _symmetry_equiv_pos_site_id
 _symmetry_equiv_pos_as_xyz
  1  'x, y, z'
loop_
 _atom_site_type_symbol
 _atom_site_label
 _atom_site_symmetry_multiplicity
 _atom_site_fract_x
 _atom_site_fract_y
 _atom_site_fract_z
 _atom_site_occupancy
  Ba  Ba0  1  0.19187900  0.62361900  0.43682200  1
  Ba  Ba1  1  0.30812100  0.37638100  0.93682200  1
  Ba  Ba2  1  0.72365400  0.13903000  0.42041900  1
  Ba  Ba3  1  0.20291900  0.78191600  0.75684100  1
  Ba  Ba4  1  0.69187900  0.87638100  0.56317800  1
  Ba  Ba5  1  0.29708100  0.21808400  0.25684100  1
  Ba  Ba6  1  0.80812100  0.12361900  0.06317800  1
  Ba  Ba7  1  0.22365400  0.36097000  0.57958100  1
  Ba  Ba8  1  0.27634600  0.63903000  0.07958100  1
  Ba  Ba9  1  0.79708100  0.28191600  0.74315900  1
  Ba  Ba10  1  0.70291900  0.71808400  0.24315900  1
  Ba  Ba11  1  0.77634600  0.86097000  0.92041900  1
  V  V12  1  0.67305200  0.60794000  0.68032400  1
  V  V13  1  0.71419900  0.44209200  0.34678500  1
  V  V14  1  0.78580100  0.55790800  0.84678500  1
  V  V15  1  0.32694800  0.10794000  0.81967600  1
  V  V16  1  0.28580100  0.94209200  0.15321500  1
  V  V17  1  0.82694800  0.39206000  0.18032400  1
  V  V18  1  0.21419900  0.05790800  0.65321500  1
  V  V19  1  0.17305200  0.89206000  0.31967600  1
  P  P20  1  0.21879800  0.32473400  0.41099600  1
  P  P21  1  0.18699500  0.68050100  0.59419800  1
  P  P22  1  0.69853500  0.96412000  0.73873100  1
  P  P23  1  0.19853500  0.53588000  0.26126900  1
  P  P24  1  0.30146500  0.46412000  0.76126900  1
  P  P25  1  0.78120200  0.82473400  0.08900400  1
  P  P26  1  0.68699500  0.81949900  0.40580200  1
  P  P27  1  0.80146500  0.03588000  0.23873100  1
  P  P28  1  0.81300500  0.18050100  0.90580200  1
  P  P29  1  0.28120200  0.67526600  0.91099600  1
  P  P30  1  0.71879800  0.17526600  0.58900400  1
  P  P31  1  0.31300500  0.31949900  0.09419800  1
  O  O32  1  0.01344900  0.83107200  0.13642900  1
  O  O33  1  0.29312000  0.42989600  0.06633900  1
  O  O34  1  0.78883800  0.71635900  0.05578800  1
  O  O35  1  0.96721200  0.17698300  0.63247900  1
  O  O36  1  0.94178700  0.69419900  0.63818700  1
  O  O37  1  0.21031300  0.13501500  0.74677100  1
  O  O38  1  0.66705900  0.06843900  0.77781500  1
  O  O39  1  0.75098800  0.51368500  0.15806400  1
  O  O40  1  0.44178700  0.80580100  0.36181300  1
  O  O41  1  0.28883800  0.78364100  0.94421200  1
  O  O42  1  0.71116200  0.28364100  0.55578800  1
  O  O43  1  0.71031300  0.36498500  0.25322900  1
  O  O44  1  0.03778300  0.04941300  0.19399600  1
  O  O45  1  0.48655100  0.16892800  0.63642900  1
  O  O46  1  0.71199100  0.50668200  0.41471600  1
  O  O47  1  0.33294100  0.56843900  0.72218500  1
  O  O48  1  0.28682900  0.36792300  0.71703100  1
  O  O49  1  0.79312000  0.07010400  0.93366100  1
  O  O50  1  0.93164000  0.79412500  0.36237700  1
  O  O51  1  0.03278800  0.67698300  0.86752100  1
  O  O52  1  0.51344900  0.66892800  0.86357100  1
  O  O53  1  0.78682900  0.13207700  0.28296900  1
  O  O54  1  0.28800900  0.00668200  0.08528400  1
  O  O55  1  0.21116200  0.21635900  0.44421200  1
  O  O56  1  0.53278800  0.82301700  0.13247900  1
  O  O57  1  0.22115400  0.41707600  0.45708700  1
  O  O58  1  0.53778300  0.45058700  0.80600400  1
  O  O59  1  0.43164000  0.70587500  0.63762300  1
  O  O60  1  0.24901200  0.01368500  0.34193600  1
  O  O61  1  0.82351100  0.26707700  0.95609400  1
  O  O62  1  0.67648900  0.73292300  0.45609400  1
  O  O63  1  0.32351100  0.23292300  0.04390600  1
  O  O64  1  0.77884600  0.91707600  0.04291300  1
  O  O65  1  0.78968700  0.63501500  0.75322900  1
  O  O66  1  0.83294100  0.93156100  0.27781500  1
  O  O67  1  0.70688000  0.92989600  0.43366100  1
  O  O68  1  0.25098800  0.98631500  0.84193600  1
  O  O69  1  0.78800900  0.49331800  0.91471600  1
  O  O70  1  0.20688000  0.57010400  0.56633900  1
  O  O71  1  0.28968700  0.86498500  0.24677100  1
  O  O72  1  0.46221700  0.95058700  0.69399600  1
  O  O73  1  0.98655100  0.33107200  0.36357100  1
  O  O74  1  0.05821300  0.19419900  0.86181300  1
  O  O75  1  0.56836000  0.20587500  0.86237700  1
  O  O76  1  0.21317100  0.63207700  0.21703100  1
  O  O77  1  0.44289200  0.53414800  0.30311400  1
  O  O78  1  0.94289200  0.96585200  0.69688600  1
  O  O79  1  0.21199100  0.99331800  0.58528400  1
  O  O80  1  0.17648900  0.76707700  0.54390600  1
  O  O81  1  0.71317100  0.86792300  0.78296900  1
  O  O82  1  0.16705900  0.43156100  0.22218500  1
  O  O83  1  0.55710800  0.03414800  0.19688600  1
  O  O84  1  0.55821300  0.30580100  0.13818700  1
  O  O85  1  0.96221700  0.54941300  0.30600400  1
  O  O86  1  0.05710800  0.46585200  0.80311400  1
  O  O87  1  0.27884600  0.58292400  0.95708700  1
  O  O88  1  0.72115400  0.08292400  0.54291300  1
  O  O89  1  0.74901200  0.48631500  0.65806400  1
  O  O90  1  0.46721200  0.32301700  0.36752100  1
  O  O91  1  0.06836000  0.29412500  0.13762300  1
