# generated using pymatgen
data_SiO2
_symmetry_space_group_name_H-M   'P 1'
_cell_length_a   12.98165805
_cell_length_b   12.98165805
_cell_length_c   4.97978563
_cell_angle_alpha   82.59583596
_cell_angle_beta   82.59583596
_cell_angle_gamma   119.52591781
_symmetry_Int_Tables_number   1
_chemical_formula_structural   SiO2
_chemical_formula_sum   'Si12 O24'
_cell_volume   705.90991007
_cell_formula_units_Z   12
loop_
 _symmetry_equiv_pos_site_id
 _symmetry_equiv_pos_as_xyz
  1  'x, y, z'
loop_
 _atom_site_type_symbol
 _atom_site_label
 _atom_site_symmetry_multiplicity
 _atom_site_fract_x
 _atom_site_fract_y
 _atom_site_fract_z
 _atom_site_occupancy
  Si  Si0  1  0.63928300  0.50672600  0.69027100  1
  Si  Si1  1  0.87473800  0.51690200  0.74408200  1
  Si  Si2  1  0.48309800  0.12526200  0.25591800  1
  Si  Si3  1  0.86468100  0.36822600  0.29631200  1
  Si  Si4  1  0.36071700  0.49327400  0.30972900  1
  Si  Si5  1  0.36822600  0.86468100  0.29631200  1
  Si  Si6  1  0.63177400  0.13531900  0.70368800  1
  Si  Si7  1  0.51690200  0.87473800  0.74408200  1
  Si  Si8  1  0.49327400  0.36071700  0.30972900  1
  Si  Si9  1  0.13531900  0.63177400  0.70368800  1
  Si  Si10  1  0.12526200  0.48309800  0.25591800  1
  Si  Si11  1  0.50672600  0.63928300  0.69027100  1
  O  O12  1  0.11267000  0.52271600  0.54779100  1
  O  O13  1  0.82910200  0.40107700  0.00525300  1
  O  O14  1  0.43649300  0.22032800  0.28118900  1
  O  O15  1  0.47728400  0.88733000  0.45220900  1
  O  O16  1  0.23903200  0.76096800  0.50000000  1
  O  O17  1  0.99360000  0.37070200  0.23427300  1
  O  O18  1  0.37070200  0.99360000  0.23427300  1
  O  O19  1  0.77967200  0.56350700  0.71881100  1
  O  O20  1  0.55944500  0.44055500  0.00000000  1
  O  O21  1  0.59609600  0.40390400  0.50000000  1
  O  O22  1  0.38593400  0.38593400  0.43216100  1
  O  O23  1  0.44055500  0.55944500  0.00000000  1
  O  O24  1  0.17089800  0.59892300  0.99474700  1
  O  O25  1  0.52271600  0.11267000  0.54779100  1
  O  O26  1  0.40107700  0.82910200  0.00525300  1
  O  O27  1  0.00640000  0.62929800  0.76572700  1
  O  O28  1  0.22032800  0.43649300  0.28118900  1
  O  O29  1  0.56350700  0.77967200  0.71881100  1
  O  O30  1  0.40390400  0.59609600  0.50000000  1
  O  O31  1  0.61406600  0.61406600  0.56783900  1
  O  O32  1  0.88733000  0.47728400  0.45220900  1
  O  O33  1  0.76096800  0.23903200  0.50000000  1
  O  O34  1  0.62929800  0.00640000  0.76572700  1
  O  O35  1  0.59892300  0.17089800  0.99474700  1
