# generated using pymatgen
data_BaVSi2O7
_symmetry_space_group_name_H-M   'P 1'
_cell_length_a   7.71497632
_cell_length_b   7.71497521
_cell_length_c   10.13386271
_cell_angle_alpha   89.99997755
_cell_angle_beta   90.00000890
_cell_angle_gamma   82.10749011
_symmetry_Int_Tables_number   1
_chemical_formula_structural   BaVSi2O7
_chemical_formula_sum   'Ba4 V4 Si8 O28'
_cell_volume   597.46250092
_cell_formula_units_Z   4
loop_
 _symmetry_equiv_pos_site_id
 _symmetry_equiv_pos_as_xyz
  1  'x, y, z'
loop_
 _atom_site_type_symbol
 _atom_site_label
 _atom_site_symmetry_multiplicity
 _atom_site_fract_x
 _atom_site_fract_y
 _atom_site_fract_z
 _atom_site_occupancy
  Ba  Ba0  1  0.50000100  0.99999900  0.75000000  1
  Ba  Ba1  1  0.99999900  0.50000100  0.25000000  1
  Ba  Ba2  1  0.99999900  0.50000100  0.75000000  1
  Ba  Ba3  1  0.50000100  0.99999900  0.25000000  1
  V  V4  1  0.84217100  0.84217100  0.50000000  1
  V  V5  1  0.65782300  0.65782300  0.00000100  1
  V  V6  1  0.34213100  0.34213100  0.00000000  1
  V  V7  1  0.15786800  0.15786800  0.50000000  1
  Si  Si8  1  0.49241600  0.50758700  0.72397200  1
  Si  Si9  1  0.99241300  0.00758400  0.22397200  1
  Si  Si10  1  0.22397100  0.77603200  0.00758500  1
  Si  Si11  1  0.72396800  0.27602900  0.50758500  1
  Si  Si12  1  0.27602900  0.72396800  0.49241500  1
  Si  Si13  1  0.77603200  0.22397200  0.99241500  1
  Si  Si14  1  0.00758400  0.99241300  0.77602800  1
  Si  Si15  1  0.50758700  0.49241600  0.27602800  1
  O  O16  1  0.20071600  0.20071600  0.00000000  1
  O  O17  1  0.70069900  0.70069900  0.50000000  1
  O  O18  1  0.29928500  0.29928500  0.50000000  1
  O  O19  1  0.79930400  0.79930400  0.00000000  1
  O  O20  1  0.36934200  0.63065600  0.36006900  1
  O  O21  1  0.86934400  0.13065800  0.86006900  1
  O  O22  1  0.13065800  0.86934400  0.13993100  1
  O  O23  1  0.63065600  0.36934200  0.63993100  1
  O  O24  1  0.86006900  0.13993400  0.13065800  1
  O  O25  1  0.36006600  0.63993200  0.63065800  1
  O  O26  1  0.63993200  0.36006600  0.36934200  1
  O  O27  1  0.13993400  0.86006800  0.86934200  1
  O  O28  1  0.30831100  0.92809500  0.48791200  1
  O  O29  1  0.80831200  0.42809000  0.98791200  1
  O  O30  1  0.57190600  0.19168900  0.98791300  1
  O  O31  1  0.07191000  0.69168800  0.48791300  1
  O  O32  1  0.36971000  0.39388300  0.80989100  1
  O  O33  1  0.86971200  0.89388600  0.30989000  1
  O  O34  1  0.13029100  0.10611700  0.69010900  1
  O  O35  1  0.63028800  0.60611400  0.19011000  1
  O  O36  1  0.92809400  0.30831100  0.51208700  1
  O  O37  1  0.42809000  0.80831200  0.01208700  1
  O  O38  1  0.10611700  0.13029000  0.30989200  1
  O  O39  1  0.60611400  0.63028800  0.80989000  1
  O  O40  1  0.19168900  0.57190500  0.01208800  1
  O  O41  1  0.69168800  0.07191000  0.51208800  1
  O  O42  1  0.39388300  0.36971000  0.19010900  1
  O  O43  1  0.89388600  0.86971200  0.69011000  1
