# generated using pymatgen
data_La4Cu6(MoO4)9
_symmetry_space_group_name_H-M   'P 1'
_cell_length_a   12.97229976
_cell_length_b   12.97229976
_cell_length_c   12.97229947
_cell_angle_alpha   109.48411642
_cell_angle_beta   109.48411642
_cell_angle_gamma   109.48411358
_symmetry_Int_Tables_number   1
_chemical_formula_structural   La4Cu6(MoO4)9
_chemical_formula_sum   'La8 Cu12 Mo18 O72'
_cell_volume   1679.66051368
_cell_formula_units_Z   2
loop_
 _symmetry_equiv_pos_site_id
 _symmetry_equiv_pos_as_xyz
  1  'x, y, z'
loop_
 _atom_site_type_symbol
 _atom_site_label
 _atom_site_symmetry_multiplicity
 _atom_site_fract_x
 _atom_site_fract_y
 _atom_site_fract_z
 _atom_site_occupancy
  La  La0  1  0.45443800  0.40271300  0.94772700  1
  La  La1  1  0.94772700  0.45443800  0.40271300  1
  La  La2  1  0.90271300  0.95443800  0.44772700  1
  La  La3  1  0.95443800  0.44772700  0.90271300  1
  La  La4  1  0.44772700  0.90271300  0.95443800  1
  La  La5  1  0.00984400  0.00984400  0.00984400  1
  La  La6  1  0.40271300  0.94772700  0.45443800  1
  La  La7  1  0.50984400  0.50984400  0.50984400  1
  Cu  Cu8  1  0.33118200  0.39934900  0.64132600  1
  Cu  Cu9  1  0.06495000  0.27136500  0.50922900  1
  Cu  Cu10  1  0.83118200  0.14132600  0.89934900  1
  Cu  Cu11  1  0.39934900  0.64132600  0.33118200  1
  Cu  Cu12  1  0.00922900  0.77136500  0.56495000  1
  Cu  Cu13  1  0.50922900  0.06495000  0.27136500  1
  Cu  Cu14  1  0.64132600  0.33118200  0.39934900  1
  Cu  Cu15  1  0.56495000  0.00922900  0.77136500  1
  Cu  Cu16  1  0.77136500  0.56495000  0.00922900  1
  Cu  Cu17  1  0.27136500  0.50922900  0.06495000  1
  Cu  Cu18  1  0.14132600  0.89934900  0.83118200  1
  Cu  Cu19  1  0.89934900  0.83118200  0.14132600  1
  Mo  Mo20  1  0.58358300  0.32904400  0.69632300  1
  Mo  Mo21  1  0.82904400  0.08358300  0.19632300  1
  Mo  Mo22  1  0.50428800  0.75657700  0.20202700  1
  Mo  Mo23  1  0.65658200  0.70305900  0.91016800  1
  Mo  Mo24  1  0.20202700  0.50428800  0.75657700  1
  Mo  Mo25  1  0.91016800  0.65658200  0.70305900  1
  Mo  Mo26  1  0.25657700  0.00428800  0.70202700  1
  Mo  Mo27  1  0.15658200  0.41016800  0.20305900  1
  Mo  Mo28  1  0.70305900  0.91016800  0.65658200  1
  Mo  Mo29  1  0.08358300  0.19632300  0.82904400  1
  Mo  Mo30  1  0.32904400  0.69632300  0.58358300  1
  Mo  Mo31  1  0.75657700  0.20202700  0.50428800  1
  Mo  Mo32  1  0.70202700  0.25657700  0.00428800  1
  Mo  Mo33  1  0.19632300  0.82904400  0.08358300  1
  Mo  Mo34  1  0.69632300  0.58358300  0.32904400  1
  Mo  Mo35  1  0.41016800  0.20305900  0.15658200  1
  Mo  Mo36  1  0.00428800  0.70202700  0.25657700  1
  Mo  Mo37  1  0.20305900  0.15658200  0.41016800  1
  O  O38  1  0.42912400  0.59125300  0.07567900  1
  O  O39  1  0.10999600  0.09756200  0.24660600  1
  O  O40  1  0.60999600  0.74660600  0.59756200  1
  O  O41  1  0.13519100  0.66671400  0.04030400  1
  O  O42  1  0.12553400  0.46989100  0.84185100  1
  O  O43  1  0.74660600  0.59756200  0.60999600  1
  O  O44  1  0.78249800  0.31667900  0.16907400  1
  O  O45  1  0.29243700  0.95976600  0.82644500  1
  O  O46  1  0.79243700  0.32644500  0.45976600  1
  O  O47  1  0.34185100  0.96989100  0.62553400  1
  O  O48  1  0.07429400  0.86738800  0.07518100  1
  O  O49  1  0.57567900  0.09125300  0.92912400  1
  O  O50  1  0.46989100  0.84185100  0.12553400  1
  O  O51  1  0.09756200  0.24660600  0.10999600  1
  O  O52  1  0.54030400  0.16671400  0.63519100  1
  O  O53  1  0.47158500  0.09244100  0.13044200  1
  O  O54  1  0.63044200  0.59244100  0.97158500  1
  O  O55  1  0.93219100  0.24313400  0.33319800  1
  O  O56  1  0.57119800  0.78126200  0.93430900  1
  O  O57  1  0.82644500  0.29243700  0.95976600  1
  O  O58  1  0.43219100  0.83319800  0.74313400  1
  O  O59  1  0.32443700  0.48165900  0.32126900  1
  O  O60  1  0.66671400  0.04030400  0.13519100  1
  O  O61  1  0.93430900  0.57119800  0.78126200  1
  O  O62  1  0.63519100  0.54030400  0.16671400  1
  O  O63  1  0.57518100  0.36738800  0.57429400  1
  O  O64  1  0.09244100  0.13044200  0.47158500  1
  O  O65  1  0.04030400  0.13519100  0.66671400  1
  O  O66  1  0.95976600  0.82644500  0.29243700  1
  O  O67  1  0.07518100  0.07429400  0.86738800  1
  O  O68  1  0.81667900  0.28249800  0.66907400  1
  O  O69  1  0.74313400  0.43219100  0.83319800  1
  O  O70  1  0.32644500  0.45976600  0.79243700  1
  O  O71  1  0.43430900  0.28126200  0.07119800  1
  O  O72  1  0.83319800  0.74313400  0.43219100  1
  O  O73  1  0.97342400  0.24272400  0.85348600  1
  O  O74  1  0.47342400  0.35348600  0.74272400  1
  O  O75  1  0.24660600  0.10999600  0.09756200  1
  O  O76  1  0.28249800  0.66907400  0.81667900  1
  O  O77  1  0.78126200  0.93430900  0.57119800  1
  O  O78  1  0.16907400  0.78249800  0.31667900  1
  O  O79  1  0.57429400  0.57518100  0.36738800  1
  O  O80  1  0.07567900  0.42912400  0.59125300  1
  O  O81  1  0.16671400  0.63519100  0.54030400  1
  O  O82  1  0.74272400  0.47342400  0.35348600  1
  O  O83  1  0.85348600  0.97342400  0.24272400  1
  O  O84  1  0.96989100  0.62553400  0.34185100  1
  O  O85  1  0.59244100  0.97158500  0.63044200  1
  O  O86  1  0.84185100  0.12553400  0.46989100  1
  O  O87  1  0.24272400  0.85348600  0.97342400  1
  O  O88  1  0.36738800  0.57429400  0.57518100  1
  O  O89  1  0.48165900  0.32126900  0.32443700  1
  O  O90  1  0.13044200  0.47158500  0.09244100  1
  O  O91  1  0.31667900  0.16907400  0.78249800  1
  O  O92  1  0.92912400  0.57567900  0.09125300  1
  O  O93  1  0.07119800  0.43430900  0.28126200  1
  O  O94  1  0.45976600  0.79243700  0.32644500  1
  O  O95  1  0.62553400  0.34185100  0.96989100  1
  O  O96  1  0.59756200  0.60999600  0.74660600  1
  O  O97  1  0.86738800  0.07518100  0.07429400  1
  O  O98  1  0.97158500  0.63044200  0.59244100  1
  O  O99  1  0.35348600  0.74272400  0.47342400  1
  O  O100  1  0.09125300  0.92912400  0.57567900  1
  O  O101  1  0.82126900  0.98165900  0.82443700  1
  O  O102  1  0.33319800  0.93219100  0.24313400  1
  O  O103  1  0.32126900  0.32443700  0.48165900  1
  O  O104  1  0.28126200  0.07119800  0.43430900  1
  O  O105  1  0.82443700  0.82126900  0.98165900  1
  O  O106  1  0.24313400  0.33319800  0.93219100  1
  O  O107  1  0.66907400  0.81667900  0.28249800  1
  O  O108  1  0.59125300  0.07567900  0.42912400  1
  O  O109  1  0.98165900  0.82443700  0.82126900  1
