# generated using pymatgen
data_H18PbC6S4N2O9
_symmetry_space_group_name_H-M   'P 1'
_cell_length_a   9.30028500
_cell_length_b   10.29152706
_cell_length_c   10.99882865
_cell_angle_alpha   87.94332485
_cell_angle_beta   106.53174699
_cell_angle_gamma   115.99772975
_symmetry_Int_Tables_number   1
_chemical_formula_structural   H18PbC6S4N2O9
_chemical_formula_sum   'H36 Pb2 C12 S8 N4 O18'
_cell_volume   902.26903297
_cell_formula_units_Z   2
loop_
 _symmetry_equiv_pos_site_id
 _symmetry_equiv_pos_as_xyz
  1  'x, y, z'
loop_
 _atom_site_type_symbol
 _atom_site_label
 _atom_site_symmetry_multiplicity
 _atom_site_fract_x
 _atom_site_fract_y
 _atom_site_fract_z
 _atom_site_occupancy
  H  H0  1  0.42627900  0.54229900  0.79484200  1
  H  H1  1  0.06966400  0.80006300  0.14665100  1
  H  H2  1  0.97102500  0.98607400  0.72651800  1
  H  H3  1  0.19309600  0.23235200  0.02164900  1
  H  H4  1  0.60948000  0.00010200  0.14987400  1
  H  H5  1  0.88406200  0.44575400  0.82966500  1
  H  H6  1  0.32962700  0.21541500  0.35685200  1
  H  H7  1  0.76640500  0.72328000  0.12798100  1
  H  H8  1  0.63616800  0.37735000  0.09757700  1
  H  H9  1  0.36383200  0.62265000  0.90242300  1
  H  H10  1  0.38181000  0.90712800  0.10339500  1
  H  H11  1  0.47044900  0.68068700  0.52662300  1
  H  H12  1  0.61819000  0.09287200  0.89660500  1
  H  H13  1  0.52955100  0.31931300  0.47337700  1
  H  H14  1  0.91164300  0.03081800  0.90902000  1
  H  H15  1  0.77351800  0.51828900  0.70834000  1
  H  H16  1  0.23359500  0.27672000  0.87201900  1
  H  H17  1  0.11593800  0.55424600  0.17033500  1
  H  H18  1  0.21466700  0.10723200  0.92952200  1
  H  H19  1  0.67037300  0.78458500  0.64314800  1
  H  H20  1  0.53620800  0.26916000  0.20945800  1
  H  H21  1  0.93033600  0.19993700  0.85334900  1
  H  H22  1  0.80690400  0.76764800  0.97835100  1
  H  H23  1  0.78533300  0.89276800  0.07047800  1
  H  H24  1  0.50030800  0.19523600  0.85311300  1
  H  H25  1  0.80051400  0.55833300  0.87410100  1
  H  H26  1  0.19948600  0.44166700  0.12589900  1
  H  H27  1  0.61643000  0.60435700  0.57915100  1
  H  H28  1  0.22648200  0.48171100  0.29166000  1
  H  H29  1  0.02897500  0.01392600  0.27348200  1
  H  H30  1  0.57372100  0.45770100  0.20515800  1
  H  H31  1  0.38357000  0.39564300  0.42084900  1
  H  H32  1  0.46379200  0.73084000  0.79054200  1
  H  H33  1  0.39052000  0.99989800  0.85012600  1
  H  H34  1  0.49969200  0.80476400  0.14688700  1
  H  H35  1  0.08835700  0.96918200  0.09098000  1
  Pb  Pb36  1  0.86533500  0.19667400  0.52892500  1
  Pb  Pb37  1  0.13466500  0.80332600  0.47107500  1
  C  C38  1  0.60295400  0.70417300  0.55933000  1
  C  C39  1  0.50125400  0.09146300  0.83605600  1
  C  C40  1  0.39704600  0.29582700  0.44067000  1
  C  C41  1  0.49874600  0.90853700  0.16394400  1
  C  C42  1  0.61853300  0.37833700  0.19182100  1
  C  C43  1  0.02085800  0.88026600  0.14233800  1
  C  C44  1  0.97914200  0.11973400  0.85766200  1
  C  C45  1  0.16682400  0.18850700  0.92379400  1
  C  C46  1  0.14365300  0.46190900  0.19402400  1
  C  C47  1  0.38146700  0.62166300  0.80817900  1
  C  C48  1  0.85634700  0.53809100  0.80597600  1
  C  C49  1  0.83317600  0.81149300  0.07620600  1
  S  S50  1  0.49378300  0.07040700  0.67455300  1
  S  S51  1  0.18237500  0.56543700  0.69132400  1
  S  S52  1  0.95218100  0.30302800  0.17995900  1
  S  S53  1  0.30576200  0.22227000  0.56365400  1
  S  S54  1  0.04781900  0.69697200  0.82004100  1
  S  S55  1  0.81762500  0.43456300  0.30867600  1
  S  S56  1  0.50621700  0.92959300  0.32544700  1
  S  S57  1  0.69423800  0.77773000  0.43634600  1
  N  N58  1  0.32215500  0.07204900  0.58775900  1
  N  N59  1  0.67784500  0.92795100  0.41224100  1
  N  N60  1  0.11292700  0.68133700  0.70142800  1
  N  N61  1  0.88707300  0.31866300  0.29857200  1
  O  O62  1  0.92530300  0.58154700  0.28404900  1
  O  O63  1  0.07469700  0.41845300  0.71595100  1
  O  O64  1  0.06376100  0.93651200  0.27330700  1
  O  O65  1  0.99047500  0.17951700  0.20061000  1
  O  O66  1  0.60482400  0.67218800  0.32413900  1
  O  O67  1  0.83530700  0.29732500  0.05702800  1
  O  O68  1  0.79109600  0.42348700  0.43461000  1
  O  O69  1  0.53105400  0.07719400  0.35302400  1
  O  O70  1  0.64621800  0.18912600  0.65778300  1
  O  O71  1  0.46894600  0.92280600  0.64697600  1
  O  O72  1  0.00952500  0.82048300  0.79939000  1
  O  O73  1  0.12551900  0.17666100  0.50945300  1
  O  O74  1  0.39517600  0.32781200  0.67586100  1
  O  O75  1  0.35378200  0.81087400  0.34221700  1
  O  O76  1  0.93623900  0.06348800  0.72669300  1
  O  O77  1  0.16469300  0.70267500  0.94297200  1
  O  O78  1  0.87448100  0.82333900  0.49054700  1
  O  O79  1  0.20890400  0.57651300  0.56539000  1
