# generated using pymatgen
data_TlMo2Cl7O2
_symmetry_space_group_name_H-M   'P 1'
_cell_length_a   7.26701900
_cell_length_b   9.62580344
_cell_length_c   10.28145424
_cell_angle_alpha   103.51288780
_cell_angle_beta   90.43926368
_cell_angle_gamma   109.13855377
_symmetry_Int_Tables_number   1
_chemical_formula_structural   TlMo2Cl7O2
_chemical_formula_sum   'Tl2 Mo4 Cl14 O4'
_cell_volume   657.85084768
_cell_formula_units_Z   2
loop_
 _symmetry_equiv_pos_site_id
 _symmetry_equiv_pos_as_xyz
  1  'x, y, z'
loop_
 _atom_site_type_symbol
 _atom_site_label
 _atom_site_symmetry_multiplicity
 _atom_site_fract_x
 _atom_site_fract_y
 _atom_site_fract_z
 _atom_site_occupancy
  Tl  Tl0  1  0.22832500  0.75611500  0.93509600  1
  Tl  Tl1  1  0.77167500  0.24388500  0.06490400  1
  Mo  Mo2  1  0.77605800  0.85442500  0.20990400  1
  Mo  Mo3  1  0.63449000  0.37353700  0.59579600  1
  Mo  Mo4  1  0.36551000  0.62646300  0.40420400  1
  Mo  Mo5  1  0.22394200  0.14557500  0.79009600  1
  Cl  Cl6  1  0.89545000  0.60377300  0.65554100  1
  Cl  Cl7  1  0.42386800  0.59725200  0.16920200  1
  Cl  Cl8  1  0.74904600  0.84218700  0.97751100  1
  Cl  Cl9  1  0.25095400  0.15781300  0.02248900  1
  Cl  Cl10  1  0.57613200  0.40274800  0.83079800  1
  Cl  Cl11  1  0.10455000  0.39622700  0.34445900  1
  Cl  Cl12  1  0.70944800  0.80185300  0.43782600  1
  Cl  Cl13  1  0.41216900  0.59740200  0.62661600  1
  Cl  Cl14  1  0.08693100  0.34534800  0.84369700  1
  Cl  Cl15  1  0.29055200  0.19814700  0.56217400  1
  Cl  Cl16  1  0.53963300  0.98142700  0.23212500  1
  Cl  Cl17  1  0.91306900  0.65465200  0.15630300  1
  Cl  Cl18  1  0.58783100  0.40259800  0.37338400  1
  Cl  Cl19  1  0.46036700  0.01857300  0.76787500  1
  O  O20  1  0.25038600  0.75533900  0.43407900  1
  O  O21  1  0.01783700  0.99565500  0.72996600  1
  O  O22  1  0.74961400  0.24466100  0.56592100  1
  O  O23  1  0.98216300  0.00434500  0.27003400  1
