# generated using pymatgen
data_Na2Fe3(PO4)3
_symmetry_space_group_name_H-M   'P 1'
_cell_length_a   8.69317522
_cell_length_b   8.69317522
_cell_length_c   6.61310802
_cell_angle_alpha   73.65423707
_cell_angle_beta   73.65423707
_cell_angle_gamma   93.42729455
_symmetry_Int_Tables_number   1
_chemical_formula_structural   Na2Fe3(PO4)3
_chemical_formula_sum   'Na4 Fe6 P6 O24'
_cell_volume   454.90530624
_cell_formula_units_Z   2
loop_
 _symmetry_equiv_pos_site_id
 _symmetry_equiv_pos_as_xyz
  1  'x, y, z'
loop_
 _atom_site_type_symbol
 _atom_site_label
 _atom_site_symmetry_multiplicity
 _atom_site_fract_x
 _atom_site_fract_y
 _atom_site_fract_z
 _atom_site_occupancy
  Na  Na0  1  0.98424300  0.01575700  0.75000000  1
  Na  Na1  1  0.01575700  0.98424300  0.25000000  1
  Na  Na2  1  0.50000000  0.50000000  0.50000000  1
  Na  Na3  1  0.50000000  0.50000000  0.00000000  1
  Fe  Fe4  1  0.94370300  0.61937200  0.62477500  1
  Fe  Fe5  1  0.61937200  0.94370300  0.12477500  1
  Fe  Fe6  1  0.05629700  0.38062800  0.37522500  1
  Fe  Fe7  1  0.73031100  0.26968900  0.25000000  1
  Fe  Fe8  1  0.26968900  0.73031100  0.75000000  1
  Fe  Fe9  1  0.38062800  0.05629700  0.87522500  1
  P  P10  1  0.12505200  0.34184900  0.88262600  1
  P  P11  1  0.65815100  0.87494800  0.61737400  1
  P  P12  1  0.29117700  0.70882300  0.25000000  1
  P  P13  1  0.34184900  0.12505200  0.38262600  1
  P  P14  1  0.70882300  0.29117700  0.75000000  1
  P  P15  1  0.87494800  0.65815100  0.11737400  1
  O  O16  1  0.60490200  0.95584300  0.80493300  1
  O  O17  1  0.26350000  0.53077200  0.25479800  1
  O  O18  1  0.52817700  0.72898500  0.66730200  1
  O  O19  1  0.95584300  0.60490200  0.30493300  1
  O  O20  1  0.27101500  0.47182300  0.83269800  1
  O  O21  1  0.32279400  0.99603500  0.61242300  1
  O  O22  1  0.53077200  0.26350000  0.75479800  1
  O  O23  1  0.82965000  0.82772600  0.60594600  1
  O  O24  1  0.67720600  0.00396500  0.38757700  1
  O  O25  1  0.26180500  0.82181700  0.03818700  1
  O  O26  1  0.99603500  0.32279400  0.11242300  1
  O  O27  1  0.82772600  0.82965000  0.10594600  1
  O  O28  1  0.47182300  0.27101500  0.33269800  1
  O  O29  1  0.04415700  0.39509800  0.69506700  1
  O  O30  1  0.73650000  0.46922800  0.74520200  1
  O  O31  1  0.00396500  0.67720600  0.88757700  1
  O  O32  1  0.46922800  0.73650000  0.24520200  1
  O  O33  1  0.39509800  0.04415700  0.19506700  1
  O  O34  1  0.17227400  0.17035000  0.89405400  1
  O  O35  1  0.73819500  0.17818300  0.96181300  1
  O  O36  1  0.17035000  0.17227400  0.39405400  1
  O  O37  1  0.17818300  0.73819500  0.46181300  1
  O  O38  1  0.82181700  0.26180500  0.53818700  1
  O  O39  1  0.72898500  0.52817700  0.16730200  1
