# generated using pymatgen
data_PH3PbCO3
_symmetry_space_group_name_H-M   'P 1'
_cell_length_a   12.15862589
_cell_length_b   12.15862589
_cell_length_c   12.15862651
_cell_angle_alpha   116.39981726
_cell_angle_beta   116.39981726
_cell_angle_gamma   116.39981570
_symmetry_Int_Tables_number   1
_chemical_formula_structural   PH3PbCO3
_chemical_formula_sum   'P6 H18 Pb6 C6 O18'
_cell_volume   864.08013028
_cell_formula_units_Z   6
loop_
 _symmetry_equiv_pos_site_id
 _symmetry_equiv_pos_as_xyz
  1  'x, y, z'
loop_
 _atom_site_type_symbol
 _atom_site_label
 _atom_site_symmetry_multiplicity
 _atom_site_fract_x
 _atom_site_fract_y
 _atom_site_fract_z
 _atom_site_occupancy
  P  P0  1  0.72845000  0.87628500  0.38689600  1
  P  P1  1  0.87628500  0.38689600  0.72845000  1
  P  P2  1  0.61310400  0.27155000  0.12371500  1
  P  P3  1  0.12371500  0.61310400  0.27155000  1
  P  P4  1  0.27155000  0.12371500  0.61310400  1
  P  P5  1  0.38689600  0.72845000  0.87628500  1
  H  H6  1  0.13987000  0.02002400  0.32215500  1
  H  H7  1  0.62937500  0.97016600  0.94817300  1
  H  H8  1  0.02983400  0.05182700  0.37062500  1
  H  H9  1  0.71664600  0.72916400  0.47223600  1
  H  H10  1  0.32215500  0.13987000  0.02002400  1
  H  H11  1  0.97016600  0.94817300  0.62937500  1
  H  H12  1  0.94817300  0.62937500  0.97016600  1
  H  H13  1  0.05182700  0.37062500  0.02983400  1
  H  H14  1  0.02002400  0.32215500  0.13987000  1
  H  H15  1  0.27083600  0.52776400  0.28335400  1
  H  H16  1  0.28335400  0.27083600  0.52776400  1
  H  H17  1  0.67784500  0.86013000  0.97997600  1
  H  H18  1  0.47223600  0.71664600  0.72916400  1
  H  H19  1  0.86013000  0.97997600  0.67784500  1
  H  H20  1  0.72916400  0.47223600  0.71664600  1
  H  H21  1  0.97997600  0.67784500  0.86013000  1
  H  H22  1  0.52776400  0.28335400  0.27083600  1
  H  H23  1  0.37062500  0.02983400  0.05182700  1
  Pb  Pb24  1  0.41683300  0.89328500  0.25659900  1
  Pb  Pb25  1  0.25659900  0.41683300  0.89328500  1
  Pb  Pb26  1  0.89328500  0.25659900  0.41683300  1
  Pb  Pb27  1  0.10671500  0.74340100  0.58316700  1
  Pb  Pb28  1  0.74340100  0.58316700  0.10671500  1
  Pb  Pb29  1  0.58316700  0.10671500  0.74340100  1
  C  C30  1  0.11529200  0.44124900  0.17128700  1
  C  C31  1  0.55875100  0.82871300  0.88470800  1
  C  C32  1  0.17128700  0.11529200  0.44124900  1
  C  C33  1  0.44124900  0.17128700  0.11529200  1
  C  C34  1  0.88470800  0.55875100  0.82871300  1
  C  C35  1  0.82871300  0.88470800  0.55875100  1
  O  O36  1  0.29995400  0.53396700  0.79346200  1
  O  O37  1  0.79346200  0.29995400  0.53396700  1
  O  O38  1  0.48971700  0.10131900  0.90628500  1
  O  O39  1  0.20341600  0.65487300  0.71479200  1
  O  O40  1  0.90628500  0.48971700  0.10131900  1
  O  O41  1  0.34512700  0.28520800  0.79658400  1
  O  O42  1  0.10131900  0.90628500  0.48971700  1
  O  O43  1  0.65487300  0.71479200  0.20341600  1
  O  O44  1  0.28520800  0.79658400  0.34512700  1
  O  O45  1  0.09371500  0.51028300  0.89868100  1
  O  O46  1  0.20653800  0.70004600  0.46603300  1
  O  O47  1  0.71479200  0.20341600  0.65487300  1
  O  O48  1  0.51028300  0.89868100  0.09371500  1
  O  O49  1  0.46603300  0.20653800  0.70004600  1
  O  O50  1  0.53396700  0.79346200  0.29995400  1
  O  O51  1  0.70004600  0.46603300  0.20653800  1
  O  O52  1  0.79658400  0.34512700  0.28520800  1
  O  O53  1  0.89868100  0.09371500  0.51028300  1
