# generated using pymatgen
data_SeS4(NCl)3
_symmetry_space_group_name_H-M   'P 1'
_cell_length_a   14.72501000
_cell_length_b   10.70872200
_cell_length_c   14.27651160
_cell_angle_alpha   80.93697838
_cell_angle_beta   90.00000000
_cell_angle_gamma   90.00000000
_symmetry_Int_Tables_number   1
_chemical_formula_structural   SeS4(NCl)3
_chemical_formula_sum   'Se8 S32 N24 Cl24'
_cell_volume   2223.10176570
_cell_formula_units_Z   8
loop_
 _symmetry_equiv_pos_site_id
 _symmetry_equiv_pos_as_xyz
  1  'x, y, z'
loop_
 _atom_site_type_symbol
 _atom_site_label
 _atom_site_symmetry_multiplicity
 _atom_site_fract_x
 _atom_site_fract_y
 _atom_site_fract_z
 _atom_site_occupancy
  Se  Se0  1  0.37514500  0.78530700  0.78591600  1
  Se  Se1  1  0.62485500  0.21469300  0.21408400  1
  Se  Se2  1  0.87514500  0.21469300  0.71408400  1
  Se  Se3  1  0.37419100  0.12609200  0.60894800  1
  Se  Se4  1  0.87419100  0.87390800  0.89105200  1
  Se  Se5  1  0.12580900  0.12609200  0.10894800  1
  Se  Se6  1  0.12485500  0.78530700  0.28591600  1
  Se  Se7  1  0.62580900  0.87390800  0.39105200  1
  S  S8  1  0.89086100  0.23434500  0.28601000  1
  S  S9  1  0.61617700  0.84391300  0.80892500  1
  S  S10  1  0.36977100  0.51385300  0.32805500  1
  S  S11  1  0.84781900  0.59693800  0.42533200  1
  S  S12  1  0.35143000  0.24703500  0.91510000  1
  S  S13  1  0.64857000  0.75296500  0.08490000  1
  S  S14  1  0.14881200  0.66861200  0.98757900  1
  S  S15  1  0.86977100  0.48614700  0.17194500  1
  S  S16  1  0.88382300  0.84391300  0.30892500  1
  S  S17  1  0.87417000  0.93239000  0.50036900  1
  S  S18  1  0.85118800  0.33138800  0.01242100  1
  S  S19  1  0.63254100  0.14955500  0.59464000  1
  S  S20  1  0.62583000  0.93239000  0.00036900  1
  S  S21  1  0.13022900  0.51385300  0.82805500  1
  S  S22  1  0.35118800  0.66861200  0.48757900  1
  S  S23  1  0.13254100  0.85044500  0.90536000  1
  S  S24  1  0.86745900  0.14955500  0.09464000  1
  S  S25  1  0.14857000  0.24703500  0.41510000  1
  S  S26  1  0.60913900  0.23434500  0.78601000  1
  S  S27  1  0.36745900  0.85044500  0.40536000  1
  S  S28  1  0.34781900  0.40306200  0.07466800  1
  S  S29  1  0.85143000  0.75296500  0.58490000  1
  S  S30  1  0.38382300  0.15608700  0.19107500  1
  S  S31  1  0.12583000  0.06761000  0.49963100  1
  S  S32  1  0.39086100  0.76565500  0.21399000  1
  S  S33  1  0.63022900  0.48614700  0.67194500  1
  S  S34  1  0.15218100  0.40306200  0.57466800  1
  S  S35  1  0.65218100  0.59693800  0.92533200  1
  S  S36  1  0.10913900  0.76565500  0.71399000  1
  S  S37  1  0.37417000  0.06761000  0.99963100  1
  S  S38  1  0.64881200  0.33138800  0.51242100  1
  S  S39  1  0.11617700  0.15608700  0.69107500  1
  N  N40  1  0.64378200  0.43764400  0.57628800  1
  N  N41  1  0.84510400  0.64620100  0.52150600  1
  N  N42  1  0.88571900  0.91921200  0.39287500  1
  N  N43  1  0.85621800  0.43764400  0.07628800  1
  N  N44  1  0.15489600  0.35379900  0.47849400  1
  N  N45  1  0.63554800  0.69654800  0.83229000  1
  N  N46  1  0.34510400  0.35379900  0.97849400  1
  N  N47  1  0.88264600  0.16011600  0.20177600  1
  N  N48  1  0.61735400  0.16011600  0.70177600  1
  N  N49  1  0.11735400  0.83988400  0.79822400  1
  N  N50  1  0.36445200  0.30345200  0.16771000  1
  N  N51  1  0.14378200  0.56235600  0.92371200  1
  N  N52  1  0.61639000  0.38377100  0.76423300  1
  N  N53  1  0.61428100  0.91921200  0.89287500  1
  N  N54  1  0.38264600  0.83988400  0.29822400  1
  N  N55  1  0.11428100  0.08078800  0.60712500  1
  N  N56  1  0.88361000  0.38377100  0.26423300  1
  N  N57  1  0.35621800  0.56235600  0.42371200  1
  N  N58  1  0.11639000  0.61622900  0.73576700  1
  N  N59  1  0.65489600  0.64620100  0.02150600  1
  N  N60  1  0.38571900  0.08078800  0.10712500  1
  N  N61  1  0.86445200  0.69654800  0.33229000  1
  N  N62  1  0.13554800  0.30345200  0.66771000  1
  N  N63  1  0.38361000  0.61622900  0.23576700  1
  Cl  Cl64  1  0.85011700  0.95898100  0.69976900  1
  Cl  Cl65  1  0.11357700  0.58550200  0.25385200  1
  Cl  Cl66  1  0.10556400  0.17327900  0.94915100  1
  Cl  Cl67  1  0.90407900  0.67479600  0.86238300  1
  Cl  Cl68  1  0.32702200  0.87302500  0.60459200  1
  Cl  Cl69  1  0.41105300  0.73219600  0.94498600  1
  Cl  Cl70  1  0.58894700  0.26780400  0.05501400  1
  Cl  Cl71  1  0.35011700  0.04101900  0.80023100  1
  Cl  Cl72  1  0.59592100  0.67479600  0.36238300  1
  Cl  Cl73  1  0.89443600  0.82672100  0.05084900  1
  Cl  Cl74  1  0.38642300  0.58550200  0.75385200  1
  Cl  Cl75  1  0.09592100  0.32520400  0.13761700  1
  Cl  Cl76  1  0.08894700  0.73219600  0.44498600  1
  Cl  Cl77  1  0.67297800  0.12697500  0.39540800  1
  Cl  Cl78  1  0.40407900  0.32520400  0.63761700  1
  Cl  Cl79  1  0.17297800  0.87302500  0.10459200  1
  Cl  Cl80  1  0.61357700  0.41449800  0.24614800  1
  Cl  Cl81  1  0.91105300  0.26780400  0.55501400  1
  Cl  Cl82  1  0.14988300  0.04101900  0.30023100  1
  Cl  Cl83  1  0.88642300  0.41449800  0.74614800  1
  Cl  Cl84  1  0.39443600  0.17327900  0.44915100  1
  Cl  Cl85  1  0.60556400  0.82672100  0.55084900  1
  Cl  Cl86  1  0.64988300  0.95898100  0.19976900  1
  Cl  Cl87  1  0.82702200  0.12697500  0.89540800  1
