# generated using pymatgen
data_CrP3H17N3O13
_symmetry_space_group_name_H-M   'P 1'
_cell_length_a   10.84072400
_cell_length_b   9.59869900
_cell_length_c   15.88430502
_cell_angle_alpha   55.38463602
_cell_angle_beta   90.00000000
_cell_angle_gamma   90.00000000
_symmetry_Int_Tables_number   1
_chemical_formula_structural   CrP3H17N3O13
_chemical_formula_sum   'Cr4 P12 H68 N12 O52'
_cell_volume   1360.28624912
_cell_formula_units_Z   4
loop_
 _symmetry_equiv_pos_site_id
 _symmetry_equiv_pos_as_xyz
  1  'x, y, z'
loop_
 _atom_site_type_symbol
 _atom_site_label
 _atom_site_symmetry_multiplicity
 _atom_site_fract_x
 _atom_site_fract_y
 _atom_site_fract_z
 _atom_site_occupancy
  Cr  Cr0  1  0.00000000  0.00000000  0.00000000  1
  Cr  Cr1  1  0.00000000  0.50000000  0.50000000  1
  Cr  Cr2  1  0.50000000  0.50000000  0.00000000  1
  Cr  Cr3  1  0.50000000  0.00000000  0.50000000  1
  P  P4  1  0.36771400  0.35794800  0.74333300  1
  P  P5  1  0.08476400  0.85139000  0.63971400  1
  P  P6  1  0.13228600  0.35794800  0.24333300  1
  P  P7  1  0.86771400  0.64205200  0.75666700  1
  P  P8  1  0.63228600  0.64205200  0.25666700  1
  P  P9  1  0.40052400  0.60708800  0.36781100  1
  P  P10  1  0.58476400  0.14861000  0.86028600  1
  P  P11  1  0.59947600  0.39291200  0.63218900  1
  P  P12  1  0.41523600  0.85139000  0.13971400  1
  P  P13  1  0.90052400  0.39291200  0.13218900  1
  P  P14  1  0.09947600  0.60708800  0.86781100  1
  P  P15  1  0.91523600  0.14861000  0.36028600  1
  H  H16  1  0.56286100  0.98640100  0.33996600  1
  H  H17  1  0.78100200  0.31952100  0.55117000  1
  H  H18  1  0.43713900  0.01359900  0.66003400  1
  H  H19  1  0.39879000  0.37198100  0.17972100  1
  H  H20  1  0.21210600  0.61436600  0.74150200  1
  H  H21  1  0.88677100  0.29848100  0.86285100  1
  H  H22  1  0.96773600  0.44741400  0.68431600  1
  H  H23  1  0.25050900  0.98630400  0.21237000  1
  H  H24  1  0.65213900  0.10177000  0.19732700  1
  H  H25  1  0.66176800  0.78863600  0.64377300  1
  H  H26  1  0.13466500  0.27369600  0.93044900  1
  H  H27  1  0.71210600  0.38563400  0.75849800  1
  H  H28  1  0.78789400  0.38563400  0.25849800  1
  H  H29  1  0.37656700  0.73665600  0.00426700  1
  H  H30  1  0.21899800  0.68047900  0.44883000  1
  H  H31  1  0.56032800  0.13200900  0.60283200  1
  H  H32  1  0.60182500  0.64396000  0.40176300  1
  H  H33  1  0.21264900  0.37162100  0.48592400  1
  H  H34  1  0.43967200  0.86799100  0.39716800  1
  H  H35  1  0.53226400  0.44741400  0.18431600  1
  H  H36  1  0.34786100  0.89823000  0.80267300  1
  H  H37  1  0.06032800  0.86799100  0.89716800  1
  H  H38  1  0.28100200  0.68047900  0.94883000  1
  H  H39  1  0.10182500  0.35604000  0.09823700  1
  H  H40  1  0.71703300  0.15563800  0.44056500  1
  H  H41  1  0.78735100  0.62837900  0.51407600  1
  H  H42  1  0.89817500  0.64396000  0.90176300  1
  H  H43  1  0.61798500  0.79156800  0.93869900  1
  H  H44  1  0.16176800  0.21136400  0.85622700  1
  H  H45  1  0.86533500  0.72630400  0.06955100  1
  H  H46  1  0.71899800  0.31952100  0.05117000  1
  H  H47  1  0.28789400  0.61436600  0.24150200  1
  H  H48  1  0.62343300  0.26334400  0.99573300  1
  H  H49  1  0.62206800  0.90344500  0.09758700  1
  H  H50  1  0.21703300  0.84436200  0.05943500  1
  H  H51  1  0.39817500  0.35604000  0.59823700  1
  H  H52  1  0.84786100  0.10177000  0.69732700  1
  H  H53  1  0.88201500  0.79156800  0.43869900  1
  H  H54  1  0.75050900  0.01369600  0.28763000  1
  H  H55  1  0.60121000  0.62801900  0.82027900  1
  H  H56  1  0.93713900  0.98640100  0.83996600  1
  H  H57  1  0.10121000  0.37198100  0.67972100  1
  H  H58  1  0.15213900  0.89823000  0.30267300  1
  H  H59  1  0.12343300  0.73665600  0.50426700  1
  H  H60  1  0.74949100  0.01369600  0.78763000  1
  H  H61  1  0.38677100  0.70151900  0.63714900  1
  H  H62  1  0.28296700  0.84436200  0.55943500  1
  H  H63  1  0.61322900  0.29848100  0.36285100  1
  H  H64  1  0.11322900  0.70151900  0.13714900  1
  H  H65  1  0.93967200  0.13200900  0.10283200  1
  H  H66  1  0.33823200  0.21136400  0.35622700  1
  H  H67  1  0.24949100  0.98630400  0.71237000  1
  H  H68  1  0.28735100  0.37162100  0.98592400  1
  H  H69  1  0.37793200  0.09655500  0.90241300  1
  H  H70  1  0.38201500  0.20843200  0.06130100  1
  H  H71  1  0.83823200  0.78863600  0.14377300  1
  H  H72  1  0.87656700  0.26334400  0.49573300  1
  H  H73  1  0.78296700  0.15563800  0.94056500  1
  H  H74  1  0.36533500  0.27369600  0.43044900  1
  H  H75  1  0.46773600  0.55258600  0.81568400  1
  H  H76  1  0.63466500  0.72630400  0.56955100  1
  H  H77  1  0.87793200  0.90344500  0.59758700  1
  H  H78  1  0.03226400  0.55258600  0.31568400  1
  H  H79  1  0.11798500  0.20843200  0.56130100  1
  H  H80  1  0.12206800  0.09655500  0.40241300  1
  H  H81  1  0.89879000  0.62801900  0.32027900  1
  H  H82  1  0.71264900  0.62837900  0.01407600  1
  H  H83  1  0.06286100  0.01359900  0.16003400  1
  N  N84  1  0.63979400  0.32339300  0.75186700  1
  N  N85  1  0.13979400  0.67660700  0.74813300  1
  N  N86  1  0.44590600  0.38032800  0.64409700  1
  N  N87  1  0.36020600  0.67660700  0.24813300  1
  N  N88  1  0.94590600  0.61967200  0.85590300  1
  N  N89  1  0.06614500  0.19262900  0.34888900  1
  N  N90  1  0.56614500  0.80737100  0.15111100  1
  N  N91  1  0.93385500  0.80737100  0.65111100  1
  N  N92  1  0.55409400  0.61967200  0.35590300  1
  N  N93  1  0.86020600  0.32339300  0.25186700  1
  N  N94  1  0.43385500  0.19262900  0.84888900  1
  N  N95  1  0.05409400  0.38032800  0.14409700  1
  O  O96  1  0.23457800  0.31426500  0.74042200  1
  O  O97  1  0.50883700  0.03794400  0.61134100  1
  O  O98  1  0.12837800  0.68168200  0.46576700  1
  O  O99  1  0.87162200  0.31831800  0.53423300  1
  O  O100  1  0.35100200  0.42644300  0.43819700  1
  O  O101  1  0.88808200  0.48201500  0.75879300  1
  O  O102  1  0.12720100  0.33661700  0.51567400  1
  O  O103  1  0.98448500  0.59809600  0.34966600  1
  O  O104  1  0.37414500  0.82042600  0.57453100  1
  O  O105  1  0.11191800  0.51798500  0.24120700  1
  O  O106  1  0.16550200  0.99422400  0.23213600  1
  O  O107  1  0.85663700  0.28234600  0.09765500  1
  O  O108  1  0.63591400  0.82921300  0.57278000  1
  O  O109  1  0.73457800  0.68573500  0.75957800  1
  O  O110  1  0.48448500  0.40190400  0.15033400  1
  O  O111  1  0.36408600  0.17078700  0.42722000  1
  O  O112  1  0.33449800  0.99422400  0.73213600  1
  O  O113  1  0.14899800  0.42644300  0.93819700  1
  O  O114  1  0.11061900  0.00792800  0.63801200  1
  O  O115  1  0.36150100  0.85360500  0.04970800  1
  O  O116  1  0.86150100  0.14639500  0.45029200  1
  O  O117  1  0.49116300  0.96205600  0.38865900  1
  O  O118  1  0.12585500  0.82042600  0.07453100  1
  O  O119  1  0.87414500  0.17957400  0.92546900  1
  O  O120  1  0.38938100  0.00792800  0.13801200  1
  O  O121  1  0.35663700  0.71765400  0.40234500  1
  O  O122  1  0.62585500  0.17957400  0.42546900  1
  O  O123  1  0.85100200  0.57355700  0.06180300  1
  O  O124  1  0.86408600  0.82921300  0.07278000  1
  O  O125  1  0.01551500  0.40190400  0.65033400  1
  O  O126  1  0.00883700  0.96205600  0.88865900  1
  O  O127  1  0.62837800  0.31831800  0.03423300  1
  O  O128  1  0.66550200  0.00577600  0.26786400  1
  O  O129  1  0.13849900  0.85360500  0.54970800  1
  O  O130  1  0.14336300  0.71765400  0.90234500  1
  O  O131  1  0.61191800  0.48201500  0.25879300  1
  O  O132  1  0.37279900  0.33661700  0.01567400  1
  O  O133  1  0.83449800  0.00577600  0.76786400  1
  O  O134  1  0.13591400  0.17078700  0.92722000  1
  O  O135  1  0.88938100  0.99207200  0.36198800  1
  O  O136  1  0.99116300  0.03794400  0.11134100  1
  O  O137  1  0.87279900  0.66338300  0.48432600  1
  O  O138  1  0.38808200  0.51798500  0.74120700  1
  O  O139  1  0.61061900  0.99207200  0.86198800  1
  O  O140  1  0.62720100  0.66338300  0.98432600  1
  O  O141  1  0.51551500  0.59809600  0.84966600  1
  O  O142  1  0.76542200  0.68573500  0.25957800  1
  O  O143  1  0.63849900  0.14639500  0.95029200  1
  O  O144  1  0.37162200  0.68168200  0.96576700  1
  O  O145  1  0.26542200  0.31426500  0.24042200  1
  O  O146  1  0.64336300  0.28234600  0.59765500  1
  O  O147  1  0.64899800  0.57355700  0.56180300  1
