# generated using pymatgen
data_Na2MnO2
_symmetry_space_group_name_H-M   'P 1'
_cell_length_a   6.18702231
_cell_length_b   8.80214857
_cell_length_c   8.80213914
_cell_angle_alpha   87.91143664
_cell_angle_beta   70.14037881
_cell_angle_gamma   70.14028001
_symmetry_Int_Tables_number   1
_chemical_formula_structural   Na2MnO2
_chemical_formula_sum   'Na12 Mn6 O12'
_cell_volume   422.34206737
_cell_formula_units_Z   6
loop_
 _symmetry_equiv_pos_site_id
 _symmetry_equiv_pos_as_xyz
  1  'x, y, z'
loop_
 _atom_site_type_symbol
 _atom_site_label
 _atom_site_symmetry_multiplicity
 _atom_site_fract_x
 _atom_site_fract_y
 _atom_site_fract_z
 _atom_site_occupancy
  Na  Na0  1  0.25000200  0.93954100  0.06045800  1
  Na  Na1  1  0.75000100  0.06045500  0.93954500  1
  Na  Na2  1  0.75000300  0.80427600  0.19572400  1
  Na  Na3  1  0.24999900  0.19572300  0.80427800  1
  Na  Na4  1  0.73802100  0.40295000  0.99733400  1
  Na  Na5  1  0.76197800  0.00266600  0.59705100  1
  Na  Na6  1  0.26197900  0.59704200  0.00267200  1
  Na  Na7  1  0.23802100  0.99732900  0.40295600  1
  Na  Na8  1  0.22916500  0.32558600  0.46838600  1
  Na  Na9  1  0.77083600  0.67440700  0.53162400  1
  Na  Na10  1  0.72916200  0.46838000  0.32559600  1
  Na  Na11  1  0.27083500  0.53161400  0.67441600  1
  Mn  Mn12  1  0.25001400  0.68419500  0.31579900  1
  Mn  Mn13  1  0.25660400  0.29169300  0.13211800  1
  Mn  Mn14  1  0.24339200  0.86787800  0.70830100  1
  Mn  Mn15  1  0.75000000  0.31588900  0.68411100  1
  Mn  Mn16  1  0.74337800  0.70829600  0.86789300  1
  Mn  Mn17  1  0.75661500  0.13211100  0.29170100  1
  O  O18  1  0.46652100  0.32794700  0.90098200  1
  O  O19  1  0.03347700  0.09901900  0.67205400  1
  O  O20  1  0.53348900  0.67204800  0.09901600  1
  O  O21  1  0.96651100  0.90098500  0.32795300  1
  O  O22  1  0.51717600  0.89262000  0.77945700  1
  O  O23  1  0.98282300  0.22054300  0.10738000  1
  O  O24  1  0.01716900  0.77944900  0.89263000  1
  O  O25  1  0.48283200  0.10737000  0.22055100  1
  O  O26  1  0.59897300  0.28451600  0.51258300  1
  O  O27  1  0.90102500  0.48741800  0.71548500  1
  O  O28  1  0.09897300  0.51257700  0.28452500  1
  O  O29  1  0.40102800  0.71547600  0.48742300  1
