# generated using pymatgen
data_Na2MnP2O7
_symmetry_space_group_name_H-M   'P 1'
_cell_length_a   5.38788130
_cell_length_b   9.58864464
_cell_length_c   12.93207899
_cell_angle_alpha   108.87373058
_cell_angle_beta   97.37597152
_cell_angle_gamma   73.96352991
_symmetry_Int_Tables_number   1
_chemical_formula_structural   Na2MnP2O7
_chemical_formula_sum   'Na8 Mn4 P8 O28'
_cell_volume   607.02170930
_cell_formula_units_Z   4
loop_
 _symmetry_equiv_pos_site_id
 _symmetry_equiv_pos_as_xyz
  1  'x, y, z'
loop_
 _atom_site_type_symbol
 _atom_site_label
 _atom_site_symmetry_multiplicity
 _atom_site_fract_x
 _atom_site_fract_y
 _atom_site_fract_z
 _atom_site_occupancy
  Na  Na0  1  0.41272100  0.73014800  0.79399300  1
  Na  Na1  1  0.91273400  0.73014900  0.29398200  1
  Na  Na2  1  0.58729400  0.26984500  0.20602300  1
  Na  Na3  1  0.08727900  0.26985400  0.70599900  1
  Na  Na4  1  0.78199400  0.96602400  0.87447500  1
  Na  Na5  1  0.28196500  0.96601800  0.37445000  1
  Na  Na6  1  0.21801500  0.03399200  0.12555600  1
  Na  Na7  1  0.71804500  0.03398500  0.62553000  1
  Mn  Mn8  1  0.10679500  0.36337100  0.38155600  1
  Mn  Mn9  1  0.39305400  0.63657300  0.11844400  1
  Mn  Mn10  1  0.60719500  0.36309500  0.88130300  1
  Mn  Mn11  1  0.89278100  0.63690900  0.61870800  1
  P  P12  1  0.51908600  0.61122200  0.38644600  1
  P  P13  1  0.01906800  0.61123000  0.88647400  1
  P  P14  1  0.48093500  0.38877600  0.61352500  1
  P  P15  1  0.98091500  0.38877000  0.11355000  1
  P  P16  1  0.30068600  0.86535000  0.59743500  1
  P  P17  1  0.80070800  0.86534700  0.09747200  1
  P  P18  1  0.69928000  0.13465500  0.40253100  1
  P  P19  1  0.19932900  0.13465300  0.90256400  1
  O  O20  1  0.56110900  0.83202600  0.66123200  1
  O  O21  1  0.06121500  0.83195500  0.16121100  1
  O  O22  1  0.43879100  0.16805000  0.33878900  1
  O  O23  1  0.93889100  0.16798500  0.83877100  1
  O  O24  1  0.98043600  0.33058000  0.21120200  1
  O  O25  1  0.48039300  0.33056200  0.71116400  1
  O  O26  1  0.01961300  0.66944300  0.78883300  1
  O  O27  1  0.51958000  0.66942100  0.28879600  1
  O  O28  1  0.33829500  0.75970200  0.46877800  1
  O  O29  1  0.83830500  0.75969900  0.96877500  1
  O  O30  1  0.66171400  0.24030600  0.53122400  1
  O  O31  1  0.16172600  0.24030300  0.03122100  1
  O  O32  1  0.39058600  0.48104200  0.35974400  1
  O  O33  1  0.89058800  0.48104700  0.85972700  1
  O  O34  1  0.60941100  0.51895600  0.64026900  1
  O  O35  1  0.10941700  0.51895100  0.14025600  1
  O  O36  1  0.20611800  0.42063900  0.55919600  1
  O  O37  1  0.70620400  0.42056200  0.05913600  1
  O  O38  1  0.79381000  0.57944000  0.44086000  1
  O  O39  1  0.29387900  0.57936000  0.94079800  1
  O  O40  1  0.27066000  0.97362100  0.91139000  1
  O  O41  1  0.77069100  0.97364000  0.41139700  1
  O  O42  1  0.72934500  0.02636300  0.08860500  1
  O  O43  1  0.22934100  0.02638500  0.58860900  1
  O  O44  1  0.08686700  0.82072400  0.63690300  1
  O  O45  1  0.58687400  0.82069200  0.13688600  1
  O  O46  1  0.91312500  0.17930200  0.36311300  1
  O  O47  1  0.41313500  0.17927900  0.86309600  1
