# generated using pymatgen
data_CrN2
_symmetry_space_group_name_H-M   'P 1'
_cell_length_a   5.57085065
_cell_length_b   5.57085065
_cell_length_c   5.57085065
_cell_angle_alpha   128.17556633
_cell_angle_beta   126.73493324
_cell_angle_gamma   77.51481938
_symmetry_Int_Tables_number   1
_chemical_formula_structural   CrN2
_chemical_formula_sum   'Cr2 N4'
_cell_volume   105.63827553
_cell_formula_units_Z   2
loop_
 _symmetry_equiv_pos_site_id
 _symmetry_equiv_pos_as_xyz
  1  'x, y, z'
loop_
 _atom_site_type_symbol
 _atom_site_label
 _atom_site_symmetry_multiplicity
 _atom_site_fract_x
 _atom_site_fract_y
 _atom_site_fract_z
 _atom_site_occupancy
  Cr  Cr0  1  0.25000000  0.00000000  0.25000000  1
  Cr  Cr1  1  0.75000000  0.00000000  0.75000000  1
  N  N2  1  0.59939900  0.91958700  0.32018800  1
  N  N3  1  0.40060100  0.08041300  0.67981200  1
  N  N4  1  0.09939900  0.27921100  0.17981200  1
  N  N5  1  0.90060100  0.72078900  0.82018800  1
