# generated using pymatgen
data_NaMgAl3Si8(HO6)4
_symmetry_space_group_name_H-M   'P 1'
_cell_length_a   5.28472200
_cell_length_b   9.06439029
_cell_length_c   10.00617749
_cell_angle_alpha   90.01192141
_cell_angle_beta   90.20375014
_cell_angle_gamma   90.01455088
_symmetry_Int_Tables_number   1
_chemical_formula_structural   NaMgAl3Si8(HO6)4
_chemical_formula_sum   'Na1 Mg1 Al3 Si8 H4 O24'
_cell_volume   479.32069010
_cell_formula_units_Z   1
loop_
 _symmetry_equiv_pos_site_id
 _symmetry_equiv_pos_as_xyz
  1  'x, y, z'
loop_
 _atom_site_type_symbol
 _atom_site_label
 _atom_site_symmetry_multiplicity
 _atom_site_fract_x
 _atom_site_fract_y
 _atom_site_fract_z
 _atom_site_occupancy
  Na  Na0  1  0.41019000  0.96315400  0.50205500  1
  Mg  Mg1  1  0.50181200  0.83718600  0.96984500  1
  Al  Al2  1  0.00203600  0.66798100  0.97170900  1
  Al  Al3  1  0.50094700  0.16539100  0.96972800  1
  Al  Al4  1  0.00253500  0.33834000  0.97238200  1
  Si  Si5  1  0.30153800  0.66889900  0.69863400  1
  Si  Si6  1  0.79798000  0.17097200  0.69886500  1
  Si  Si7  1  0.69952500  0.66935500  0.24357300  1
  Si  Si8  1  0.20055400  0.17039900  0.24126700  1
  Si  Si9  1  0.70050200  0.32791100  0.24233000  1
  Si  Si10  1  0.18994800  0.82462600  0.24093200  1
  Si  Si11  1  0.29803000  0.32874700  0.69971600  1
  Si  Si12  1  0.81237500  0.82626200  0.69831600  1
  H  H13  1  0.17819800  0.01420200  0.86794000  1
  H  H14  1  0.82029100  0.01432000  0.07244400  1
  H  H15  1  0.69257900  0.50008100  0.85730700  1
  H  H16  1  0.31482700  0.50048400  0.08650700  1
  O  O17  1  0.36225000  0.01634000  0.86209700  1
  O  O18  1  0.63609800  0.01577900  0.07449400  1
  O  O19  1  0.04405700  0.25318300  0.63597000  1
  O  O20  1  0.30191100  0.31421300  0.86378200  1
  O  O21  1  0.54828500  0.75770200  0.63606100  1
  O  O22  1  0.82654700  0.80900000  0.85834200  1
  O  O23  1  0.95698200  0.25441000  0.30470900  1
  O  O24  1  0.70059500  0.31321500  0.07768800  1
  O  O25  1  0.45311200  0.75844800  0.30530100  1
  O  O26  1  0.17670700  0.80941900  0.08054700  1
  O  O27  1  0.95009500  0.74419800  0.31308400  1
  O  O28  1  0.70883500  0.68338600  0.08192900  1
  O  O29  1  0.45981600  0.23784800  0.30543400  1
  O  O30  1  0.19829600  0.19147500  0.07799100  1
  O  O31  1  0.05881300  0.75111900  0.62636200  1
  O  O32  1  0.29379000  0.68287700  0.85944800  1
  O  O33  1  0.53732400  0.23807600  0.63513600  1
  O  O34  1  0.80230800  0.19163600  0.86177100  1
  O  O35  1  0.32025700  0.49834500  0.64964100  1
  O  O36  1  0.80502700  0.99917800  0.64525600  1
  O  O37  1  0.67532300  0.49793300  0.29100200  1
  O  O38  1  0.18858400  0.99820000  0.29324900  1
  O  O39  1  0.87508600  0.49939600  0.87117500  1
  O  O40  1  0.13229800  0.49976900  0.07214600  1
