# generated using pymatgen
data_Rb2Ce2Fe4O11
_symmetry_space_group_name_H-M   'P 1'
_cell_length_a   8.84442814
_cell_length_b   8.84442814
_cell_length_c   3.92794400
_cell_angle_alpha   90.00000000
_cell_angle_beta   90.00000000
_cell_angle_gamma   125.95121391
_symmetry_Int_Tables_number   1
_chemical_formula_structural   Rb2Ce2Fe4O11
_chemical_formula_sum   'Rb2 Ce2 Fe4 O11'
_cell_volume   248.73155045
_cell_formula_units_Z   1
loop_
 _symmetry_equiv_pos_site_id
 _symmetry_equiv_pos_as_xyz
  1  'x, y, z'
loop_
 _atom_site_type_symbol
 _atom_site_label
 _atom_site_symmetry_multiplicity
 _atom_site_fract_x
 _atom_site_fract_y
 _atom_site_fract_z
 _atom_site_occupancy
  Rb  Rb0  1  0.00000000  0.50000000  0.50000000  1
  Rb  Rb1  1  0.50000000  0.00000000  0.50000000  1
  Ce  Ce2  1  0.73574800  0.73574800  0.50000000  1
  Ce  Ce3  1  0.26425200  0.26425200  0.50000000  1
  Fe  Fe4  1  0.12945700  0.87054300  0.00000000  1
  Fe  Fe5  1  0.87054300  0.12945700  0.00000000  1
  Fe  Fe6  1  0.37430000  0.62570000  0.00000000  1
  Fe  Fe7  1  0.62570000  0.37430000  0.00000000  1
  O  O8  1  0.85620400  0.66959400  0.00000000  1
  O  O9  1  0.33040600  0.14379600  0.00000000  1
  O  O10  1  0.14379600  0.33040600  0.00000000  1
  O  O11  1  0.66959400  0.85620400  0.00000000  1
  O  O12  1  0.08681200  0.91318800  0.50000000  1
  O  O13  1  0.91318800  0.08681200  0.50000000  1
  O  O14  1  0.39473900  0.60526100  0.50000000  1
  O  O15  1  0.60526100  0.39473900  0.50000000  1
  O  O16  1  0.24987800  0.75012200  0.00000000  1
  O  O17  1  0.75012200  0.24987800  0.00000000  1
  O  O18  1  0.50000000  0.50000000  0.00000000  1
