# generated using pymatgen
data_ScH24C3S3(N3O5)3
_symmetry_space_group_name_H-M   'P 1'
_cell_length_a   11.76330566
_cell_length_b   11.76330566
_cell_length_c   11.76330538
_cell_angle_alpha   112.72751294
_cell_angle_beta   112.72751294
_cell_angle_gamma   112.72750697
_symmetry_Int_Tables_number   1
_chemical_formula_structural   ScH24C3S3(N3O5)3
_chemical_formula_sum   'Sc2 H48 C6 S6 N18 O30'
_cell_volume   1075.87644757
_cell_formula_units_Z   2
loop_
 _symmetry_equiv_pos_site_id
 _symmetry_equiv_pos_as_xyz
  1  'x, y, z'
loop_
 _atom_site_type_symbol
 _atom_site_label
 _atom_site_symmetry_multiplicity
 _atom_site_fract_x
 _atom_site_fract_y
 _atom_site_fract_z
 _atom_site_occupancy
  Sc  Sc0  1  0.50000000  0.50000000  0.50000000  1
  Sc  Sc1  1  0.00000000  0.00000000  0.00000000  1
  H  H2  1  0.00063600  0.77041600  0.40467700  1
  H  H3  1  0.34564100  0.20570000  0.56454600  1
  H  H4  1  0.01619100  0.66948200  0.05205600  1
  H  H5  1  0.43545400  0.65435900  0.79430000  1
  H  H6  1  0.25347400  0.17223800  0.64827500  1
  H  H7  1  0.18579800  0.84052900  0.18770700  1
  H  H8  1  0.33570600  0.46375700  0.95100400  1
  H  H9  1  0.35172500  0.74652600  0.82776200  1
  H  H10  1  0.66429400  0.53624300  0.04899600  1
  H  H11  1  0.05205600  0.01619100  0.66948200  1
  H  H12  1  0.98380900  0.33051800  0.94794400  1
  H  H13  1  0.12325000  0.56342400  0.49475800  1
  H  H14  1  0.20570000  0.56454600  0.34564100  1
  H  H15  1  0.99936400  0.22958400  0.59532300  1
  H  H16  1  0.64827500  0.25347400  0.17223800  1
  H  H17  1  0.84052900  0.18770700  0.18579800  1
  H  H18  1  0.93396300  0.23213900  0.70750100  1
  H  H19  1  0.46375700  0.95100400  0.33570600  1
  H  H20  1  0.79430000  0.43545400  0.65435900  1
  H  H21  1  0.04899600  0.66429400  0.53624300  1
  H  H22  1  0.23213900  0.70750100  0.93396300  1
  H  H23  1  0.94794400  0.98380900  0.33051800  1
  H  H24  1  0.66948200  0.05205600  0.01619100  1
  H  H25  1  0.56342400  0.49475800  0.12325000  1
  H  H26  1  0.29249900  0.06603700  0.76786100  1
  H  H27  1  0.76786100  0.29249900  0.06603700  1
  H  H28  1  0.81229300  0.81420200  0.15947100  1
  H  H29  1  0.06603700  0.76786100  0.29249900  1
  H  H30  1  0.50524200  0.87675000  0.43657600  1
  H  H31  1  0.87675000  0.43657600  0.50524200  1
  H  H32  1  0.15947100  0.81229300  0.81420200  1
  H  H33  1  0.33051800  0.94794400  0.98380900  1
  H  H34  1  0.43657600  0.50524200  0.87675000  1
  H  H35  1  0.18770700  0.18579800  0.84052900  1
  H  H36  1  0.95100400  0.33570600  0.46375700  1
  H  H37  1  0.56454600  0.34564100  0.20570000  1
  H  H38  1  0.77041600  0.40467700  0.00063600  1
  H  H39  1  0.17223800  0.64827500  0.25347400  1
  H  H40  1  0.74652600  0.82776200  0.35172500  1
  H  H41  1  0.82776200  0.35172500  0.74652600  1
  H  H42  1  0.65435900  0.79430000  0.43545400  1
  H  H43  1  0.22958400  0.59532300  0.99936400  1
  H  H44  1  0.70750100  0.93396300  0.23213900  1
  H  H45  1  0.53624300  0.04899600  0.66429400  1
  H  H46  1  0.49475800  0.12325000  0.56342400  1
  H  H47  1  0.81420200  0.15947100  0.81229300  1
  H  H48  1  0.59532300  0.99936400  0.22958400  1
  H  H49  1  0.40467700  0.00063600  0.77041600  1
  C  C50  1  0.39632200  0.11095200  0.67148700  1
  C  C51  1  0.88904800  0.32851300  0.60367800  1
  C  C52  1  0.60367800  0.88904800  0.32851300  1
  C  C53  1  0.32851300  0.60367800  0.88904800  1
  C  C54  1  0.67148700  0.39632200  0.11095200  1
  C  C55  1  0.11095200  0.67148700  0.39632200  1
  S  S56  1  0.12335500  0.25472700  0.37999200  1
  S  S57  1  0.74527300  0.62000800  0.87664500  1
  S  S58  1  0.25472700  0.37999200  0.12335500  1
  S  S59  1  0.87664500  0.74527300  0.62000800  1
  S  S60  1  0.62000800  0.87664500  0.74527300  1
  S  S61  1  0.37999200  0.12335500  0.25472700  1
  N  N62  1  0.66572900  0.82347200  0.36764000  1
  N  N63  1  0.63236000  0.33427100  0.17652800  1
  N  N64  1  0.75124600  0.37030300  0.06288500  1
  N  N65  1  0.36764000  0.66572900  0.82347200  1
  N  N66  1  0.06288500  0.75124600  0.37030300  1
  N  N67  1  0.48812700  0.09869800  0.63569100  1
  N  N68  1  0.33427100  0.17652800  0.63236000  1
  N  N69  1  0.17652800  0.63236000  0.33427100  1
  N  N70  1  0.51187300  0.90130200  0.36430900  1
  N  N71  1  0.63569100  0.48812700  0.09869800  1
  N  N72  1  0.09869800  0.63569100  0.48812700  1
  N  N73  1  0.62969700  0.93711500  0.24875400  1
  N  N74  1  0.90130200  0.36430900  0.51187300  1
  N  N75  1  0.36430900  0.51187300  0.90130200  1
  N  N76  1  0.82347200  0.36764000  0.66572900  1
  N  N77  1  0.37030300  0.06288500  0.75124600  1
  N  N78  1  0.24875400  0.62969700  0.93711500  1
  N  N79  1  0.93711500  0.24875400  0.62969700  1
  O  O80  1  0.95552900  0.88683500  0.78195300  1
  O  O81  1  0.21804700  0.04447100  0.11316500  1
  O  O82  1  0.11316500  0.21804700  0.04447100  1
  O  O83  1  0.91984400  0.80206900  0.54017900  1
  O  O84  1  0.14012600  0.12829200  0.72812600  1
  O  O85  1  0.47326400  0.30032800  0.35345600  1
  O  O86  1  0.80206900  0.54017900  0.91984400  1
  O  O87  1  0.65176900  0.63504300  0.92827400  1
  O  O88  1  0.27187400  0.85987400  0.87170800  1
  O  O89  1  0.36495700  0.07172600  0.34823100  1
  O  O90  1  0.12829200  0.72812600  0.14012600  1
  O  O91  1  0.78195300  0.95552900  0.88683500  1
  O  O92  1  0.07172600  0.34823100  0.36495700  1
  O  O93  1  0.85987400  0.87170800  0.27187400  1
  O  O94  1  0.52673600  0.69967200  0.64654400  1
  O  O95  1  0.54017900  0.91984400  0.80206900  1
  O  O96  1  0.64654400  0.52673600  0.69967200  1
  O  O97  1  0.34823100  0.36495700  0.07172600  1
  O  O98  1  0.63504300  0.92827400  0.65176900  1
  O  O99  1  0.04447100  0.11316500  0.21804700  1
  O  O100  1  0.88683500  0.78195300  0.95552900  1
  O  O101  1  0.87170800  0.27187400  0.85987400  1
  O  O102  1  0.30032800  0.35345600  0.47326400  1
  O  O103  1  0.08015600  0.19793100  0.45982100  1
  O  O104  1  0.72812600  0.14012600  0.12829200  1
  O  O105  1  0.35345600  0.47326400  0.30032800  1
  O  O106  1  0.69967200  0.64654400  0.52673600  1
  O  O107  1  0.45982100  0.08015600  0.19793100  1
  O  O108  1  0.92827400  0.65176900  0.63504300  1
  O  O109  1  0.19793100  0.45982100  0.08015600  1
