# generated using pymatgen
data_Na2TbMoPO8
_symmetry_space_group_name_H-M   'P 1'
_cell_length_a   11.48613983
_cell_length_b   11.48613983
_cell_length_c   11.48613983
_cell_angle_alpha   144.45240779
_cell_angle_beta   115.45148623
_cell_angle_gamma   75.91390767
_symmetry_Int_Tables_number   1
_chemical_formula_structural   Na2TbMoPO8
_chemical_formula_sum   'Na8 Tb4 Mo4 P4 O32'
_cell_volume   779.03632431
_cell_formula_units_Z   4
loop_
 _symmetry_equiv_pos_site_id
 _symmetry_equiv_pos_as_xyz
  1  'x, y, z'
loop_
 _atom_site_type_symbol
 _atom_site_label
 _atom_site_symmetry_multiplicity
 _atom_site_fract_x
 _atom_site_fract_y
 _atom_site_fract_z
 _atom_site_occupancy
  Na  Na0  1  0.80211400  0.33473400  0.44644400  1
  Na  Na1  1  0.38829000  0.35567000  0.05355600  1
  Na  Na2  1  0.19788600  0.66526600  0.55355600  1
  Na  Na3  1  0.69788600  0.14433000  0.53262000  1
  Na  Na4  1  0.61171000  0.64433000  0.94644400  1
  Na  Na5  1  0.88829000  0.83473400  0.03262000  1
  Na  Na6  1  0.11171000  0.16526600  0.96738000  1
  Na  Na7  1  0.30211400  0.85567000  0.46738000  1
  Tb  Tb8  1  0.82173200  0.75000000  0.57173200  1
  Tb  Tb9  1  0.17826800  0.25000000  0.42826800  1
  Tb  Tb10  1  0.67826800  0.25000000  0.92826800  1
  Tb  Tb11  1  0.32173200  0.75000000  0.07173200  1
  Mo  Mo12  1  0.42986900  0.17986900  0.25000000  1
  Mo  Mo13  1  0.92986900  0.67986900  0.25000000  1
  Mo  Mo14  1  0.57013100  0.82013100  0.75000000  1
  Mo  Mo15  1  0.07013100  0.32013100  0.75000000  1
  P  P16  1  0.93071900  0.25000000  0.18071900  1
  P  P17  1  0.06928100  0.75000000  0.81928100  1
  P  P18  1  0.56928100  0.75000000  0.31928100  1
  P  P19  1  0.43071900  0.25000000  0.68071900  1
  O  O20  1  0.36261600  0.19611000  0.09205700  1
  O  O21  1  0.65531500  0.93127400  0.57150600  1
  O  O22  1  0.15113300  0.58439500  0.97971300  1
  O  O23  1  0.15531500  0.58380900  0.72404100  1
  O  O24  1  0.84468500  0.41619100  0.27595900  1
  O  O25  1  0.14023200  0.91619100  0.07150600  1
  O  O26  1  0.89594700  0.30389000  0.66650600  1
  O  O27  1  0.10468200  0.17142000  0.52028700  1
  O  O28  1  0.10405300  0.69611000  0.33349400  1
  O  O29  1  0.13738400  0.22944100  0.83349400  1
  O  O30  1  0.85976800  0.08380900  0.92849400  1
  O  O31  1  0.63738400  0.80389000  0.90794300  1
  O  O32  1  0.07491900  0.33049200  0.26865200  1
  O  O33  1  0.64023200  0.56872600  0.22404100  1
  O  O34  1  0.60405300  0.27055900  0.40794300  1
  O  O35  1  0.84886700  0.41560500  0.02028700  1
  O  O36  1  0.56184000  0.80626700  0.23134800  1
  O  O37  1  0.42508100  0.69373300  0.25557300  1
  O  O38  1  0.92508100  0.66950800  0.73134800  1
  O  O39  1  0.06184000  0.83049200  0.75557300  1
  O  O40  1  0.43816000  0.19373300  0.76865200  1
  O  O41  1  0.65113300  0.67142000  0.56673800  1
  O  O42  1  0.34468500  0.06872600  0.42849400  1
  O  O43  1  0.35976800  0.43127400  0.77595900  1
  O  O44  1  0.93816000  0.16950800  0.24442700  1
  O  O45  1  0.39531800  0.91560500  0.06673800  1
  O  O46  1  0.57491900  0.30626700  0.74442700  1
  O  O47  1  0.60468200  0.08439500  0.93326200  1
  O  O48  1  0.34886700  0.32858000  0.43326200  1
  O  O49  1  0.39594700  0.72944100  0.59205700  1
  O  O50  1  0.86261600  0.77055900  0.16650600  1
  O  O51  1  0.89531800  0.82858000  0.47971300  1
