# generated using pymatgen
data_SiO2
_symmetry_space_group_name_H-M   'P 1'
_cell_length_a   6.04295948
_cell_length_b   6.04295948
_cell_length_c   6.04295866
_cell_angle_alpha   88.00565192
_cell_angle_beta   88.00565192
_cell_angle_gamma   88.00565775
_symmetry_Int_Tables_number   1
_chemical_formula_structural   SiO2
_chemical_formula_sum   'Si6 O12'
_cell_volume   220.28095929
_cell_formula_units_Z   6
loop_
 _symmetry_equiv_pos_site_id
 _symmetry_equiv_pos_as_xyz
  1  'x, y, z'
loop_
 _atom_site_type_symbol
 _atom_site_label
 _atom_site_symmetry_multiplicity
 _atom_site_fract_x
 _atom_site_fract_y
 _atom_site_fract_z
 _atom_site_occupancy
  Si  Si0  1  0.74722300  0.49640600  0.11076700  1
  Si  Si1  1  0.49640600  0.11076700  0.74722300  1
  Si  Si2  1  0.50359400  0.88923300  0.25277700  1
  Si  Si3  1  0.11076700  0.74722300  0.49640600  1
  Si  Si4  1  0.88923300  0.25277700  0.50359400  1
  Si  Si5  1  0.25277700  0.50359400  0.88923300  1
  O  O6  1  0.75206600  0.27422600  0.27256500  1
  O  O7  1  0.27422600  0.27256500  0.75206600  1
  O  O8  1  0.72577400  0.72743500  0.24793400  1
  O  O9  1  0.00000000  0.50000000  0.00000000  1
  O  O10  1  0.72743500  0.24793400  0.72577400  1
  O  O11  1  0.50000000  0.00000000  0.00000000  1
  O  O12  1  0.27256500  0.75206600  0.27422600  1
  O  O13  1  0.50000000  0.00000000  0.50000000  1
  O  O14  1  0.24793400  0.72577400  0.72743500  1
  O  O15  1  0.00000000  0.50000000  0.50000000  1
  O  O16  1  0.00000000  0.00000000  0.50000000  1
  O  O17  1  0.50000000  0.50000000  0.00000000  1
