# generated using pymatgen
data_Sb4PtC4(O2F11)2
_symmetry_space_group_name_H-M   'P 1'
_cell_length_a   10.01309500
_cell_length_b   13.05179000
_cell_length_c   18.28909004
_cell_angle_alpha   76.48135882
_cell_angle_beta   90.00000000
_cell_angle_gamma   90.00000000
_symmetry_Int_Tables_number   1
_chemical_formula_structural   Sb4PtC4(O2F11)2
_chemical_formula_sum   'Sb16 Pt4 C16 O16 F88'
_cell_volume   2323.95696170
_cell_formula_units_Z   4
loop_
 _symmetry_equiv_pos_site_id
 _symmetry_equiv_pos_as_xyz
  1  'x, y, z'
loop_
 _atom_site_type_symbol
 _atom_site_label
 _atom_site_symmetry_multiplicity
 _atom_site_fract_x
 _atom_site_fract_y
 _atom_site_fract_z
 _atom_site_occupancy
  Sb  Sb0  1  0.25406000  0.94719400  0.33118300  1
  Sb  Sb1  1  0.25870700  0.06805100  0.51509700  1
  Sb  Sb2  1  0.75406000  0.05280600  0.16881700  1
  Sb  Sb3  1  0.74535500  0.62161000  0.86743500  1
  Sb  Sb4  1  0.75870700  0.93194900  0.98490300  1
  Sb  Sb5  1  0.74079200  0.51063800  0.17643600  1
  Sb  Sb6  1  0.75920800  0.51063800  0.67643600  1
  Sb  Sb7  1  0.74129300  0.93194900  0.48490300  1
  Sb  Sb8  1  0.25464500  0.37839000  0.13256500  1
  Sb  Sb9  1  0.24129300  0.06805100  0.01509700  1
  Sb  Sb10  1  0.24535500  0.37839000  0.63256500  1
  Sb  Sb11  1  0.24594000  0.94719400  0.83118300  1
  Sb  Sb12  1  0.24079200  0.48936200  0.32356400  1
  Sb  Sb13  1  0.74594000  0.05280600  0.66881700  1
  Sb  Sb14  1  0.25920800  0.48936200  0.82356400  1
  Sb  Sb15  1  0.75464500  0.62161000  0.36743500  1
  Pt  Pt16  1  0.74140500  0.27162800  0.41031000  1
  Pt  Pt17  1  0.24140500  0.72837200  0.08969000  1
  Pt  Pt18  1  0.75859500  0.27162800  0.91031000  1
  Pt  Pt19  1  0.25859500  0.72837200  0.58969000  1
  C  C20  1  0.40838700  0.76478200  0.65004800  1
  C  C21  1  0.38802100  0.67989300  0.52297900  1
  C  C22  1  0.62246200  0.22480900  0.84612400  1
  C  C23  1  0.38640100  0.69567900  0.02508500  1
  C  C24  1  0.12246200  0.77519100  0.65387600  1
  C  C25  1  0.61197900  0.32010700  0.47702100  1
  C  C26  1  0.11359900  0.69567900  0.52508500  1
  C  C27  1  0.87753800  0.22480900  0.34612400  1
  C  C28  1  0.59161300  0.23521800  0.34995200  1
  C  C29  1  0.88802100  0.32010700  0.97702100  1
  C  C30  1  0.37753800  0.77519100  0.15387600  1
  C  C31  1  0.09161300  0.76478200  0.15004800  1
  C  C32  1  0.90838700  0.23521800  0.84995200  1
  C  C33  1  0.88640100  0.30432100  0.47491500  1
  C  C34  1  0.61359900  0.30432100  0.97491500  1
  C  C35  1  0.11197900  0.67989300  0.02297900  1
  O  O36  1  0.03364300  0.67934700  0.48554800  1
  O  O37  1  0.99667500  0.21328200  0.81807300  1
  O  O38  1  0.04092800  0.80216400  0.68798000  1
  O  O39  1  0.53364300  0.32065300  0.01445200  1
  O  O40  1  0.46635700  0.67934700  0.98554800  1
  O  O41  1  0.54313700  0.34797400  0.51750900  1
  O  O42  1  0.95686300  0.34797400  0.01750900  1
  O  O43  1  0.50332500  0.21328200  0.31807300  1
  O  O44  1  0.04313700  0.65202600  0.98249100  1
  O  O45  1  0.45907200  0.80216400  0.18798000  1
  O  O46  1  0.49667500  0.78671800  0.68192700  1
  O  O47  1  0.45686300  0.65202600  0.48249100  1
  O  O48  1  0.00332500  0.78671800  0.18192700  1
  O  O49  1  0.96635700  0.32065300  0.51445200  1
  O  O50  1  0.95907200  0.19783600  0.31202000  1
  O  O51  1  0.54092800  0.19783600  0.81202000  1
  F  F52  1  0.87932100  0.51350900  0.88949700  1
  F  F53  1  0.36674200  0.95380900  0.03464100  1
  F  F54  1  0.62067900  0.51350900  0.38949700  1
  F  F55  1  0.39733100  0.28512700  0.16769700  1
  F  F56  1  0.73292700  0.18115900  0.59120400  1
  F  F57  1  0.37777500  0.39676300  0.37146300  1
  F  F58  1  0.44118100  0.94163800  0.31790100  1
  F  F59  1  0.12222500  0.39676300  0.87146300  1
  F  F60  1  0.89733100  0.71487300  0.33230300  1
  F  F61  1  0.10266900  0.28512700  0.66769700  1
  F  F62  1  0.25136700  0.35318500  0.53477700  1
  F  F63  1  0.12067900  0.48649100  0.11050300  1
  F  F64  1  0.74863300  0.64681500  0.46522300  1
  F  F65  1  0.55881900  0.05836200  0.68209900  1
  F  F66  1  0.26188600  0.40960400  0.23906900  1
  F  F67  1  0.92685800  0.04491100  0.64038200  1
  F  F68  1  0.73811400  0.59039600  0.76093100  1
  F  F69  1  0.28260100  0.87397800  0.75446200  1
  F  F70  1  0.07314200  0.95508900  0.35961800  1
  F  F71  1  0.88865100  0.03408700  0.93839100  1
  F  F72  1  0.10968700  0.57377500  0.26134600  1
  F  F73  1  0.60968700  0.42622500  0.23865400  1
  F  F74  1  0.27926700  0.11128600  0.10409200  1
  F  F75  1  0.37932100  0.48649100  0.61050300  1
  F  F76  1  0.38865100  0.96591300  0.56160900  1
  F  F77  1  0.62222500  0.60323700  0.62853700  1
  F  F78  1  0.87902800  0.72062600  0.82672600  1
  F  F79  1  0.72073300  0.88871400  0.89590800  1
  F  F80  1  0.80302900  0.97899100  0.08221100  1
  F  F81  1  0.77926700  0.88871400  0.39590800  1
  F  F82  1  0.38057300  0.49170800  0.10367600  1
  F  F83  1  0.39751100  0.16827100  0.48237300  1
  F  F84  1  0.36945700  0.15869300  0.95611800  1
  F  F85  1  0.87777500  0.60323700  0.12853700  1
  F  F86  1  0.13054300  0.15869300  0.45611800  1
  F  F87  1  0.11134900  0.96591300  0.06160900  1
  F  F88  1  0.24573800  0.08502600  0.26980400  1
  F  F89  1  0.23811400  0.40960400  0.73906900  1
  F  F90  1  0.12925000  0.58516800  0.76993500  1
  F  F91  1  0.27444600  0.56034100  0.90275200  1
  F  F92  1  0.69697100  0.97899100  0.58221100  1
  F  F93  1  0.76188600  0.59039600  0.26093100  1
  F  F94  1  0.19697100  0.02100900  0.91778900  1
  F  F95  1  0.12097200  0.27937400  0.17327400  1
  F  F96  1  0.72555400  0.43965900  0.09724800  1
  F  F97  1  0.60248900  0.83172900  0.51762700  1
  F  F98  1  0.74573800  0.91497400  0.23019600  1
  F  F99  1  0.05881900  0.94163800  0.81790100  1
  F  F100  1  0.42685800  0.95508900  0.85961800  1
  F  F101  1  0.86674200  0.04619100  0.46535900  1
  F  F102  1  0.11942700  0.49170800  0.60367600  1
  F  F103  1  0.89105500  0.61387500  0.63771900  1
  F  F104  1  0.86945700  0.84130700  0.54388200  1
  F  F105  1  0.94118100  0.05836200  0.18209900  1
  F  F106  1  0.10894500  0.38612500  0.36228100  1
  F  F107  1  0.24863300  0.35318500  0.03477700  1
  F  F108  1  0.61134900  0.03408700  0.43839100  1
  F  F109  1  0.10248900  0.16827100  0.98237300  1
  F  F110  1  0.77444600  0.43965900  0.59724800  1
  F  F111  1  0.39105500  0.38612500  0.86228100  1
  F  F112  1  0.30302900  0.02100900  0.41778900  1
  F  F113  1  0.87075000  0.41483200  0.23006500  1
  F  F114  1  0.22073300  0.11128600  0.60409200  1
  F  F115  1  0.60894500  0.61387500  0.13771900  1
  F  F116  1  0.71739900  0.12602200  0.24553800  1
  F  F117  1  0.61942700  0.50829200  0.89632400  1
  F  F118  1  0.75136700  0.64681500  0.96522300  1
  F  F119  1  0.39031300  0.57377500  0.76134600  1
  F  F120  1  0.89031300  0.42622500  0.73865400  1
  F  F121  1  0.76707300  0.18115900  0.09120400  1
  F  F122  1  0.62925000  0.41483200  0.73006500  1
  F  F123  1  0.63325800  0.04619100  0.96535900  1
  F  F124  1  0.25426200  0.08502600  0.76980500  1
  F  F125  1  0.13325800  0.95380900  0.53464100  1
  F  F126  1  0.57314200  0.04491100  0.14038200  1
  F  F127  1  0.23292700  0.81884100  0.90879600  1
  F  F128  1  0.63054300  0.84130700  0.04388200  1
  F  F129  1  0.62097200  0.72062600  0.32672600  1
  F  F130  1  0.37902800  0.27937400  0.67327400  1
  F  F131  1  0.26707300  0.81884100  0.40879600  1
  F  F132  1  0.21739900  0.87397800  0.25446200  1
  F  F133  1  0.88057300  0.50829200  0.39632400  1
  F  F134  1  0.78260100  0.12602200  0.74553800  1
  F  F135  1  0.75426200  0.91497400  0.73019500  1
  F  F136  1  0.22555400  0.56034100  0.40275200  1
  F  F137  1  0.37075000  0.58516800  0.26993500  1
  F  F138  1  0.89751100  0.83172900  0.01762700  1
  F  F139  1  0.60266900  0.71487300  0.83230300  1
