# generated using pymatgen
data_KCr2AgO7
_symmetry_space_group_name_H-M   'P 1'
_cell_length_a   5.92934800
_cell_length_b   7.80749400
_cell_length_c   15.48658700
_cell_angle_alpha   90.00000000
_cell_angle_beta   90.00000000
_cell_angle_gamma   90.00000000
_symmetry_Int_Tables_number   1
_chemical_formula_structural   KCr2AgO7
_chemical_formula_sum   'K4 Cr8 Ag4 O28'
_cell_volume   716.92597579
_cell_formula_units_Z   4
loop_
 _symmetry_equiv_pos_site_id
 _symmetry_equiv_pos_as_xyz
  1  'x, y, z'
loop_
 _atom_site_type_symbol
 _atom_site_label
 _atom_site_symmetry_multiplicity
 _atom_site_fract_x
 _atom_site_fract_y
 _atom_site_fract_z
 _atom_site_occupancy
  K  K0  1  0.75000000  0.64319000  0.78867000  1
  K  K1  1  0.75000000  0.85681000  0.28867000  1
  K  K2  1  0.25000000  0.35681000  0.21133000  1
  K  K3  1  0.25000000  0.14319000  0.71133000  1
  Cr  Cr4  1  0.25000000  0.80356100  0.94277400  1
  Cr  Cr5  1  0.75000000  0.17643900  0.85522900  1
  Cr  Cr6  1  0.75000000  0.32356100  0.35522900  1
  Cr  Cr7  1  0.25000000  0.69643900  0.44277400  1
  Cr  Cr8  1  0.25000000  0.82356100  0.14477100  1
  Cr  Cr9  1  0.75000000  0.30356100  0.55722600  1
  Cr  Cr10  1  0.25000000  0.67643900  0.64477100  1
  Cr  Cr11  1  0.75000000  0.19643900  0.05722600  1
  Ag  Ag12  1  0.25000000  0.15735600  0.45124800  1
  Ag  Ag13  1  0.75000000  0.65735600  0.04875200  1
  Ag  Ag14  1  0.25000000  0.34264400  0.95124800  1
  Ag  Ag15  1  0.75000000  0.84264400  0.54875200  1
  O  O16  1  0.02216200  0.70134700  0.15069800  1
  O  O17  1  0.75000000  0.43417000  0.63845500  1
  O  O18  1  0.52085300  0.31896200  0.05674500  1
  O  O19  1  0.47783800  0.70134700  0.15069800  1
  O  O20  1  0.25000000  0.96708200  0.22050400  1
  O  O21  1  0.97783800  0.20134700  0.34930200  1
  O  O22  1  0.97914700  0.18103800  0.55674500  1
  O  O23  1  0.47914700  0.68103800  0.94325500  1
  O  O24  1  0.25000000  0.57766700  0.54088900  1
  O  O25  1  0.25000000  0.93417000  0.86154500  1
  O  O26  1  0.52216200  0.20134700  0.34930200  1
  O  O27  1  0.47783800  0.79865300  0.65069800  1
  O  O28  1  0.75000000  0.03291800  0.77949600  1
  O  O29  1  0.97783800  0.29865300  0.84930200  1
  O  O30  1  0.52216200  0.29865300  0.84930200  1
  O  O31  1  0.47914700  0.81896200  0.44325500  1
  O  O32  1  0.25000000  0.53291800  0.72050400  1
  O  O33  1  0.75000000  0.42233300  0.45911100  1
  O  O34  1  0.75000000  0.07766700  0.95911100  1
  O  O35  1  0.02085300  0.81896200  0.44325500  1
  O  O36  1  0.75000000  0.06583000  0.13845500  1
  O  O37  1  0.75000000  0.46708200  0.27949600  1
  O  O38  1  0.25000000  0.92233300  0.04088900  1
  O  O39  1  0.02216200  0.79865300  0.65069800  1
  O  O40  1  0.97914700  0.31896200  0.05674500  1
  O  O41  1  0.02085300  0.68103800  0.94325500  1
  O  O42  1  0.52085300  0.18103800  0.55674500  1
  O  O43  1  0.25000000  0.56583000  0.36154500  1
