# generated using pymatgen
data_Na2Zn2S3
_symmetry_space_group_name_H-M   'P 1'
_cell_length_a   7.45737800
_cell_length_b   7.45737800
_cell_length_c   11.27326000
_cell_angle_alpha   90.00000000
_cell_angle_beta   90.00000000
_cell_angle_gamma   90.00000000
_symmetry_Int_Tables_number   1
_chemical_formula_structural   Na2Zn2S3
_chemical_formula_sum   'Na8 Zn8 S12'
_cell_volume   626.93402108
_cell_formula_units_Z   4
loop_
 _symmetry_equiv_pos_site_id
 _symmetry_equiv_pos_as_xyz
  1  'x, y, z'
loop_
 _atom_site_type_symbol
 _atom_site_label
 _atom_site_symmetry_multiplicity
 _atom_site_fract_x
 _atom_site_fract_y
 _atom_site_fract_z
 _atom_site_occupancy
  Na  Na0  1  0.96523400  0.24465900  0.39659900  1
  Na  Na1  1  0.03476600  0.75534100  0.89659900  1
  Na  Na2  1  0.74465900  0.53476600  0.64659900  1
  Na  Na3  1  0.25534100  0.46523400  0.14659900  1
  Na  Na4  1  0.75534100  0.03476600  0.10340100  1
  Na  Na5  1  0.24465900  0.96523400  0.60340100  1
  Na  Na6  1  0.53476600  0.74465900  0.35340100  1
  Na  Na7  1  0.46523400  0.25534100  0.85340100  1
  Zn  Zn8  1  0.23721800  0.95178900  0.13494800  1
  Zn  Zn9  1  0.76278200  0.04821100  0.63494800  1
  Zn  Zn10  1  0.45178900  0.26278200  0.38494800  1
  Zn  Zn11  1  0.54821100  0.73721800  0.88494800  1
  Zn  Zn12  1  0.04821100  0.76278200  0.36505200  1
  Zn  Zn13  1  0.95178900  0.23721800  0.86505200  1
  Zn  Zn14  1  0.26278200  0.45178900  0.61505200  1
  Zn  Zn15  1  0.73721800  0.54821100  0.11505200  1
  S  S16  1  0.51814800  0.24005300  0.58887300  1
  S  S17  1  0.48185200  0.75994700  0.08887300  1
  S  S18  1  0.74005300  0.98185200  0.83887300  1
  S  S19  1  0.25994700  0.01814800  0.33887300  1
  S  S20  1  0.75994700  0.48185200  0.91112700  1
  S  S21  1  0.24005300  0.51814800  0.41112700  1
  S  S22  1  0.98185200  0.74005300  0.16112700  1
  S  S23  1  0.01814800  0.25994700  0.66112700  1
  S  S24  1  0.67853300  0.32146700  0.25000000  1
  S  S25  1  0.32146700  0.67853300  0.75000000  1
  S  S26  1  0.82146700  0.82146700  0.50000000  1
  S  S27  1  0.17853300  0.17853300  0.00000000  1
