# generated using pymatgen
data_Na4Ge5O12
_symmetry_space_group_name_H-M   'P 1'
_cell_length_a   5.26575696
_cell_length_b   5.26575696
_cell_length_c   9.41694200
_cell_angle_alpha   90.00000000
_cell_angle_beta   90.00000000
_cell_angle_gamma   119.99998696
_symmetry_Int_Tables_number   1
_chemical_formula_structural   Na4Ge5O12
_chemical_formula_sum   'Na4 Ge5 O12'
_cell_volume   226.13209465
_cell_formula_units_Z   1
loop_
 _symmetry_equiv_pos_site_id
 _symmetry_equiv_pos_as_xyz
  1  'x, y, z'
loop_
 _atom_site_type_symbol
 _atom_site_label
 _atom_site_symmetry_multiplicity
 _atom_site_fract_x
 _atom_site_fract_y
 _atom_site_fract_z
 _atom_site_occupancy
  Na  Na0  1  0.00000000  0.00000000  0.31051900  1
  Na  Na1  1  0.33333300  0.66666700  0.09637200  1
  Na  Na2  1  0.66666700  0.33333300  0.90362800  1
  Na  Na3  1  0.00000000  0.00000000  0.68948100  1
  Ge  Ge4  1  0.66666700  0.33333300  0.21187500  1
  Ge  Ge5  1  0.66666700  0.33333300  0.52342600  1
  Ge  Ge6  1  0.33333300  0.66666700  0.47657400  1
  Ge  Ge7  1  0.00000000  0.00000000  0.00000000  1
  Ge  Ge8  1  0.33333300  0.66666700  0.78812500  1
  O  O9  1  0.91878600  0.67238100  0.12402200  1
  O  O10  1  0.32761900  0.24640600  0.12402200  1
  O  O11  1  0.75359400  0.08121400  0.12402200  1
  O  O12  1  0.60307400  0.57872400  0.38535800  1
  O  O13  1  0.42127600  0.02435000  0.38535800  1
  O  O14  1  0.97565000  0.39692600  0.38535800  1
  O  O15  1  0.67238100  0.75359400  0.87597800  1
  O  O16  1  0.24640600  0.91878600  0.87597800  1
  O  O17  1  0.08121400  0.32761900  0.87597800  1
  O  O18  1  0.39692600  0.42127600  0.61464200  1
  O  O19  1  0.57872400  0.97565000  0.61464200  1
  O  O20  1  0.02435000  0.60307400  0.61464200  1
