# generated using pymatgen
data_Ti4Bi2O11
_symmetry_space_group_name_H-M   'P 1'
_cell_length_a   7.68712219
_cell_length_b   7.68712219
_cell_length_c   15.17679498
_cell_angle_alpha   87.06326060
_cell_angle_beta   87.06326060
_cell_angle_gamma   28.75351474
_symmetry_Int_Tables_number   1
_chemical_formula_structural   Ti4Bi2O11
_chemical_formula_sum   'Ti8 Bi4 O22'
_cell_volume   430.80709683
_cell_formula_units_Z   2
loop_
 _symmetry_equiv_pos_site_id
 _symmetry_equiv_pos_as_xyz
  1  'x, y, z'
loop_
 _atom_site_type_symbol
 _atom_site_label
 _atom_site_symmetry_multiplicity
 _atom_site_fract_x
 _atom_site_fract_y
 _atom_site_fract_z
 _atom_site_occupancy
  Ti  Ti0  1  0.40766400  0.88571700  0.48320600  1
  Ti  Ti1  1  0.19849900  0.69954500  0.64036800  1
  Ti  Ti2  1  0.69954500  0.19849900  0.14036800  1
  Ti  Ti3  1  0.59233600  0.11428300  0.51679400  1
  Ti  Ti4  1  0.80150100  0.30045500  0.35963200  1
  Ti  Ti5  1  0.11428300  0.59233600  0.01679400  1
  Ti  Ti6  1  0.88571700  0.40766400  0.98320600  1
  Ti  Ti7  1  0.30045500  0.80150100  0.85963200  1
  Bi  Bi8  1  0.36534800  0.99534300  0.17977000  1
  Bi  Bi9  1  0.00465700  0.63465200  0.32023000  1
  Bi  Bi10  1  0.99534300  0.36534800  0.67977000  1
  Bi  Bi11  1  0.63465200  0.00465700  0.82023000  1
  O  O12  1  0.53038300  0.00777300  0.41757100  1
  O  O13  1  0.46961700  0.99222700  0.58242900  1
  O  O14  1  0.66976300  0.17307700  0.62816400  1
  O  O15  1  0.11005400  0.61546100  0.53468800  1
  O  O16  1  0.80559500  0.30385200  0.07525000  1
  O  O17  1  0.44581700  0.91972600  0.77566900  1
  O  O18  1  0.22957400  0.77042600  0.75000000  1
  O  O19  1  0.08027400  0.55418300  0.72433100  1
  O  O20  1  0.38453900  0.88994600  0.96531200  1
  O  O21  1  0.30385200  0.80559500  0.57525000  1
  O  O22  1  0.33023700  0.82692300  0.37183600  1
  O  O23  1  0.91972600  0.44581700  0.27566900  1
  O  O24  1  0.82692300  0.33023700  0.87183600  1
  O  O25  1  0.00777300  0.53038300  0.91757100  1
  O  O26  1  0.55418300  0.08027400  0.22433100  1
  O  O27  1  0.19440500  0.69614800  0.92475000  1
  O  O28  1  0.69614800  0.19440500  0.42475000  1
  O  O29  1  0.99222700  0.46961700  0.08242900  1
  O  O30  1  0.77042600  0.22957400  0.25000000  1
  O  O31  1  0.17307700  0.66976300  0.12816400  1
  O  O32  1  0.61546100  0.11005400  0.03468800  1
  O  O33  1  0.88994600  0.38453900  0.46531200  1
