# generated using pymatgen
data_Ca5Te3O14
_symmetry_space_group_name_H-M   'P 1'
_cell_length_a   7.45791472
_cell_length_b   7.45791472
_cell_length_c   10.60172700
_cell_angle_alpha   90.00000000
_cell_angle_beta   90.00000000
_cell_angle_gamma   90.22943133
_symmetry_Int_Tables_number   1
_chemical_formula_structural   Ca5Te3O14
_chemical_formula_sum   'Ca10 Te6 O28'
_cell_volume   589.66854341
_cell_formula_units_Z   2
loop_
 _symmetry_equiv_pos_site_id
 _symmetry_equiv_pos_as_xyz
  1  'x, y, z'
loop_
 _atom_site_type_symbol
 _atom_site_label
 _atom_site_symmetry_multiplicity
 _atom_site_fract_x
 _atom_site_fract_y
 _atom_site_fract_z
 _atom_site_occupancy
  Ca  Ca0  1  0.75500100  0.75500100  0.27281200  1
  Ca  Ca1  1  0.76766200  0.26766200  0.25000000  1
  Ca  Ca2  1  0.25500100  0.25500100  0.22718800  1
  Ca  Ca3  1  0.73233800  0.23233800  0.75000000  1
  Ca  Ca4  1  0.50000000  0.50000000  0.00000000  1
  Ca  Ca5  1  0.26766200  0.76766200  0.25000000  1
  Ca  Ca6  1  0.23233800  0.73233800  0.75000000  1
  Ca  Ca7  1  0.74499900  0.74499900  0.77281200  1
  Ca  Ca8  1  0.00000000  0.00000000  0.50000000  1
  Ca  Ca9  1  0.24499900  0.24499900  0.72718800  1
  Te  Te10  1  0.50000000  0.00000000  0.50000000  1
  Te  Te11  1  0.50000000  0.50000000  0.50000000  1
  Te  Te12  1  0.50000000  0.00000000  0.00000000  1
  Te  Te13  1  0.00000000  0.50000000  0.00000000  1
  Te  Te14  1  0.00000000  0.00000000  0.00000000  1
  Te  Te15  1  0.00000000  0.50000000  0.50000000  1
  O  O16  1  0.44516200  0.44516200  0.32987000  1
  O  O17  1  0.25227500  0.50674800  0.56487700  1
  O  O18  1  0.46377200  0.17790800  0.87025400  1
  O  O19  1  0.32209200  0.03622800  0.37025400  1
  O  O20  1  0.79584500  0.46713500  0.88756600  1
  O  O21  1  0.96377200  0.67790800  0.62974600  1
  O  O22  1  0.75227500  0.00674800  0.93512300  1
  O  O23  1  0.99325200  0.24772500  0.06487700  1
  O  O24  1  0.53622800  0.82209200  0.12974600  1
  O  O25  1  0.29584500  0.96713500  0.61243400  1
  O  O26  1  0.50674800  0.25227500  0.56487700  1
  O  O27  1  0.49325200  0.74772500  0.43512300  1
  O  O28  1  0.96713500  0.29584500  0.61243400  1
  O  O29  1  0.00674800  0.75227500  0.93512300  1
  O  O30  1  0.17790800  0.46377200  0.87025400  1
  O  O31  1  0.05483800  0.05483800  0.82987000  1
  O  O32  1  0.94516200  0.94516200  0.17013000  1
  O  O33  1  0.46713500  0.79584500  0.88756600  1
  O  O34  1  0.03286500  0.70415500  0.38756600  1
  O  O35  1  0.70415500  0.03286500  0.38756600  1
  O  O36  1  0.82209200  0.53622800  0.12974600  1
  O  O37  1  0.20415500  0.53286500  0.11243400  1
  O  O38  1  0.24772500  0.99325200  0.06487700  1
  O  O39  1  0.74772500  0.49325200  0.43512300  1
  O  O40  1  0.67790800  0.96377200  0.62974600  1
  O  O41  1  0.53286500  0.20415500  0.11243400  1
  O  O42  1  0.03622800  0.32209200  0.37025400  1
  O  O43  1  0.55483800  0.55483800  0.67013000  1
