# generated using pymatgen
data_Ba2Cu(BO3)2
_symmetry_space_group_name_H-M   'P 1'
_cell_length_a   8.31547100
_cell_length_b   11.26386500
_cell_length_c   14.16057400
_cell_angle_alpha   90.00000000
_cell_angle_beta   90.00000000
_cell_angle_gamma   90.00000000
_symmetry_Int_Tables_number   1
_chemical_formula_structural   Ba2Cu(BO3)2
_chemical_formula_sum   'Ba16 Cu8 B16 O48'
_cell_volume   1326.34085675
_cell_formula_units_Z   8
loop_
 _symmetry_equiv_pos_site_id
 _symmetry_equiv_pos_as_xyz
  1  'x, y, z'
loop_
 _atom_site_type_symbol
 _atom_site_label
 _atom_site_symmetry_multiplicity
 _atom_site_fract_x
 _atom_site_fract_y
 _atom_site_fract_z
 _atom_site_occupancy
  Ba  Ba0  1  0.34053600  0.98145100  0.21743700  1
  Ba  Ba1  1  0.34053600  0.51854900  0.21743700  1
  Ba  Ba2  1  0.84053600  0.98145100  0.28256300  1
  Ba  Ba3  1  0.50000000  0.00000000  0.50000000  1
  Ba  Ba4  1  0.84053600  0.51854900  0.28256300  1
  Ba  Ba5  1  0.65946400  0.48145100  0.78256300  1
  Ba  Ba6  1  0.00000000  0.00000000  0.00000000  1
  Ba  Ba7  1  0.15946400  0.01854900  0.71743700  1
  Ba  Ba8  1  0.00000000  0.50000000  0.00000000  1
  Ba  Ba9  1  0.15946400  0.48145100  0.71743700  1
  Ba  Ba10  1  0.61630700  0.75000000  0.04617000  1
  Ba  Ba11  1  0.11630700  0.75000000  0.45383000  1
  Ba  Ba12  1  0.38369300  0.25000000  0.95383000  1
  Ba  Ba13  1  0.65946400  0.01854900  0.78256300  1
  Ba  Ba14  1  0.88369300  0.25000000  0.54617000  1
  Ba  Ba15  1  0.50000000  0.50000000  0.50000000  1
  Cu  Cu16  1  0.80003700  0.25000000  0.92705600  1
  Cu  Cu17  1  0.69996300  0.75000000  0.42705600  1
  Cu  Cu18  1  0.45673200  0.75000000  0.80092600  1
  Cu  Cu19  1  0.19996300  0.75000000  0.07294400  1
  Cu  Cu20  1  0.95673200  0.75000000  0.69907400  1
  Cu  Cu21  1  0.04326800  0.25000000  0.30092600  1
  Cu  Cu22  1  0.30003700  0.25000000  0.57294400  1
  Cu  Cu23  1  0.54326800  0.25000000  0.19907400  1
  B  B24  1  0.02019200  0.75000000  0.20642600  1
  B  B25  1  0.86164700  0.57015500  0.56465800  1
  B  B26  1  0.63835300  0.07015500  0.06465800  1
  B  B27  1  0.63835300  0.42984500  0.06465800  1
  B  B28  1  0.97980800  0.25000000  0.79357400  1
  B  B29  1  0.36164700  0.92984500  0.93534200  1
  B  B30  1  0.36164700  0.57015500  0.93534200  1
  B  B31  1  0.42778500  0.75000000  0.63231600  1
  B  B32  1  0.86164700  0.92984500  0.56465800  1
  B  B33  1  0.47980800  0.25000000  0.70642600  1
  B  B34  1  0.13835300  0.07015500  0.43534200  1
  B  B35  1  0.52019200  0.75000000  0.29357400  1
  B  B36  1  0.92778500  0.75000000  0.86768400  1
  B  B37  1  0.13835300  0.42984500  0.43534200  1
  B  B38  1  0.57221500  0.25000000  0.36768400  1
  B  B39  1  0.07221500  0.25000000  0.13231600  1
  O  O40  1  0.80419000  0.60803700  0.47640400  1
  O  O41  1  0.58523400  0.25000000  0.46281500  1
  O  O42  1  0.93504100  0.64562700  0.81218700  1
  O  O43  1  0.56495900  0.14562700  0.31218700  1
  O  O44  1  0.43517200  0.75000000  0.21148200  1
  O  O45  1  0.20714400  0.97340900  0.39257800  1
  O  O46  1  0.00580700  0.37162600  0.39539300  1
  O  O47  1  0.79285600  0.47340900  0.60742200  1
  O  O48  1  0.79285600  0.02659100  0.60742200  1
  O  O49  1  0.06495900  0.35437300  0.18781300  1
  O  O50  1  0.41476600  0.75000000  0.53718500  1
  O  O51  1  0.56837100  0.64549100  0.33891400  1
  O  O52  1  0.30419000  0.89196300  0.02359600  1
  O  O53  1  0.80419000  0.89196300  0.47640400  1
  O  O54  1  0.06482800  0.25000000  0.71148200  1
  O  O55  1  0.06837100  0.64549100  0.16108600  1
  O  O56  1  0.30419000  0.60803700  0.02359600  1
  O  O57  1  0.93162900  0.14549100  0.83891400  1
  O  O58  1  0.19581000  0.10803700  0.52359600  1
  O  O59  1  0.43504100  0.85437300  0.68781300  1
  O  O60  1  0.56495900  0.35437300  0.31218700  1
  O  O61  1  0.93517200  0.75000000  0.28851800  1
  O  O62  1  0.08523400  0.25000000  0.03718500  1
  O  O63  1  0.20714400  0.52659100  0.39257800  1
  O  O64  1  0.00580700  0.12837400  0.39539300  1
  O  O65  1  0.69581000  0.39196300  0.97640400  1
  O  O66  1  0.43162900  0.35450900  0.66108600  1
  O  O67  1  0.43162900  0.14549100  0.66108600  1
  O  O68  1  0.29285600  0.47340900  0.89257800  1
  O  O69  1  0.50580700  0.37162600  0.10460700  1
  O  O70  1  0.93162900  0.35450900  0.83891400  1
  O  O71  1  0.56482800  0.25000000  0.78851800  1
  O  O72  1  0.49419300  0.62837400  0.89539300  1
  O  O73  1  0.70714400  0.52659100  0.10742200  1
  O  O74  1  0.99419300  0.62837400  0.60460700  1
  O  O75  1  0.70714400  0.97340900  0.10742200  1
  O  O76  1  0.29285600  0.02659100  0.89257800  1
  O  O77  1  0.69581000  0.10803700  0.97640400  1
  O  O78  1  0.56837100  0.85450900  0.33891400  1
  O  O79  1  0.50580700  0.12837400  0.10460700  1
  O  O80  1  0.93504100  0.85437300  0.81218700  1
  O  O81  1  0.99419300  0.87162600  0.60460700  1
  O  O82  1  0.49419300  0.87162600  0.89539300  1
  O  O83  1  0.06837100  0.85450900  0.16108600  1
  O  O84  1  0.06495900  0.14562700  0.18781300  1
  O  O85  1  0.19581000  0.39196300  0.52359600  1
  O  O86  1  0.91476600  0.75000000  0.96281500  1
  O  O87  1  0.43504100  0.64562700  0.68781300  1
