# generated using pymatgen
data_Mg7Si8(O11F)2
_symmetry_space_group_name_H-M   'P 1'
_cell_length_a   5.36648800
_cell_length_b   9.46772400
_cell_length_c   18.08793600
_cell_angle_alpha   90.00000000
_cell_angle_beta   90.00000000
_cell_angle_gamma   90.00000000
_symmetry_Int_Tables_number   1
_chemical_formula_structural   Mg7Si8(O11F)2
_chemical_formula_sum   'Mg14 Si16 O44 F4'
_cell_volume   919.01958006
_cell_formula_units_Z   2
loop_
 _symmetry_equiv_pos_site_id
 _symmetry_equiv_pos_as_xyz
  1  'x, y, z'
loop_
 _atom_site_type_symbol
 _atom_site_label
 _atom_site_symmetry_multiplicity
 _atom_site_fract_x
 _atom_site_fract_y
 _atom_site_fract_z
 _atom_site_occupancy
  Mg  Mg0  1  0.00000000  0.50000000  0.58836200  1
  Mg  Mg1  1  0.50000000  0.50000000  0.67809100  1
  Mg  Mg2  1  0.50000000  0.00000000  0.74133100  1
  Mg  Mg3  1  0.00000000  0.50000000  0.24133100  1
  Mg  Mg4  1  0.50000000  0.50000000  0.32190900  1
  Mg  Mg5  1  0.50000000  0.00000000  0.25866900  1
  Mg  Mg6  1  0.00000000  0.50000000  0.75866900  1
  Mg  Mg7  1  0.00000000  0.50000000  0.41163800  1
  Mg  Mg8  1  0.00000000  0.00000000  0.00000000  1
  Mg  Mg9  1  0.50000000  0.00000000  0.91163800  1
  Mg  Mg10  1  0.00000000  0.00000000  0.17809100  1
  Mg  Mg11  1  0.50000000  0.00000000  0.08836200  1
  Mg  Mg12  1  0.00000000  0.00000000  0.82190900  1
  Mg  Mg13  1  0.50000000  0.50000000  0.50000000  1
  Si  Si14  1  0.32591500  0.78517300  0.58434800  1
  Si  Si15  1  0.67108400  0.29400100  0.82924400  1
  Si  Si16  1  0.67408500  0.21482700  0.58434800  1
  Si  Si17  1  0.67408500  0.21482700  0.41565200  1
  Si  Si18  1  0.82891600  0.79400100  0.67075600  1
  Si  Si19  1  0.82591500  0.71482700  0.91565200  1
  Si  Si20  1  0.17108400  0.20599900  0.32924400  1
  Si  Si21  1  0.17108400  0.20599900  0.67075600  1
  Si  Si22  1  0.32891600  0.70599900  0.17075600  1
  Si  Si23  1  0.32591500  0.78517300  0.41565200  1
  Si  Si24  1  0.67108400  0.29400100  0.17075600  1
  Si  Si25  1  0.32891600  0.70599900  0.82924400  1
  Si  Si26  1  0.82891600  0.79400100  0.32924400  1
  Si  Si27  1  0.17408500  0.28517300  0.08434800  1
  Si  Si28  1  0.82591500  0.71482700  0.08434800  1
  Si  Si29  1  0.17408500  0.28517300  0.91565200  1
  O  O30  1  0.06857100  0.84432400  0.62088700  1
  O  O31  1  0.65052600  0.15600600  0.50000000  1
  O  O32  1  0.18462300  0.12035000  0.74762500  1
  O  O33  1  0.16693300  0.11243200  0.08565200  1
  O  O34  1  0.81537700  0.87965000  0.74762500  1
  O  O35  1  0.68462300  0.37965000  0.75237500  1
  O  O36  1  0.66693300  0.38756800  0.41434800  1
  O  O37  1  0.17007500  0.37974000  0.67423000  1
  O  O38  1  0.33306700  0.61243200  0.58565200  1
  O  O39  1  0.94019200  0.34929600  0.86686600  1
  O  O40  1  0.82992500  0.62026000  0.32577000  1
  O  O41  1  0.82992500  0.62026000  0.67423000  1
  O  O42  1  0.67007500  0.12026000  0.17423000  1
  O  O43  1  0.32992500  0.87974000  0.82577000  1
  O  O44  1  0.56857100  0.65567600  0.87911300  1
  O  O45  1  0.43142900  0.34432400  0.12088700  1
  O  O46  1  0.83306700  0.88756800  0.08565200  1
  O  O47  1  0.33306700  0.61243200  0.41434800  1
  O  O48  1  0.17007500  0.37974000  0.32577000  1
  O  O49  1  0.68462300  0.37965000  0.24762500  1
  O  O50  1  0.66693300  0.38756800  0.58565200  1
  O  O51  1  0.83306700  0.88756800  0.91434800  1
  O  O52  1  0.81537700  0.87965000  0.25237500  1
  O  O53  1  0.18462300  0.12035000  0.25237500  1
  O  O54  1  0.93142900  0.15567600  0.62088700  1
  O  O55  1  0.44019200  0.15070400  0.36686600  1
  O  O56  1  0.05980800  0.65070400  0.13313400  1
  O  O57  1  0.44019200  0.15070400  0.63313400  1
  O  O58  1  0.94019200  0.34929600  0.13313400  1
  O  O59  1  0.67007500  0.12026000  0.82577000  1
  O  O60  1  0.15052600  0.34399400  0.00000000  1
  O  O61  1  0.31537700  0.62035000  0.24762500  1
  O  O62  1  0.93142900  0.15567600  0.37911300  1
  O  O63  1  0.32992500  0.87974000  0.17423000  1
  O  O64  1  0.55980800  0.84929600  0.36686600  1
  O  O65  1  0.06857100  0.84432400  0.37911300  1
  O  O66  1  0.84947400  0.65600600  0.00000000  1
  O  O67  1  0.55980800  0.84929600  0.63313400  1
  O  O68  1  0.56857100  0.65567600  0.12088700  1
  O  O69  1  0.43142900  0.34432400  0.87911300  1
  O  O70  1  0.34947400  0.84399400  0.50000000  1
  O  O71  1  0.05980800  0.65070400  0.86686600  1
  O  O72  1  0.16693300  0.11243200  0.91434800  1
  O  O73  1  0.31537700  0.62035000  0.75237500  1
  F  F74  1  0.83529100  0.60290600  0.50000000  1
  F  F75  1  0.33529100  0.89709400  0.00000000  1
  F  F76  1  0.66470900  0.10290600  0.00000000  1
  F  F77  1  0.16470900  0.39709400  0.50000000  1
