# generated using pymatgen
data_VPPbO6
_symmetry_space_group_name_H-M   'P 1'
_cell_length_a   9.98105300
_cell_length_b   11.15709800
_cell_length_c   13.95974800
_cell_angle_alpha   90.00000000
_cell_angle_beta   90.00000000
_cell_angle_gamma   90.00000000
_symmetry_Int_Tables_number   1
_chemical_formula_structural   VPPbO6
_chemical_formula_sum   'V12 P12 Pb12 O72'
_cell_volume   1554.55176442
_cell_formula_units_Z   12
loop_
 _symmetry_equiv_pos_site_id
 _symmetry_equiv_pos_as_xyz
  1  'x, y, z'
loop_
 _atom_site_type_symbol
 _atom_site_label
 _atom_site_symmetry_multiplicity
 _atom_site_fract_x
 _atom_site_fract_y
 _atom_site_fract_z
 _atom_site_occupancy
  V  V0  1  0.12415400  0.31573600  0.75000000  1
  V  V1  1  0.78770100  0.09531600  0.47884300  1
  V  V2  1  0.21229900  0.90468400  0.52115700  1
  V  V3  1  0.28770100  0.40468400  0.02115700  1
  V  V4  1  0.62415400  0.18426400  0.75000000  1
  V  V5  1  0.71229900  0.59531600  0.97884300  1
  V  V6  1  0.78770100  0.09531600  0.02115700  1
  V  V7  1  0.21229900  0.90468400  0.97884300  1
  V  V8  1  0.28770100  0.40468400  0.47884300  1
  V  V9  1  0.37584600  0.81573600  0.25000000  1
  V  V10  1  0.87584600  0.68426400  0.25000000  1
  V  V11  1  0.71229900  0.59531600  0.52115700  1
  P  P12  1  0.60508600  0.32565200  0.54901700  1
  P  P13  1  0.89491400  0.82565200  0.04901700  1
  P  P14  1  0.10508600  0.17434800  0.95098300  1
  P  P15  1  0.72085400  0.21086500  0.25000000  1
  P  P16  1  0.60508600  0.32565200  0.95098300  1
  P  P17  1  0.39491400  0.67434800  0.04901700  1
  P  P18  1  0.10508600  0.17434800  0.54901700  1
  P  P19  1  0.27914600  0.78913500  0.75000000  1
  P  P20  1  0.22085400  0.28913500  0.25000000  1
  P  P21  1  0.77914600  0.71086500  0.75000000  1
  P  P22  1  0.39491400  0.67434800  0.45098300  1
  P  P23  1  0.89491400  0.82565200  0.45098300  1
  Pb  Pb24  1  0.41764500  0.11863800  0.38962600  1
  Pb  Pb25  1  0.58235500  0.88136200  0.61037400  1
  Pb  Pb26  1  0.06487600  0.99422700  0.25000000  1
  Pb  Pb27  1  0.93512400  0.00577300  0.75000000  1
  Pb  Pb28  1  0.58235500  0.88136200  0.88962600  1
  Pb  Pb29  1  0.08235500  0.61863800  0.61037400  1
  Pb  Pb30  1  0.08235500  0.61863800  0.88962600  1
  Pb  Pb31  1  0.56487600  0.50577300  0.25000000  1
  Pb  Pb32  1  0.41764500  0.11863800  0.11037400  1
  Pb  Pb33  1  0.91764500  0.38136200  0.38962600  1
  Pb  Pb34  1  0.91764500  0.38136200  0.11037400  1
  Pb  Pb35  1  0.43512400  0.49422700  0.75000000  1
  O  O36  1  0.82056800  0.04356700  0.91001500  1
  O  O37  1  0.67943200  0.54356700  0.08998500  1
  O  O38  1  0.23730900  0.23215900  0.51389600  1
  O  O39  1  0.37242800  0.95021200  0.53337300  1
  O  O40  1  0.87091500  0.95564100  0.08429800  1
  O  O41  1  0.19999800  0.83095300  0.84000500  1
  O  O42  1  0.87242800  0.54978800  0.53337300  1
  O  O43  1  0.57225800  0.04198700  0.75000000  1
  O  O44  1  0.73730900  0.26784100  0.51389600  1
  O  O45  1  0.50718800  0.68329900  0.97409800  1
  O  O46  1  0.82056800  0.04356700  0.58998500  1
  O  O47  1  0.49281200  0.31670100  0.47409800  1
  O  O48  1  0.12908500  0.04435900  0.91570200  1
  O  O49  1  0.05648600  0.24242800  0.64235200  1
  O  O50  1  0.12757200  0.45021200  0.46662700  1
  O  O51  1  0.12908500  0.04435900  0.58429800  1
  O  O52  1  0.62757200  0.04978800  0.46662700  1
  O  O53  1  0.26269100  0.73215900  0.01389600  1
  O  O54  1  0.19999800  0.83095300  0.65999500  1
  O  O55  1  0.92774200  0.54198700  0.25000000  1
  O  O56  1  0.42774200  0.95801300  0.25000000  1
  O  O57  1  0.07225800  0.45801300  0.75000000  1
  O  O58  1  0.94351400  0.75757200  0.35764800  1
  O  O59  1  0.80000200  0.16904700  0.15999500  1
  O  O60  1  0.80000200  0.16904700  0.34000500  1
  O  O61  1  0.27033900  0.64777500  0.75000000  1
  O  O62  1  0.79034900  0.18751300  0.75000000  1
  O  O63  1  0.26269100  0.73215900  0.48610400  1
  O  O64  1  0.37242800  0.95021200  0.96662700  1
  O  O65  1  0.12757200  0.45021200  0.03337300  1
  O  O66  1  0.77033900  0.85222500  0.75000000  1
  O  O67  1  0.99281200  0.18329900  0.47409800  1
  O  O68  1  0.49281200  0.31670100  0.02590200  1
  O  O69  1  0.87091500  0.95564100  0.41570200  1
  O  O70  1  0.92722500  0.67136200  0.75000000  1
  O  O71  1  0.05648600  0.24242800  0.85764800  1
  O  O72  1  0.73730900  0.26784100  0.98610400  1
  O  O73  1  0.67943200  0.54356700  0.41001500  1
  O  O74  1  0.55648600  0.25757200  0.64235200  1
  O  O75  1  0.87242800  0.54978800  0.96662700  1
  O  O76  1  0.00718800  0.81670100  0.52590200  1
  O  O77  1  0.69999800  0.66904700  0.84000500  1
  O  O78  1  0.20965100  0.81248700  0.25000000  1
  O  O79  1  0.22966100  0.14777500  0.25000000  1
  O  O80  1  0.76269100  0.76784100  0.48610400  1
  O  O81  1  0.30000200  0.33095300  0.15999500  1
  O  O82  1  0.62757200  0.04978800  0.03337300  1
  O  O83  1  0.69999800  0.66904700  0.65999500  1
  O  O84  1  0.94351400  0.75757200  0.14235200  1
  O  O85  1  0.37091500  0.54435900  0.08429800  1
  O  O86  1  0.17943200  0.95643300  0.08998500  1
  O  O87  1  0.00718800  0.81670100  0.97409800  1
  O  O88  1  0.37091500  0.54435900  0.41570200  1
  O  O89  1  0.44351400  0.74242800  0.35764800  1
  O  O90  1  0.44351400  0.74242800  0.14235200  1
  O  O91  1  0.07277500  0.32863800  0.25000000  1
  O  O92  1  0.70965100  0.68751300  0.25000000  1
  O  O93  1  0.29034900  0.31248700  0.75000000  1
  O  O94  1  0.32056800  0.45643300  0.58998500  1
  O  O95  1  0.62908500  0.45564100  0.91570200  1
  O  O96  1  0.17943200  0.95643300  0.41001500  1
  O  O97  1  0.72966100  0.35222500  0.25000000  1
  O  O98  1  0.50718800  0.68329900  0.52590200  1
  O  O99  1  0.42722500  0.82863800  0.75000000  1
  O  O100  1  0.32056800  0.45643300  0.91001500  1
  O  O101  1  0.23730900  0.23215900  0.98610400  1
  O  O102  1  0.30000200  0.33095300  0.34000500  1
  O  O103  1  0.57277500  0.17136200  0.25000000  1
  O  O104  1  0.76269100  0.76784100  0.01389600  1
  O  O105  1  0.62908500  0.45564100  0.58429800  1
  O  O106  1  0.99281200  0.18329900  0.02590200  1
  O  O107  1  0.55648600  0.25757200  0.85764800  1
