# generated using pymatgen
data_Ge4PbO9
_symmetry_space_group_name_H-M   'P 1'
_cell_length_a   6.91453094
_cell_length_b   6.91453094
_cell_length_c   4.71793793
_cell_angle_alpha   76.70583968
_cell_angle_beta   76.70583968
_cell_angle_gamma   114.48911705
_symmetry_Int_Tables_number   1
_chemical_formula_structural   Ge4PbO9
_chemical_formula_sum   'Ge4 Pb1 O9'
_cell_volume   185.81402792
_cell_formula_units_Z   1
loop_
 _symmetry_equiv_pos_site_id
 _symmetry_equiv_pos_as_xyz
  1  'x, y, z'
loop_
 _atom_site_type_symbol
 _atom_site_label
 _atom_site_symmetry_multiplicity
 _atom_site_fract_x
 _atom_site_fract_y
 _atom_site_fract_z
 _atom_site_occupancy
  Ge  Ge0  1  0.48711200  0.51288800  0.50000000  1
  Ge  Ge1  1  0.48715900  0.07089800  0.31694300  1
  Ge  Ge2  1  0.30816100  0.69183900  0.00000000  1
  Ge  Ge3  1  0.92910200  0.51284100  0.68305700  1
  Pb  Pb4  1  0.00006000  0.99994000  0.00000000  1
  O  O5  1  0.09438800  0.46239300  0.39735000  1
  O  O6  1  0.53760700  0.90561200  0.60265000  1
  O  O7  1  0.28897500  0.92646600  0.15450200  1
  O  O8  1  0.55428600  0.71162800  0.13360500  1
  O  O9  1  0.07353400  0.71102500  0.84549800  1
  O  O10  1  0.28837200  0.44571400  0.86639500  1
  O  O11  1  0.37867600  0.22981500  0.48559800  1
  O  O12  1  0.75578200  0.24421800  0.00000000  1
  O  O13  1  0.77018500  0.62132400  0.51440200  1
