# generated using pymatgen
data_VH10N2(OF2)2
_symmetry_space_group_name_H-M   'P 1'
_cell_length_a   9.80783900
_cell_length_b   7.07955100
_cell_length_c   10.31354053
_cell_angle_alpha   78.36193377
_cell_angle_beta   90.00000000
_cell_angle_gamma   90.00000000
_symmetry_Int_Tables_number   1
_chemical_formula_structural   VH10N2(OF2)2
_chemical_formula_sum   'V4 H40 N8 O8 F16'
_cell_volume   701.39925120
_cell_formula_units_Z   4
loop_
 _symmetry_equiv_pos_site_id
 _symmetry_equiv_pos_as_xyz
  1  'x, y, z'
loop_
 _atom_site_type_symbol
 _atom_site_label
 _atom_site_symmetry_multiplicity
 _atom_site_fract_x
 _atom_site_fract_y
 _atom_site_fract_z
 _atom_site_occupancy
  V  V0  1  0.04603400  0.22990800  0.75019600  1
  V  V1  1  0.45396600  0.22990800  0.25019600  1
  V  V2  1  0.54603400  0.77009200  0.74980400  1
  V  V3  1  0.95396600  0.77009200  0.24980400  1
  H  H4  1  0.56450000  0.89454600  0.15718900  1
  H  H5  1  0.85820800  0.37651500  0.94764700  1
  H  H6  1  0.93550000  0.89454600  0.65718900  1
  H  H7  1  0.64179200  0.37651500  0.44764700  1
  H  H8  1  0.46667100  0.22054000  0.96723900  1
  H  H9  1  0.22549400  0.66202400  0.44373600  1
  H  H10  1  0.41899000  0.34936800  0.81504300  1
  H  H11  1  0.03332900  0.22054000  0.46723900  1
  H  H12  1  0.53332900  0.77946000  0.03276100  1
  H  H13  1  0.43550000  0.10545400  0.84281100  1
  H  H14  1  0.35820800  0.62348500  0.55235300  1
  H  H15  1  0.87223600  0.95260800  0.93619200  1
  H  H16  1  0.06450000  0.10545400  0.34281100  1
  H  H17  1  0.35032200  0.49885800  0.43028800  1
  H  H18  1  0.91899000  0.65063200  0.68495700  1
  H  H19  1  0.69591700  0.79347200  0.08951800  1
  H  H20  1  0.72549400  0.33797600  0.05626400  1
  H  H21  1  0.19591700  0.20652800  0.41048200  1
  H  H22  1  0.87878100  0.25819700  0.10859700  1
  H  H23  1  0.08101000  0.34936800  0.31504300  1
  H  H24  1  0.12776400  0.04739200  0.06380800  1
  H  H25  1  0.96667100  0.77946000  0.53276100  1
  H  H26  1  0.77519300  0.05333700  0.81825100  1
  H  H27  1  0.27450600  0.66202400  0.94373600  1
  H  H28  1  0.85032200  0.50114200  0.06971200  1
  H  H29  1  0.37878100  0.74180300  0.39140300  1
  H  H30  1  0.64967800  0.50114200  0.56971200  1
  H  H31  1  0.77450600  0.33797600  0.55626400  1
  H  H32  1  0.58101000  0.65063200  0.18495700  1
  H  H33  1  0.37223600  0.04739200  0.56380800  1
  H  H34  1  0.62121900  0.25819700  0.60859700  1
  H  H35  1  0.80408300  0.79347200  0.58951800  1
  H  H36  1  0.30408300  0.20652800  0.91048200  1
  H  H37  1  0.12121900  0.74180300  0.89140300  1
  H  H38  1  0.22480700  0.94666300  0.18174900  1
  H  H39  1  0.62776400  0.95260800  0.43619200  1
  H  H40  1  0.27519300  0.94666300  0.68174900  1
  H  H41  1  0.72480700  0.05333700  0.31825100  1
  H  H42  1  0.14179200  0.62348500  0.05235300  1
  H  H43  1  0.14967800  0.49885800  0.93028800  1
  N  N44  1  0.09386600  0.21976900  0.38417700  1
  N  N45  1  0.17093300  0.63050500  0.95441500  1
  N  N46  1  0.32906700  0.63050500  0.45441500  1
  N  N47  1  0.67093300  0.36949500  0.54558500  1
  N  N48  1  0.59386600  0.78023100  0.11582300  1
  N  N49  1  0.90613400  0.78023100  0.61582300  1
  N  N50  1  0.40613400  0.21976900  0.88417700  1
  N  N51  1  0.82906700  0.36949500  0.04558500  1
  O  O52  1  0.36352000  0.93454700  0.63784000  1
  O  O53  1  0.66936400  0.65259800  0.83900800  1
  O  O54  1  0.63648000  0.06545300  0.36216000  1
  O  O55  1  0.83063600  0.65259800  0.33900800  1
  O  O56  1  0.86352000  0.06545300  0.86216000  1
  O  O57  1  0.16936400  0.34740200  0.66099200  1
  O  O58  1  0.33063600  0.34740200  0.16099200  1
  O  O59  1  0.13648000  0.93454700  0.13784000  1
  F  F60  1  0.93563800  0.44430400  0.78632300  1
  F  F61  1  0.06436200  0.55569600  0.21367700  1
  F  F62  1  0.88722100  0.03691500  0.24245800  1
  F  F63  1  0.92581500  0.20403800  0.60018100  1
  F  F64  1  0.87748900  0.77627300  0.07002300  1
  F  F65  1  0.12251100  0.22372700  0.92997700  1
  F  F66  1  0.57418500  0.20403800  0.10018100  1
  F  F67  1  0.07418500  0.79596200  0.39981900  1
  F  F68  1  0.62251100  0.77627300  0.57002300  1
  F  F69  1  0.38722100  0.96308500  0.25754200  1
  F  F70  1  0.11277900  0.96308500  0.75754200  1
  F  F71  1  0.43563800  0.55569600  0.71367700  1
  F  F72  1  0.37748900  0.22372700  0.42997700  1
  F  F73  1  0.61277900  0.03691500  0.74245800  1
  F  F74  1  0.42581500  0.79596200  0.89981900  1
  F  F75  1  0.56436200  0.44430400  0.28632300  1
