# generated using pymatgen
data_AgPbBrO
_symmetry_space_group_name_H-M   'P 1'
_cell_length_a   4.02718000
_cell_length_b   4.02718000
_cell_length_c   14.24187400
_cell_angle_alpha   90.00000000
_cell_angle_beta   90.00000000
_cell_angle_gamma   90.00000000
_symmetry_Int_Tables_number   1
_chemical_formula_structural   AgPbBrO
_chemical_formula_sum   'Ag2 Pb2 Br2 O2'
_cell_volume   230.97725830
_cell_formula_units_Z   2
loop_
 _symmetry_equiv_pos_site_id
 _symmetry_equiv_pos_as_xyz
  1  'x, y, z'
loop_
 _atom_site_type_symbol
 _atom_site_label
 _atom_site_symmetry_multiplicity
 _atom_site_fract_x
 _atom_site_fract_y
 _atom_site_fract_z
 _atom_site_occupancy
  Ag  Ag0  1  0.50000000  0.00000000  0.40781800  1
  Ag  Ag1  1  0.00000000  0.50000000  0.59218200  1
  Pb  Pb2  1  0.00000000  0.50000000  0.08466500  1
  Pb  Pb3  1  0.50000000  0.00000000  0.91533500  1
  Br  Br4  1  0.00000000  0.50000000  0.38580700  1
  Br  Br5  1  0.50000000  0.00000000  0.61419300  1
  O  O6  1  0.00000000  0.00000000  0.00000000  1
  O  O7  1  0.50000000  0.50000000  0.00000000  1
