# generated using pymatgen
data_LiNiSbO4
_symmetry_space_group_name_H-M   'P 1'
_cell_length_a   5.19618700
_cell_length_b   6.02475000
_cell_length_c   10.69376800
_cell_angle_alpha   90.00000000
_cell_angle_beta   90.00000000
_cell_angle_gamma   90.00000000
_symmetry_Int_Tables_number   1
_chemical_formula_structural   LiNiSbO4
_chemical_formula_sum   'Li4 Ni4 Sb4 O16'
_cell_volume   334.77618833
_cell_formula_units_Z   4
loop_
 _symmetry_equiv_pos_site_id
 _symmetry_equiv_pos_as_xyz
  1  'x, y, z'
loop_
 _atom_site_type_symbol
 _atom_site_label
 _atom_site_symmetry_multiplicity
 _atom_site_fract_x
 _atom_site_fract_y
 _atom_site_fract_z
 _atom_site_occupancy
  Li  Li0  1  0.00000000  0.00000000  0.00000000  1
  Li  Li1  1  0.50000100  0.00000000  0.50000000  1
  Li  Li2  1  0.00000000  0.49999900  0.00000000  1
  Li  Li3  1  0.50000100  0.49999900  0.50000000  1
  Ni  Ni4  1  0.00550400  0.75000000  0.73092600  1
  Ni  Ni5  1  0.49449500  0.75000000  0.23092500  1
  Ni  Ni6  1  0.99449500  0.25000000  0.26907400  1
  Ni  Ni7  1  0.50550500  0.25000000  0.76907400  1
  Sb  Sb8  1  0.54385800  0.75000000  0.90140400  1
  Sb  Sb9  1  0.95614200  0.75000000  0.40140300  1
  Sb  Sb10  1  0.45614300  0.25000000  0.09859600  1
  Sb  Sb11  1  0.04385700  0.25000000  0.59859600  1
  O  O12  1  0.82074400  0.25000000  0.09369900  1
  O  O13  1  0.23664300  0.48666800  0.67479000  1
  O  O14  1  0.73664300  0.51333200  0.82521000  1
  O  O15  1  0.76335700  0.98666700  0.32521000  1
  O  O16  1  0.26335800  0.01333300  0.17479000  1
  O  O17  1  0.76335700  0.51333200  0.32521000  1
  O  O18  1  0.26335800  0.48666800  0.17479000  1
  O  O19  1  0.23664300  0.01333300  0.67479000  1
  O  O20  1  0.17925600  0.75000000  0.90630200  1
  O  O21  1  0.67925600  0.25000000  0.59369800  1
  O  O22  1  0.73664300  0.98666700  0.82521000  1
  O  O23  1  0.32074500  0.75000000  0.40630200  1
  O  O24  1  0.69282500  0.75000000  0.06477700  1
  O  O25  1  0.30717400  0.25000000  0.93522200  1
  O  O26  1  0.19282500  0.25000000  0.43522300  1
  O  O27  1  0.80717500  0.75000000  0.56477800  1
