# generated using pymatgen
data_MgAg2
_symmetry_space_group_name_H-M   'P 1'
_cell_length_a   5.60377927
_cell_length_b   5.60377927
_cell_length_c   8.84113800
_cell_angle_alpha   90.00000000
_cell_angle_beta   90.00000000
_cell_angle_gamma   119.99999144
_symmetry_Int_Tables_number   1
_chemical_formula_structural   MgAg2
_chemical_formula_sum   'Mg4 Ag8'
_cell_volume   240.43676720
_cell_formula_units_Z   4
loop_
 _symmetry_equiv_pos_site_id
 _symmetry_equiv_pos_as_xyz
  1  'x, y, z'
loop_
 _atom_site_type_symbol
 _atom_site_label
 _atom_site_symmetry_multiplicity
 _atom_site_fract_x
 _atom_site_fract_y
 _atom_site_fract_z
 _atom_site_occupancy
  Mg  Mg0  1  0.33333300  0.66666700  0.06107700  1
  Mg  Mg1  1  0.66666700  0.33333300  0.56107700  1
  Mg  Mg2  1  0.66666700  0.33333300  0.93892300  1
  Mg  Mg3  1  0.33333300  0.66666700  0.43892300  1
  Ag  Ag4  1  0.00000000  0.00000000  0.00000000  1
  Ag  Ag5  1  0.00000000  0.00000000  0.50000000  1
  Ag  Ag6  1  0.17131800  0.34263600  0.75000000  1
  Ag  Ag7  1  0.82868200  0.17131800  0.25000000  1
  Ag  Ag8  1  0.34263600  0.17131800  0.25000000  1
  Ag  Ag9  1  0.65736400  0.82868200  0.75000000  1
  Ag  Ag10  1  0.17131800  0.82868200  0.75000000  1
  Ag  Ag11  1  0.82868200  0.65736400  0.25000000  1
