# generated using pymatgen
data_Al2(MoO4)3
_symmetry_space_group_name_H-M   'P 1'
_cell_length_a   9.20525900
_cell_length_b   15.69439000
_cell_length_c   15.72811104
_cell_angle_alpha   70.81856927
_cell_angle_beta   90.00000000
_cell_angle_gamma   90.00000000
_symmetry_Int_Tables_number   1
_chemical_formula_structural   Al2(MoO4)3
_chemical_formula_sum   'Al16 Mo24 O96'
_cell_volume   2146.10576384
_cell_formula_units_Z   8
loop_
 _symmetry_equiv_pos_site_id
 _symmetry_equiv_pos_as_xyz
  1  'x, y, z'
loop_
 _atom_site_type_symbol
 _atom_site_label
 _atom_site_symmetry_multiplicity
 _atom_site_fract_x
 _atom_site_fract_y
 _atom_site_fract_z
 _atom_site_occupancy
  Al  Al0  1  0.52831200  0.06649400  0.81543800  1
  Al  Al1  1  0.03832500  0.82183700  0.05354300  1
  Al  Al2  1  0.97168800  0.56649400  0.81543800  1
  Al  Al3  1  0.53416100  0.56435300  0.31777700  1
  Al  Al4  1  0.47664800  0.81268900  0.57734400  1
  Al  Al5  1  0.02335200  0.31268900  0.57734400  1
  Al  Al6  1  0.03416100  0.93564700  0.68222300  1
  Al  Al7  1  0.97664800  0.68731100  0.42265600  1
  Al  Al8  1  0.53832500  0.67816300  0.94645700  1
  Al  Al9  1  0.46583900  0.43564700  0.68222300  1
  Al  Al10  1  0.96167500  0.17816300  0.94645700  1
  Al  Al11  1  0.52335200  0.18731100  0.42265600  1
  Al  Al12  1  0.47168800  0.93350600  0.18456200  1
  Al  Al13  1  0.46167500  0.32183700  0.05354300  1
  Al  Al14  1  0.96583900  0.06435300  0.31777700  1
  Al  Al15  1  0.02831200  0.43350600  0.18456200  1
  Mo  Mo16  1  0.37722900  0.86621200  0.78025600  1
  Mo  Mo17  1  0.11360000  0.73388400  0.61768300  1
  Mo  Mo18  1  0.38833900  0.38558900  0.25630800  1
  Mo  Mo19  1  0.25297500  0.01514700  0.98275100  1
  Mo  Mo20  1  0.24786200  0.50913000  0.48718900  1
  Mo  Mo21  1  0.25213800  0.00913000  0.48718900  1
  Mo  Mo22  1  0.37846900  0.72694000  0.13165800  1
  Mo  Mo23  1  0.88833900  0.11441100  0.74369200  1
  Mo  Mo24  1  0.61166100  0.61441100  0.74369200  1
  Mo  Mo25  1  0.61360000  0.76611600  0.38231700  1
  Mo  Mo26  1  0.62153100  0.27306000  0.86834200  1
  Mo  Mo27  1  0.12153100  0.22694000  0.13165800  1
  Mo  Mo28  1  0.87722900  0.63378800  0.21974400  1
  Mo  Mo29  1  0.74702500  0.98485300  0.01724900  1
  Mo  Mo30  1  0.75297500  0.48485300  0.01724900  1
  Mo  Mo31  1  0.12277100  0.36621200  0.78025600  1
  Mo  Mo32  1  0.75213800  0.49087000  0.51281100  1
  Mo  Mo33  1  0.11166100  0.88558900  0.25630800  1
  Mo  Mo34  1  0.74786200  0.99087000  0.51281100  1
  Mo  Mo35  1  0.62277100  0.13378800  0.21974400  1
  Mo  Mo36  1  0.38640000  0.23388400  0.61768300  1
  Mo  Mo37  1  0.88640000  0.26611600  0.38231700  1
  Mo  Mo38  1  0.24702500  0.51514700  0.98275100  1
  Mo  Mo39  1  0.87846900  0.77306000  0.86834200  1
  O  O40  1  0.18624700  0.88924700  0.76744200  1
  O  O41  1  0.20479400  0.42555600  0.25045800  1
  O  O42  1  0.17927200  0.90818800  0.98517800  1
  O  O43  1  0.35920800  0.90994800  0.50108500  1
  O  O44  1  0.62697600  0.00122400  0.92364800  1
  O  O45  1  0.36235000  0.10804200  0.45165800  1
  O  O46  1  0.63765000  0.89195800  0.54834200  1
  O  O47  1  0.09476600  0.26399300  0.87265800  1
  O  O48  1  0.19200500  0.73671100  0.09607100  1
  O  O49  1  0.06902900  0.86931000  0.15151100  1
  O  O50  1  0.56915300  0.86501900  0.29058200  1
  O  O51  1  0.90475100  0.21959400  0.65415300  1
  O  O52  1  0.61089500  0.40918300  0.01132200  1
  O  O53  1  0.48806700  0.53455100  0.72455300  1
  O  O54  1  0.97520200  0.54199800  0.20303400  1
  O  O55  1  0.01193300  0.03455100  0.72455300  1
  O  O56  1  0.43097100  0.36931000  0.15151100  1
  O  O57  1  0.80730800  0.76143000  0.39640600  1
  O  O58  1  0.47688200  0.22897200  0.51867200  1
  O  O59  1  0.40475100  0.28040600  0.34584700  1
  O  O60  1  0.17314300  0.00036300  0.59401100  1
  O  O61  1  0.67314300  0.49963700  0.40598900  1
  O  O62  1  0.61448100  0.48260500  0.59556100  1
  O  O63  1  0.49806800  0.71990500  0.04400100  1
  O  O64  1  0.93097100  0.13069000  0.84848900  1
  O  O65  1  0.39626400  0.62938500  0.23033900  1
  O  O66  1  0.68624700  0.61075300  0.23255800  1
  O  O67  1  0.40523400  0.76399300  0.87265800  1
  O  O68  1  0.97688200  0.27102800  0.48132800  1
  O  O69  1  0.05561100  0.83312100  0.64054100  1
  O  O70  1  0.06210300  0.35102100  0.67846400  1
  O  O71  1  0.70479400  0.07444400  0.74954200  1
  O  O72  1  0.42273300  0.82357000  0.16225300  1
  O  O73  1  0.60373600  0.37061500  0.76966100  1
  O  O74  1  0.29520600  0.92555600  0.25045800  1
  O  O75  1  0.02311800  0.72897200  0.51867200  1
  O  O76  1  0.90523400  0.73600700  0.12734200  1
  O  O77  1  0.32685700  0.50036300  0.59401100  1
  O  O78  1  0.10373600  0.12938500  0.23033900  1
  O  O79  1  0.02479800  0.45800200  0.79696600  1
  O  O80  1  0.64690500  0.93783400  0.11911500  1
  O  O81  1  0.82072800  0.09181200  0.01482200  1
  O  O82  1  0.09524900  0.78040600  0.34584700  1
  O  O83  1  0.57726700  0.17643000  0.83774700  1
  O  O84  1  0.92273300  0.67643000  0.83774700  1
  O  O85  1  0.98806700  0.96544900  0.27544700  1
  O  O86  1  0.88551900  0.98260500  0.59556100  1
  O  O87  1  0.38551900  0.51739500  0.40443900  1
  O  O88  1  0.19269200  0.23857000  0.60359400  1
  O  O89  1  0.85309500  0.43783400  0.11911500  1
  O  O90  1  0.59524900  0.71959400  0.65415300  1
  O  O91  1  0.47520200  0.95800200  0.79696600  1
  O  O92  1  0.07726700  0.32357000  0.16225300  1
  O  O93  1  0.31375300  0.38924700  0.76744200  1
  O  O94  1  0.14079200  0.40994800  0.50108500  1
  O  O95  1  0.93789700  0.64897900  0.32153600  1
  O  O96  1  0.52479800  0.04199800  0.20303400  1
  O  O97  1  0.86235000  0.39195800  0.54834200  1
  O  O98  1  0.44438900  0.33312100  0.64054100  1
  O  O99  1  0.12697600  0.49877600  0.07635200  1
  O  O100  1  0.89626400  0.87061500  0.76966100  1
  O  O101  1  0.56210300  0.14897900  0.32153600  1
  O  O102  1  0.81375300  0.11075300  0.23255800  1
  O  O103  1  0.13765000  0.60804200  0.45165800  1
  O  O104  1  0.69200500  0.76328900  0.90392900  1
  O  O105  1  0.55561100  0.66687900  0.35945900  1
  O  O106  1  0.11089500  0.09081700  0.98867800  1
  O  O107  1  0.67927200  0.59181200  0.01482200  1
  O  O108  1  0.88910500  0.90918300  0.01132200  1
  O  O109  1  0.37302400  0.99877600  0.07635200  1
  O  O110  1  0.11448100  0.01739500  0.40443900  1
  O  O111  1  0.82685700  0.99963700  0.40598900  1
  O  O112  1  0.00193200  0.21990500  0.04400100  1
  O  O113  1  0.79520600  0.57444400  0.74954200  1
  O  O114  1  0.35309500  0.06216600  0.88088500  1
  O  O115  1  0.87302400  0.50122400  0.92364800  1
  O  O116  1  0.59476600  0.23600700  0.12734200  1
  O  O117  1  0.69269200  0.26143000  0.39640600  1
  O  O118  1  0.06915300  0.63498100  0.70941800  1
  O  O119  1  0.38910500  0.59081700  0.98867800  1
  O  O120  1  0.64079200  0.09005200  0.49891500  1
  O  O121  1  0.30799500  0.23671100  0.09607100  1
  O  O122  1  0.14690500  0.56216600  0.88088500  1
  O  O123  1  0.30730800  0.73857000  0.60359400  1
  O  O124  1  0.99806800  0.78009500  0.95599900  1
  O  O125  1  0.43084700  0.13498100  0.70941800  1
  O  O126  1  0.43789700  0.85102100  0.67846400  1
  O  O127  1  0.50193200  0.28009500  0.95599900  1
  O  O128  1  0.93084700  0.36501900  0.29058200  1
  O  O129  1  0.94438900  0.16687900  0.35945900  1
  O  O130  1  0.56902900  0.63069000  0.84848900  1
  O  O131  1  0.32072800  0.40818800  0.98517800  1
  O  O132  1  0.52311800  0.77102800  0.48132800  1
  O  O133  1  0.51193300  0.46544900  0.27544700  1
  O  O134  1  0.80799500  0.26328900  0.90392900  1
  O  O135  1  0.85920800  0.59005200  0.49891500  1
