# generated using pymatgen
data_Cs2Ti(Si2O5)3
_symmetry_space_group_name_H-M   'P 1'
_cell_length_a   7.78135180
_cell_length_b   7.78135180
_cell_length_c   15.48663423
_cell_angle_alpha   74.30537137
_cell_angle_beta   74.30537137
_cell_angle_gamma   58.01663258
_symmetry_Int_Tables_number   1
_chemical_formula_structural   Cs2Ti(Si2O5)3
_chemical_formula_sum   'Cs4 Ti2 Si12 O30'
_cell_volume   756.36014818
_cell_formula_units_Z   2
loop_
 _symmetry_equiv_pos_site_id
 _symmetry_equiv_pos_as_xyz
  1  'x, y, z'
loop_
 _atom_site_type_symbol
 _atom_site_label
 _atom_site_symmetry_multiplicity
 _atom_site_fract_x
 _atom_site_fract_y
 _atom_site_fract_z
 _atom_site_occupancy
  Cs  Cs0  1  0.85815000  0.37570300  0.59000300  1
  Cs  Cs1  1  0.14185000  0.62429700  0.40999700  1
  Cs  Cs2  1  0.37570300  0.85815000  0.09000300  1
  Cs  Cs3  1  0.62429700  0.14185000  0.90999700  1
  Ti  Ti4  1  0.00000000  0.50000000  0.00000000  1
  Ti  Ti5  1  0.50000000  0.00000000  0.50000000  1
  Si  Si6  1  0.74896100  0.60362100  0.83353100  1
  Si  Si7  1  0.80471100  0.88408200  0.64389900  1
  Si  Si8  1  0.11591800  0.19528900  0.85610100  1
  Si  Si9  1  0.60362100  0.74896100  0.33353100  1
  Si  Si10  1  0.88408200  0.80471100  0.14389900  1
  Si  Si11  1  0.27102700  0.73436300  0.85401100  1
  Si  Si12  1  0.26563700  0.72897300  0.64598900  1
  Si  Si13  1  0.19528900  0.11591800  0.35610100  1
  Si  Si14  1  0.25103900  0.39637900  0.16646900  1
  Si  Si15  1  0.73436300  0.27102700  0.35401100  1
  Si  Si16  1  0.39637900  0.25103900  0.66646900  1
  Si  Si17  1  0.72897300  0.26563700  0.14598900  1
  O  O18  1  0.51072300  0.65552100  0.85896300  1
  O  O19  1  0.79335300  0.71361000  0.73063200  1
  O  O20  1  0.13300800  0.96916000  0.87847700  1
  O  O21  1  0.58303500  0.19999800  0.42496900  1
  O  O22  1  0.65552100  0.51072300  0.35896300  1
  O  O23  1  0.48927700  0.34447900  0.14103700  1
  O  O24  1  0.96916000  0.13300800  0.37847700  1
  O  O25  1  0.25331000  0.74669000  0.75000000  1
  O  O26  1  0.18690600  0.34030300  0.09202400  1
  O  O27  1  0.80000200  0.41696500  0.07503100  1
  O  O28  1  0.74669000  0.25331000  0.25000000  1
  O  O29  1  0.14437400  0.24942100  0.94263100  1
  O  O30  1  0.19999800  0.58303500  0.92496900  1
  O  O31  1  0.35450300  0.88455700  0.32770900  1
  O  O32  1  0.71361000  0.79335300  0.23063200  1
  O  O33  1  0.81309400  0.65969700  0.90797600  1
  O  O34  1  0.24942100  0.14437400  0.44263100  1
  O  O35  1  0.86699200  0.03084000  0.12152300  1
  O  O36  1  0.28639000  0.20664700  0.76936800  1
  O  O37  1  0.34447900  0.48927700  0.64103700  1
  O  O38  1  0.65969700  0.81309400  0.40797600  1
  O  O39  1  0.75057900  0.85562600  0.55736900  1
  O  O40  1  0.88455700  0.35450300  0.82770900  1
  O  O41  1  0.41696500  0.80000200  0.57503100  1
  O  O42  1  0.64549700  0.11544300  0.67229100  1
  O  O43  1  0.03084000  0.86699200  0.62152300  1
  O  O44  1  0.11544300  0.64549700  0.17229100  1
  O  O45  1  0.20664700  0.28639000  0.26936800  1
  O  O46  1  0.34030300  0.18690600  0.59202400  1
  O  O47  1  0.85562600  0.75057900  0.05736900  1
