# generated using pymatgen
data_FeH12C2N2F5
_symmetry_space_group_name_H-M   'P 1'
_cell_length_a   7.99446400
_cell_length_b   9.72084300
_cell_length_c   10.16176200
_cell_angle_alpha   90.00000000
_cell_angle_beta   90.00000000
_cell_angle_gamma   90.00000000
_symmetry_Int_Tables_number   1
_chemical_formula_structural   FeH12C2N2F5
_chemical_formula_sum   'Fe4 H48 C8 N8 F20'
_cell_volume   789.70029302
_cell_formula_units_Z   4
loop_
 _symmetry_equiv_pos_site_id
 _symmetry_equiv_pos_as_xyz
  1  'x, y, z'
loop_
 _atom_site_type_symbol
 _atom_site_label
 _atom_site_symmetry_multiplicity
 _atom_site_fract_x
 _atom_site_fract_y
 _atom_site_fract_z
 _atom_site_occupancy
  Fe  Fe0  1  0.00000000  0.50000000  0.50000000  1
  Fe  Fe1  1  0.50000000  0.50000000  0.50000000  1
  Fe  Fe2  1  0.50000000  0.00000000  0.00000000  1
  Fe  Fe3  1  0.00000000  0.00000000  0.00000000  1
  H  H4  1  0.25000000  0.49771000  0.14926700  1
  H  H5  1  0.86163200  0.42248200  0.16457200  1
  H  H6  1  0.85659700  0.17856700  0.21740000  1
  H  H7  1  0.86157700  0.13236400  0.55887800  1
  H  H8  1  0.75000000  0.50229000  0.85073300  1
  H  H9  1  0.13842300  0.86763600  0.44112200  1
  H  H10  1  0.36163200  0.57751800  0.83542800  1
  H  H11  1  0.85659700  0.67856700  0.28260000  1
  H  H12  1  0.25000000  0.67668100  0.95661900  1
  H  H13  1  0.25000000  0.17668100  0.54338100  1
  H  H14  1  0.63842300  0.13236400  0.55887800  1
  H  H15  1  0.36157700  0.36763600  0.05887800  1
  H  H16  1  0.35479100  0.81554600  0.20375000  1
  H  H17  1  0.75000000  0.77193100  0.16966300  1
  H  H18  1  0.13836800  0.07751800  0.66457200  1
  H  H19  1  0.64520900  0.68445400  0.70375000  1
  H  H20  1  0.75000000  0.32331900  0.04338100  1
  H  H21  1  0.36163200  0.07751800  0.66457200  1
  H  H22  1  0.25000000  0.72806900  0.66966300  1
  H  H23  1  0.25000000  0.19878500  0.20704300  1
  H  H24  1  0.14340300  0.82143300  0.78260000  1
  H  H25  1  0.36157700  0.86763600  0.44112200  1
  H  H26  1  0.35479100  0.31554600  0.29625000  1
  H  H27  1  0.86163200  0.92248200  0.33542800  1
  H  H28  1  0.75000000  0.82331900  0.45661900  1
  H  H29  1  0.35659700  0.32143300  0.71740000  1
  H  H30  1  0.35659700  0.82143300  0.78260000  1
  H  H31  1  0.63836800  0.42248200  0.16457200  1
  H  H32  1  0.25000000  0.69878500  0.29295700  1
  H  H33  1  0.64520900  0.18445400  0.79625000  1
  H  H34  1  0.14520900  0.31554600  0.29625000  1
  H  H35  1  0.25000000  0.22806900  0.83033700  1
  H  H36  1  0.14520900  0.81554600  0.20375000  1
  H  H37  1  0.13842300  0.36763600  0.05887800  1
  H  H38  1  0.64340300  0.17856700  0.21740000  1
  H  H39  1  0.63842300  0.63236400  0.94112200  1
  H  H40  1  0.13836800  0.57751800  0.83542800  1
  H  H41  1  0.63836800  0.92248200  0.33542800  1
  H  H42  1  0.75000000  0.30121500  0.70704300  1
  H  H43  1  0.64340300  0.67856700  0.28260000  1
  H  H44  1  0.85479100  0.18445400  0.79625000  1
  H  H45  1  0.75000000  0.27193100  0.33033700  1
  H  H46  1  0.75000000  0.80121500  0.79295700  1
  H  H47  1  0.75000000  0.00229000  0.64926700  1
  H  H48  1  0.25000000  0.99771000  0.35073300  1
  H  H49  1  0.86157700  0.63236400  0.94112200  1
  H  H50  1  0.85479100  0.68445400  0.70375000  1
  H  H51  1  0.14340300  0.32143300  0.71740000  1
  C  C52  1  0.25000000  0.39029600  0.11762500  1
  C  C53  1  0.25000000  0.63951600  0.85510600  1
  C  C54  1  0.75000000  0.60970400  0.88237500  1
  C  C55  1  0.75000000  0.10970400  0.61762500  1
  C  C56  1  0.75000000  0.86048400  0.35510600  1
  C  C57  1  0.75000000  0.36048400  0.14489400  1
  C  C58  1  0.25000000  0.89029600  0.38237500  1
  C  C59  1  0.25000000  0.13951600  0.64489400  1
  N  N60  1  0.25000000  0.80046000  0.26435200  1
  N  N61  1  0.75000000  0.19954000  0.73564800  1
  N  N62  1  0.75000000  0.23933500  0.23407900  1
  N  N63  1  0.75000000  0.69954000  0.76435200  1
  N  N64  1  0.25000000  0.26066500  0.73407900  1
  N  N65  1  0.75000000  0.73933500  0.26592100  1
  N  N66  1  0.25000000  0.76066500  0.76592100  1
  N  N67  1  0.25000000  0.30046000  0.23564800  1
  F  F68  1  0.49508300  0.31877500  0.41914300  1
  F  F69  1  0.75000000  0.00407800  0.02237700  1
  F  F70  1  0.52314900  0.41718500  0.67407400  1
  F  F71  1  0.75000000  0.50407800  0.47762300  1
  F  F72  1  0.99508300  0.18122500  0.91914300  1
  F  F73  1  0.25000000  0.99592200  0.97762300  1
  F  F74  1  0.50491700  0.18122500  0.91914300  1
  F  F75  1  0.99508300  0.68122500  0.58085700  1
  F  F76  1  0.02314900  0.08281500  0.17407400  1
  F  F77  1  0.02314900  0.58281500  0.32592600  1
  F  F78  1  0.97685100  0.91718500  0.82592600  1
  F  F79  1  0.50491700  0.68122500  0.58085700  1
  F  F80  1  0.00491700  0.81877500  0.08085700  1
  F  F81  1  0.47685100  0.58281500  0.32592600  1
  F  F82  1  0.49508300  0.81877500  0.08085700  1
  F  F83  1  0.97685100  0.41718500  0.67407400  1
  F  F84  1  0.47685100  0.08281500  0.17407400  1
  F  F85  1  0.52314900  0.91718500  0.82592600  1
  F  F86  1  0.25000000  0.49592200  0.52237700  1
  F  F87  1  0.00491700  0.31877500  0.41914300  1
