# generated using pymatgen
data_La2Ti2SiO9
_symmetry_space_group_name_H-M   'P 1'
_cell_length_a   9.03071007
_cell_length_b   9.03071007
_cell_length_c   7.73811984
_cell_angle_alpha   69.94168465
_cell_angle_beta   69.94168465
_cell_angle_gamma   37.39225754
_symmetry_Int_Tables_number   1
_chemical_formula_structural   La2Ti2SiO9
_chemical_formula_sum   'La4 Ti4 Si2 O18'
_cell_volume   357.22669505
_cell_formula_units_Z   2
loop_
 _symmetry_equiv_pos_site_id
 _symmetry_equiv_pos_as_xyz
  1  'x, y, z'
loop_
 _atom_site_type_symbol
 _atom_site_label
 _atom_site_symmetry_multiplicity
 _atom_site_fract_x
 _atom_site_fract_y
 _atom_site_fract_z
 _atom_site_occupancy
  La  La0  1  0.78833700  0.78833700  0.30673800  1
  La  La1  1  0.21166300  0.21166300  0.69326200  1
  La  La2  1  0.89394700  0.89394700  0.69420600  1
  La  La3  1  0.10605300  0.10605300  0.30579400  1
  Ti  Ti4  1  0.75930100  0.24069900  0.00000000  1
  Ti  Ti5  1  0.58116900  0.58116900  0.55290100  1
  Ti  Ti6  1  0.41883100  0.41883100  0.44709900  1
  Ti  Ti7  1  0.24069900  0.75930100  0.00000000  1
  Si  Si8  1  0.66248000  0.66248000  0.02003700  1
  Si  Si9  1  0.33752000  0.33752000  0.97996300  1
  O  O10  1  0.62571100  0.13959800  0.01291800  1
  O  O11  1  0.42115000  0.90094900  0.51729800  1
  O  O12  1  0.65534100  0.65534100  0.23533300  1
  O  O13  1  0.75574000  0.75574000  0.86640200  1
  O  O14  1  0.47213400  0.47213400  0.18653000  1
  O  O15  1  0.34465900  0.34465900  0.76466700  1
  O  O16  1  0.97564700  0.97564700  0.17802900  1
  O  O17  1  0.27710400  0.72289600  0.50000000  1
  O  O18  1  0.90094900  0.42115000  0.51729800  1
  O  O19  1  0.37428900  0.86040200  0.98708200  1
  O  O20  1  0.13959800  0.62571100  0.01291800  1
  O  O21  1  0.52786600  0.52786600  0.81347000  1
  O  O22  1  0.24426000  0.24426000  0.13359800  1
  O  O23  1  0.57885000  0.09905100  0.48270200  1
  O  O24  1  0.02435300  0.02435300  0.82197100  1
  O  O25  1  0.72289600  0.27710400  0.50000000  1
  O  O26  1  0.09905100  0.57885000  0.48270200  1
  O  O27  1  0.86040200  0.37428900  0.98708200  1
