# generated using pymatgen
data_AgBO2
_symmetry_space_group_name_H-M   'P 1'
_cell_length_a   8.64050400
_cell_length_b   8.76595600
_cell_length_c   19.96976500
_cell_angle_alpha   90.00000000
_cell_angle_beta   90.00000000
_cell_angle_gamma   90.00000000
_symmetry_Int_Tables_number   1
_chemical_formula_structural   AgBO2
_chemical_formula_sum   'Ag32 B32 O64'
_cell_volume   1512.55548986
_cell_formula_units_Z   32
loop_
 _symmetry_equiv_pos_site_id
 _symmetry_equiv_pos_as_xyz
  1  'x, y, z'
loop_
 _atom_site_type_symbol
 _atom_site_label
 _atom_site_symmetry_multiplicity
 _atom_site_fract_x
 _atom_site_fract_y
 _atom_site_fract_z
 _atom_site_occupancy
  Ag  Ag0  1  0.69181300  0.23951000  0.73073200  1
  Ag  Ag1  1  0.28228400  0.13293700  0.41395500  1
  Ag  Ag2  1  0.69181300  0.76049000  0.23073200  1
  Ag  Ag3  1  0.50290700  0.79246000  0.38935900  1
  Ag  Ag4  1  0.19181300  0.26049000  0.26926800  1
  Ag  Ag5  1  0.49709300  0.79246000  0.11064100  1
  Ag  Ag6  1  0.00000000  0.46562800  0.75000000  1
  Ag  Ag7  1  0.30818700  0.23951000  0.76926800  1
  Ag  Ag8  1  0.71771600  0.86706300  0.58604500  1
  Ag  Ag9  1  0.00000000  0.00000000  0.00000000  1
  Ag  Ag10  1  0.21771600  0.63293700  0.41395500  1
  Ag  Ag11  1  0.00290700  0.29246000  0.11064100  1
  Ag  Ag12  1  0.99709300  0.70754000  0.88935900  1
  Ag  Ag13  1  0.21771600  0.36706300  0.91395500  1
  Ag  Ag14  1  0.28228400  0.86706300  0.91395500  1
  Ag  Ag15  1  0.19181300  0.73951000  0.76926800  1
  Ag  Ag16  1  0.50290700  0.20754000  0.88935900  1
  Ag  Ag17  1  0.71771600  0.13293700  0.08604500  1
  Ag  Ag18  1  0.49709300  0.20754000  0.61064100  1
  Ag  Ag19  1  0.50000000  0.50000000  0.50000000  1
  Ag  Ag20  1  0.00000000  0.00000000  0.50000000  1
  Ag  Ag21  1  0.78228400  0.63293700  0.08604500  1
  Ag  Ag22  1  0.78228400  0.36706300  0.58604500  1
  Ag  Ag23  1  0.00000000  0.53437200  0.25000000  1
  Ag  Ag24  1  0.50000000  0.96562800  0.75000000  1
  Ag  Ag25  1  0.00290700  0.70754000  0.61064100  1
  Ag  Ag26  1  0.50000000  0.03437200  0.25000000  1
  Ag  Ag27  1  0.99709300  0.29246000  0.38935900  1
  Ag  Ag28  1  0.50000000  0.50000000  0.00000000  1
  Ag  Ag29  1  0.30818700  0.76049000  0.26926800  1
  Ag  Ag30  1  0.80818700  0.73951000  0.73073200  1
  Ag  Ag31  1  0.80818700  0.26049000  0.23073200  1
  B  B32  1  0.88881400  0.26134100  0.86713800  1
  B  B33  1  0.32365400  0.12692900  0.02358500  1
  B  B34  1  0.44341400  0.54722700  0.82647400  1
  B  B35  1  0.28164000  0.50641600  0.13350800  1
  B  B36  1  0.67634600  0.87307100  0.97641500  1
  B  B37  1  0.67634600  0.12692900  0.47641500  1
  B  B38  1  0.32365400  0.87307100  0.52358500  1
  B  B39  1  0.71836000  0.49358400  0.86649200  1
  B  B40  1  0.88881400  0.73865900  0.36713800  1
  B  B41  1  0.17634600  0.62692900  0.02358500  1
  B  B42  1  0.61118600  0.23865900  0.36713800  1
  B  B43  1  0.05658600  0.95277300  0.32647400  1
  B  B44  1  0.38881400  0.76134100  0.63286200  1
  B  B45  1  0.94341400  0.04722700  0.67352600  1
  B  B46  1  0.44341400  0.45277300  0.32647400  1
  B  B47  1  0.78164000  0.00641600  0.36649200  1
  B  B48  1  0.82365400  0.37307100  0.97641500  1
  B  B49  1  0.61118600  0.76134100  0.86713800  1
  B  B50  1  0.38881400  0.23865900  0.13286200  1
  B  B51  1  0.55658600  0.45277300  0.17352600  1
  B  B52  1  0.21836000  0.00641600  0.13350800  1
  B  B53  1  0.05658600  0.04722700  0.82647400  1
  B  B54  1  0.17634600  0.37307100  0.52358500  1
  B  B55  1  0.11118600  0.73865900  0.13286200  1
  B  B56  1  0.21836000  0.99358400  0.63350800  1
  B  B57  1  0.78164000  0.99358400  0.86649200  1
  B  B58  1  0.55658600  0.54722700  0.67352600  1
  B  B59  1  0.11118600  0.26134100  0.63286200  1
  B  B60  1  0.71836000  0.50641600  0.36649200  1
  B  B61  1  0.82365400  0.62692900  0.47641500  1
  B  B62  1  0.28164000  0.49358400  0.63350800  1
  B  B63  1  0.94341400  0.95277300  0.17352600  1
  O  O64  1  0.67752500  0.11605200  0.54458200  1
  O  O65  1  0.67752500  0.88394800  0.04458200  1
  O  O66  1  0.24171400  0.84451300  0.14390200  1
  O  O67  1  0.74171400  0.65548700  0.85609800  1
  O  O68  1  0.28767000  0.54287600  0.05894500  1
  O  O69  1  0.78767000  0.95712400  0.94105500  1
  O  O70  1  0.80300400  0.00375500  0.19462700  1
  O  O71  1  0.92420900  0.28276900  0.94015500  1
  O  O72  1  0.56525700  0.55439600  0.33908700  1
  O  O73  1  0.71233000  0.45712400  0.94105500  1
  O  O74  1  0.34771900  0.09079900  0.16289700  1
  O  O75  1  0.80300400  0.99624500  0.69462700  1
  O  O76  1  0.46918300  0.29697700  0.33549700  1
  O  O77  1  0.84771900  0.59079900  0.33710300  1
  O  O78  1  0.19699600  0.00375500  0.30537300  1
  O  O79  1  0.21233000  0.04287600  0.05894500  1
  O  O80  1  0.15228100  0.40920100  0.66289700  1
  O  O81  1  0.78767000  0.04287600  0.44105500  1
  O  O82  1  0.43474300  0.44560400  0.66091300  1
  O  O83  1  0.30300400  0.49624500  0.80537300  1
  O  O84  1  0.06525700  0.05439600  0.16091300  1
  O  O85  1  0.42420900  0.78276900  0.55984500  1
  O  O86  1  0.34771900  0.90920100  0.66289700  1
  O  O87  1  0.57579100  0.21723100  0.44015500  1
  O  O88  1  0.82247500  0.61605200  0.54458200  1
  O  O89  1  0.28767000  0.45712400  0.55894500  1
  O  O90  1  0.53081700  0.29697700  0.16450300  1
  O  O91  1  0.19699600  0.99624500  0.80537300  1
  O  O92  1  0.07579100  0.71723100  0.05984500  1
  O  O93  1  0.93474300  0.94560400  0.83908700  1
  O  O94  1  0.03081700  0.79697700  0.33549700  1
  O  O95  1  0.24171400  0.15548700  0.64390200  1
  O  O96  1  0.65228100  0.09079900  0.33710300  1
  O  O97  1  0.75828600  0.84451300  0.35609800  1
  O  O98  1  0.53081700  0.70302300  0.66450300  1
  O  O99  1  0.30300400  0.50375500  0.30537300  1
  O  O100  1  0.43474300  0.55439600  0.16091300  1
  O  O101  1  0.56525700  0.44560400  0.83908700  1
  O  O102  1  0.32247500  0.11605200  0.95541800  1
  O  O103  1  0.93474300  0.05439600  0.33908700  1
  O  O104  1  0.03081700  0.20302300  0.83549700  1
  O  O105  1  0.17752500  0.61605200  0.95541800  1
  O  O106  1  0.25828600  0.65548700  0.64390200  1
  O  O107  1  0.69699600  0.50375500  0.19462700  1
  O  O108  1  0.21233000  0.95712400  0.55894500  1
  O  O109  1  0.17752500  0.38394800  0.45541800  1
  O  O110  1  0.57579100  0.78276900  0.94015500  1
  O  O111  1  0.06525700  0.94560400  0.66091300  1
  O  O112  1  0.71233000  0.54287600  0.44105500  1
  O  O113  1  0.65228100  0.90920100  0.83710300  1
  O  O114  1  0.82247500  0.38394800  0.04458200  1
  O  O115  1  0.75828600  0.15548700  0.85609800  1
  O  O116  1  0.74171400  0.34451300  0.35609800  1
  O  O117  1  0.69699600  0.49624500  0.69462700  1
  O  O118  1  0.84771900  0.40920100  0.83710300  1
  O  O119  1  0.25828600  0.34451300  0.14390200  1
  O  O120  1  0.42420900  0.21723100  0.05984500  1
  O  O121  1  0.96918300  0.20302300  0.66450300  1
  O  O122  1  0.46918300  0.70302300  0.83549700  1
  O  O123  1  0.15228100  0.59079900  0.16289700  1
  O  O124  1  0.07579100  0.28276900  0.55984500  1
  O  O125  1  0.32247500  0.88394800  0.45541800  1
  O  O126  1  0.96918300  0.79697700  0.16450300  1
  O  O127  1  0.92420900  0.71723100  0.44015500  1
