# generated using pymatgen
data_VAgO3
_symmetry_space_group_name_H-M   'P 1'
_cell_length_a   9.46345384
_cell_length_b   9.46345384
_cell_length_c   8.14726611
_cell_angle_alpha   75.11920912
_cell_angle_beta   75.11920912
_cell_angle_gamma   22.05378371
_symmetry_Int_Tables_number   1
_chemical_formula_structural   VAgO3
_chemical_formula_sum   'V4 Ag4 O12'
_cell_volume   264.42116321
_cell_formula_units_Z   4
loop_
 _symmetry_equiv_pos_site_id
 _symmetry_equiv_pos_as_xyz
  1  'x, y, z'
loop_
 _atom_site_type_symbol
 _atom_site_label
 _atom_site_symmetry_multiplicity
 _atom_site_fract_x
 _atom_site_fract_y
 _atom_site_fract_z
 _atom_site_occupancy
  V  V0  1  0.32326300  0.32326300  0.56158400  1
  V  V1  1  0.87486900  0.87486900  0.23011800  1
  V  V2  1  0.67762100  0.67762100  0.43508100  1
  V  V3  1  0.13021100  0.13021100  0.76699000  1
  Ag  Ag4  1  0.25162100  0.25162100  0.04020900  1
  Ag  Ag5  1  0.00021300  0.00021300  0.50230200  1
  Ag  Ag6  1  0.45137400  0.45137400  0.86341800  1
  Ag  Ag7  1  0.55181100  0.55181100  0.13195000  1
  O  O8  1  0.65167500  0.65167500  0.70430800  1
  O  O9  1  0.73805100  0.73805100  0.23412300  1
  O  O10  1  0.40895300  0.40895300  0.59850200  1
  O  O11  1  0.12243700  0.12243700  0.98217000  1
  O  O12  1  0.35148200  0.35148200  0.28859500  1
  O  O13  1  0.88139700  0.88139700  0.01569600  1
  O  O14  1  0.81410500  0.81410500  0.49274700  1
  O  O15  1  0.26135700  0.26135700  0.75653500  1
  O  O16  1  0.18881300  0.18881300  0.49759300  1
  O  O17  1  0.96677100  0.96677100  0.23791700  1
  O  O18  1  0.03779300  0.03779300  0.76118000  1
  O  O19  1  0.59139300  0.59139300  0.40168100  1
