# generated using pymatgen
data_MnSiO3
_symmetry_space_group_name_H-M   'P 1'
_cell_length_a   6.80165900
_cell_length_b   7.73032576
_cell_length_c   12.02802148
_cell_angle_alpha   105.76209619
_cell_angle_beta   92.44259888
_cell_angle_gamma   94.59551022
_symmetry_Int_Tables_number   1
_chemical_formula_structural   MnSiO3
_chemical_formula_sum   'Mn10 Si10 O30'
_cell_volume   605.31686564
_cell_formula_units_Z   10
loop_
 _symmetry_equiv_pos_site_id
 _symmetry_equiv_pos_as_xyz
  1  'x, y, z'
loop_
 _atom_site_type_symbol
 _atom_site_label
 _atom_site_symmetry_multiplicity
 _atom_site_fract_x
 _atom_site_fract_y
 _atom_site_fract_z
 _atom_site_occupancy
  Mn  Mn0  1  0.13018300  0.31615900  0.44665500  1
  Mn  Mn1  1  0.65564000  0.03312300  0.70552300  1
  Mn  Mn2  1  0.02766800  0.12259600  0.14714000  1
  Mn  Mn3  1  0.34436000  0.96687700  0.29447700  1
  Mn  Mn4  1  0.20806200  0.70164100  0.02797500  1
  Mn  Mn5  1  0.79193800  0.29835900  0.97202500  1
  Mn  Mn6  1  0.81406500  0.49006600  0.26914600  1
  Mn  Mn7  1  0.18593500  0.50993400  0.73085400  1
  Mn  Mn8  1  0.97233200  0.87740400  0.85286000  1
  Mn  Mn9  1  0.86981700  0.68384100  0.55334500  1
  Si  Si10  1  0.49419000  0.22357600  0.12413100  1
  Si  Si11  1  0.24269300  0.25510600  0.91094500  1
  Si  Si12  1  0.70275600  0.45126700  0.73384400  1
  Si  Si13  1  0.29724400  0.54873300  0.26615600  1
  Si  Si14  1  0.75730700  0.74489400  0.08905500  1
  Si  Si15  1  0.36151000  0.73986900  0.53355600  1
  Si  Si16  1  0.15090300  0.07592600  0.65524600  1
  Si  Si17  1  0.63849000  0.26013100  0.46644400  1
  Si  Si18  1  0.50581000  0.77642400  0.87586900  1
  Si  Si19  1  0.84909700  0.92407400  0.34475400  1
  O  O20  1  0.89135000  0.59529300  0.73233600  1
  O  O21  1  0.41947100  0.23089900  0.40229100  1
  O  O22  1  0.48238000  0.42654600  0.21786100  1
  O  O23  1  0.94469400  0.84370300  0.03976000  1
  O  O24  1  0.33759000  0.06895800  0.14505400  1
  O  O25  1  0.19536300  0.59812900  0.56555800  1
  O  O26  1  0.26908300  0.79644200  0.86917500  1
  O  O27  1  0.26221700  0.69582500  0.19509000  1
  O  O28  1  0.70573900  0.86100100  0.22094700  1
  O  O29  1  0.66241000  0.93104200  0.85494600  1
  O  O30  1  0.29426100  0.13899900  0.77905300  1
  O  O31  1  0.10865000  0.40470700  0.26766400  1
  O  O32  1  0.89018400  0.74877600  0.38796200  1
  O  O33  1  0.28363400  0.94494000  0.56207500  1
  O  O34  1  0.71636600  0.05506000  0.43792500  1
  O  O35  1  0.05530600  0.15629700  0.96024000  1
  O  O36  1  0.10981600  0.25122400  0.61203800  1
  O  O37  1  0.95679400  0.95460500  0.68011800  1
  O  O38  1  0.38368600  0.67865300  0.39325800  1
  O  O39  1  0.44469100  0.25654400  0.99420700  1
  O  O40  1  0.61631400  0.32134700  0.60674200  1
  O  O41  1  0.18896500  0.45218000  0.90467600  1
  O  O42  1  0.73091700  0.20355800  0.13082500  1
  O  O43  1  0.73778300  0.30417500  0.80491000  1
  O  O44  1  0.55530900  0.74345600  0.00579300  1
  O  O45  1  0.81103500  0.54782000  0.09532400  1
  O  O46  1  0.04320600  0.04539500  0.31988200  1
  O  O47  1  0.51762000  0.57345400  0.78213900  1
  O  O48  1  0.80463700  0.40187100  0.43444200  1
  O  O49  1  0.58052900  0.76910100  0.59770900  1
