# generated using pymatgen
data_CuSeO3
_symmetry_space_group_name_H-M   'P 1'
_cell_length_a   4.81313700
_cell_length_b   8.92620768
_cell_length_c   10.73572073
_cell_angle_alpha   113.52618526
_cell_angle_beta   91.18854995
_cell_angle_gamma   90.25826236
_symmetry_Int_Tables_number   1
_chemical_formula_structural   CuSeO3
_chemical_formula_sum   'Cu6 Se6 O18'
_cell_volume   422.76803040
_cell_formula_units_Z   6
loop_
 _symmetry_equiv_pos_site_id
 _symmetry_equiv_pos_as_xyz
  1  'x, y, z'
loop_
 _atom_site_type_symbol
 _atom_site_label
 _atom_site_symmetry_multiplicity
 _atom_site_fract_x
 _atom_site_fract_y
 _atom_site_fract_z
 _atom_site_occupancy
  Cu  Cu0  1  0.46883600  0.99202100  0.74346500  1
  Cu  Cu1  1  0.03065400  0.64607000  0.66501600  1
  Cu  Cu2  1  0.00000000  0.00000000  0.00000000  1
  Cu  Cu3  1  0.53116400  0.00797900  0.25653500  1
  Cu  Cu4  1  0.00000000  0.00000000  0.50000000  1
  Cu  Cu5  1  0.96934600  0.35393000  0.33498400  1
  Se  Se6  1  0.57824300  0.69682000  0.87878300  1
  Se  Se7  1  0.54776200  0.72653200  0.47879500  1
  Se  Se8  1  0.42175700  0.30318000  0.12121700  1
  Se  Se9  1  0.98218500  0.24602600  0.82931300  1
  Se  Se10  1  0.45223800  0.27346800  0.52120500  1
  Se  Se11  1  0.01781500  0.75397400  0.17068700  1
  O  O12  1  0.12317900  0.07444200  0.85310400  1
  O  O13  1  0.70055900  0.92330300  0.57831000  1
  O  O14  1  0.72313300  0.55718000  0.73222600  1
  O  O15  1  0.36730300  0.78808800  0.17009600  1
  O  O16  1  0.93752100  0.80373700  0.33904000  1
  O  O17  1  0.31045400  0.77682000  0.61704300  1
  O  O18  1  0.63269700  0.21191200  0.82990400  1
  O  O19  1  0.22769700  0.69144600  0.83885900  1
  O  O20  1  0.29944100  0.07669700  0.42169000  1
  O  O21  1  0.69093900  0.88397000  0.87560700  1
  O  O22  1  0.79177700  0.60070600  0.50029100  1
  O  O23  1  0.20822300  0.39929400  0.49970900  1
  O  O24  1  0.77230300  0.30855400  0.16114100  1
  O  O25  1  0.30906100  0.11603000  0.12439300  1
  O  O26  1  0.68954600  0.22318000  0.38295700  1
  O  O27  1  0.87682100  0.92555800  0.14689600  1
  O  O28  1  0.27686700  0.44282000  0.26777400  1
  O  O29  1  0.06247900  0.19626300  0.66096000  1
