# generated using pymatgen
data_Fe2TeO5
_symmetry_space_group_name_H-M   'P 1'
_cell_length_a   5.04208700
_cell_length_b   7.77699200
_cell_length_c   10.95442865
_cell_angle_alpha   77.00578269
_cell_angle_beta   90.00000000
_cell_angle_gamma   90.00000000
_symmetry_Int_Tables_number   1
_chemical_formula_structural   Fe2TeO5
_chemical_formula_sum   'Fe8 Te4 O20'
_cell_volume   418.54847895
_cell_formula_units_Z   4
loop_
 _symmetry_equiv_pos_site_id
 _symmetry_equiv_pos_as_xyz
  1  'x, y, z'
loop_
 _atom_site_type_symbol
 _atom_site_label
 _atom_site_symmetry_multiplicity
 _atom_site_fract_x
 _atom_site_fract_y
 _atom_site_fract_z
 _atom_site_occupancy
  Fe  Fe0  1  0.04758100  0.18507400  0.90801100  1
  Fe  Fe1  1  0.95241900  0.81492600  0.09198900  1
  Fe  Fe2  1  0.54758100  0.81492600  0.59198900  1
  Fe  Fe3  1  0.42839500  0.03024900  0.13109900  1
  Fe  Fe4  1  0.57160500  0.96975100  0.86890100  1
  Fe  Fe5  1  0.07160500  0.03024900  0.63109900  1
  Fe  Fe6  1  0.45241900  0.18507400  0.40801100  1
  Fe  Fe7  1  0.92839500  0.96975100  0.36890100  1
  Te  Te8  1  0.06089700  0.64375500  0.83325900  1
  Te  Te9  1  0.93910300  0.35624500  0.16674100  1
  Te  Te10  1  0.56089700  0.35624500  0.66674100  1
  Te  Te11  1  0.43910300  0.64375500  0.33325900  1
  O  O12  1  0.87333100  0.10042100  0.76714900  1
  O  O13  1  0.70255600  0.74140100  0.43435300  1
  O  O14  1  0.25005600  0.94897100  0.48450600  1
  O  O15  1  0.20255600  0.25859900  0.06564700  1
  O  O16  1  0.87996200  0.42382200  0.83964000  1
  O  O17  1  0.37996200  0.57617800  0.66036000  1
  O  O18  1  0.75005600  0.05102900  0.01549400  1
  O  O19  1  0.12003800  0.57617800  0.16036000  1
  O  O20  1  0.12666900  0.89957900  0.23285100  1
  O  O21  1  0.60108800  0.76901500  0.18249600  1
  O  O22  1  0.24994400  0.94897100  0.98450600  1
  O  O23  1  0.79744400  0.74140100  0.93435300  1
  O  O24  1  0.89891200  0.76901500  0.68249600  1
  O  O25  1  0.10108800  0.23098500  0.31750400  1
  O  O26  1  0.62003800  0.42382200  0.33964000  1
  O  O27  1  0.37333100  0.89957900  0.73285100  1
  O  O28  1  0.29744400  0.25859900  0.56564700  1
  O  O29  1  0.74994400  0.05102900  0.51549400  1
  O  O30  1  0.39891200  0.23098500  0.81750400  1
  O  O31  1  0.62666900  0.10042100  0.26714900  1
