# generated using pymatgen
data_CeSe2
_symmetry_space_group_name_H-M   'P 1'
_cell_length_a   19.05656081
_cell_length_b   19.05656081
_cell_length_c   7.21439600
_cell_angle_alpha   90.00000000
_cell_angle_beta   90.00000000
_cell_angle_gamma   120.00000280
_symmetry_Int_Tables_number   1
_chemical_formula_structural   CeSe2
_chemical_formula_sum   'Ce12 Se24'
_cell_volume   2268.92242005
_cell_formula_units_Z   12
loop_
 _symmetry_equiv_pos_site_id
 _symmetry_equiv_pos_as_xyz
  1  'x, y, z'
loop_
 _atom_site_type_symbol
 _atom_site_label
 _atom_site_symmetry_multiplicity
 _atom_site_fract_x
 _atom_site_fract_y
 _atom_site_fract_z
 _atom_site_occupancy
  Ce  Ce0  1  0.34895700  0.48847900  0.52190400  1
  Ce  Ce1  1  0.13952200  0.65104300  0.52190400  1
  Ce  Ce2  1  0.51152100  0.86047800  0.52190400  1
  Ce  Ce3  1  0.86047800  0.51152100  0.02190400  1
  Ce  Ce4  1  0.65104300  0.13952200  0.02190400  1
  Ce  Ce5  1  0.48847900  0.34895700  0.02190400  1
  Ce  Ce6  1  0.65104300  0.51152100  0.47809600  1
  Ce  Ce7  1  0.86047800  0.34895700  0.47809600  1
  Ce  Ce8  1  0.48847900  0.13952200  0.47809600  1
  Ce  Ce9  1  0.13952200  0.48847900  0.97809600  1
  Ce  Ce10  1  0.34895700  0.86047800  0.97809600  1
  Ce  Ce11  1  0.51152100  0.65104300  0.97809600  1
  Se  Se12  1  0.38934600  0.77869300  0.75000000  1
  Se  Se13  1  0.38934600  0.61065400  0.75000000  1
  Se  Se14  1  0.22130700  0.61065400  0.75000000  1
  Se  Se15  1  0.61065400  0.22130700  0.25000000  1
  Se  Se16  1  0.61065400  0.38934600  0.25000000  1
  Se  Se17  1  0.77869300  0.38934600  0.25000000  1
  Se  Se18  1  0.39586300  0.79172500  0.25000000  1
  Se  Se19  1  0.39586300  0.60413700  0.25000000  1
  Se  Se20  1  0.20827500  0.60413700  0.25000000  1
  Se  Se21  1  0.60413700  0.20827500  0.75000000  1
  Se  Se22  1  0.60413700  0.39586300  0.75000000  1
  Se  Se23  1  0.79172500  0.39586300  0.75000000  1
  Se  Se24  1  0.50000000  0.50000000  0.50000000  1
  Se  Se25  1  0.00000000  0.50000000  0.50000000  1
  Se  Se26  1  0.50000000  0.00000000  0.50000000  1
  Se  Se27  1  0.00000000  0.50000000  0.00000000  1
  Se  Se28  1  0.50000000  0.00000000  0.00000000  1
  Se  Se29  1  0.50000000  0.50000000  0.00000000  1
  Se  Se30  1  0.20644200  0.79355800  0.75000000  1
  Se  Se31  1  0.58711700  0.79355800  0.75000000  1
  Se  Se32  1  0.20644200  0.41288300  0.75000000  1
  Se  Se33  1  0.41288300  0.20644200  0.25000000  1
  Se  Se34  1  0.79355800  0.58711700  0.25000000  1
  Se  Se35  1  0.79355800  0.20644200  0.25000000  1
