# generated using pymatgen
data_Na2USiO6
_symmetry_space_group_name_H-M   'P 1'
_cell_length_a   11.48715241
_cell_length_b   11.48715241
_cell_length_c   11.48715241
_cell_angle_alpha   111.85154814
_cell_angle_beta   111.85154814
_cell_angle_gamma   104.80878176
_symmetry_Int_Tables_number   1
_chemical_formula_structural   Na2USiO6
_chemical_formula_sum   'Na16 U8 Si8 O48'
_cell_volume   1161.11788027
_cell_formula_units_Z   8
loop_
 _symmetry_equiv_pos_site_id
 _symmetry_equiv_pos_as_xyz
  1  'x, y, z'
loop_
 _atom_site_type_symbol
 _atom_site_label
 _atom_site_symmetry_multiplicity
 _atom_site_fract_x
 _atom_site_fract_y
 _atom_site_fract_z
 _atom_site_occupancy
  Na  Na0  1  0.94521300  0.94521300  0.39042600  1
  Na  Na1  1  0.50000000  0.00000000  0.50000000  1
  Na  Na2  1  0.80478700  0.30478700  0.10957400  1
  Na  Na3  1  0.55478700  0.55478700  0.60957400  1
  Na  Na4  1  0.05478700  0.44521300  0.00000000  1
  Na  Na5  1  0.44521300  0.05478700  0.00000000  1
  Na  Na6  1  0.50000000  0.50000000  0.00000000  1
  Na  Na7  1  0.25000000  0.25000000  0.00000000  1
  Na  Na8  1  0.00000000  0.00000000  0.00000000  1
  Na  Na9  1  0.19521300  0.69521300  0.89042600  1
  Na  Na10  1  0.30478700  0.19521300  0.50000000  1
  Na  Na11  1  0.75000000  0.75000000  0.00000000  1
  Na  Na12  1  0.69521300  0.80478700  0.50000000  1
  Na  Na13  1  0.25000000  0.75000000  0.50000000  1
  Na  Na14  1  0.75000000  0.25000000  0.50000000  1
  Na  Na15  1  0.00000000  0.50000000  0.50000000  1
  U  U16  1  0.87500000  0.62500000  0.25000000  1
  U  U17  1  0.87500000  0.62500000  0.75000000  1
  U  U18  1  0.37500000  0.62500000  0.25000000  1
  U  U19  1  0.87500000  0.12500000  0.75000000  1
  U  U20  1  0.37500000  0.12500000  0.75000000  1
  U  U21  1  0.37500000  0.62500000  0.75000000  1
  U  U22  1  0.37500000  0.12500000  0.25000000  1
  U  U23  1  0.87500000  0.12500000  0.25000000  1
  Si  Si24  1  0.12500000  0.28442100  0.65942100  1
  Si  Si25  1  0.12500000  0.78442100  0.15942100  1
  Si  Si26  1  0.62500000  0.96557900  0.84057900  1
  Si  Si27  1  0.03442100  0.87500000  0.65942100  1
  Si  Si28  1  0.71557900  0.37500000  0.84057900  1
  Si  Si29  1  0.21557900  0.37500000  0.34057900  1
  Si  Si30  1  0.53442100  0.87500000  0.15942100  1
  Si  Si31  1  0.62500000  0.46557900  0.34057900  1
  O  O32  1  0.19709500  0.45139800  0.70941500  1
  O  O33  1  0.74257100  0.68999500  0.18572200  1
  O  O34  1  0.23768000  0.44709500  0.24569800  1
  O  O35  1  0.24198200  0.95139800  0.25430200  1
  O  O36  1  0.31675500  0.49639400  0.51797300  1
  O  O37  1  0.54860200  0.25801800  0.74569800  1
  O  O38  1  0.04860200  0.30290500  0.29058500  1
  O  O39  1  0.74198200  0.48768000  0.29058500  1
  O  O40  1  0.77157900  0.45121700  0.01797300  1
  O  O41  1  0.24639400  0.22842100  0.67963900  1
  O  O42  1  0.55290500  0.79860200  0.79058500  1
  O  O43  1  0.24572700  0.69315100  0.68572200  1
  O  O44  1  0.04878300  0.72842100  0.98202700  1
  O  O45  1  0.50427300  0.55684900  0.81427800  1
  O  O46  1  0.97842100  0.79878300  0.48202700  1
  O  O47  1  0.43999500  0.75427300  0.44742400  1
  O  O48  1  0.00360600  0.18324500  0.48202700  1
  O  O49  1  0.43324500  0.75360600  0.98202700  1
  O  O50  1  0.47842100  0.99639400  0.17963900  1
  O  O51  1  0.50801800  0.29860200  0.24569800  1
  O  O52  1  0.81000500  0.75742900  0.81427800  1
  O  O53  1  0.70139800  0.94709500  0.20941500  1
  O  O54  1  0.70121700  0.52157900  0.51797300  1
  O  O55  1  0.00801800  0.76232000  0.20941500  1
  O  O56  1  0.24257100  0.05684900  0.05257600  1
  O  O57  1  0.74572700  0.06000500  0.55257600  1
  O  O58  1  0.20139800  0.99198200  0.75430200  1
  O  O59  1  0.73768000  0.49198200  0.79058500  1
  O  O60  1  0.30684900  0.99257100  0.55257600  1
  O  O61  1  0.94315100  0.99572700  0.18572200  1
  O  O62  1  0.01232000  0.75801800  0.70941500  1
  O  O63  1  0.00427300  0.18999500  0.94742400  1
  O  O64  1  0.20121700  0.68324500  0.17963900  1
  O  O65  1  0.51232000  0.80290500  0.25430200  1
  O  O66  1  0.44315100  0.25742900  0.94742400  1
  O  O67  1  0.50742900  0.19315100  0.44742400  1
  O  O68  1  0.27157900  0.25360600  0.32036100  1
  O  O69  1  0.05290500  0.26232000  0.75430200  1
  O  O70  1  0.80684900  0.25427300  0.31427800  1
  O  O71  1  0.00742900  0.56000500  0.31427800  1
  O  O72  1  0.69709500  0.98768000  0.74569800  1
  O  O73  1  0.93324500  0.95121700  0.67963900  1
  O  O74  1  0.54878300  0.56675500  0.32036100  1
  O  O75  1  0.74639400  0.06675500  0.01797300  1
  O  O76  1  0.31000500  0.49572700  0.05257600  1
  O  O77  1  0.81675500  0.29878300  0.82036100  1
  O  O78  1  0.93999500  0.49257100  0.68572200  1
  O  O79  1  0.50360600  0.02157900  0.82036100  1
