# generated using pymatgen
data_HgCS(OF)3
_symmetry_space_group_name_H-M   'P 1'
_cell_length_a   5.33741500
_cell_length_b   5.35556274
_cell_length_c   11.30517323
_cell_angle_alpha   97.06036564
_cell_angle_beta   98.50903954
_cell_angle_gamma   94.85846079
_symmetry_Int_Tables_number   1
_chemical_formula_structural   HgCS(OF)3
_chemical_formula_sum   'Hg2 C2 S2 O6 F6'
_cell_volume   315.42889449
_cell_formula_units_Z   2
loop_
 _symmetry_equiv_pos_site_id
 _symmetry_equiv_pos_as_xyz
  1  'x, y, z'
loop_
 _atom_site_type_symbol
 _atom_site_label
 _atom_site_symmetry_multiplicity
 _atom_site_fract_x
 _atom_site_fract_y
 _atom_site_fract_z
 _atom_site_occupancy
  Hg  Hg0  1  0.85447300  0.82618300  0.42663900  1
  Hg  Hg1  1  0.14552700  0.17381700  0.57336100  1
  C  C2  1  0.80126400  0.67301300  0.83699600  1
  C  C3  1  0.19873600  0.32698700  0.16300400  1
  S  S4  1  0.59482500  0.63689700  0.68510800  1
  S  S5  1  0.40517500  0.36310300  0.31489200  1
  O  O6  1  0.73915400  0.50270500  0.60206800  1
  O  O7  1  0.63625900  0.51925800  0.29340000  1
  O  O8  1  0.36374100  0.48074200  0.70660000  1
  O  O9  1  0.26084600  0.49729500  0.39793200  1
  O  O10  1  0.45095600  0.10726000  0.33539800  1
  O  O11  1  0.54904400  0.89274000  0.66460200  1
  F  F12  1  0.01507300  0.82561000  0.83415200  1
  F  F13  1  0.86632100  0.44495000  0.86244900  1
  F  F14  1  0.67914800  0.77695000  0.92382000  1
  F  F15  1  0.98492700  0.17439000  0.16584800  1
  F  F16  1  0.32085200  0.22305000  0.07618000  1
  F  F17  1  0.13367900  0.55505000  0.13755100  1
