# generated using pymatgen
data_CS3(Br2N)2
_symmetry_space_group_name_H-M   'P 1'
_cell_length_a   7.92813800
_cell_length_b   11.11555300
_cell_length_c   12.45466200
_cell_angle_alpha   90.00000000
_cell_angle_beta   90.00000000
_cell_angle_gamma   90.00000000
_symmetry_Int_Tables_number   1
_chemical_formula_structural   CS3(Br2N)2
_chemical_formula_sum   'C4 S12 Br16 N8'
_cell_volume   1097.57503645
_cell_formula_units_Z   4
loop_
 _symmetry_equiv_pos_site_id
 _symmetry_equiv_pos_as_xyz
  1  'x, y, z'
loop_
 _atom_site_type_symbol
 _atom_site_label
 _atom_site_symmetry_multiplicity
 _atom_site_fract_x
 _atom_site_fract_y
 _atom_site_fract_z
 _atom_site_occupancy
  C  C0  1  0.94010400  0.44327000  0.50012700  1
  C  C1  1  0.44010400  0.44327000  0.99987300  1
  C  C2  1  0.55989600  0.94327000  0.00012700  1
  C  C3  1  0.05989600  0.94327000  0.49987300  1
  S  S4  1  0.29200700  0.01762500  0.92636000  1
  S  S5  1  0.79200700  0.01762500  0.57364000  1
  S  S6  1  0.76895800  0.42275000  0.58267200  1
  S  S7  1  0.46246700  0.36102900  0.12227000  1
  S  S8  1  0.20799300  0.51762500  0.42636000  1
  S  S9  1  0.70799300  0.51762500  0.07364000  1
  S  S10  1  0.73104200  0.92275000  0.08267200  1
  S  S11  1  0.53753300  0.86102900  0.87773000  1
  S  S12  1  0.23104200  0.92275000  0.41732800  1
  S  S13  1  0.26895800  0.42275000  0.91732800  1
  S  S14  1  0.96246700  0.36102900  0.37773000  1
  S  S15  1  0.03753300  0.86102900  0.62227000  1
  Br  Br16  1  0.10646100  0.24734700  0.08543400  1
  Br  Br17  1  0.36734200  0.70481400  0.20012800  1
  Br  Br18  1  0.86734200  0.70481400  0.29987200  1
  Br  Br19  1  0.89353900  0.74734700  0.91456600  1
  Br  Br20  1  0.63265800  0.20481400  0.79987200  1
  Br  Br21  1  0.66811500  0.04753500  0.21739600  1
  Br  Br22  1  0.39353900  0.74734700  0.58543400  1
  Br  Br23  1  0.16811500  0.04753500  0.28260400  1
  Br  Br24  1  0.60646100  0.24734700  0.41456600  1
  Br  Br25  1  0.83188500  0.54753500  0.71739600  1
  Br  Br26  1  0.35828300  0.22547200  0.56361400  1
  Br  Br27  1  0.14171700  0.72547200  0.06361400  1
  Br  Br28  1  0.33188500  0.54753500  0.78260400  1
  Br  Br29  1  0.64171700  0.72547200  0.43638600  1
  Br  Br30  1  0.85828300  0.22547200  0.93638600  1
  Br  Br31  1  0.13265800  0.20481400  0.70012800  1
  N  N32  1  0.14115200  0.42069900  0.34313100  1
  N  N33  1  0.43294100  0.01806000  0.01898400  1
  N  N34  1  0.64115200  0.42069900  0.15686900  1
  N  N35  1  0.35884800  0.92069900  0.84313100  1
  N  N36  1  0.85884800  0.92069900  0.65686900  1
  N  N37  1  0.06705900  0.51806000  0.51898400  1
  N  N38  1  0.56705900  0.51806000  0.98101600  1
  N  N39  1  0.93294100  0.01806000  0.48101600  1
