# generated using pymatgen
data_FeBi3(MoO6)2
_symmetry_space_group_name_H-M   'P 1'
_cell_length_a   10.41314650
_cell_length_b   10.41314650
_cell_length_c   5.34780073
_cell_angle_alpha   75.58856022
_cell_angle_beta   75.58856022
_cell_angle_gamma   69.25210574
_symmetry_Int_Tables_number   1
_chemical_formula_structural   FeBi3(MoO6)2
_chemical_formula_sum   'Fe2 Bi6 Mo4 O24'
_cell_volume   516.87694795
_cell_formula_units_Z   2
loop_
 _symmetry_equiv_pos_site_id
 _symmetry_equiv_pos_as_xyz
  1  'x, y, z'
loop_
 _atom_site_type_symbol
 _atom_site_label
 _atom_site_symmetry_multiplicity
 _atom_site_fract_x
 _atom_site_fract_y
 _atom_site_fract_z
 _atom_site_occupancy
  Fe  Fe0  1  0.88190800  0.11809200  0.25000000  1
  Fe  Fe1  1  0.11809200  0.88190800  0.75000000  1
  Bi  Bi2  1  0.03955700  0.26431200  0.58996600  1
  Bi  Bi3  1  0.34414200  0.65585800  0.25000000  1
  Bi  Bi4  1  0.65585800  0.34414200  0.75000000  1
  Bi  Bi5  1  0.96044300  0.73568800  0.41003400  1
  Bi  Bi6  1  0.26431200  0.03955700  0.08996600  1
  Bi  Bi7  1  0.73568800  0.96044300  0.91003400  1
  Mo  Mo8  1  0.46020600  0.20350200  0.42437900  1
  Mo  Mo9  1  0.20350200  0.46020600  0.92437900  1
  Mo  Mo10  1  0.53979400  0.79649800  0.57562100  1
  Mo  Mo11  1  0.79649800  0.53979400  0.07562100  1
  O  O12  1  0.07086300  0.49565400  0.73704200  1
  O  O13  1  0.59372300  0.17475500  0.62309000  1
  O  O14  1  0.87060300  0.95366200  0.50763900  1
  O  O15  1  0.36207000  0.45715500  0.69694600  1
  O  O16  1  0.15348000  0.74691900  0.52934900  1
  O  O17  1  0.82524500  0.40627700  0.87691000  1
  O  O18  1  0.74691900  0.15348000  0.02934900  1
  O  O19  1  0.63793000  0.54284500  0.30305400  1
  O  O20  1  0.92913700  0.50434600  0.26295800  1
  O  O21  1  0.78854500  0.70542800  0.85826500  1
  O  O22  1  0.17475500  0.59372300  0.12309000  1
  O  O23  1  0.50434600  0.92913700  0.76295800  1
  O  O24  1  0.84652000  0.25308100  0.47065100  1
  O  O25  1  0.12939700  0.04633800  0.49236100  1
  O  O26  1  0.21145500  0.29457200  0.14173500  1
  O  O27  1  0.54284500  0.63793000  0.80305400  1
  O  O28  1  0.29457200  0.21145500  0.64173500  1
  O  O29  1  0.40627700  0.82524500  0.37691000  1
  O  O30  1  0.25308100  0.84652000  0.97065100  1
  O  O31  1  0.45715500  0.36207000  0.19694600  1
  O  O32  1  0.49565400  0.07086300  0.23704200  1
  O  O33  1  0.04633800  0.12939700  0.99236100  1
  O  O34  1  0.95366200  0.87060300  0.00763900  1
  O  O35  1  0.70542800  0.78854500  0.35826500  1
