# generated using pymatgen
data_SiO2
_symmetry_space_group_name_H-M   'P 1'
_cell_length_a   4.91879600
_cell_length_b   8.76191400
_cell_length_c   10.58682300
_cell_angle_alpha   90.00000000
_cell_angle_beta   90.00000000
_cell_angle_gamma   90.00000000
_symmetry_Int_Tables_number   1
_chemical_formula_structural   SiO2
_chemical_formula_sum   'Si12 O24'
_cell_volume   456.27161264
_cell_formula_units_Z   12
loop_
 _symmetry_equiv_pos_site_id
 _symmetry_equiv_pos_as_xyz
  1  'x, y, z'
loop_
 _atom_site_type_symbol
 _atom_site_label
 _atom_site_symmetry_multiplicity
 _atom_site_fract_x
 _atom_site_fract_y
 _atom_site_fract_z
 _atom_site_occupancy
  Si  Si0  1  0.05780900  0.28682500  0.91575700  1
  Si  Si1  1  0.94219100  0.78682500  0.58424300  1
  Si  Si2  1  0.44219100  0.78682500  0.41575700  1
  Si  Si3  1  0.25000000  0.00000000  0.78210000  1
  Si  Si4  1  0.55780900  0.21317500  0.58424300  1
  Si  Si5  1  0.05780900  0.21317500  0.41575700  1
  Si  Si6  1  0.94219100  0.71317500  0.08424300  1
  Si  Si7  1  0.75000000  0.50000000  0.71790000  1
  Si  Si8  1  0.75000000  0.00000000  0.21790000  1
  Si  Si9  1  0.55780900  0.28682500  0.08424300  1
  Si  Si10  1  0.44219100  0.71317500  0.91575700  1
  Si  Si11  1  0.25000000  0.50000000  0.28210000  1
  O  O12  1  0.44499800  0.89067600  0.86877800  1
  O  O13  1  0.94499800  0.89067600  0.13122200  1
  O  O14  1  0.95697000  0.39560700  0.80128900  1
  O  O15  1  0.94499800  0.60932400  0.63122200  1
  O  O16  1  0.36979800  0.17938400  0.46021700  1
  O  O17  1  0.05500200  0.39067600  0.36877800  1
  O  O18  1  0.55500200  0.10932400  0.13122200  1
  O  O19  1  0.45697000  0.39560700  0.19871100  1
  O  O20  1  0.04303000  0.60439300  0.19871100  1
  O  O21  1  0.54303000  0.60439300  0.80128900  1
  O  O22  1  0.55500200  0.39067600  0.63122200  1
  O  O23  1  0.04303000  0.89560700  0.69871100  1
  O  O24  1  0.86979800  0.32061600  0.03978300  1
  O  O25  1  0.54303000  0.89560700  0.30128900  1
  O  O26  1  0.95697000  0.10439300  0.30128900  1
  O  O27  1  0.86979800  0.17938400  0.53978300  1
  O  O28  1  0.63020200  0.82061600  0.53978300  1
  O  O29  1  0.44499800  0.60932400  0.36877800  1
  O  O30  1  0.45697000  0.10439300  0.69871100  1
  O  O31  1  0.63020200  0.67938400  0.03978300  1
  O  O32  1  0.13020200  0.67938400  0.96021700  1
  O  O33  1  0.36979800  0.32061600  0.96021700  1
  O  O34  1  0.13020200  0.82061600  0.46021700  1
  O  O35  1  0.05500200  0.10932400  0.86877800  1
