# generated using pymatgen
data_TeC4(BrF3)2
_symmetry_space_group_name_H-M   'P 1'
_cell_length_a   9.36384700
_cell_length_b   11.06013959
_cell_length_c   11.32131638
_cell_angle_alpha   62.62520249
_cell_angle_beta   87.86268099
_cell_angle_gamma   88.64986158
_symmetry_Int_Tables_number   1
_chemical_formula_structural   TeC4(BrF3)2
_chemical_formula_sum   'Te4 C16 Br8 F24'
_cell_volume   1040.44684507
_cell_formula_units_Z   4
loop_
 _symmetry_equiv_pos_site_id
 _symmetry_equiv_pos_as_xyz
  1  'x, y, z'
loop_
 _atom_site_type_symbol
 _atom_site_label
 _atom_site_symmetry_multiplicity
 _atom_site_fract_x
 _atom_site_fract_y
 _atom_site_fract_z
 _atom_site_occupancy
  Te  Te0  1  0.91766800  0.11085700  0.63105800  1
  Te  Te1  1  0.08233200  0.88914300  0.36894200  1
  Te  Te2  1  0.21503800  0.33008200  0.20817700  1
  Te  Te3  1  0.78496200  0.66991800  0.79182300  1
  C  C4  1  0.66601900  0.11675700  0.82127000  1
  C  C5  1  0.65415400  0.52683200  0.63906500  1
  C  C6  1  0.63993200  0.54947300  0.74536300  1
  C  C7  1  0.33398100  0.88324300  0.17873000  1
  C  C8  1  0.48439500  0.79782800  0.79878600  1
  C  C9  1  0.13758700  0.22022600  0.75673700  1
  C  C10  1  0.99636100  0.76711200  0.28542800  1
  C  C11  1  0.38934600  0.24384600  0.14295000  1
  C  C12  1  0.34584600  0.47316800  0.36093500  1
  C  C13  1  0.86241300  0.77977400  0.24326300  1
  C  C14  1  0.51560500  0.20217200  0.20121400  1
  C  C15  1  0.36006800  0.45052700  0.25463700  1
  C  C16  1  0.00363900  0.23288800  0.71457200  1
  C  C17  1  0.70442100  0.12663600  0.70190900  1
  C  C18  1  0.29557900  0.87336400  0.29809100  1
  C  C19  1  0.61065400  0.75615400  0.85705000  1
  Br  Br20  1  0.03105500  0.12585100  0.13779100  1
  Br  Br21  1  0.20508600  0.53119600  0.96685400  1
  Br  Br22  1  0.13533700  0.66177400  0.59008000  1
  Br  Br23  1  0.96894500  0.87414900  0.86220900  1
  Br  Br24  1  0.23543100  0.10247200  0.46313300  1
  Br  Br25  1  0.86466300  0.33822600  0.40992000  1
  Br  Br26  1  0.79491400  0.46880400  0.03314600  1
  Br  Br27  1  0.76456900  0.89752800  0.53686700  1
  F  F28  1  0.39915300  0.85246500  0.38606200  1
  F  F29  1  0.53146600  0.12683800  0.85773500  1
  F  F30  1  0.75125400  0.58613800  0.54159900  1
  F  F31  1  0.44674400  0.79028300  0.69088400  1
  F  F32  1  0.92005600  0.33479100  0.71425300  1
  F  F33  1  0.24383800  0.90296600  0.08389100  1
  F  F34  1  0.57183700  0.44214600  0.61902500  1
  F  F35  1  0.36571800  0.23175000  0.03179600  1
  F  F36  1  0.38236300  0.85279100  0.84375600  1
  F  F37  1  0.46469500  0.51674300  0.16310200  1
  F  F38  1  0.63428200  0.76825000  0.96820400  1
  F  F39  1  0.55325600  0.20971700  0.30911600  1
  F  F40  1  0.80509200  0.69851400  0.20137900  1
  F  F41  1  0.46853400  0.87316200  0.14226500  1
  F  F42  1  0.75616200  0.09703400  0.91610900  1
  F  F43  1  0.24874600  0.41386200  0.45840100  1
  F  F44  1  0.77185800  0.87582900  0.23870400  1
  F  F45  1  0.07994400  0.66520900  0.28574700  1
  F  F46  1  0.22814200  0.12417100  0.76129600  1
  F  F47  1  0.19490800  0.30148600  0.79862100  1
  F  F48  1  0.53530500  0.48325700  0.83689800  1
  F  F49  1  0.42816300  0.55785400  0.38097500  1
  F  F50  1  0.60084700  0.14753500  0.61393800  1
  F  F51  1  0.61763700  0.14720900  0.15624400  1
