data_image0
_chemical_formula_structural       Ni4Yb4
_chemical_formula_sum              "Ni4 Yb4"
_cell_length_a       7.22764
_cell_length_b       4.03331
_cell_length_c       5.41193
_cell_angle_alpha    90
_cell_angle_beta     90
_cell_angle_gamma    90

_space_group_name_H-M_alt    "P 1"
_space_group_IT_number       1

loop_
  _space_group_symop_operation_xyz
  'x, y, z'

loop_
  _atom_site_type_symbol
  _atom_site_label
  _atom_site_symmetry_multiplicity
  _atom_site_fract_x
  _atom_site_fract_y
  _atom_site_fract_z
  _atom_site_occupancy
  Ni  Ni1       1.0  0.47200  0.75000  0.10000  1.0000
  Ni  Ni2       1.0  0.97200  0.75000  0.40000  1.0000
  Ni  Ni3       1.0  0.02840  0.25000  0.60000  1.0000
  Ni  Ni4       1.0  0.52800  0.25000  0.90000  1.0000
  Yb  Yb1       1.0  0.17900  0.25000  0.11800  1.0000
  Yb  Yb2       1.0  0.67900  0.25000  0.38200  1.0000
  Yb  Yb3       1.0  0.32100  0.75000  0.61800  1.0000
  Yb  Yb4       1.0  0.82100  0.75000  0.88200  1.0000
