# generated using pymatgen
data_K3V(SO)2
_symmetry_space_group_name_H-M   'P 1'
_cell_length_a   7.39834100
_cell_length_b   10.70643600
_cell_length_c   11.82921248
_cell_angle_alpha   58.17258961
_cell_angle_beta   90.00000000
_cell_angle_gamma   90.00000000
_symmetry_Int_Tables_number   1
_chemical_formula_structural   K3V(SO)2
_chemical_formula_sum   'K12 V4 S8 O8'
_cell_volume   796.10492075
_cell_formula_units_Z   4
loop_
 _symmetry_equiv_pos_site_id
 _symmetry_equiv_pos_as_xyz
  1  'x, y, z'
loop_
 _atom_site_type_symbol
 _atom_site_label
 _atom_site_symmetry_multiplicity
 _atom_site_fract_x
 _atom_site_fract_y
 _atom_site_fract_z
 _atom_site_occupancy
  K  K0  1  0.74105900  0.06334400  0.88245100  1
  K  K1  1  0.86446500  0.51575200  0.16028000  1
  K  K2  1  0.25894100  0.93665600  0.11754900  1
  K  K3  1  0.75894100  0.06334400  0.38245100  1
  K  K4  1  0.13553500  0.48424800  0.83972000  1
  K  K5  1  0.72466000  0.76899100  0.79350300  1
  K  K6  1  0.36446500  0.48424800  0.33972000  1
  K  K7  1  0.22466000  0.23100900  0.70649700  1
  K  K8  1  0.27534000  0.23100900  0.20649700  1
  K  K9  1  0.77534000  0.76899100  0.29350300  1
  K  K10  1  0.24105900  0.93665600  0.61754900  1
  K  K11  1  0.63553500  0.51575200  0.66028000  1
  V  V12  1  0.69906300  0.30665300  0.02830800  1
  V  V13  1  0.80093700  0.30665300  0.52830800  1
  V  V14  1  0.30093700  0.69334700  0.97169200  1
  V  V15  1  0.19906300  0.69334700  0.47169200  1
  S  S16  1  0.46539600  0.24961000  0.94310600  1
  S  S17  1  0.58068000  0.13935900  0.59106800  1
  S  S18  1  0.96539600  0.75039000  0.55689400  1
  S  S19  1  0.53460400  0.75039000  0.05689400  1
  S  S20  1  0.03460400  0.24961000  0.44310600  1
  S  S21  1  0.08068000  0.86064100  0.90893200  1
  S  S22  1  0.41932000  0.86064100  0.40893200  1
  S  S23  1  0.91932000  0.13935900  0.09106800  1
  O  O24  1  0.28424200  0.52456800  0.58537500  1
  O  O25  1  0.62973800  0.30492500  0.16620700  1
  O  O26  1  0.78424200  0.47543200  0.91462500  1
  O  O27  1  0.21575800  0.52456800  0.08537500  1
  O  O28  1  0.87026200  0.30492500  0.66620700  1
  O  O29  1  0.71575800  0.47543200  0.41462500  1
  O  O30  1  0.12973800  0.69507500  0.33379300  1
  O  O31  1  0.37026200  0.69507500  0.83379300  1
