# generated using pymatgen
data_SbTe7SXeCl(OF4)9
_symmetry_space_group_name_H-M   'P 1'
_cell_length_a   10.57369500
_cell_length_b   10.85859119
_cell_length_c   18.31994367
_cell_angle_alpha   98.10085612
_cell_angle_beta   97.73085267
_cell_angle_gamma   105.92284049
_symmetry_Int_Tables_number   1
_chemical_formula_structural   SbTe7SXeCl(OF4)9
_chemical_formula_sum   'Sb2 Te14 S2 Xe2 Cl2 O18 F72'
_cell_volume   1969.11559842
_cell_formula_units_Z   2
loop_
 _symmetry_equiv_pos_site_id
 _symmetry_equiv_pos_as_xyz
  1  'x, y, z'
loop_
 _atom_site_type_symbol
 _atom_site_label
 _atom_site_symmetry_multiplicity
 _atom_site_fract_x
 _atom_site_fract_y
 _atom_site_fract_z
 _atom_site_occupancy
  Sb  Sb0  1  0.50000000  0.00000000  0.00000000  1
  Sb  Sb1  1  0.00000000  0.50000000  0.50000000  1
  Te  Te2  1  0.29474700  0.98543800  0.14410000  1
  Te  Te3  1  0.70525300  0.01456200  0.85590000  1
  Te  Te4  1  0.36442000  0.12985000  0.60251200  1
  Te  Te5  1  0.76743400  0.96041500  0.13809900  1
  Te  Te6  1  0.62707200  0.35353800  0.05844100  1
  Te  Te7  1  0.66235000  0.37317200  0.39148800  1
  Te  Te8  1  0.89556600  0.26124000  0.61804500  1
  Te  Te9  1  0.10443400  0.73876000  0.38195500  1
  Te  Te10  1  0.23256600  0.03958500  0.86190100  1
  Te  Te11  1  0.37292800  0.64646200  0.94155900  1
  Te  Te12  1  0.33765000  0.62682800  0.60851200  1
  Te  Te13  1  0.63558000  0.87015000  0.39748800  1
  Te  Te14  1  0.87133600  0.71088800  0.62297000  1
  Te  Te15  1  0.12866400  0.28911200  0.37703000  1
  S  S16  1  0.14336700  0.45664000  0.13135200  1
  S  S17  1  0.85663300  0.54336000  0.86864800  1
  Xe  Xe18  1  0.53689500  0.37382400  0.75413700  1
  Xe  Xe19  1  0.46310500  0.62617600  0.24586300  1
  Cl  Cl20  1  0.09655800  0.32083300  0.04081000  1
  Cl  Cl21  1  0.90344200  0.67916700  0.95919000  1
  O  O22  1  0.87359100  0.42379900  0.88345600  1
  O  O23  1  0.36088600  0.23485100  0.69952500  1
  O  O24  1  0.67625600  0.99066400  0.05002300  1
  O  O25  1  0.90335300  0.62743700  0.53233900  1
  O  O26  1  0.12640900  0.57620100  0.11654400  1
  O  O27  1  0.82856600  0.37100700  0.44363600  1
  O  O28  1  0.17143400  0.62899300  0.55636400  1
  O  O29  1  0.73077000  0.54926800  0.82709400  1
  O  O30  1  0.26923000  0.45073200  0.17290600  1
  O  O31  1  0.02002800  0.57682900  0.40708500  1
  O  O32  1  0.97997200  0.42317100  0.59291500  1
  O  O33  1  0.58738800  0.18815200  0.99789700  1
  O  O34  1  0.55508600  0.95621000  0.90233700  1
  O  O35  1  0.63911400  0.76514900  0.30047500  1
  O  O36  1  0.09664700  0.37256300  0.46766100  1
  O  O37  1  0.32374400  0.00933600  0.94997700  1
  O  O38  1  0.44491400  0.04379000  0.09766300  1
  O  O39  1  0.41261200  0.81184800  0.00210300  1
  F  F40  1  0.94244700  0.74281300  0.32818400  1
  F  F41  1  0.44832600  0.33335500  0.06871000  1
  F  F42  1  0.31931000  0.95769300  0.79662200  1
  F  F43  1  0.13318200  0.07091500  0.77794600  1
  F  F44  1  0.05755300  0.25718700  0.67181600  1
  F  F45  1  0.46280800  0.28060300  0.57328800  1
  F  F46  1  0.60289800  0.91168200  0.76574800  1
  F  F47  1  0.83311500  0.79422900  0.71052400  1
  F  F48  1  0.13908200  0.12586600  0.92104900  1
  F  F49  1  0.76706600  0.55365000  0.64454400  1
  F  F50  1  0.38736000  0.54934200  0.52339800  1
  F  F51  1  0.20448100  0.15654700  0.56306100  1
  F  F52  1  0.23080800  0.12364600  0.12240300  1
  F  F53  1  0.19071800  0.60902500  0.94783900  1
  F  F54  1  0.02264100  0.69528600  0.68302400  1
  F  F55  1  0.86681800  0.92908500  0.22205400  1
  F  F56  1  0.42014200  0.79184000  0.58919900  1
  F  F57  1  0.33228100  0.47645800  0.88640200  1
  F  F58  1  0.86460800  0.34967200  0.70709500  1
  F  F59  1  0.86091800  0.87413400  0.07895100  1
  F  F60  1  0.90228300  0.11760900  0.14567200  1
  F  F61  1  0.03469500  0.39373600  0.17627600  1
  F  F62  1  0.36067400  0.20124700  0.86519400  1
  F  F63  1  0.30320300  0.70507200  0.69830200  1
  F  F64  1  0.27496600  0.74321100  0.42929200  1
  F  F65  1  0.28267400  0.26744600  0.43007700  1
  F  F66  1  0.36663800  0.03087300  0.51171900  1
  F  F67  1  0.63336200  0.96912700  0.48828100  1
  F  F68  1  0.49642400  0.36860400  0.33678900  1
  F  F69  1  0.16688500  0.20577100  0.28947600  1
  F  F70  1  0.69679700  0.29492800  0.30169800  1
  F  F71  1  0.55167400  0.66664500  0.93129000  1
  F  F72  1  0.63932600  0.79875300  0.13480600  1
  F  F73  1  0.23293400  0.44635000  0.35545600  1
  F  F74  1  0.71732600  0.73255400  0.56992300  1
  F  F75  1  0.91889000  0.16046000  0.53191300  1
  F  F76  1  0.39710200  0.08831800  0.23425200  1
  F  F77  1  0.47599300  0.89730600  0.35523900  1
  F  F78  1  0.09771700  0.88239100  0.85432800  1
  F  F79  1  0.72503400  0.25678900  0.57070800  1
  F  F80  1  0.39854300  0.57619700  0.02865200  1
  F  F81  1  0.68069000  0.04230700  0.20337800  1
  F  F82  1  0.81811200  0.12294100  0.94286100  1
  F  F83  1  0.66771900  0.52354200  0.11359800  1
  F  F84  1  0.26638000  0.98357800  0.63469600  1
  F  F85  1  0.84763200  0.06684200  0.80562400  1
  F  F86  1  0.34956200  0.84278200  0.16861100  1
  F  F87  1  0.76919200  0.87635400  0.87759700  1
  F  F88  1  0.96530500  0.60626400  0.82372400  1
  F  F89  1  0.13539200  0.65032800  0.29290500  1
  F  F90  1  0.61264000  0.45065800  0.47660200  1
  F  F91  1  0.18188800  0.87705900  0.05713900  1
  F  F92  1  0.53719200  0.71939700  0.42671200  1
  F  F93  1  0.66196000  0.29908700  0.14952800  1
  F  F94  1  0.57985800  0.20816000  0.41080100  1
  F  F95  1  0.65043800  0.15721800  0.83138900  1
  F  F96  1  0.02992400  0.12508200  0.39067500  1
  F  F97  1  0.27194900  0.46138600  0.63350800  1
  F  F98  1  0.97735900  0.30471400  0.31697600  1
  F  F99  1  0.08111000  0.83954000  0.46808700  1
  F  F100  1  0.80928200  0.39097500  0.05216100  1
  F  F101  1  0.52400700  0.10269400  0.64476100  1
  F  F102  1  0.73362000  0.01642200  0.36530400  1
  F  F103  1  0.72805100  0.53861400  0.36649200  1
  F  F104  1  0.18679200  0.89474000  0.35213700  1
  F  F105  1  0.81320800  0.10526000  0.64786300  1
  F  F106  1  0.60145700  0.42380300  0.97134800  1
  F  F107  1  0.33804000  0.70091300  0.85047200  1
  F  F108  1  0.15236800  0.93315800  0.19437600  1
  F  F109  1  0.79551900  0.84345300  0.43693900  1
  F  F110  1  0.97007600  0.87491800  0.60932500  1
  F  F111  1  0.50357600  0.63139600  0.66321100  1
