# generated using pymatgen
data_SiO2
_symmetry_space_group_name_H-M   'P 1'
_cell_length_a   15.78795887
_cell_length_b   15.78795887
_cell_length_c   15.78795887
_cell_angle_alpha   148.45885756
_cell_angle_beta   104.63612717
_cell_angle_gamma   83.97604606
_symmetry_Int_Tables_number   1
_chemical_formula_structural   SiO2
_chemical_formula_sum   'Si32 O64'
_cell_volume   1943.83165607
_cell_formula_units_Z   32
loop_
 _symmetry_equiv_pos_site_id
 _symmetry_equiv_pos_as_xyz
  1  'x, y, z'
loop_
 _atom_site_type_symbol
 _atom_site_label
 _atom_site_symmetry_multiplicity
 _atom_site_fract_x
 _atom_site_fract_y
 _atom_site_fract_z
 _atom_site_occupancy
  Si  Si0  1  0.12763100  0.34245200  0.41797900  1
  Si  Si1  1  0.87236900  0.29034800  0.21482100  1
  Si  Si2  1  0.88356000  0.94933200  0.56577100  1
  Si  Si3  1  0.25376300  0.82023100  0.06646800  1
  Si  Si4  1  0.11644000  0.68221100  0.06577100  1
  Si  Si5  1  0.07872600  0.87261500  0.58029200  1
  Si  Si6  1  0.20767700  0.50156600  0.08029200  1
  Si  Si7  1  0.07872600  0.49843400  0.20611100  1
  Si  Si8  1  0.11644000  0.05066800  0.43422900  1
  Si  Si9  1  0.42447300  0.34245200  0.71482100  1
  Si  Si10  1  0.39090800  0.10103900  0.65748000  1
  Si  Si11  1  0.12763100  0.70965200  0.78517900  1
  Si  Si12  1  0.05644200  0.89896100  0.78986900  1
  Si  Si13  1  0.94355800  0.73342800  0.84252000  1
  Si  Si14  1  0.57552700  0.29034800  0.91797900  1
  Si  Si15  1  0.20767700  0.12738500  0.70611100  1
  Si  Si16  1  0.92127400  0.50156600  0.79388900  1
  Si  Si17  1  0.57552700  0.65754800  0.28517900  1
  Si  Si18  1  0.92127400  0.12738500  0.41970800  1
  Si  Si19  1  0.79232300  0.87261500  0.29388900  1
  Si  Si20  1  0.05644200  0.26657200  0.15748000  1
  Si  Si21  1  0.74623700  0.81270500  0.56646800  1
  Si  Si22  1  0.74623700  0.17976900  0.93353200  1
  Si  Si23  1  0.79232300  0.49843400  0.91970800  1
  Si  Si24  1  0.39090800  0.73342800  0.28986900  1
  Si  Si25  1  0.42447300  0.70965200  0.08202100  1
  Si  Si26  1  0.60909200  0.26657200  0.71013100  1
  Si  Si27  1  0.88356000  0.31778900  0.93422900  1
  Si  Si28  1  0.87236900  0.65754800  0.58202100  1
  Si  Si29  1  0.94355800  0.10103900  0.21013100  1
  Si  Si30  1  0.25376300  0.18729500  0.43353200  1
  Si  Si31  1  0.60909200  0.89896100  0.34252000  1
  O  O32  1  0.38423400  0.92732600  0.45690800  1
  O  O33  1  0.84241700  0.42762800  0.94972900  1
  O  O34  1  0.81495100  0.85894800  0.54399700  1
  O  O35  1  0.87261800  0.71208400  0.72789600  1
  O  O36  1  0.48418800  0.71208400  0.33946600  1
  O  O37  1  0.84923200  0.00000000  0.34923200  1
  O  O38  1  0.03479000  0.24692300  0.35892800  1
  O  O39  1  0.02210100  0.10731300  0.44972900  1
  O  O40  1  0.97789900  0.89268700  0.55027100  1
  O  O41  1  0.72997100  0.97997100  0.75000000  1
  O  O42  1  0.15076800  0.00000000  0.65076800  1
  O  O43  1  0.89834100  0.08545700  0.27879900  1
  O  O44  1  0.34908200  0.76551200  0.05220500  1
  O  O45  1  0.02210100  0.57237200  0.91478800  1
  O  O46  1  0.84241700  0.89268700  0.41478800  1
  O  O47  1  0.78669300  0.70312300  0.55220500  1
  O  O48  1  0.61576600  0.07267400  0.54309200  1
  O  O49  1  0.12738200  0.28791600  0.27210400  1
  O  O50  1  0.65091800  0.70312300  0.41643000  1
  O  O51  1  0.78669300  0.23448800  0.08357000  1
  O  O52  1  0.15758300  0.10731300  0.58521200  1
  O  O53  1  0.44706800  0.54098400  0.90608400  1
  O  O54  1  0.89834100  0.61954200  0.81288500  1
  O  O55  1  0.51581200  0.28791600  0.66053400  1
  O  O56  1  0.18504900  0.14105200  0.45600300  1
  O  O57  1  0.55293200  0.45901600  0.09391600  1
  O  O58  1  0.13490000  0.54098400  0.59391600  1
  O  O59  1  0.21330700  0.29687700  0.44779500  1
  O  O60  1  0.91329700  0.31564600  0.59765100  1
  O  O61  1  0.12738200  0.85527800  0.83946600  1
  O  O62  1  0.87261800  0.14472200  0.16053400  1
  O  O63  1  0.38799500  0.67586200  0.14107200  1
  O  O64  1  0.30665800  0.61954200  0.22120100  1
  O  O65  1  0.15076800  0.50000000  0.15076800  1
  O  O66  1  0.38799500  0.24692300  0.71213300  1
  O  O67  1  0.78200500  0.68435400  0.09765100  1
  O  O68  1  0.96521000  0.75307700  0.64107200  1
  O  O69  1  0.08670300  0.68435400  0.40234900  1
  O  O70  1  0.61200500  0.75307700  0.28786700  1
  O  O71  1  0.51581200  0.85527800  0.22789600  1
  O  O72  1  0.48418800  0.14472200  0.77210400  1
  O  O73  1  0.96521000  0.32413800  0.21213300  1
  O  O74  1  0.21799500  0.31564600  0.90234900  1
  O  O75  1  0.90012800  0.15012800  0.75000000  1
  O  O76  1  0.61200500  0.32413800  0.85892800  1
  O  O77  1  0.81495100  0.27095300  0.95600300  1
  O  O78  1  0.18504900  0.72904700  0.04399700  1
  O  O79  1  0.10165900  0.38045800  0.18711500  1
  O  O80  1  0.69334200  0.38045800  0.77879900  1
  O  O81  1  0.09987200  0.84987200  0.25000000  1
  O  O82  1  0.69334200  0.91454300  0.31288500  1
  O  O83  1  0.97041800  0.92732600  0.04309200  1
  O  O84  1  0.97789900  0.42762800  0.08521200  1
  O  O85  1  0.21330700  0.76551200  0.91643000  1
  O  O86  1  0.84923200  0.50000000  0.84923200  1
  O  O87  1  0.65091800  0.23448800  0.94779500  1
  O  O88  1  0.34908200  0.29687700  0.58357000  1
  O  O89  1  0.30665800  0.08545700  0.68711500  1
  O  O90  1  0.15758300  0.57237200  0.05027100  1
  O  O91  1  0.03479000  0.67586200  0.78786700  1
  O  O92  1  0.86510000  0.45901600  0.40608400  1
  O  O93  1  0.10165900  0.91454300  0.72120100  1
  O  O94  1  0.27002900  0.02002900  0.25000000  1
  O  O95  1  0.02958200  0.07267400  0.95690800  1
