# generated using pymatgen
data_Hg2C2N2O
_symmetry_space_group_name_H-M   'P 1'
_cell_length_a   4.22622000
_cell_length_b   7.16279300
_cell_length_c   19.09468700
_cell_angle_alpha   90.00000000
_cell_angle_beta   90.00000000
_cell_angle_gamma   90.00000000
_symmetry_Int_Tables_number   1
_chemical_formula_structural   Hg2C2N2O
_chemical_formula_sum   'Hg8 C8 N8 O4'
_cell_volume   578.02556283
_cell_formula_units_Z   4
loop_
 _symmetry_equiv_pos_site_id
 _symmetry_equiv_pos_as_xyz
  1  'x, y, z'
loop_
 _atom_site_type_symbol
 _atom_site_label
 _atom_site_symmetry_multiplicity
 _atom_site_fract_x
 _atom_site_fract_y
 _atom_site_fract_z
 _atom_site_occupancy
  Hg  Hg0  1  0.25000000  0.13384300  0.84646700  1
  Hg  Hg1  1  0.75000000  0.86615700  0.15353300  1
  Hg  Hg2  1  0.75000000  0.80139900  0.97839100  1
  Hg  Hg3  1  0.25000000  0.19860100  0.02160900  1
  Hg  Hg4  1  0.75000000  0.69860100  0.47839100  1
  Hg  Hg5  1  0.75000000  0.63384300  0.65353300  1
  Hg  Hg6  1  0.25000000  0.30139900  0.52160900  1
  Hg  Hg7  1  0.25000000  0.36615700  0.34646700  1
  C  C8  1  0.25000000  0.06415400  0.58049300  1
  C  C9  1  0.75000000  0.71776600  0.24448400  1
  C  C10  1  0.25000000  0.21776600  0.25551600  1
  C  C11  1  0.75000000  0.56415400  0.91950700  1
  C  C12  1  0.75000000  0.93584600  0.41950700  1
  C  C13  1  0.25000000  0.43584600  0.08049300  1
  C  C14  1  0.25000000  0.28223400  0.75551600  1
  C  C15  1  0.75000000  0.78223400  0.74448400  1
  N  N16  1  0.25000000  0.37846800  0.70608700  1
  N  N17  1  0.25000000  0.12153200  0.20608700  1
  N  N18  1  0.75000000  0.08235500  0.39247200  1
  N  N19  1  0.75000000  0.87846800  0.79391300  1
  N  N20  1  0.25000000  0.58235500  0.10752800  1
  N  N21  1  0.25000000  0.91764500  0.60752800  1
  N  N22  1  0.75000000  0.62153200  0.29391300  1
  N  N23  1  0.75000000  0.41764500  0.89247200  1
  O  O24  1  0.75000000  0.50097000  0.55849000  1
  O  O25  1  0.75000000  0.99903000  0.05849000  1
  O  O26  1  0.25000000  0.49903000  0.44151000  1
  O  O27  1  0.25000000  0.00097000  0.94151000  1
