# generated using pymatgen
data_Sr2UNiO6
_symmetry_space_group_name_H-M   'P 1'
_cell_length_a   5.83560500
_cell_length_b   5.83833500
_cell_length_c   10.04655976
_cell_angle_alpha   54.87159407
_cell_angle_beta   90.00000000
_cell_angle_gamma   90.00000000
_symmetry_Int_Tables_number   1
_chemical_formula_structural   Sr2UNiO6
_chemical_formula_sum   'Sr4 U2 Ni2 O12'
_cell_volume   279.94560310
_cell_formula_units_Z   2
loop_
 _symmetry_equiv_pos_site_id
 _symmetry_equiv_pos_as_xyz
  1  'x, y, z'
loop_
 _atom_site_type_symbol
 _atom_site_label
 _atom_site_symmetry_multiplicity
 _atom_site_fract_x
 _atom_site_fract_y
 _atom_site_fract_z
 _atom_site_occupancy
  Sr  Sr0  1  0.47318900  0.73858900  0.75249000  1
  Sr  Sr1  1  0.02681100  0.73858900  0.25249000  1
  Sr  Sr2  1  0.52681100  0.26141100  0.24751000  1
  Sr  Sr3  1  0.97318900  0.26141100  0.74751000  1
  U  U4  1  0.50000000  0.00000000  0.00000000  1
  U  U5  1  0.00000000  0.00000000  0.50000000  1
  Ni  Ni6  1  0.00000000  0.50000000  0.00000000  1
  Ni  Ni7  1  0.50000000  0.50000000  0.50000000  1
  O  O8  1  0.48547800  0.82787200  0.24806100  1
  O  O9  1  0.77847600  0.31497300  0.46103400  1
  O  O10  1  0.72461200  0.73695000  0.54145600  1
  O  O11  1  0.77538800  0.73695000  0.04145600  1
  O  O12  1  0.27847600  0.68502700  0.03896600  1
  O  O13  1  0.72152400  0.31497300  0.96103400  1
  O  O14  1  0.51452200  0.17212800  0.75193900  1
  O  O15  1  0.01452200  0.82787200  0.74806100  1
  O  O16  1  0.27538800  0.26305000  0.45854400  1
  O  O17  1  0.22152400  0.68502700  0.53896600  1
  O  O18  1  0.22461200  0.26305000  0.95854400  1
  O  O19  1  0.98547800  0.17212800  0.25193900  1
