# generated using pymatgen
data_Ag2Mo2O7
_symmetry_space_group_name_H-M   'P 1'
_cell_length_a   13.39814300
_cell_length_b   6.19747500
_cell_length_c   8.08421812
_cell_angle_alpha   69.69116202
_cell_angle_beta   90.00000000
_cell_angle_gamma   90.00000000
_symmetry_Int_Tables_number   1
_chemical_formula_structural   Ag2Mo2O7
_chemical_formula_sum   'Ag8 Mo8 O28'
_cell_volume   629.54103041
_cell_formula_units_Z   4
loop_
 _symmetry_equiv_pos_site_id
 _symmetry_equiv_pos_as_xyz
  1  'x, y, z'
loop_
 _atom_site_type_symbol
 _atom_site_label
 _atom_site_symmetry_multiplicity
 _atom_site_fract_x
 _atom_site_fract_y
 _atom_site_fract_z
 _atom_site_occupancy
  Ag  Ag0  1  0.22757100  0.92222600  0.52767600  1
  Ag  Ag1  1  0.09544000  0.45706300  0.40797300  1
  Ag  Ag2  1  0.77242900  0.07777400  0.47232400  1
  Ag  Ag3  1  0.27242900  0.92222600  0.02767600  1
  Ag  Ag4  1  0.90456000  0.54293700  0.59202700  1
  Ag  Ag5  1  0.40456000  0.45706300  0.90797300  1
  Ag  Ag6  1  0.59544000  0.54293700  0.09202700  1
  Ag  Ag7  1  0.72757100  0.07777400  0.97232400  1
  Mo  Mo8  1  0.99504600  0.96961400  0.80279600  1
  Mo  Mo9  1  0.50495400  0.96961400  0.30279600  1
  Mo  Mo10  1  0.12148200  0.47787900  0.89805200  1
  Mo  Mo11  1  0.49504600  0.03038600  0.69720400  1
  Mo  Mo12  1  0.87851800  0.52212100  0.10194800  1
  Mo  Mo13  1  0.37851800  0.47787900  0.39805200  1
  Mo  Mo14  1  0.00495400  0.03038600  0.19720400  1
  Mo  Mo15  1  0.62148200  0.52212100  0.60194800  1
  O  O16  1  0.13920300  0.75420600  0.93033000  1
  O  O17  1  0.42869400  0.05786400  0.11251500  1
  O  O18  1  0.12305200  0.56161200  0.66335400  1
  O  O19  1  0.04296900  0.35175800  0.15439100  1
  O  O20  1  0.07130600  0.05786400  0.61251500  1
  O  O21  1  0.73570300  0.67035100  0.53432500  1
  O  O22  1  0.95651600  0.82130900  0.08187300  1
  O  O23  1  0.12073500  0.89289300  0.27414000  1
  O  O24  1  0.26429700  0.32964900  0.46567500  1
  O  O25  1  0.54348400  0.82130900  0.58187300  1
  O  O26  1  0.37694800  0.56161200  0.16335400  1
  O  O27  1  0.37926500  0.89289300  0.77414000  1
  O  O28  1  0.62073500  0.10710700  0.22586000  1
  O  O29  1  0.86079700  0.24579400  0.06967000  1
  O  O30  1  0.23570300  0.32964900  0.96567500  1
  O  O31  1  0.45651600  0.17869100  0.41812700  1
  O  O32  1  0.87694800  0.43838800  0.33664600  1
  O  O33  1  0.92869400  0.94213600  0.38748500  1
  O  O34  1  0.57130600  0.94213600  0.88748500  1
  O  O35  1  0.36079700  0.75420600  0.43033000  1
  O  O36  1  0.62305200  0.43838800  0.83664600  1
  O  O37  1  0.54296900  0.64824200  0.34560900  1
  O  O38  1  0.63920300  0.24579400  0.56967000  1
  O  O39  1  0.04348400  0.17869100  0.91812700  1
  O  O40  1  0.76429700  0.67035100  0.03432500  1
  O  O41  1  0.45703100  0.35175800  0.65439100  1
  O  O42  1  0.95703100  0.64824200  0.84560900  1
  O  O43  1  0.87926500  0.10710700  0.72586000  1
