# generated using pymatgen
data_CsCrClO3
_symmetry_space_group_name_H-M   'P 1'
_cell_length_a   6.19746700
_cell_length_b   9.01225600
_cell_length_c   10.22199900
_cell_angle_alpha   90.00000000
_cell_angle_beta   90.00000000
_cell_angle_gamma   90.00000000
_symmetry_Int_Tables_number   1
_chemical_formula_structural   CsCrClO3
_chemical_formula_sum   'Cs4 Cr4 Cl4 O12'
_cell_volume   570.93093703
_cell_formula_units_Z   4
loop_
 _symmetry_equiv_pos_site_id
 _symmetry_equiv_pos_as_xyz
  1  'x, y, z'
loop_
 _atom_site_type_symbol
 _atom_site_label
 _atom_site_symmetry_multiplicity
 _atom_site_fract_x
 _atom_site_fract_y
 _atom_site_fract_z
 _atom_site_occupancy
  Cs  Cs0  1  0.75000000  0.88221700  0.79252700  1
  Cs  Cs1  1  0.25000000  0.38221700  0.70747300  1
  Cs  Cs2  1  0.75000000  0.61778300  0.29252700  1
  Cs  Cs3  1  0.25000000  0.11778300  0.20747300  1
  Cr  Cr4  1  0.25000000  0.76287500  0.51690700  1
  Cr  Cr5  1  0.75000000  0.23712500  0.48309300  1
  Cr  Cr6  1  0.25000000  0.73712500  0.01690700  1
  Cr  Cr7  1  0.75000000  0.26287500  0.98309300  1
  Cl  Cl8  1  0.25000000  0.51707300  0.10949300  1
  Cl  Cl9  1  0.25000000  0.98292700  0.60949300  1
  Cl  Cl10  1  0.75000000  0.01707300  0.39050700  1
  Cl  Cl11  1  0.75000000  0.48292700  0.89050700  1
  O  O12  1  0.75000000  0.21520600  0.64085900  1
  O  O13  1  0.75000000  0.28479400  0.14085900  1
  O  O14  1  0.46561700  0.82638700  0.06226200  1
  O  O15  1  0.25000000  0.71520600  0.85914100  1
  O  O16  1  0.96561700  0.32638700  0.43773800  1
  O  O17  1  0.25000000  0.78479400  0.35914100  1
  O  O18  1  0.53438300  0.17361300  0.93773800  1
  O  O19  1  0.03438300  0.67361300  0.56226200  1
  O  O20  1  0.46561700  0.67361300  0.56226200  1
  O  O21  1  0.96561700  0.17361300  0.93773800  1
  O  O22  1  0.53438300  0.32638700  0.43773800  1
  O  O23  1  0.03438300  0.82638700  0.06226200  1
