# generated using pymatgen
data_K2CuF4
_symmetry_space_group_name_H-M   'P 1'
_cell_length_a   13.59507752
_cell_length_b   13.59507752
_cell_length_c   13.59507752
_cell_angle_alpha   154.93307123
_cell_angle_beta   154.93307123
_cell_angle_gamma   35.74480096
_symmetry_Int_Tables_number   1
_chemical_formula_structural   K2CuF4
_chemical_formula_sum   'K8 Cu4 F16'
_cell_volume   450.48789712
_cell_formula_units_Z   4
loop_
 _symmetry_equiv_pos_site_id
 _symmetry_equiv_pos_as_xyz
  1  'x, y, z'
loop_
 _atom_site_type_symbol
 _atom_site_label
 _atom_site_symmetry_multiplicity
 _atom_site_fract_x
 _atom_site_fract_y
 _atom_site_fract_z
 _atom_site_occupancy
  K  K0  1  0.92843800  0.92843800  0.00000000  1
  K  K1  1  0.07156200  0.07156200  0.00000000  1
  K  K2  1  0.42843800  0.42843800  0.00000000  1
  K  K3  1  0.57156200  0.57156200  0.00000000  1
  K  K4  1  0.82071200  0.32071200  0.50000000  1
  K  K5  1  0.17928800  0.67928800  0.50000000  1
  K  K6  1  0.67928800  0.17928800  0.50000000  1
  K  K7  1  0.32071200  0.82071200  0.50000000  1
  Cu  Cu8  1  0.00000000  0.50000000  0.50000000  1
  Cu  Cu9  1  0.50000000  0.00000000  0.50000000  1
  Cu  Cu10  1  0.25000000  0.25000000  0.00000000  1
  Cu  Cu11  1  0.75000000  0.75000000  0.00000000  1
  F  F12  1  0.67362000  0.67362000  0.00000000  1
  F  F13  1  0.50000000  0.00000000  0.00000000  1
  F  F14  1  0.57691600  0.07691600  0.50000000  1
  F  F15  1  0.00000000  0.00000000  0.50000000  1
  F  F16  1  0.26739000  0.23261000  0.50000000  1
  F  F17  1  0.32638000  0.32638000  0.00000000  1
  F  F18  1  0.07691600  0.57691600  0.50000000  1
  F  F19  1  0.42308400  0.92308400  0.50000000  1
  F  F20  1  0.82638000  0.82638000  0.00000000  1
  F  F21  1  0.50000000  0.50000000  0.50000000  1
  F  F22  1  0.73261000  0.76739000  0.50000000  1
  F  F23  1  0.92308400  0.42308400  0.50000000  1
  F  F24  1  0.23261000  0.73261000  0.96522100  1
  F  F25  1  0.17362000  0.17362000  0.00000000  1
  F  F26  1  0.76739000  0.26739000  0.03477900  1
  F  F27  1  0.00000000  0.50000000  0.00000000  1
