# generated using pymatgen
data_Si2Ag6O7
_symmetry_space_group_name_H-M   'P 1'
_cell_length_a   8.18226626
_cell_length_b   8.18226626
_cell_length_c   10.85646712
_cell_angle_alpha   76.93463801
_cell_angle_beta   76.93463801
_cell_angle_gamma   74.67013209
_symmetry_Int_Tables_number   1
_chemical_formula_structural   Si2Ag6O7
_chemical_formula_sum   'Si6 Ag18 O21'
_cell_volume   672.04455996
_cell_formula_units_Z   3
loop_
 _symmetry_equiv_pos_site_id
 _symmetry_equiv_pos_as_xyz
  1  'x, y, z'
loop_
 _atom_site_type_symbol
 _atom_site_label
 _atom_site_symmetry_multiplicity
 _atom_site_fract_x
 _atom_site_fract_y
 _atom_site_fract_z
 _atom_site_occupancy
  Si  Si0  1  0.89483300  0.89483300  0.12670100  1
  Si  Si1  1  0.10516700  0.10516700  0.87329900  1
  Si  Si2  1  0.80278800  0.80278800  0.61737200  1
  Si  Si3  1  0.34392100  0.34392100  0.87245200  1
  Si  Si4  1  0.19721200  0.19721200  0.38262800  1
  Si  Si5  1  0.65607900  0.65607900  0.12754800  1
  Ag  Ag6  1  0.72500500  0.44002000  0.86139500  1
  Ag  Ag7  1  0.27499500  0.55998000  0.13860500  1
  Ag  Ag8  1  0.44917100  0.10401300  0.62059800  1
  Ag  Ag9  1  0.54114900  0.54114900  0.63565400  1
  Ag  Ag10  1  0.99640700  0.63744800  0.86526700  1
  Ag  Ag11  1  0.89598700  0.55082900  0.37940200  1
  Ag  Ag12  1  0.85988500  0.16182400  0.65699800  1
  Ag  Ag13  1  0.00359300  0.36255200  0.13473300  1
  Ag  Ag14  1  0.16182400  0.85988500  0.65699800  1
  Ag  Ag15  1  0.55082900  0.89598700  0.37940200  1
  Ag  Ag16  1  0.44002000  0.72500500  0.86139500  1
  Ag  Ag17  1  0.36255200  0.00359300  0.13473300  1
  Ag  Ag18  1  0.45885100  0.45885100  0.36434600  1
  Ag  Ag19  1  0.55998000  0.27499500  0.13860500  1
  Ag  Ag20  1  0.10401300  0.44917100  0.62059800  1
  Ag  Ag21  1  0.83817600  0.14011500  0.34300200  1
  Ag  Ag22  1  0.14011500  0.83817600  0.34300200  1
  Ag  Ag23  1  0.63744800  0.99640700  0.86526700  1
  O  O24  1  0.24636200  0.24636200  0.22176900  1
  O  O25  1  0.24920500  0.52509200  0.92670500  1
  O  O26  1  0.62597800  0.62597800  0.28589200  1
  O  O27  1  0.47490800  0.75079500  0.07329500  1
  O  O28  1  0.73986300  0.01359000  0.57062400  1
  O  O29  1  0.02548200  0.75283600  0.21336200  1
  O  O30  1  0.75079500  0.47490800  0.07329500  1
  O  O31  1  0.24716400  0.97451800  0.78663800  1
  O  O32  1  0.29442800  0.29442800  0.45355500  1
  O  O33  1  0.97451800  0.24716400  0.78663800  1
  O  O34  1  0.98641000  0.26013700  0.42937600  1
  O  O35  1  0.52509200  0.24920500  0.92670500  1
  O  O36  1  0.79025800  0.79025800  0.06757200  1
  O  O37  1  0.70557200  0.70557200  0.54644500  1
  O  O38  1  0.75363800  0.75363800  0.77823100  1
  O  O39  1  0.20974200  0.20974200  0.93242800  1
  O  O40  1  0.37402200  0.37402200  0.71410800  1
  O  O41  1  0.75283600  0.02548200  0.21336200  1
  O  O42  1  0.00000000  0.00000000  0.00000000  1
  O  O43  1  0.01359000  0.73986300  0.57062400  1
  O  O44  1  0.26013700  0.98641000  0.42937600  1
