# generated using pymatgen
data_MgF2
_symmetry_space_group_name_H-M   'P 1'
_cell_length_a   5.58789219
_cell_length_b   5.58789219
_cell_length_c   6.76364889
_cell_angle_alpha   54.04647406
_cell_angle_beta   54.04647406
_cell_angle_gamma   41.27429442
_symmetry_Int_Tables_number   1
_chemical_formula_structural   MgF2
_chemical_formula_sum   'Mg2 F4'
_cell_volume   108.48618084
_cell_formula_units_Z   2
loop_
 _symmetry_equiv_pos_site_id
 _symmetry_equiv_pos_as_xyz
  1  'x, y, z'
loop_
 _atom_site_type_symbol
 _atom_site_label
 _atom_site_symmetry_multiplicity
 _atom_site_fract_x
 _atom_site_fract_y
 _atom_site_fract_z
 _atom_site_occupancy
  Mg  Mg0  1  0.89540300  0.89540300  0.84913300  1
  Mg  Mg1  1  0.10459700  0.10459700  0.15086700  1
  F  F2  1  0.64879900  0.64879900  0.10405500  1
  F  F3  1  0.00000000  0.00000000  0.50000000  1
  F  F4  1  0.35120100  0.35120100  0.89594500  1
  F  F5  1  0.00000000  0.00000000  0.00000000  1
