# generated using pymatgen
data_BaWO4
_symmetry_space_group_name_H-M   'P 1'
_cell_length_a   5.90283400
_cell_length_b   4.19704300
_cell_length_c   7.84108152
_cell_angle_alpha   75.24747345
_cell_angle_beta   90.00000000
_cell_angle_gamma   90.00000000
_symmetry_Int_Tables_number   1
_chemical_formula_structural   BaWO4
_chemical_formula_sum   'Ba2 W2 O8'
_cell_volume   187.85468076
_cell_formula_units_Z   2
loop_
 _symmetry_equiv_pos_site_id
 _symmetry_equiv_pos_as_xyz
  1  'x, y, z'
loop_
 _atom_site_type_symbol
 _atom_site_label
 _atom_site_symmetry_multiplicity
 _atom_site_fract_x
 _atom_site_fract_y
 _atom_site_fract_z
 _atom_site_occupancy
  Ba  Ba0  1  0.25000000  0.82177100  0.32303800  1
  Ba  Ba1  1  0.75000000  0.17822900  0.67696200  1
  W  W2  1  0.75000000  0.35300300  0.17733800  1
  W  W3  1  0.25000000  0.64699700  0.82266200  1
  O  O4  1  0.47156200  0.68338000  0.64897300  1
  O  O5  1  0.52843800  0.31662000  0.35102700  1
  O  O6  1  0.02843800  0.68338000  0.64897300  1
  O  O7  1  0.25000000  0.08082400  0.83698300  1
  O  O8  1  0.97156200  0.31662000  0.35102700  1
  O  O9  1  0.50000000  0.50000000  0.00000000  1
  O  O10  1  0.75000000  0.91917600  0.16301700  1
  O  O11  1  0.00000000  0.50000000  0.00000000  1
