# generated using pymatgen
data_MgGaMo4O7
_symmetry_space_group_name_H-M   'P 1'
_cell_length_a   9.45350162
_cell_length_b   9.45350162
_cell_length_c   9.45350162
_cell_angle_alpha   144.08107258
_cell_angle_beta   142.07525901
_cell_angle_gamma   53.22553721
_symmetry_Int_Tables_number   1
_chemical_formula_structural   MgGaMo4O7
_chemical_formula_sum   'Mg2 Ga2 Mo8 O14'
_cell_volume   302.72640950
_cell_formula_units_Z   2
loop_
 _symmetry_equiv_pos_site_id
 _symmetry_equiv_pos_as_xyz
  1  'x, y, z'
loop_
 _atom_site_type_symbol
 _atom_site_label
 _atom_site_symmetry_multiplicity
 _atom_site_fract_x
 _atom_site_fract_y
 _atom_site_fract_z
 _atom_site_occupancy
  Mg  Mg0  1  0.00000000  0.50000000  0.50000000  1
  Mg  Mg1  1  0.50000000  0.50000000  0.00000000  1
  Ga  Ga2  1  0.69489400  0.94489400  0.75000000  1
  Ga  Ga3  1  0.30510600  0.05510600  0.25000000  1
  Mo  Mo4  1  0.11285400  0.63488500  0.02203100  1
  Mo  Mo5  1  0.22680200  0.74638000  0.48042200  1
  Mo  Mo6  1  0.77319800  0.25362000  0.51957800  1
  Mo  Mo7  1  0.88714600  0.36511500  0.97796900  1
  Mo  Mo8  1  0.23404200  0.25362000  0.98042200  1
  Mo  Mo9  1  0.11285400  0.09082300  0.47796900  1
  Mo  Mo10  1  0.88714600  0.90917700  0.52203100  1
  Mo  Mo11  1  0.76595800  0.74638000  0.01957800  1
  O  O12  1  0.24214000  0.24966400  0.50752400  1
  O  O13  1  0.24214000  0.73461700  0.99247600  1
  O  O14  1  0.61027200  0.12710400  0.48316900  1
  O  O15  1  0.09928700  0.62406200  0.47522400  1
  O  O16  1  0.90071300  0.37593800  0.52477600  1
  O  O17  1  0.85606500  0.87289600  0.98316900  1
  O  O18  1  0.38972800  0.87289600  0.51683100  1
  O  O19  1  0.14393500  0.12710400  0.01683100  1
  O  O20  1  0.50000000  0.00000000  0.00000000  1
  O  O21  1  0.64883800  0.62406200  0.02477600  1
  O  O22  1  0.35116200  0.37593800  0.97522400  1
  O  O23  1  0.75786000  0.75033600  0.49247600  1
  O  O24  1  0.75786000  0.26538300  0.00752400  1
  O  O25  1  0.50000000  0.50000000  0.50000000  1
