# generated using pymatgen
data_SiH8C2NClO
_symmetry_space_group_name_H-M   'P 1'
_cell_length_a   5.92538300
_cell_length_b   6.73017938
_cell_length_c   9.03572234
_cell_angle_alpha   100.93486809
_cell_angle_beta   101.46509600
_cell_angle_gamma   96.25128808
_symmetry_Int_Tables_number   1
_chemical_formula_structural   SiH8C2NClO
_chemical_formula_sum   'Si2 H16 C4 N2 Cl2 O2'
_cell_volume   342.68527014
_cell_formula_units_Z   2
loop_
 _symmetry_equiv_pos_site_id
 _symmetry_equiv_pos_as_xyz
  1  'x, y, z'
loop_
 _atom_site_type_symbol
 _atom_site_label
 _atom_site_symmetry_multiplicity
 _atom_site_fract_x
 _atom_site_fract_y
 _atom_site_fract_z
 _atom_site_occupancy
  Si  Si0  1  0.94041800  0.29671600  0.67974700  1
  Si  Si1  1  0.05958200  0.70328400  0.32025300  1
  H  H2  1  0.48949500  0.89887200  0.74608500  1
  H  H3  1  0.84356100  0.48848300  0.71988600  1
  H  H4  1  0.75411300  0.84889700  0.85968000  1
  H  H5  1  0.82720200  0.15585800  0.52978000  1
  H  H6  1  0.51207100  0.22098900  0.93336700  1
  H  H7  1  0.24588700  0.15110300  0.14032000  1
  H  H8  1  0.21788400  0.81712500  0.95100800  1
  H  H9  1  0.48792900  0.77901100  0.06663300  1
  H  H10  1  0.23642200  0.58948300  0.02703800  1
  H  H11  1  0.78211600  0.18287500  0.04899200  1
  H  H12  1  0.27018400  0.14359200  0.34095500  1
  H  H13  1  0.15643900  0.51151700  0.28011400  1
  H  H14  1  0.72981600  0.85640800  0.65904500  1
  H  H15  1  0.51050500  0.10112800  0.25391500  1
  H  H16  1  0.76357800  0.41051700  0.97296200  1
  H  H17  1  0.17279800  0.84414200  0.47022000  1
  C  C18  1  0.31951300  0.07684000  0.23378200  1
  C  C19  1  0.68048700  0.92316000  0.76621800  1
  C  C20  1  0.70262900  0.24560900  0.95028400  1
  C  C21  1  0.29737100  0.75439100  0.04971600  1
  N  N22  1  0.24003400  0.85612200  0.19234600  1
  N  N23  1  0.75996600  0.14387800  0.80765400  1
  Cl  Cl24  1  0.27058000  0.40710600  0.64317700  1
  Cl  Cl25  1  0.72942000  0.59289400  0.35682300  1
  O  O26  1  0.02019500  0.18058900  0.82853400  1
  O  O27  1  0.97980500  0.81941100  0.17146600  1
