# generated using pymatgen
data_Na2Be(SiO3)2
_symmetry_space_group_name_H-M   'P 1'
_cell_length_a   15.32717751
_cell_length_b   11.60258429
_cell_length_c   11.20562817
_cell_angle_alpha   84.42449524
_cell_angle_beta   48.88688238
_cell_angle_gamma   46.68862238
_symmetry_Int_Tables_number   1
_chemical_formula_structural   Na2Be(SiO3)2
_chemical_formula_sum   'Na12 Be6 Si12 O36'
_cell_volume   834.32457104
_cell_formula_units_Z   6
loop_
 _symmetry_equiv_pos_site_id
 _symmetry_equiv_pos_as_xyz
  1  'x, y, z'
loop_
 _atom_site_type_symbol
 _atom_site_label
 _atom_site_symmetry_multiplicity
 _atom_site_fract_x
 _atom_site_fract_y
 _atom_site_fract_z
 _atom_site_occupancy
  Na  Na0  1  0.81919000  0.81919000  0.18081000  1
  Na  Na1  1  0.50815600  0.86562300  0.15802100  1
  Na  Na2  1  0.18081000  0.18081000  0.81919000  1
  Na  Na3  1  0.74184400  0.38437700  0.09197900  1
  Na  Na4  1  0.43081000  0.43081000  0.06919000  1
  Na  Na5  1  0.38437700  0.74184400  0.78180000  1
  Na  Na6  1  0.06919000  0.06919000  0.43081000  1
  Na  Na7  1  0.78180000  0.09197900  0.38437700  1
  Na  Na8  1  0.46820000  0.15802100  0.86562300  1
  Na  Na9  1  0.86562300  0.50815600  0.46820000  1
  Na  Na10  1  0.09197900  0.78180000  0.74184400  1
  Na  Na11  1  0.15802100  0.46820000  0.50815600  1
  Be  Be12  1  0.56568800  0.93431200  0.56568800  1
  Be  Be13  1  0.31568800  0.68431200  0.31568800  1
  Be  Be14  1  0.68431200  0.31568800  0.68431200  1
  Be  Be15  1  0.25000000  0.25000000  0.25000000  1
  Be  Be16  1  0.93431200  0.56568800  0.93431200  1
  Be  Be17  1  0.00000000  0.00000000  0.00000000  1
  Si  Si18  1  0.34396400  0.34396400  0.65603600  1
  Si  Si19  1  0.00609800  0.34563700  0.67589000  1
  Si  Si20  1  0.90436300  0.24390200  0.27762500  1
  Si  Si21  1  0.65603600  0.65603600  0.34396400  1
  Si  Si22  1  0.90603600  0.90603600  0.59396400  1
  Si  Si23  1  0.97237500  0.67589000  0.34563700  1
  Si  Si24  1  0.59396400  0.59396400  0.90603600  1
  Si  Si25  1  0.34563700  0.00609800  0.97237500  1
  Si  Si26  1  0.27762500  0.57411000  0.90436300  1
  Si  Si27  1  0.67589000  0.97237500  0.00609800  1
  Si  Si28  1  0.57411000  0.27762500  0.24390200  1
  Si  Si29  1  0.24390200  0.90436300  0.57411000  1
  O  O30  1  0.14800900  0.73747200  0.39271400  1
  O  O31  1  0.74181100  0.80701600  0.04222300  1
  O  O32  1  0.37750700  0.40122300  0.49797300  1
  O  O33  1  0.30933200  0.09951500  0.12017900  1
  O  O34  1  0.84105000  0.20777700  0.44298400  1
  O  O35  1  0.15048500  0.94066800  0.77902600  1
  O  O36  1  0.75202700  0.52670300  0.87249300  1
  O  O37  1  0.49797300  0.72329700  0.37750700  1
  O  O38  1  0.85728600  0.52819500  0.10199100  1
  O  O39  1  0.12500000  0.12500000  0.62500000  1
  O  O40  1  0.12017900  0.47097400  0.30933200  1
  O  O41  1  0.44298400  0.50818900  0.84105000  1
  O  O42  1  0.39271400  0.72180500  0.14800900  1
  O  O43  1  0.50818900  0.44298400  0.20777700  1
  O  O44  1  0.20777700  0.84105000  0.50818900  1
  O  O45  1  0.80701600  0.74181100  0.40895000  1
  O  O46  1  0.73747200  0.14800900  0.72180500  1
  O  O47  1  0.09951500  0.30933200  0.47097400  1
  O  O48  1  0.51252800  0.10199100  0.52819500  1
  O  O49  1  0.12982100  0.77902600  0.94066800  1
  O  O50  1  0.04222300  0.40895000  0.74181100  1
  O  O51  1  0.10199100  0.51252800  0.85728600  1
  O  O52  1  0.77902600  0.12982100  0.15048500  1
  O  O53  1  0.87249300  0.84877700  0.75202700  1
  O  O54  1  0.12500000  0.62500000  0.12500000  1
  O  O55  1  0.40122300  0.37750700  0.72329700  1
  O  O56  1  0.72180500  0.39271400  0.73747200  1
  O  O57  1  0.94066800  0.15048500  0.12982100  1
  O  O58  1  0.72329700  0.49797300  0.40122300  1
  O  O59  1  0.52819500  0.85728600  0.51252800  1
  O  O60  1  0.84877700  0.87249300  0.52670300  1
  O  O61  1  0.47097400  0.12017900  0.09951500  1
  O  O62  1  0.62500000  0.12500000  0.12500000  1
  O  O63  1  0.52670300  0.75202700  0.84877700  1
  O  O64  1  0.12500000  0.12500000  0.12500000  1
  O  O65  1  0.40895000  0.04222300  0.80701600  1
