# generated using pymatgen
data_Ba5B3CNO9
_symmetry_space_group_name_H-M   'P 1'
_cell_length_a   9.18132303
_cell_length_b   9.18132303
_cell_length_c   8.09524200
_cell_angle_alpha   90.00000000
_cell_angle_beta   90.00000000
_cell_angle_gamma   109.60231090
_symmetry_Int_Tables_number   1
_chemical_formula_structural   Ba5B3CNO9
_chemical_formula_sum   'Ba10 B6 C2 N2 O18'
_cell_volume   642.85277540
_cell_formula_units_Z   2
loop_
 _symmetry_equiv_pos_site_id
 _symmetry_equiv_pos_as_xyz
  1  'x, y, z'
loop_
 _atom_site_type_symbol
 _atom_site_label
 _atom_site_symmetry_multiplicity
 _atom_site_fract_x
 _atom_site_fract_y
 _atom_site_fract_z
 _atom_site_occupancy
  Ba  Ba0  1  0.74104400  0.74104400  0.50000000  1
  Ba  Ba1  1  0.25895600  0.25895600  0.00000000  1
  Ba  Ba2  1  0.13843000  0.86157000  0.75000000  1
  Ba  Ba3  1  0.23469200  0.49339600  0.56492600  1
  Ba  Ba4  1  0.85490800  0.14509200  0.75000000  1
  Ba  Ba5  1  0.86157000  0.13843000  0.25000000  1
  Ba  Ba6  1  0.14509200  0.85490800  0.25000000  1
  Ba  Ba7  1  0.50660400  0.76530800  0.93507400  1
  Ba  Ba8  1  0.76530800  0.50660400  0.06492600  1
  Ba  Ba9  1  0.49339600  0.23469200  0.43507400  1
  B  B10  1  0.09534700  0.51497500  0.96837900  1
  B  B11  1  0.12736300  0.12736300  0.50000000  1
  B  B12  1  0.87263700  0.87263700  0.00000000  1
  B  B13  1  0.51497500  0.09534700  0.03162100  1
  B  B14  1  0.48502500  0.90465300  0.53162100  1
  B  B15  1  0.90465300  0.48502500  0.46837900  1
  C  C16  1  0.38423200  0.61576800  0.25000000  1
  C  C17  1  0.61576800  0.38423200  0.75000000  1
  N  N18  1  0.46304600  0.53695400  0.25000000  1
  N  N19  1  0.53695400  0.46304600  0.75000000  1
  O  O20  1  0.99205300  0.36787200  0.01073600  1
  O  O21  1  0.36787200  0.99205300  0.98926400  1
  O  O22  1  0.06207700  0.64798300  0.00786500  1
  O  O23  1  0.76994000  0.47283700  0.38215100  1
  O  O24  1  0.99467300  0.99467300  0.50000000  1
  O  O25  1  0.35201700  0.93792300  0.49213500  1
  O  O26  1  0.23006000  0.52716300  0.88215100  1
  O  O27  1  0.47283700  0.76994000  0.61784900  1
  O  O28  1  0.80771800  0.80936100  0.15078000  1
  O  O29  1  0.19228200  0.19063900  0.65078000  1
  O  O30  1  0.00532700  0.00532700  0.00000000  1
  O  O31  1  0.64798300  0.06207700  0.99213500  1
  O  O32  1  0.00794700  0.63212800  0.51073600  1
  O  O33  1  0.63212800  0.00794700  0.48926400  1
  O  O34  1  0.80936100  0.80771800  0.84922000  1
  O  O35  1  0.93792300  0.35201700  0.50786500  1
  O  O36  1  0.19063900  0.19228200  0.34922000  1
  O  O37  1  0.52716300  0.23006000  0.11784900  1
