# generated using pymatgen
data_K6Ti2O7
_symmetry_space_group_name_H-M   'P 1'
_cell_length_a   9.38967600
_cell_length_b   6.64296800
_cell_length_c   11.45604310
_cell_angle_alpha   56.63205703
_cell_angle_beta   90.00000000
_cell_angle_gamma   90.00000000
_symmetry_Int_Tables_number   1
_chemical_formula_structural   K6Ti2O7
_chemical_formula_sum   'K12 Ti4 O14'
_cell_volume   596.78083732
_cell_formula_units_Z   2
loop_
 _symmetry_equiv_pos_site_id
 _symmetry_equiv_pos_as_xyz
  1  'x, y, z'
loop_
 _atom_site_type_symbol
 _atom_site_label
 _atom_site_symmetry_multiplicity
 _atom_site_fract_x
 _atom_site_fract_y
 _atom_site_fract_z
 _atom_site_occupancy
  K  K0  1  0.09458400  0.36638900  0.20624400  1
  K  K1  1  0.90541600  0.36638900  0.70624400  1
  K  K2  1  0.22103700  0.10153300  0.59693100  1
  K  K3  1  0.59133700  0.25263800  0.57462400  1
  K  K4  1  0.40866300  0.25263800  0.07462400  1
  K  K5  1  0.45736200  0.90177500  0.92137600  1
  K  K6  1  0.54263800  0.90177500  0.42137600  1
  K  K7  1  0.77896300  0.10153300  0.09693100  1
  K  K8  1  0.72516800  0.51485200  0.18707400  1
  K  K9  1  0.04567400  0.71675500  0.36204400  1
  K  K10  1  0.95432600  0.71675500  0.86204400  1
  K  K11  1  0.27483200  0.51485200  0.68707400  1
  Ti  Ti12  1  0.10721200  0.00163300  0.00735500  1
  Ti  Ti13  1  0.60546300  0.61946300  0.77410400  1
  Ti  Ti14  1  0.89278800  0.00163300  0.50735500  1
  Ti  Ti15  1  0.39453700  0.61946300  0.27410400  1
  O  O16  1  0.92412200  0.27437700  0.50501400  1
  O  O17  1  0.55384200  0.80468400  0.21855200  1
  O  O18  1  0.34298200  0.54707000  0.44597200  1
  O  O19  1  0.07587800  0.27437700  0.00501400  1
  O  O20  1  0.15120700  0.07305800  0.83421200  1
  O  O21  1  0.44615800  0.80468400  0.71855200  1
  O  O22  1  0.95271100  0.80477300  0.07207500  1
  O  O23  1  0.25569800  0.81923900  0.13696300  1
  O  O24  1  0.74430200  0.81923900  0.63696300  1
  O  O25  1  0.42176300  0.34716000  0.27465900  1
  O  O26  1  0.57823700  0.34716000  0.77465900  1
  O  O27  1  0.65701800  0.54707000  0.94597200  1
  O  O28  1  0.84879300  0.07305800  0.33421200  1
  O  O29  1  0.04728900  0.80477300  0.57207500  1
