# generated using pymatgen
data_NaZnFe2(PO4)3
_symmetry_space_group_name_H-M   'P 1'
_cell_length_a   5.17858500
_cell_length_b   12.36567000
_cell_length_c   15.21574700
_cell_angle_alpha   90.00000000
_cell_angle_beta   90.00000000
_cell_angle_gamma   90.00000000
_symmetry_Int_Tables_number   1
_chemical_formula_structural   NaZnFe2(PO4)3
_chemical_formula_sum   'Na4 Zn4 Fe8 P12 O48'
_cell_volume   974.36581778
_cell_formula_units_Z   4
loop_
 _symmetry_equiv_pos_site_id
 _symmetry_equiv_pos_as_xyz
  1  'x, y, z'
loop_
 _atom_site_type_symbol
 _atom_site_label
 _atom_site_symmetry_multiplicity
 _atom_site_fract_x
 _atom_site_fract_y
 _atom_site_fract_z
 _atom_site_occupancy
  Na  Na0  1  0.04178800  0.02096600  0.21108900  1
  Na  Na1  1  0.54178800  0.47903400  0.78891100  1
  Na  Na2  1  0.95821200  0.52096600  0.28891100  1
  Na  Na3  1  0.45821200  0.97903400  0.71108900  1
  Zn  Zn4  1  0.93113400  0.79440700  0.75838900  1
  Zn  Zn5  1  0.56886600  0.20559300  0.25838900  1
  Zn  Zn6  1  0.06886600  0.29440700  0.74161100  1
  Zn  Zn7  1  0.43113400  0.70559300  0.24161100  1
  Fe  Fe8  1  0.74232600  0.58028500  0.99209900  1
  Fe  Fe9  1  0.99526300  0.78727100  0.36245500  1
  Fe  Fe10  1  0.75767400  0.41971500  0.49209900  1
  Fe  Fe11  1  0.00473700  0.28727100  0.13754500  1
  Fe  Fe12  1  0.50473700  0.21272900  0.86245500  1
  Fe  Fe13  1  0.25767400  0.08028500  0.50790100  1
  Fe  Fe14  1  0.24232600  0.91971500  0.00790100  1
  Fe  Fe15  1  0.49526300  0.71272900  0.63754500  1
  P  P16  1  0.48331200  0.63691800  0.42305800  1
  P  P17  1  0.09403600  0.26086600  0.36614500  1
  P  P18  1  0.01316700  0.54358700  0.65857600  1
  P  P19  1  0.51316700  0.95641300  0.34142400  1
  P  P20  1  0.48683300  0.45641300  0.15857600  1
  P  P21  1  0.90596400  0.76086600  0.13385500  1
  P  P22  1  0.98331200  0.86308200  0.57694200  1
  P  P23  1  0.01668800  0.36308200  0.92305800  1
  P  P24  1  0.98683300  0.04358700  0.84142400  1
  P  P25  1  0.51668800  0.13691800  0.07694200  1
  P  P26  1  0.40596400  0.73913400  0.86614500  1
  P  P27  1  0.59403600  0.23913400  0.63385500  1
  O  O28  1  0.54208300  0.77906300  0.77984200  1
  O  O29  1  0.12005100  0.71732000  0.84916800  1
  O  O30  1  0.79529100  0.91688100  0.32738000  1
  O  O31  1  0.95791700  0.22093700  0.27984200  1
  O  O32  1  0.17831300  0.13816500  0.82138500  1
  O  O33  1  0.71817200  0.85035400  0.62396700  1
  O  O34  1  0.47676300  0.99333400  0.43856200  1
  O  O35  1  0.44590500  0.82548000  0.93939400  1
  O  O36  1  0.03874000  0.86752200  0.10323400  1
  O  O37  1  0.95722400  0.44981700  0.72168700  1
  O  O38  1  0.67831300  0.36183500  0.17861500  1
  O  O39  1  0.37994900  0.28268000  0.34916800  1
  O  O40  1  0.05409500  0.17452000  0.43939400  1
  O  O41  1  0.70470900  0.08311900  0.82738000  1
  O  O42  1  0.96126000  0.36752200  0.39676600  1
  O  O43  1  0.31709700  0.19072400  0.14156900  1
  O  O44  1  0.04208300  0.72093700  0.22015800  1
  O  O45  1  0.94590500  0.67452000  0.06060600  1
  O  O46  1  0.50767200  0.19014500  0.98689100  1
  O  O47  1  0.45791700  0.27906300  0.72015800  1
  O  O48  1  0.46126000  0.13247800  0.60323400  1
  O  O49  1  0.95621600  0.48509500  0.92859700  1
  O  O50  1  0.54277600  0.55018300  0.22168700  1
  O  O51  1  0.62005100  0.78268000  0.15083200  1
  O  O52  1  0.20470900  0.41688100  0.17262000  1
  O  O53  1  0.45621600  0.01490500  0.07140300  1
  O  O54  1  0.54378400  0.51490500  0.42859700  1
  O  O55  1  0.18290300  0.80927600  0.64156900  1
  O  O56  1  0.00767200  0.30985500  0.01310900  1
  O  O57  1  0.45722400  0.05018300  0.27831300  1
  O  O58  1  0.21817200  0.64964600  0.37603300  1
  O  O59  1  0.53874000  0.63247800  0.89676600  1
  O  O60  1  0.87994900  0.21732000  0.65083200  1
  O  O61  1  0.99232800  0.80985500  0.48689100  1
  O  O62  1  0.97676300  0.50666600  0.56143800  1
  O  O63  1  0.78182800  0.14964600  0.12396700  1
  O  O64  1  0.52323700  0.49333400  0.06143800  1
  O  O65  1  0.02323700  0.00666600  0.93856200  1
  O  O66  1  0.81709700  0.30927600  0.85843100  1
  O  O67  1  0.49232800  0.69014500  0.51310900  1
  O  O68  1  0.68290300  0.69072400  0.35843100  1
  O  O69  1  0.55409500  0.32548000  0.56060600  1
  O  O70  1  0.28182800  0.35035400  0.87603300  1
  O  O71  1  0.29529100  0.58311900  0.67262000  1
  O  O72  1  0.04378400  0.98509500  0.57140300  1
  O  O73  1  0.32168700  0.86183500  0.32138500  1
  O  O74  1  0.82168700  0.63816500  0.67861500  1
  O  O75  1  0.04277600  0.94981700  0.77831300  1
