# generated using pymatgen
data_AgH12C6N5O3
_symmetry_space_group_name_H-M   'P 1'
_cell_length_a   6.65802800
_cell_length_b   10.54616200
_cell_length_c   14.12099000
_cell_angle_alpha   90.00000000
_cell_angle_beta   90.00000000
_cell_angle_gamma   90.00000000
_symmetry_Int_Tables_number   1
_chemical_formula_structural   AgH12C6N5O3
_chemical_formula_sum   'Ag4 H48 C24 N20 O12'
_cell_volume   991.52849794
_cell_formula_units_Z   4
loop_
 _symmetry_equiv_pos_site_id
 _symmetry_equiv_pos_as_xyz
  1  'x, y, z'
loop_
 _atom_site_type_symbol
 _atom_site_label
 _atom_site_symmetry_multiplicity
 _atom_site_fract_x
 _atom_site_fract_y
 _atom_site_fract_z
 _atom_site_occupancy
  Ag  Ag0  1  0.36996500  0.98251600  0.20490800  1
  Ag  Ag1  1  0.86996500  0.01748400  0.79509200  1
  Ag  Ag2  1  0.86996500  0.48251600  0.29509200  1
  Ag  Ag3  1  0.36996500  0.51748400  0.70490800  1
  H  H4  1  0.17945400  0.06617800  0.41897800  1
  H  H5  1  0.72792700  0.24195900  0.94968500  1
  H  H6  1  0.05515900  0.73939600  0.19769700  1
  H  H7  1  0.68240400  0.73801100  0.19022700  1
  H  H8  1  0.67945400  0.56617800  0.08102200  1
  H  H9  1  0.68240400  0.76198900  0.69022700  1
  H  H10  1  0.22792700  0.75804100  0.05031500  1
  H  H11  1  0.05139600  0.56791900  0.08535300  1
  H  H12  1  0.87034900  0.90479900  0.24365900  1
  H  H13  1  0.55515900  0.26060400  0.80230300  1
  H  H14  1  0.67945400  0.93382200  0.58102200  1
  H  H15  1  0.87034900  0.59520100  0.74365900  1
  H  H16  1  0.19117100  0.72336500  0.30680000  1
  H  H17  1  0.69117100  0.27663500  0.69320000  1
  H  H18  1  0.04305900  0.57617200  0.89184100  1
  H  H19  1  0.99780000  0.25924400  0.45238500  1
  H  H20  1  0.87312000  0.46971800  0.65908300  1
  H  H21  1  0.55139600  0.43208100  0.91464700  1
  H  H22  1  0.18707600  0.07545100  0.61028100  1
  H  H23  1  0.17945400  0.43382200  0.91897800  1
  H  H24  1  0.37312000  0.96971800  0.84091700  1
  H  H25  1  0.68707600  0.92454900  0.38971900  1
  H  H26  1  0.37034900  0.09520100  0.75634100  1
  H  H27  1  0.37312000  0.53028200  0.34091700  1
  H  H28  1  0.87312000  0.03028200  0.15908300  1
  H  H29  1  0.55893500  0.72471100  0.30292000  1
  H  H30  1  0.22792700  0.74195900  0.55031500  1
  H  H31  1  0.37034900  0.40479900  0.25634100  1
  H  H32  1  0.18240400  0.23801100  0.30977300  1
  H  H33  1  0.54305900  0.07617200  0.60815900  1
  H  H34  1  0.04305900  0.92382800  0.39184100  1
  H  H35  1  0.72792700  0.25804100  0.44968500  1
  H  H36  1  0.55139600  0.06791900  0.41464700  1
  H  H37  1  0.68707600  0.57545100  0.88971900  1
  H  H38  1  0.55893500  0.77528900  0.80292000  1
  H  H39  1  0.18707600  0.42454900  0.11028100  1
  H  H40  1  0.54305900  0.42382800  0.10815900  1
  H  H41  1  0.49780000  0.74075600  0.54761500  1
  H  H42  1  0.05515900  0.76060400  0.69769700  1
  H  H43  1  0.18240400  0.26198900  0.80977300  1
  H  H44  1  0.55515900  0.23939600  0.30230300  1
  H  H45  1  0.49780000  0.75924400  0.04761500  1
  H  H46  1  0.99780000  0.24075600  0.95238500  1
  H  H47  1  0.05893500  0.27528900  0.69708000  1
  H  H48  1  0.69117100  0.22336500  0.19320000  1
  H  H49  1  0.05893500  0.22471100  0.19708000  1
  H  H50  1  0.05139600  0.93208100  0.58535300  1
  H  H51  1  0.19117100  0.77663500  0.80680000  1
  C  C52  1  0.37079300  0.99194000  0.76489200  1
  C  C53  1  0.37079300  0.50806000  0.26489200  1
  C  C54  1  0.86480700  0.28127100  0.91796100  1
  C  C55  1  0.86480700  0.21872900  0.41796100  1
  C  C56  1  0.36480700  0.71872900  0.08203900  1
  C  C57  1  0.18705800  0.97175800  0.61821200  1
  C  C58  1  0.18982800  0.80041000  0.73109100  1
  C  C59  1  0.68982800  0.19959000  0.26890900  1
  C  C60  1  0.05142800  0.19951800  0.27241000  1
  C  C61  1  0.54532300  0.52754600  0.11584300  1
  C  C62  1  0.87079300  0.49194000  0.73510800  1
  C  C63  1  0.68705800  0.47175800  0.88178800  1
  C  C64  1  0.04532300  0.02754600  0.38415700  1
  C  C65  1  0.68705800  0.02824200  0.38178800  1
  C  C66  1  0.68982800  0.30041000  0.76890900  1
  C  C67  1  0.55142800  0.69951800  0.22759000  1
  C  C68  1  0.55142800  0.80048200  0.72759000  1
  C  C69  1  0.04532300  0.47245400  0.88415700  1
  C  C70  1  0.36480700  0.78127100  0.58203900  1
  C  C71  1  0.18705800  0.52824200  0.11821200  1
  C  C72  1  0.18982800  0.69959000  0.23109100  1
  C  C73  1  0.87079300  0.00806000  0.23510800  1
  C  C74  1  0.54532300  0.97245400  0.61584300  1
  C  C75  1  0.05142800  0.30048200  0.77241000  1
  N  N76  1  0.68469400  0.05969600  0.27857700  1
  N  N77  1  0.36497900  0.58041900  0.07117800  1
  N  N78  1  0.86497900  0.41958100  0.92882200  1
  N  N79  1  0.87692600  0.63473200  0.47834300  1
  N  N80  1  0.05447200  0.05937500  0.28108700  1
  N  N81  1  0.55447200  0.94062500  0.71891300  1
  N  N82  1  0.87692600  0.86526800  0.97834300  1
  N  N83  1  0.18469400  0.94030400  0.72142300  1
  N  N84  1  0.68469400  0.44030400  0.77857700  1
  N  N85  1  0.86866700  0.24424300  0.81549100  1
  N  N86  1  0.86866700  0.25575700  0.31549100  1
  N  N87  1  0.55447200  0.55937500  0.21891300  1
  N  N88  1  0.36866700  0.74424300  0.68450900  1
  N  N89  1  0.36497900  0.91958100  0.57117800  1
  N  N90  1  0.05447200  0.44062500  0.78108700  1
  N  N91  1  0.36866700  0.75575700  0.18450900  1
  N  N92  1  0.86497900  0.08041900  0.42882200  1
  N  N93  1  0.37692600  0.36526800  0.52165700  1
  N  N94  1  0.18469400  0.55969600  0.22142300  1
  N  N95  1  0.37692600  0.13473200  0.02165700  1
  O  O96  1  0.36186500  0.31031600  0.60238800  1
  O  O97  1  0.40106100  0.01587100  0.01825100  1
  O  O98  1  0.90106100  0.98412900  0.98174900  1
  O  O99  1  0.36808600  0.29954200  0.44674300  1
  O  O100  1  0.86808600  0.79954200  0.05325700  1
  O  O101  1  0.86186500  0.81031600  0.89761200  1
  O  O102  1  0.86808600  0.70045800  0.55325700  1
  O  O103  1  0.36808600  0.20045800  0.94674300  1
  O  O104  1  0.86186500  0.68968400  0.39761200  1
  O  O105  1  0.90106100  0.51587100  0.48174900  1
  O  O106  1  0.36186500  0.18968400  0.10238800  1
  O  O107  1  0.40106100  0.48412900  0.51825100  1
