# generated using pymatgen
data_Na4UC3O11
_symmetry_space_group_name_H-M   'P 1'
_cell_length_a   9.42685200
_cell_length_b   9.43660820
_cell_length_c   13.21495495
_cell_angle_alpha   90.22810492
_cell_angle_beta   90.42495229
_cell_angle_gamma   119.94250523
_symmetry_Int_Tables_number   1
_chemical_formula_structural   Na4UC3O11
_chemical_formula_sum   'Na16 U4 C12 O44'
_cell_volume   1018.59427878
_cell_formula_units_Z   4
loop_
 _symmetry_equiv_pos_site_id
 _symmetry_equiv_pos_as_xyz
  1  'x, y, z'
loop_
 _atom_site_type_symbol
 _atom_site_label
 _atom_site_symmetry_multiplicity
 _atom_site_fract_x
 _atom_site_fract_y
 _atom_site_fract_z
 _atom_site_occupancy
  Na  Na0  1  0.87028000  0.56225000  0.13308300  1
  Na  Na1  1  0.56528900  0.87048800  0.38045700  1
  Na  Na2  1  0.99774500  0.00046900  0.74990100  1
  Na  Na3  1  0.43588700  0.30691400  0.11996700  1
  Na  Na4  1  0.30918200  0.87309300  0.87789900  1
  Na  Na5  1  0.69133400  0.56366400  0.62506300  1
  Na  Na6  1  0.00000000  0.00000000  0.00000000  1
  Na  Na7  1  0.12972000  0.43775000  0.86691700  1
  Na  Na8  1  0.30866600  0.43633600  0.37493700  1
  Na  Na9  1  0.00225500  0.99953100  0.25009900  1
  Na  Na10  1  0.56411300  0.69308600  0.88003300  1
  Na  Na11  1  0.69081800  0.12690700  0.12210100  1
  Na  Na12  1  0.87112900  0.30778000  0.63144400  1
  Na  Na13  1  0.43471100  0.12951200  0.61954300  1
  Na  Na14  1  0.00000000  0.00000000  0.50000000  1
  Na  Na15  1  0.12887100  0.69222000  0.36855600  1
  U  U16  1  0.33276800  0.66809000  0.63007100  1
  U  U17  1  0.33404400  0.66569400  0.13100100  1
  U  U18  1  0.66595600  0.33430600  0.86899900  1
  U  U19  1  0.66723200  0.33191000  0.36992900  1
  C  C20  1  0.66911700  0.92453700  0.61841200  1
  C  C21  1  0.07557200  0.74730200  0.62961500  1
  C  C22  1  0.25289600  0.92221800  0.13164000  1
  C  C23  1  0.32904000  0.25404800  0.87623700  1
  C  C24  1  0.33088300  0.07546300  0.38158800  1
  C  C25  1  0.07725200  0.32957800  0.13218400  1
  C  C26  1  0.92442800  0.25269800  0.37038500  1
  C  C27  1  0.74785100  0.66908900  0.36330900  1
  C  C28  1  0.92274800  0.67042200  0.86781600  1
  C  C29  1  0.25214900  0.33091100  0.63669100  1
  C  C30  1  0.74710400  0.07778200  0.86836000  1
  C  C31  1  0.67096000  0.74595200  0.12376300  1
  O  O32  1  0.45100300  0.40540700  0.88090400  1
  O  O33  1  0.03561900  0.21521000  0.37823700  1
  O  O34  1  0.32689200  0.66032400  0.99007700  1
  O  O35  1  0.85376100  0.23174500  0.84941800  1
  O  O36  1  0.34307300  0.67231700  0.27205000  1
  O  O37  1  0.31835700  0.65549000  0.48946300  1
  O  O38  1  0.18045700  0.21630800  0.88375800  1
  O  O39  1  0.54899700  0.59459300  0.11909600  1
  O  O40  1  0.68164300  0.34451000  0.51053700  1
  O  O41  1  0.34797100  0.68090000  0.77105300  1
  O  O42  1  0.54675300  0.95343400  0.61340300  1
  O  O43  1  0.78523300  0.96681600  0.87291000  1
  O  O44  1  0.76726000  0.62360700  0.85198900  1
  O  O45  1  0.59875000  0.54862400  0.37876700  1
  O  O46  1  0.18210500  0.96413100  0.38536900  1
  O  O47  1  0.40125000  0.45137600  0.62123300  1
  O  O48  1  0.76805700  0.14320400  0.36090000  1
  O  O49  1  0.37749500  0.23148800  0.37302800  1
  O  O50  1  0.04849000  0.45142300  0.12326000  1
  O  O51  1  0.14625800  0.37952600  0.65688100  1
  O  O52  1  0.96438100  0.78479000  0.62176300  1
  O  O53  1  0.62394700  0.85477300  0.13568300  1
  O  O54  1  0.40203000  0.94983800  0.11678600  1
  O  O55  1  0.21297700  0.18173900  0.63154900  1
  O  O56  1  0.96624100  0.18088000  0.12531400  1
  O  O57  1  0.67310800  0.33967600  0.00992300  1
  O  O58  1  0.65202900  0.31910000  0.22894700  1
  O  O59  1  0.81954300  0.78369200  0.11624200  1
  O  O60  1  0.23194300  0.85679600  0.63910000  1
  O  O61  1  0.59797000  0.05016200  0.88321400  1
  O  O62  1  0.14623900  0.76825500  0.15058200  1
  O  O63  1  0.62250500  0.76851200  0.62697200  1
  O  O64  1  0.03375900  0.81912000  0.87468600  1
  O  O65  1  0.78702300  0.81826100  0.36845100  1
  O  O66  1  0.95374900  0.40403900  0.37186200  1
  O  O67  1  0.85374200  0.62047400  0.34311900  1
  O  O68  1  0.65692700  0.32768300  0.72795000  1
  O  O69  1  0.04625100  0.59596100  0.62813800  1
  O  O70  1  0.37605300  0.14522700  0.86431700  1
  O  O71  1  0.95151000  0.54857700  0.87674000  1
  O  O72  1  0.23274000  0.37639300  0.14801100  1
  O  O73  1  0.81789500  0.03586900  0.61463100  1
  O  O74  1  0.45324700  0.04656600  0.38659700  1
  O  O75  1  0.21476700  0.03318400  0.12709000  1
