# generated using pymatgen
data_Sr2Co(ClO)2
_symmetry_space_group_name_H-M   'P 1'
_cell_length_a   8.21177003
_cell_length_b   8.06735121
_cell_length_c   9.28606626
_cell_angle_alpha   115.75283436
_cell_angle_beta   82.87532799
_cell_angle_gamma   75.78893274
_symmetry_Int_Tables_number   1
_chemical_formula_structural   Sr2Co(ClO)2
_chemical_formula_sum   'Sr8 Co4 Cl8 O8'
_cell_volume   518.03125307
_cell_formula_units_Z   4
loop_
 _symmetry_equiv_pos_site_id
 _symmetry_equiv_pos_as_xyz
  1  'x, y, z'
loop_
 _atom_site_type_symbol
 _atom_site_label
 _atom_site_symmetry_multiplicity
 _atom_site_fract_x
 _atom_site_fract_y
 _atom_site_fract_z
 _atom_site_occupancy
  Sr  Sr0  1  0.21208500  0.04452400  0.69716200  1
  Sr  Sr1  1  0.21279100  0.54633700  0.69678300  1
  Sr  Sr2  1  0.21335100  0.79512700  0.19679600  1
  Sr  Sr3  1  0.21286800  0.29543700  0.19702700  1
  Sr  Sr4  1  0.78705300  0.45462500  0.30312900  1
  Sr  Sr5  1  0.78657100  0.95504700  0.30324100  1
  Sr  Sr6  1  0.78730300  0.20348500  0.80311300  1
  Sr  Sr7  1  0.78795400  0.70543200  0.80275800  1
  Co  Co8  1  0.99997500  0.24968100  0.49955500  1
  Co  Co9  1  0.00002800  0.50031000  0.00043100  1
  Co  Co10  1  0.99990500  0.74952100  0.49881900  1
  Co  Co11  1  0.00014200  0.00046600  0.00119100  1
  Cl  Cl12  1  0.35675100  0.61606400  0.41038600  1
  Cl  Cl13  1  0.35869900  0.11530500  0.41006900  1
  Cl  Cl14  1  0.35875500  0.36537400  0.91062500  1
  Cl  Cl15  1  0.35667900  0.86652400  0.91094800  1
  Cl  Cl16  1  0.64320700  0.88355700  0.58917700  1
  Cl  Cl17  1  0.64118700  0.38465000  0.58938500  1
  Cl  Cl18  1  0.64136000  0.63468300  0.08994300  1
  Cl  Cl19  1  0.64330500  0.13387000  0.08948100  1
  O  O20  1  0.00001900  0.37502900  0.75003900  1
  O  O21  1  0.99996900  0.87482200  0.74978400  1
  O  O22  1  0.99998000  0.12795700  0.25628200  1
  O  O23  1  0.00007100  0.62217500  0.24387800  1
  O  O24  1  0.00002100  0.50265700  0.49913900  1
  O  O25  1  0.99997200  0.99677700  0.49972100  1
  O  O26  1  0.99997800  0.24714900  0.00080500  1
  O  O27  1  0.00003000  0.75341900  0.00033300  1
