# generated using pymatgen
data_MgZn2
_symmetry_space_group_name_H-M   'P 1'
_cell_length_a   7.74851480
_cell_length_b   7.74851480
_cell_length_c   4.61646300
_cell_angle_alpha   90.00000000
_cell_angle_beta   90.00000000
_cell_angle_gamma   157.89524418
_symmetry_Int_Tables_number   1
_chemical_formula_structural   MgZn2
_chemical_formula_sum   'Mg2 Zn4'
_cell_volume   104.29941189
_cell_formula_units_Z   2
loop_
 _symmetry_equiv_pos_site_id
 _symmetry_equiv_pos_as_xyz
  1  'x, y, z'
loop_
 _atom_site_type_symbol
 _atom_site_label
 _atom_site_symmetry_multiplicity
 _atom_site_fract_x
 _atom_site_fract_y
 _atom_site_fract_z
 _atom_site_occupancy
  Mg  Mg0  1  0.10477400  0.89522600  0.50000000  1
  Mg  Mg1  1  0.78413600  0.21586400  0.50000000  1
  Zn  Zn2  1  0.99392600  0.00607400  0.00000000  1
  Zn  Zn3  1  0.33939100  0.66060900  0.00000000  1
  Zn  Zn4  1  0.66763500  0.33236500  0.00000000  1
  Zn  Zn5  1  0.44347000  0.55653000  0.50000000  1
