# generated using pymatgen
data_Cs3Mo5P6O25
_symmetry_space_group_name_H-M   'P 1'
_cell_length_a   12.37672675
_cell_length_b   12.37672675
_cell_length_c   9.77411600
_cell_angle_alpha   90.00000000
_cell_angle_beta   90.00000000
_cell_angle_gamma   120.00000402
_symmetry_Int_Tables_number   1
_chemical_formula_structural   Cs3Mo5P6O25
_chemical_formula_sum   'Cs6 Mo10 P12 O50'
_cell_volume   1296.64087725
_cell_formula_units_Z   2
loop_
 _symmetry_equiv_pos_site_id
 _symmetry_equiv_pos_as_xyz
  1  'x, y, z'
loop_
 _atom_site_type_symbol
 _atom_site_label
 _atom_site_symmetry_multiplicity
 _atom_site_fract_x
 _atom_site_fract_y
 _atom_site_fract_z
 _atom_site_occupancy
  Cs  Cs0  1  0.39842000  0.08778700  0.40994600  1
  Cs  Cs1  1  0.08778700  0.39842000  0.90994600  1
  Cs  Cs2  1  0.31063300  0.91221300  0.90994600  1
  Cs  Cs3  1  0.91221300  0.31063300  0.40994600  1
  Cs  Cs4  1  0.60158000  0.68936700  0.90994600  1
  Cs  Cs5  1  0.68936700  0.60158000  0.40994600  1
  Mo  Mo6  1  0.81113600  0.48617900  0.81901700  1
  Mo  Mo7  1  0.00000000  0.00000000  0.45793300  1
  Mo  Mo8  1  0.66666700  0.33333300  0.07807000  1
  Mo  Mo9  1  0.33333300  0.66666700  0.57807000  1
  Mo  Mo10  1  0.67504300  0.18886400  0.81901700  1
  Mo  Mo11  1  0.18886400  0.67504300  0.31901700  1
  Mo  Mo12  1  0.51382100  0.32495700  0.81901700  1
  Mo  Mo13  1  0.32495700  0.51382100  0.31901700  1
  Mo  Mo14  1  0.48617900  0.81113600  0.31901700  1
  Mo  Mo15  1  0.00000000  0.00000000  0.95793300  1
  P  P16  1  0.08492500  0.85291400  0.20546600  1
  P  P17  1  0.76798900  0.91507500  0.20546600  1
  P  P18  1  0.65050000  0.06444800  0.13374000  1
  P  P19  1  0.93555200  0.58605200  0.13374000  1
  P  P20  1  0.85291400  0.08492500  0.70546600  1
  P  P21  1  0.34950000  0.41394800  0.63374000  1
  P  P22  1  0.58605200  0.93555200  0.63374000  1
  P  P23  1  0.91507500  0.76798900  0.70546600  1
  P  P24  1  0.23201100  0.14708600  0.70546600  1
  P  P25  1  0.14708600  0.23201100  0.20546600  1
  P  P26  1  0.06444800  0.65050000  0.63374000  1
  P  P27  1  0.41394800  0.34950000  0.13374000  1
  O  O28  1  0.80174200  0.34056400  0.93042900  1
  O  O29  1  0.19052400  0.67783400  0.69406200  1
  O  O30  1  0.36840400  0.17382700  0.70819600  1
  O  O31  1  0.92011400  0.83493000  0.83651300  1
  O  O32  1  0.06152500  0.66225300  0.47840200  1
  O  O33  1  0.17382700  0.36840400  0.20819600  1
  O  O34  1  0.82617300  0.19457700  0.70819600  1
  O  O35  1  0.19457700  0.82617300  0.20819600  1
  O  O36  1  0.39927300  0.33774700  0.97840200  1
  O  O37  1  0.52187600  0.95851000  0.18321300  1
  O  O38  1  0.93847500  0.60072700  0.97840200  1
  O  O39  1  0.24220400  0.28474500  0.70194600  1
  O  O40  1  0.04254100  0.75779600  0.70194600  1
  O  O41  1  0.07731400  0.16986900  0.07473100  1
  O  O42  1  0.47812400  0.43663400  0.68321300  1
  O  O43  1  0.90744500  0.83013100  0.57473100  1
  O  O44  1  0.33774700  0.39927300  0.47840200  1
  O  O45  1  0.66666700  0.33333300  0.70611700  1
  O  O46  1  0.33333300  0.66666700  0.20611700  1
  O  O47  1  0.53882200  0.19825800  0.93042900  1
  O  O48  1  0.16507000  0.08518400  0.83651300  1
  O  O49  1  0.92268600  0.09255500  0.57473100  1
  O  O50  1  0.43663400  0.47812400  0.18321300  1
  O  O51  1  0.46117800  0.65943600  0.43042900  1
  O  O52  1  0.80947600  0.48731000  0.19406200  1
  O  O53  1  0.51269000  0.32216600  0.19406200  1
  O  O54  1  0.95851000  0.52187600  0.68321300  1
  O  O55  1  0.07988600  0.91481600  0.33651300  1
  O  O56  1  0.28474500  0.24220400  0.20194600  1
  O  O57  1  0.75779600  0.04254100  0.20194600  1
  O  O58  1  0.67783400  0.19052400  0.19406200  1
  O  O59  1  0.83493000  0.92011400  0.33651300  1
  O  O60  1  0.60072700  0.93847500  0.47840200  1
  O  O61  1  0.09255500  0.92268600  0.07473100  1
  O  O62  1  0.71525500  0.95745900  0.70194600  1
  O  O63  1  0.95745900  0.71525500  0.20194600  1
  O  O64  1  0.08518400  0.16507000  0.33651300  1
  O  O65  1  0.80542300  0.63159600  0.70819600  1
  O  O66  1  0.56336600  0.04149000  0.68321300  1
  O  O67  1  0.16986900  0.07731400  0.57473100  1
  O  O68  1  0.65943600  0.46117800  0.93042900  1
  O  O69  1  0.48731000  0.80947600  0.69406200  1
  O  O70  1  0.34056400  0.80174200  0.43042900  1
  O  O71  1  0.19825800  0.53882200  0.43042900  1
  O  O72  1  0.83013100  0.90744500  0.07473100  1
  O  O73  1  0.91481600  0.07988600  0.83651300  1
  O  O74  1  0.32216600  0.51269000  0.69406200  1
  O  O75  1  0.63159600  0.80542300  0.20819600  1
  O  O76  1  0.04149000  0.56336600  0.18321300  1
  O  O77  1  0.66225300  0.06152500  0.97840200  1
