# generated using pymatgen
data_GdAl3(BO3)4
_symmetry_space_group_name_H-M   'P 1'
_cell_length_a   5.94564967
_cell_length_b   5.94564967
_cell_length_c   16.34000308
_cell_angle_alpha   89.56765453
_cell_angle_beta   89.56765453
_cell_angle_gamma   104.35300495
_symmetry_Int_Tables_number   1
_chemical_formula_structural   GdAl3(BO3)4
_chemical_formula_sum   'Gd3 Al9 B12 O36'
_cell_volume   559.55928222
_cell_formula_units_Z   3
loop_
 _symmetry_equiv_pos_site_id
 _symmetry_equiv_pos_as_xyz
  1  'x, y, z'
loop_
 _atom_site_type_symbol
 _atom_site_label
 _atom_site_symmetry_multiplicity
 _atom_site_fract_x
 _atom_site_fract_y
 _atom_site_fract_z
 _atom_site_occupancy
  Gd  Gd0  1  0.83165200  0.82830500  0.16811300  1
  Gd  Gd1  1  0.17169500  0.16834800  0.83188700  1
  Gd  Gd2  1  0.93093500  0.06906500  0.50000000  1
  Al  Al3  1  0.02006600  0.57233500  0.98149200  1
  Al  Al4  1  0.34464100  0.91368300  0.64776200  1
  Al  Al5  1  0.37822000  0.62178000  0.50000000  1
  Al  Al6  1  0.08631700  0.65535900  0.35223800  1
  Al  Al7  1  0.42766500  0.97993400  0.01850800  1
  Al  Al8  1  0.75495400  0.32036000  0.68543800  1
  Al  Al9  1  0.67964000  0.24504600  0.31456200  1
  Al  Al10  1  0.38872500  0.27705400  0.16567000  1
  Al  Al11  1  0.72294600  0.61127500  0.83433000  1
  B  B12  1  0.64973100  0.09042600  0.85224800  1
  B  B13  1  0.85678000  0.54955000  0.51847300  1
  B  B14  1  0.27108800  0.39490000  0.66326600  1
  B  B15  1  0.50081200  0.49918800  0.00000000  1
  B  B16  1  0.31490400  0.75580700  0.18543500  1
  B  B17  1  0.90957400  0.35026900  0.14775200  1
  B  B18  1  0.82885000  0.83876000  0.66976000  1
  B  B19  1  0.24419300  0.68509600  0.81456500  1
  B  B20  1  0.94458900  0.05541100  0.00000000  1
  B  B21  1  0.16124000  0.17115000  0.33024000  1
  B  B22  1  0.45045000  0.14322000  0.48152700  1
  B  B23  1  0.60510000  0.72891200  0.33673400  1
  O  O24  1  0.77644100  0.63570500  0.71585400  1
  O  O25  1  0.73749600  0.98471300  0.04222900  1
  O  O26  1  0.40131500  0.67515400  0.38232600  1
  O  O27  1  0.36453600  0.95485300  0.13644000  1
  O  O28  1  0.40039600  0.55197400  0.82561700  1
  O  O29  1  0.47002300  0.06295500  0.90769800  1
  O  O30  1  0.03064100  0.90545200  0.62334300  1
  O  O31  1  0.31653600  0.29819900  0.49387300  1
  O  O32  1  0.45067700  0.30026700  0.04926700  1
  O  O33  1  0.69973300  0.54932300  0.95073300  1
  O  O34  1  0.78533100  0.93591000  0.84137900  1
  O  O35  1  0.44802600  0.59960400  0.17438300  1
  O  O36  1  0.71102100  0.30436000  0.19714000  1
  O  O37  1  0.93704500  0.52997700  0.09230200  1
  O  O38  1  0.75085900  0.57829200  0.33222100  1
  O  O39  1  0.70180100  0.68346400  0.50612700  1
  O  O40  1  0.27168700  0.86467600  0.75906500  1
  O  O41  1  0.06409000  0.21466900  0.15862100  1
  O  O42  1  0.62954800  0.17288800  0.42579400  1
  O  O43  1  0.35254900  0.64745100  0.00000000  1
  O  O44  1  0.05646200  0.59532700  0.46975900  1
  O  O45  1  0.67222400  0.93132700  0.29087400  1
  O  O46  1  0.01528700  0.26250400  0.95777100  1
  O  O47  1  0.40467300  0.94353800  0.53024100  1
  O  O48  1  0.36429500  0.22355900  0.28414600  1
  O  O49  1  0.01547500  0.32197200  0.33436000  1
  O  O50  1  0.67802800  0.98452500  0.66564000  1
  O  O51  1  0.09454800  0.96935900  0.37665700  1
  O  O52  1  0.82711200  0.37045200  0.57420600  1
  O  O53  1  0.69564000  0.28897900  0.80286000  1
  O  O54  1  0.42170800  0.24914100  0.66777900  1
  O  O55  1  0.06867300  0.32777600  0.70912600  1
  O  O56  1  0.09284900  0.90715100  0.00000000  1
  O  O57  1  0.32484600  0.59868500  0.61767400  1
  O  O58  1  0.13532400  0.72831300  0.24093500  1
  O  O59  1  0.04514700  0.63546400  0.86356000  1
