# generated using pymatgen
data_Ba4Eu4Zn3PtO15
_symmetry_space_group_name_H-M   'P 1'
_cell_length_a   11.82206645
_cell_length_b   11.82206645
_cell_length_c   6.85262500
_cell_angle_alpha   90.00000000
_cell_angle_beta   90.00000000
_cell_angle_gamma   120.00000251
_symmetry_Int_Tables_number   1
_chemical_formula_structural   Ba4Eu4Zn3PtO15
_chemical_formula_sum   'Ba8 Eu8 Zn6 Pt2 O30'
_cell_volume   829.41976283
_cell_formula_units_Z   2
loop_
 _symmetry_equiv_pos_site_id
 _symmetry_equiv_pos_as_xyz
  1  'x, y, z'
loop_
 _atom_site_type_symbol
 _atom_site_label
 _atom_site_symmetry_multiplicity
 _atom_site_fract_x
 _atom_site_fract_y
 _atom_site_fract_z
 _atom_site_occupancy
  Ba  Ba0  1  0.33333300  0.66666700  0.33213900  1
  Ba  Ba1  1  0.34040000  0.17020000  0.16144400  1
  Ba  Ba2  1  0.82980000  0.17020000  0.16144400  1
  Ba  Ba3  1  0.17020000  0.82980000  0.66144400  1
  Ba  Ba4  1  0.65960000  0.82980000  0.66144400  1
  Ba  Ba5  1  0.66666700  0.33333300  0.83213900  1
  Ba  Ba6  1  0.17020000  0.34040000  0.66144400  1
  Ba  Ba7  1  0.82980000  0.65960000  0.16144400  1
  Eu  Eu8  1  0.48020200  0.51979800  0.00586900  1
  Eu  Eu9  1  0.00000000  0.00000000  0.84141900  1
  Eu  Eu10  1  0.51979800  0.48020200  0.50586900  1
  Eu  Eu11  1  0.48020200  0.96040300  0.00586900  1
  Eu  Eu12  1  0.03959700  0.51979800  0.00586900  1
  Eu  Eu13  1  0.00000000  0.00000000  0.34141900  1
  Eu  Eu14  1  0.96040300  0.48020200  0.50586900  1
  Eu  Eu15  1  0.51979800  0.03959700  0.50586900  1
  Zn  Zn16  1  0.17205400  0.34410800  0.17454600  1
  Zn  Zn17  1  0.17205400  0.82794600  0.17454600  1
  Zn  Zn18  1  0.82794600  0.65589200  0.67454600  1
  Zn  Zn19  1  0.82794600  0.17205400  0.67454600  1
  Zn  Zn20  1  0.65589200  0.82794600  0.17454600  1
  Zn  Zn21  1  0.34410800  0.17205400  0.67454600  1
  Pt  Pt22  1  0.66666700  0.33333300  0.31662600  1
  Pt  Pt23  1  0.33333300  0.66666700  0.81662600  1
  O  O24  1  0.94228500  0.33767300  0.80289000  1
  O  O25  1  0.16811500  0.08405800  0.57282300  1
  O  O26  1  0.41513100  0.83026200  0.65578500  1
  O  O27  1  0.25167300  0.74832700  0.98750900  1
  O  O28  1  0.60461200  0.66232700  0.30289000  1
  O  O29  1  0.33767300  0.94228500  0.30289000  1
  O  O30  1  0.33767300  0.39538800  0.30289000  1
  O  O31  1  0.58486900  0.16973800  0.15578500  1
  O  O32  1  0.91594200  0.08405800  0.57282300  1
  O  O33  1  0.74832700  0.49665400  0.48750900  1
  O  O34  1  0.08405800  0.91594200  0.07282300  1
  O  O35  1  0.50334600  0.25167300  0.48750900  1
  O  O36  1  0.41513100  0.58486900  0.65578500  1
  O  O37  1  0.39538800  0.05771500  0.80289000  1
  O  O38  1  0.58486900  0.41513100  0.15578500  1
  O  O39  1  0.60461200  0.94228500  0.30289000  1
  O  O40  1  0.05771500  0.66232700  0.30289000  1
  O  O41  1  0.66232700  0.05771500  0.80289000  1
  O  O42  1  0.39538800  0.33767300  0.80289000  1
  O  O43  1  0.49665400  0.74832700  0.98750900  1
  O  O44  1  0.08405800  0.16811500  0.07282300  1
  O  O45  1  0.16973800  0.58486900  0.65578500  1
  O  O46  1  0.91594200  0.83188500  0.57282300  1
  O  O47  1  0.83188500  0.91594200  0.07282300  1
  O  O48  1  0.83026200  0.41513100  0.15578500  1
  O  O49  1  0.25167300  0.50334600  0.98750900  1
  O  O50  1  0.94228500  0.60461200  0.80289000  1
  O  O51  1  0.74832700  0.25167300  0.48750900  1
  O  O52  1  0.05771500  0.39538800  0.30289000  1
  O  O53  1  0.66232700  0.60461200  0.80289000  1
