# generated using pymatgen
data_SrSi2O5
_symmetry_space_group_name_H-M   'P 1'
_cell_length_a   5.38669968
_cell_length_b   5.38669968
_cell_length_c   13.66936700
_cell_angle_alpha   90.00000000
_cell_angle_beta   90.00000000
_cell_angle_gamma   121.13584676
_symmetry_Int_Tables_number   1
_chemical_formula_structural   SrSi2O5
_chemical_formula_sum   'Sr4 Si8 O20'
_cell_volume   339.49951315
_cell_formula_units_Z   4
loop_
 _symmetry_equiv_pos_site_id
 _symmetry_equiv_pos_as_xyz
  1  'x, y, z'
loop_
 _atom_site_type_symbol
 _atom_site_label
 _atom_site_symmetry_multiplicity
 _atom_site_fract_x
 _atom_site_fract_y
 _atom_site_fract_z
 _atom_site_occupancy
  Sr  Sr0  1  0.66074000  0.33926000  0.91608700  1
  Sr  Sr1  1  0.16074000  0.83926000  0.58391300  1
  Sr  Sr2  1  0.33926000  0.66074000  0.08391300  1
  Sr  Sr3  1  0.83926000  0.16074000  0.41608700  1
  Si  Si4  1  0.49425000  0.50575000  0.63854900  1
  Si  Si5  1  0.00575000  0.99425000  0.13854900  1
  Si  Si6  1  0.17384400  0.82615600  0.31639700  1
  Si  Si7  1  0.99425000  0.00575000  0.86145100  1
  Si  Si8  1  0.82615600  0.17384400  0.68360300  1
  Si  Si9  1  0.50575000  0.49425000  0.36145100  1
  Si  Si10  1  0.32615600  0.67384400  0.81639700  1
  Si  Si11  1  0.67384400  0.32615600  0.18360300  1
  O  O12  1  0.83498700  0.16501300  0.10262500  1
  O  O13  1  0.84440100  0.66469500  0.40617400  1
  O  O14  1  0.16469500  0.34440100  0.90617400  1
  O  O15  1  0.16501300  0.83498700  0.89737500  1
  O  O16  1  0.33498700  0.66501300  0.39737500  1
  O  O17  1  0.66501300  0.33498700  0.60262500  1
  O  O18  1  0.48823500  0.51176500  0.75692700  1
  O  O19  1  0.66469500  0.84440100  0.59382600  1
  O  O20  1  0.01176500  0.98823500  0.25692700  1
  O  O21  1  0.33530500  0.15559900  0.40617400  1
  O  O22  1  0.34440100  0.16469500  0.09382600  1
  O  O23  1  0.00346200  0.49653800  0.75000000  1
  O  O24  1  0.15559900  0.33530500  0.59382600  1
  O  O25  1  0.65559900  0.83530500  0.90617400  1
  O  O26  1  0.83530500  0.65559900  0.09382600  1
  O  O27  1  0.98823500  0.01176500  0.74307300  1
  O  O28  1  0.99653800  0.50346200  0.25000000  1
  O  O29  1  0.49653800  0.00346200  0.25000000  1
  O  O30  1  0.51176500  0.48823500  0.24307300  1
  O  O31  1  0.50346200  0.99653800  0.75000000  1
