# generated using pymatgen
data_C4SeO2
_symmetry_space_group_name_H-M   'P 1'
_cell_length_a   4.46058600
_cell_length_b   9.12810600
_cell_length_c   11.70857600
_cell_angle_alpha   90.00000000
_cell_angle_beta   90.00000000
_cell_angle_gamma   90.00000000
_symmetry_Int_Tables_number   1
_chemical_formula_structural   C4SeO2
_chemical_formula_sum   'C16 Se4 O8'
_cell_volume   476.73459785
_cell_formula_units_Z   4
loop_
 _symmetry_equiv_pos_site_id
 _symmetry_equiv_pos_as_xyz
  1  'x, y, z'
loop_
 _atom_site_type_symbol
 _atom_site_label
 _atom_site_symmetry_multiplicity
 _atom_site_fract_x
 _atom_site_fract_y
 _atom_site_fract_z
 _atom_site_occupancy
  C  C0  1  0.91656600  0.06400900  0.88221100  1
  C  C1  1  0.58343400  0.56400900  0.61778900  1
  C  C2  1  0.41656600  0.43599100  0.61778900  1
  C  C3  1  0.90587400  0.07158800  0.24596000  1
  C  C4  1  0.59412600  0.57158800  0.25404000  1
  C  C5  1  0.58343400  0.56400900  0.38221100  1
  C  C6  1  0.40587400  0.42841200  0.74596000  1
  C  C7  1  0.09412600  0.92841200  0.75404000  1
  C  C8  1  0.08343400  0.93599100  0.11778900  1
  C  C9  1  0.91656600  0.06400900  0.11778900  1
  C  C10  1  0.40587400  0.42841200  0.25404000  1
  C  C11  1  0.90587400  0.07158800  0.75404000  1
  C  C12  1  0.59412600  0.57158800  0.74596000  1
  C  C13  1  0.08343400  0.93599100  0.88221100  1
  C  C14  1  0.41656600  0.43599100  0.38221100  1
  C  C15  1  0.09412600  0.92841200  0.24596000  1
  Se  Se16  1  0.23743200  0.81727200  0.00000000  1
  Se  Se17  1  0.76256800  0.18272800  0.00000000  1
  Se  Se18  1  0.26256800  0.31727200  0.50000000  1
  Se  Se19  1  0.73743200  0.68272800  0.50000000  1
  O  O20  1  0.70275500  0.65216100  0.81732200  1
  O  O21  1  0.79724500  0.15216100  0.31732200  1
  O  O22  1  0.29724500  0.34783900  0.18267800  1
  O  O23  1  0.70275500  0.65216100  0.18267800  1
  O  O24  1  0.20275500  0.84783900  0.68267800  1
  O  O25  1  0.20275500  0.84783900  0.31732200  1
  O  O26  1  0.79724500  0.15216100  0.68267800  1
  O  O27  1  0.29724500  0.34783900  0.81732200  1
