# generated using pymatgen
data_Pr10Se14O
_symmetry_space_group_name_H-M   'P 1'
_cell_length_a   15.36423670
_cell_length_b   15.36423670
_cell_length_c   15.36423670
_cell_angle_alpha   117.81494911
_cell_angle_beta   117.81494911
_cell_angle_gamma   93.82820941
_symmetry_Int_Tables_number   1
_chemical_formula_structural   Pr10Se14O
_chemical_formula_sum   'Pr40 Se56 O4'
_cell_volume   2642.90933204
_cell_formula_units_Z   4
loop_
 _symmetry_equiv_pos_site_id
 _symmetry_equiv_pos_as_xyz
  1  'x, y, z'
loop_
 _atom_site_type_symbol
 _atom_site_label
 _atom_site_symmetry_multiplicity
 _atom_site_fract_x
 _atom_site_fract_y
 _atom_site_fract_z
 _atom_site_occupancy
  Pr  Pr0  1  0.56101100  0.69450300  0.12442700  1
  Pr  Pr1  1  0.18898900  0.55549700  0.37557300  1
  Pr  Pr2  1  0.68898900  0.31341700  0.63349200  1
  Pr  Pr3  1  0.29253600  0.14555700  0.59345400  1
  Pr  Pr4  1  0.17992400  0.81341700  0.62442700  1
  Pr  Pr5  1  0.13346500  0.36653500  0.50000000  1
  Pr  Pr6  1  0.45746400  0.10444300  0.90654600  1
  Pr  Pr7  1  0.80091800  0.94789700  0.59345400  1
  Pr  Pr8  1  0.55210300  0.69908200  0.40654600  1
  Pr  Pr9  1  0.57007600  0.43658300  0.87557300  1
  Pr  Pr10  1  0.36653500  0.86653500  0.23307100  1
  Pr  Pr11  1  0.11653500  0.11653500  0.73307100  1
  Pr  Pr12  1  0.95746400  0.05091800  0.35302100  1
  Pr  Pr13  1  0.89555700  0.80210300  0.35302100  1
  Pr  Pr14  1  0.63346500  0.13346500  0.76692900  1
  Pr  Pr15  1  0.18658300  0.81101100  0.36650800  1
  Pr  Pr16  1  0.38346500  0.38346500  0.26692900  1
  Pr  Pr17  1  0.56341700  0.43898900  0.13349200  1
  Pr  Pr18  1  0.69789700  0.60444300  0.64697900  1
  Pr  Pr19  1  0.94908200  0.30210300  0.90654600  1
  Pr  Pr20  1  0.85444300  0.44789700  0.14697900  1
  Pr  Pr21  1  0.39555700  0.04253600  0.09345400  1
  Pr  Pr22  1  0.79253600  0.19908200  0.14697900  1
  Pr  Pr23  1  0.19789700  0.55091800  0.09345400  1
  Pr  Pr24  1  0.35444300  0.20746400  0.40654600  1
  Pr  Pr25  1  0.68658300  0.32007600  0.37557300  1
  Pr  Pr26  1  0.06341700  0.92992400  0.12442700  1
  Pr  Pr27  1  0.86653500  0.63346500  0.50000000  1
  Pr  Pr28  1  0.44450300  0.82007600  0.63349200  1
  Pr  Pr29  1  0.94450300  0.31101100  0.62442700  1
  Pr  Pr30  1  0.05210300  0.64555700  0.85302100  1
  Pr  Pr31  1  0.61653500  0.88346500  0.00000000  1
  Pr  Pr32  1  0.88346500  0.61653500  0.00000000  1
  Pr  Pr33  1  0.44908200  0.54253600  0.64697900  1
  Pr  Pr34  1  0.30091800  0.70746400  0.85302100  1
  Pr  Pr35  1  0.80549700  0.93898900  0.87557300  1
  Pr  Pr36  1  0.06101100  0.93658300  0.86650800  1
  Pr  Pr37  1  0.07007600  0.19450300  0.13349200  1
  Pr  Pr38  1  0.67992400  0.05549700  0.36650800  1
  Pr  Pr39  1  0.30549700  0.42992400  0.86650800  1
  Se  Se40  1  0.49113200  0.10033900  0.34600100  1
  Se  Se41  1  0.25886800  0.14966100  0.15399900  1
  Se  Se42  1  0.97978500  0.87500000  0.60478500  1
  Se  Se43  1  0.62500000  0.52021500  0.39521500  1
  Se  Se44  1  0.99113200  0.64513100  0.39079300  1
  Se  Se45  1  0.11689300  0.33534500  0.85888000  1
  Se  Se46  1  0.35328500  0.37502300  0.66382400  1
  Se  Se47  1  0.71119900  0.68946000  0.33617600  1
  Se  Se48  1  0.47646500  0.25801400  0.14112000  1
  Se  Se49  1  0.74198600  0.88310700  0.21845200  1
  Se  Se50  1  0.93946000  0.46119900  0.83617600  1
  Se  Se51  1  0.35033900  0.24113200  0.84600100  1
  Se  Se52  1  0.27021500  0.37500000  0.39521500  1
  Se  Se53  1  0.39671500  0.87497700  0.83617600  1
  Se  Se54  1  0.58534500  0.86689300  0.35888000  1
  Se  Se55  1  0.03880100  0.56054000  0.16382400  1
  Se  Se56  1  0.35486900  0.74566100  0.34600100  1
  Se  Se57  1  0.00801400  0.36689300  0.28154800  1
  Se  Se58  1  0.99566100  0.10486900  0.84600100  1
  Se  Se59  1  0.63310700  0.91465500  0.64112000  1
  Se  Se60  1  0.39966100  0.00886800  0.65399900  1
  Se  Se61  1  0.75886800  0.60486900  0.10920700  1
  Se  Se62  1  0.12502300  0.96119900  0.52173900  1
  Se  Se63  1  0.97646500  0.83534500  0.21845200  1
  Se  Se64  1  0.47978500  0.87500000  0.10478500  1
  Se  Se65  1  0.85486900  0.50886800  0.60920700  1
  Se  Se66  1  0.75433900  0.14513100  0.65399900  1
  Se  Se67  1  0.62502300  0.10328500  0.16382400  1
  Se  Se68  1  0.89966100  0.24566100  0.39079300  1
  Se  Se69  1  0.31054000  0.64671500  0.02173900  1
  Se  Se70  1  0.39513100  0.50433900  0.15399900  1
  Se  Se71  1  0.77353500  0.41465500  0.28154800  1
  Se  Se72  1  0.50801400  0.22646500  0.64112000  1
  Se  Se73  1  0.12497700  0.14671500  0.33617600  1
  Se  Se74  1  0.21119900  0.87502300  0.02173900  1
  Se  Se75  1  0.27353500  0.99198600  0.35888000  1
  Se  Se76  1  0.62500000  0.02021500  0.89521500  1
  Se  Se77  1  0.08534500  0.72646500  0.71845200  1
  Se  Se78  1  0.13310700  0.49198600  0.71845200  1
  Se  Se79  1  0.62497700  0.28880100  0.97826100  1
  Se  Se80  1  0.49566100  0.64966100  0.89079300  1
  Se  Se81  1  0.61689300  0.75801400  0.78154800  1
  Se  Se82  1  0.43946000  0.60328500  0.47826100  1
  Se  Se83  1  0.12500000  0.72978500  0.10478500  1
  Se  Se84  1  0.85328500  0.18946000  0.97826100  1
  Se  Se85  1  0.66465500  0.52353500  0.78154800  1
  Se  Se86  1  0.25433900  0.60033900  0.60920700  1
  Se  Se87  1  0.12500000  0.22978500  0.60478500  1
  Se  Se88  1  0.16465500  0.38310700  0.14112000  1
  Se  Se89  1  0.85033900  0.00433900  0.10920700  1
  Se  Se90  1  0.53880100  0.37497700  0.47826100  1
  Se  Se91  1  0.77021500  0.37500000  0.89521500  1
  Se  Se92  1  0.81054000  0.78880100  0.66382400  1
  Se  Se93  1  0.89671500  0.06054000  0.52173900  1
  Se  Se94  1  0.89513100  0.74113200  0.89079300  1
  Se  Se95  1  0.24198600  0.02353500  0.85888000  1
  O  O96  1  0.75000000  0.25000000  0.50000000  1
  O  O97  1  0.50000000  0.50000000  0.00000000  1
  O  O98  1  0.25000000  0.75000000  0.50000000  1
  O  O99  1  0.00000000  0.00000000  0.00000000  1
