# generated using pymatgen
data_CaSiO3
_symmetry_space_group_name_H-M   'P 1'
_cell_length_a   5.10169400
_cell_length_b   5.11574900
_cell_length_c   7.20644700
_cell_angle_alpha   90.00000000
_cell_angle_beta   90.00000000
_cell_angle_gamma   90.00000000
_symmetry_Int_Tables_number   1
_chemical_formula_structural   CaSiO3
_chemical_formula_sum   'Ca4 Si4 O12'
_cell_volume   188.08095921
_cell_formula_units_Z   4
loop_
 _symmetry_equiv_pos_site_id
 _symmetry_equiv_pos_as_xyz
  1  'x, y, z'
loop_
 _atom_site_type_symbol
 _atom_site_label
 _atom_site_symmetry_multiplicity
 _atom_site_fract_x
 _atom_site_fract_y
 _atom_site_fract_z
 _atom_site_occupancy
  Ca  Ca0  1  0.49280000  0.99894200  0.25000000  1
  Ca  Ca1  1  0.50720000  0.00105800  0.75000000  1
  Ca  Ca2  1  0.99280000  0.50105800  0.25000000  1
  Ca  Ca3  1  0.00720000  0.49894200  0.75000000  1
  Si  Si4  1  0.00000000  0.00000000  0.50000000  1
  Si  Si5  1  0.00000000  0.00000000  0.00000000  1
  Si  Si6  1  0.50000000  0.50000000  0.00000000  1
  Si  Si7  1  0.50000000  0.50000000  0.50000000  1
  O  O8  1  0.73789100  0.76211000  0.48190100  1
  O  O9  1  0.26210900  0.23789000  0.98190100  1
  O  O10  1  0.99876400  0.96456800  0.75000000  1
  O  O11  1  0.76210900  0.26211000  0.51809900  1
  O  O12  1  0.00123600  0.03543200  0.25000000  1
  O  O13  1  0.50123600  0.46456800  0.25000000  1
  O  O14  1  0.76210900  0.26211000  0.98190100  1
  O  O15  1  0.49876400  0.53543200  0.75000000  1
  O  O16  1  0.26210900  0.23789000  0.51809900  1
  O  O17  1  0.23789100  0.73789000  0.48190100  1
  O  O18  1  0.73789100  0.76211000  0.01809900  1
  O  O19  1  0.23789100  0.73789000  0.01809900  1
