# generated using pymatgen
data_La2Mg
_symmetry_space_group_name_H-M   'P 1'
_cell_length_a   6.90061018
_cell_length_b   6.90061018
_cell_length_c   6.90060970
_cell_angle_alpha   53.54357167
_cell_angle_beta   53.54357167
_cell_angle_gamma   53.54357721
_symmetry_Int_Tables_number   1
_chemical_formula_structural   La2Mg
_chemical_formula_sum   'La4 Mg2'
_cell_volume   197.25499753
_cell_formula_units_Z   2
loop_
 _symmetry_equiv_pos_site_id
 _symmetry_equiv_pos_as_xyz
  1  'x, y, z'
loop_
 _atom_site_type_symbol
 _atom_site_label
 _atom_site_symmetry_multiplicity
 _atom_site_fract_x
 _atom_site_fract_y
 _atom_site_fract_z
 _atom_site_occupancy
  La  La0  1  0.00000000  0.67798400  0.32201600  1
  La  La1  1  0.67798400  0.32201600  0.00000000  1
  La  La2  1  0.50000000  0.50000000  0.50000000  1
  La  La3  1  0.32201600  0.00000000  0.67798400  1
  Mg  Mg4  1  0.83263300  0.83263300  0.83263300  1
  Mg  Mg5  1  0.16736700  0.16736700  0.16736700  1
