# generated using pymatgen
data_ReSF4
_symmetry_space_group_name_H-M   'P 1'
_cell_length_a   8.61476750
_cell_length_b   11.39770217
_cell_length_c   28.67345130
_cell_angle_alpha   90.00000000
_cell_angle_beta   90.00000000
_cell_angle_gamma   90.00000000
_symmetry_Int_Tables_number   1
_chemical_formula_structural   ReSF4
_chemical_formula_sum   'Re24 S24 F96'
_cell_volume   2815.40472790
_cell_formula_units_Z   24
loop_
 _symmetry_equiv_pos_site_id
 _symmetry_equiv_pos_as_xyz
  1  'x, y, z'
loop_
 _atom_site_type_symbol
 _atom_site_label
 _atom_site_symmetry_multiplicity
 _atom_site_fract_x
 _atom_site_fract_y
 _atom_site_fract_z
 _atom_site_occupancy
  Re  Re0  1  0.38637894  0.76576423  0.14736292  1
  Re  Re1  1  0.61362106  0.23423577  0.64736292  1
  Re  Re2  1  0.95777036  0.90704147  0.89731923  1
  Re  Re3  1  0.38637894  0.73423577  0.64736292  1
  Re  Re4  1  0.08464287  0.03761137  0.03327209  1
  Re  Re5  1  0.57120698  0.74138608  0.46586426  1
  Re  Re6  1  0.95777036  0.59295853  0.39731923  1
  Re  Re7  1  0.11881698  0.99878278  0.71453152  1
  Re  Re8  1  0.46635086  0.59500956  0.78339726  1
  Re  Re9  1  0.88118302  0.00121722  0.21453152  1
  Re  Re10  1  0.91535713  0.96238863  0.53327209  1
  Re  Re11  1  0.42879302  0.25861392  0.96586426  1
  Re  Re12  1  0.53364914  0.40499044  0.28339726  1
  Re  Re13  1  0.42879302  0.24138608  0.46586426  1
  Re  Re14  1  0.88118302  0.49878278  0.71453152  1
  Re  Re15  1  0.57120698  0.75861392  0.96586426  1
  Re  Re16  1  0.04222964  0.40704147  0.89731923  1
  Re  Re17  1  0.61362106  0.26576423  0.14736292  1
  Re  Re18  1  0.11881698  0.50121722  0.21453152  1
  Re  Re19  1  0.04222964  0.09295853  0.39731923  1
  Re  Re20  1  0.53364914  0.09500956  0.78339726  1
  Re  Re21  1  0.91535713  0.53761137  0.03327209  1
  Re  Re22  1  0.46635086  0.90499044  0.28339726  1
  Re  Re23  1  0.08464287  0.46238863  0.53327209  1
  S  S24  1  0.48096172  0.58278623  0.62016597  1
  S  S25  1  0.55115998  0.00261106  0.33815989  1
  S  S26  1  0.63785405  0.31878650  0.48200171  1
  S  S27  1  0.36214595  0.81878650  0.48200171  1
  S  S28  1  0.44884002  0.50261106  0.33815989  1
  S  S29  1  0.10280733  0.19286191  0.34015385  1
  S  S30  1  0.08132553  0.43825780  0.06684845  1
  S  S31  1  0.89719267  0.80713809  0.84015385  1
  S  S32  1  0.51903828  0.41721377  0.12016597  1
  S  S33  1  0.91867447  0.93825780  0.06684845  1
  S  S34  1  0.91773890  0.91886938  0.69163109  1
  S  S35  1  0.91773890  0.58113062  0.19163109  1
  S  S36  1  0.48096172  0.91721377  0.12016597  1
  S  S37  1  0.10280733  0.30713809  0.84015385  1
  S  S38  1  0.08226110  0.41886938  0.69163109  1
  S  S39  1  0.89719267  0.69286191  0.34015385  1
  S  S40  1  0.08132553  0.06174220  0.56684845  1
  S  S41  1  0.91867447  0.56174220  0.56684845  1
  S  S42  1  0.51903828  0.08278623  0.62016597  1
  S  S43  1  0.08226110  0.08113062  0.19163109  1
  S  S44  1  0.55115998  0.49738894  0.83815989  1
  S  S45  1  0.44884002  0.99738894  0.83815989  1
  S  S46  1  0.63785405  0.18121350  0.98200171  1
  S  S47  1  0.36214595  0.68121350  0.98200171  1
  F  F48  1  0.36305404  0.08127414  0.73842674  1
  F  F49  1  0.12762474  0.82319350  0.92286603  1
  F  F50  1  0.16921494  0.79622036  0.14531223  1
  F  F51  1  0.35960322  0.67066230  0.09345211  1
  F  F52  1  0.62581721  0.30115426  0.21381614  1
  F  F53  1  0.56106914  0.67137374  0.16176262  1
  F  F54  1  0.43893086  0.17137374  0.16176262  1
  F  F55  1  0.02584784  0.01736827  0.96812479  1
  F  F56  1  0.71857953  0.85574654  0.49001621  1
  F  F57  1  0.38415848  0.30042289  0.40534231  1
  F  F58  1  0.83078506  0.29622036  0.14531223  1
  F  F59  1  0.87237526  0.32319350  0.92286603  1
  F  F60  1  0.20268328  0.40072148  0.58347653  1
  F  F61  1  0.54338633  0.74846485  0.79464675  1
  F  F62  1  0.63694596  0.58127414  0.73842674  1
  F  F63  1  0.99242249  0.31164096  0.52778581  1
  F  F64  1  0.02584784  0.48263173  0.46812479  1
  F  F65  1  0.82946214  0.83830013  0.94646320  1
  F  F66  1  0.99242249  0.18835904  0.02778581  1
  F  F67  1  0.00757751  0.68835904  0.02778581  1
  F  F68  1  0.95320837  0.88266198  0.25525709  1
  F  F69  1  0.28142047  0.14425346  0.99001621  1
  F  F70  1  0.72780394  0.35150030  0.30474887  1
  F  F71  1  0.79731672  0.59927852  0.08347653  1
  F  F72  1  0.54338633  0.75153515  0.29464675  1
  F  F73  1  0.37868698  0.14871271  0.51902476  1
  F  F74  1  0.95320837  0.61733802  0.75525709  1
  F  F75  1  0.10361343  0.48507559  0.37291722  1
  F  F76  1  0.51156905  0.59966049  0.43650228  1
  F  F77  1  0.10361343  0.01492441  0.87291722  1
  F  F78  1  0.16921494  0.70377964  0.64531223  1
  F  F79  1  0.17122494  0.58986169  0.26832693  1
  F  F80  1  0.18637271  0.53271285  0.89804988  1
  F  F81  1  0.24850347  0.57134016  0.52413690  1
  F  F82  1  0.63694596  0.91872586  0.23842674  1
  F  F83  1  0.27219606  0.85150030  0.30474887  1
  F  F84  1  0.87237526  0.17680650  0.42286603  1
  F  F85  1  0.62581721  0.19884574  0.71381614  1
  F  F86  1  0.64039678  0.32933770  0.59345211  1
  F  F87  1  0.89638657  0.51492441  0.87291722  1
  F  F88  1  0.75149653  0.07134016  0.52413690  1
  F  F89  1  0.64039678  0.17066230  0.09345211  1
  F  F90  1  0.81362729  0.03271285  0.89804988  1
  F  F91  1  0.18637271  0.96728715  0.39804988  1
  F  F92  1  0.15704929  0.11936843  0.67018837  1
  F  F93  1  0.82946214  0.66169987  0.44646320  1
  F  F94  1  0.89638657  0.98507559  0.37291722  1
  F  F95  1  0.35850632  0.48127056  0.74737473  1
  F  F96  1  0.62131302  0.85128729  0.01902476  1
  F  F97  1  0.64149368  0.51872944  0.24737473  1
  F  F98  1  0.72522774  0.40948720  0.67965325  1
  F  F99  1  0.48843095  0.09966049  0.43650228  1
  F  F100  1  0.36305404  0.41872586  0.23842674  1
  F  F101  1  0.79731672  0.90072148  0.58347653  1
  F  F102  1  0.97415216  0.51736827  0.96812479  1
  F  F103  1  0.48843095  0.40033951  0.93650228  1
  F  F104  1  0.28142047  0.35574654  0.49001621  1
  F  F105  1  0.62131302  0.64871271  0.51902476  1
  F  F106  1  0.56106914  0.82862626  0.66176262  1
  F  F107  1  0.38415848  0.19957711  0.90534231  1
  F  F108  1  0.12762474  0.67680650  0.42286603  1
  F  F109  1  0.61584152  0.69957711  0.90534231  1
  F  F110  1  0.37418279  0.80115426  0.21381614  1
  F  F111  1  0.83078506  0.20377964  0.64531223  1
  F  F112  1  0.00757751  0.81164096  0.52778581  1
  F  F113  1  0.45661367  0.24846485  0.79464675  1
  F  F114  1  0.51156905  0.90033951  0.93650228  1
  F  F115  1  0.35850632  0.01872944  0.24737473  1
  F  F116  1  0.64149368  0.98127056  0.74737473  1
  F  F117  1  0.20268328  0.09927852  0.08347653  1
  F  F118  1  0.04679163  0.38266198  0.25525709  1
  F  F119  1  0.04679163  0.11733802  0.75525709  1
  F  F120  1  0.35960322  0.82933770  0.59345211  1
  F  F121  1  0.82877506  0.08986169  0.26832693  1
  F  F122  1  0.17122494  0.91013831  0.76832693  1
  F  F123  1  0.72780394  0.14849970  0.80474887  1
  F  F124  1  0.17053786  0.16169987  0.44646320  1
  F  F125  1  0.37418279  0.69884574  0.71381614  1
  F  F126  1  0.15704929  0.38063157  0.17018837  1
  F  F127  1  0.72522774  0.09051280  0.17965325  1
  F  F128  1  0.24850347  0.92865984  0.02413690  1
  F  F129  1  0.27219606  0.64849970  0.80474887  1
  F  F130  1  0.37868698  0.35128729  0.01902476  1
  F  F131  1  0.45661367  0.25153515  0.29464675  1
  F  F132  1  0.27477226  0.90948720  0.67965325  1
  F  F133  1  0.84295071  0.61936843  0.67018837  1
  F  F134  1  0.81362729  0.46728715  0.39804988  1
  F  F135  1  0.27477226  0.59051280  0.17965325  1
  F  F136  1  0.75149653  0.42865984  0.02413690  1
  F  F137  1  0.61584152  0.80042289  0.40534231  1
  F  F138  1  0.82877506  0.41013831  0.76832693  1
  F  F139  1  0.71857953  0.64425346  0.99001621  1
  F  F140  1  0.17053786  0.33830013  0.94646320  1
  F  F141  1  0.97415216  0.98263173  0.46812479  1
  F  F142  1  0.84295071  0.88063157  0.17018837  1
  F  F143  1  0.43893086  0.32862626  0.66176262  1
