# generated using pymatgen
data_SeS2(NCl)2
_symmetry_space_group_name_H-M   'P 1'
_cell_length_a   9.65667600
_cell_length_b   10.75755300
_cell_length_c   14.17699951
_cell_angle_alpha   75.47942411
_cell_angle_beta   90.00000000
_cell_angle_gamma   90.00000000
_symmetry_Int_Tables_number   1
_chemical_formula_structural   SeS2(NCl)2
_chemical_formula_sum   'Se8 S16 N16 Cl16'
_cell_volume   1425.69525994
_cell_formula_units_Z   8
loop_
 _symmetry_equiv_pos_site_id
 _symmetry_equiv_pos_as_xyz
  1  'x, y, z'
loop_
 _atom_site_type_symbol
 _atom_site_label
 _atom_site_symmetry_multiplicity
 _atom_site_fract_x
 _atom_site_fract_y
 _atom_site_fract_z
 _atom_site_occupancy
  Se  Se0  1  0.81078100  0.35534900  0.54945700  1
  Se  Se1  1  0.68921900  0.35534900  0.04945700  1
  Se  Se2  1  0.18921900  0.64465100  0.45054300  1
  Se  Se3  1  0.78083900  0.95637400  0.49921400  1
  Se  Se4  1  0.71916100  0.95637400  0.99921400  1
  Se  Se5  1  0.28083900  0.04362600  0.00078600  1
  Se  Se6  1  0.21916100  0.04362600  0.50078600  1
  Se  Se7  1  0.31078100  0.64465100  0.95054300  1
  S  S8  1  0.36846700  0.18548500  0.32772000  1
  S  S9  1  0.86846700  0.81451500  0.17228000  1
  S  S10  1  0.92759900  0.44496000  0.14117200  1
  S  S11  1  0.71854500  0.21520100  0.68970600  1
  S  S12  1  0.63075400  0.75680200  0.08172700  1
  S  S13  1  0.28145500  0.78479900  0.31029400  1
  S  S14  1  0.36924600  0.24319800  0.91827300  1
  S  S15  1  0.57240100  0.44496000  0.64117200  1
  S  S16  1  0.86924600  0.75680200  0.58172700  1
  S  S17  1  0.78145500  0.21520100  0.18970600  1
  S  S18  1  0.07240100  0.55504000  0.85882800  1
  S  S19  1  0.63153300  0.81451500  0.67228000  1
  S  S20  1  0.21854500  0.78479900  0.81029400  1
  S  S21  1  0.42759900  0.55504000  0.35882800  1
  S  S22  1  0.13153300  0.18548500  0.82772000  1
  S  S23  1  0.13075400  0.24319800  0.41827300  1
  N  N24  1  0.14584700  0.05751100  0.91117300  1
  N  N25  1  0.24708000  0.28040300  0.33457800  1
  N  N26  1  0.68273400  0.47540500  0.55567300  1
  N  N27  1  0.85415300  0.94248900  0.08882700  1
  N  N28  1  0.18273400  0.52459500  0.94432700  1
  N  N29  1  0.25292000  0.28040300  0.83457800  1
  N  N30  1  0.59643200  0.30742200  0.70910100  1
  N  N31  1  0.35415300  0.05751100  0.41117300  1
  N  N32  1  0.81726600  0.47540500  0.05567300  1
  N  N33  1  0.64584700  0.94248900  0.58882700  1
  N  N34  1  0.90356800  0.30742200  0.20910100  1
  N  N35  1  0.31726600  0.52459500  0.44432700  1
  N  N36  1  0.09643200  0.69257800  0.79089900  1
  N  N37  1  0.40356800  0.69257800  0.29089900  1
  N  N38  1  0.74708000  0.71959700  0.16542200  1
  N  N39  1  0.75292000  0.71959700  0.66542200  1
  Cl  Cl40  1  0.04134400  0.90885700  0.40228500  1
  Cl  Cl41  1  0.54134400  0.09114300  0.09771500  1
  Cl  Cl42  1  0.95865600  0.09114300  0.59771500  1
  Cl  Cl43  1  0.83941200  0.89191100  0.87728500  1
  Cl  Cl44  1  0.17643000  0.73169500  0.06832200  1
  Cl  Cl45  1  0.45865600  0.90885700  0.90228500  1
  Cl  Cl46  1  0.16058800  0.10808900  0.12271500  1
  Cl  Cl47  1  0.67643000  0.26830500  0.43167800  1
  Cl  Cl48  1  0.00731100  0.55493300  0.36109200  1
  Cl  Cl49  1  0.33941200  0.10808900  0.62271500  1
  Cl  Cl50  1  0.66058800  0.89191100  0.37728500  1
  Cl  Cl51  1  0.49268900  0.55493300  0.86109200  1
  Cl  Cl52  1  0.50731100  0.44506700  0.13890800  1
  Cl  Cl53  1  0.99268900  0.44506700  0.63890800  1
  Cl  Cl54  1  0.32357000  0.73169500  0.56832200  1
  Cl  Cl55  1  0.82357000  0.26830500  0.93167800  1
