# generated using pymatgen
data_SbH3CSCl6O
_symmetry_space_group_name_H-M   'P 1'
_cell_length_a   20.16560900
_cell_length_b   6.77427500
_cell_length_c   10.60868687
_cell_angle_alpha   60.36239248
_cell_angle_beta   90.00000000
_cell_angle_gamma   90.00000000
_symmetry_Int_Tables_number   1
_chemical_formula_structural   SbH3CSCl6O
_chemical_formula_sum   'Sb4 H12 C4 S4 Cl24 O4'
_cell_volume   1259.62360037
_cell_formula_units_Z   4
loop_
 _symmetry_equiv_pos_site_id
 _symmetry_equiv_pos_as_xyz
  1  'x, y, z'
loop_
 _atom_site_type_symbol
 _atom_site_label
 _atom_site_symmetry_multiplicity
 _atom_site_fract_x
 _atom_site_fract_y
 _atom_site_fract_z
 _atom_site_occupancy
  Sb  Sb0  1  0.62548600  0.05039300  0.28527300  1
  Sb  Sb1  1  0.12548600  0.94960700  0.21472700  1
  Sb  Sb2  1  0.37451400  0.94960700  0.71472700  1
  Sb  Sb3  1  0.87451400  0.05039300  0.78527300  1
  H  H4  1  0.13725300  0.03894300  0.70715500  1
  H  H5  1  0.94330700  0.96106000  0.36906600  1
  H  H6  1  0.63725300  0.96105700  0.79284500  1
  H  H7  1  0.11759100  0.25548700  0.52378800  1
  H  H8  1  0.44330700  0.03894000  0.13093400  1
  H  H9  1  0.86274700  0.96105700  0.29284500  1
  H  H10  1  0.36274700  0.03894300  0.20715500  1
  H  H11  1  0.88240900  0.74451300  0.47621200  1
  H  H12  1  0.38240900  0.25548700  0.02378800  1
  H  H13  1  0.55669300  0.96106000  0.86906600  1
  H  H14  1  0.61759100  0.74451300  0.97621200  1
  H  H15  1  0.05669300  0.03894000  0.63093400  1
  C  C16  1  0.89041700  0.92196200  0.39157600  1
  C  C17  1  0.39041700  0.07803800  0.10842400  1
  C  C18  1  0.60958300  0.92196200  0.89157600  1
  C  C19  1  0.10958300  0.07803800  0.60842400  1
  S  S20  1  0.64444500  0.08987100  0.96239200  1
  S  S21  1  0.85555500  0.08987100  0.46239200  1
  S  S22  1  0.35555500  0.91012900  0.03760800  1
  S  S23  1  0.14444500  0.91012900  0.53760800  1
  Cl  Cl24  1  0.65648400  0.04566800  0.50169700  1
  Cl  Cl25  1  0.34351600  0.95433200  0.49830300  1
  Cl  Cl26  1  0.20662400  0.66813000  0.35954100  1
  Cl  Cl27  1  0.54077000  0.77372300  0.39112400  1
  Cl  Cl28  1  0.79337600  0.33187000  0.64045900  1
  Cl  Cl29  1  0.62358900  0.40590200  0.79121100  1
  Cl  Cl30  1  0.29337600  0.66813000  0.85954100  1
  Cl  Cl31  1  0.54522400  0.34435800  0.21429800  1
  Cl  Cl32  1  0.70662400  0.33187000  0.14045900  1
  Cl  Cl33  1  0.70340100  0.76258100  0.31735700  1
  Cl  Cl34  1  0.45923000  0.22627700  0.60887600  1
  Cl  Cl35  1  0.37641100  0.59409800  0.20878900  1
  Cl  Cl36  1  0.29659900  0.23741900  0.68264300  1
  Cl  Cl37  1  0.04522400  0.65564200  0.28570200  1
  Cl  Cl38  1  0.20340100  0.23741900  0.18264300  1
  Cl  Cl39  1  0.84351600  0.04566800  0.00169700  1
  Cl  Cl40  1  0.45477600  0.65564200  0.78570200  1
  Cl  Cl41  1  0.79659900  0.76258100  0.81735700  1
  Cl  Cl42  1  0.95923000  0.77372300  0.89112400  1
  Cl  Cl43  1  0.87641100  0.40590200  0.29121100  1
  Cl  Cl44  1  0.15648400  0.95433200  0.99830300  1
  Cl  Cl45  1  0.04077000  0.22627700  0.10887600  1
  Cl  Cl46  1  0.12358900  0.59409800  0.70878900  1
  Cl  Cl47  1  0.95477600  0.34435800  0.71429800  1
  O  O48  1  0.09470000  0.95214400  0.41722300  1
  O  O49  1  0.90530000  0.04785600  0.58277700  1
  O  O50  1  0.59470000  0.04785600  0.08277700  1
  O  O51  1  0.40530000  0.95214400  0.91722300  1
