# generated using pymatgen
data_ZnBi6P2(O7F)2
_symmetry_space_group_name_H-M   'P 1'
_cell_length_a   8.96778646
_cell_length_b   8.96778646
_cell_length_c   16.90520070
_cell_angle_alpha   72.09123690
_cell_angle_beta   72.09123690
_cell_angle_gamma   37.07583714
_symmetry_Int_Tables_number   1
_chemical_formula_structural   ZnBi6P2(O7F)2
_chemical_formula_sum   'Zn2 Bi12 P4 O28 F4'
_cell_volume   775.32001795
_cell_formula_units_Z   2
loop_
 _symmetry_equiv_pos_site_id
 _symmetry_equiv_pos_as_xyz
  1  'x, y, z'
loop_
 _atom_site_type_symbol
 _atom_site_label
 _atom_site_symmetry_multiplicity
 _atom_site_fract_x
 _atom_site_fract_y
 _atom_site_fract_z
 _atom_site_occupancy
  Zn  Zn0  1  0.00000000  0.00000000  0.00000000  1
  Zn  Zn1  1  0.00000000  0.00000000  0.50000000  1
  Bi  Bi2  1  0.26974400  0.13953500  0.82853200  1
  Bi  Bi3  1  0.86046500  0.73025600  0.67146800  1
  Bi  Bi4  1  0.45516000  0.67221500  0.33032200  1
  Bi  Bi5  1  0.73025600  0.86046500  0.17146800  1
  Bi  Bi6  1  0.13953500  0.26974400  0.32853200  1
  Bi  Bi7  1  0.97335700  0.82140100  0.82504100  1
  Bi  Bi8  1  0.67221500  0.45516000  0.83032200  1
  Bi  Bi9  1  0.32778500  0.54484000  0.16967800  1
  Bi  Bi10  1  0.54484000  0.32778500  0.66967800  1
  Bi  Bi11  1  0.17859900  0.02664300  0.67495900  1
  Bi  Bi12  1  0.02664300  0.17859900  0.17495900  1
  Bi  Bi13  1  0.82140100  0.97335700  0.32504100  1
  P  P14  1  0.38873800  0.35656900  0.99071000  1
  P  P15  1  0.61126200  0.64343100  0.00929000  1
  P  P16  1  0.64343100  0.61126200  0.50929000  1
  P  P17  1  0.35656900  0.38873800  0.49071000  1
  O  O18  1  0.34342800  0.83299200  0.05117100  1
  O  O19  1  0.86893900  0.47282300  0.24271000  1
  O  O20  1  0.62421100  0.22804000  0.45463100  1
  O  O21  1  0.63556300  0.68820400  0.91341600  1
  O  O22  1  0.96792000  0.89357500  0.11190100  1
  O  O23  1  0.13106100  0.52717700  0.75729000  1
  O  O24  1  0.81578200  0.18421800  0.75000000  1
  O  O25  1  0.22804000  0.62421100  0.95463100  1
  O  O26  1  0.36443700  0.31179600  0.08658400  1
  O  O27  1  0.64161000  0.02174800  0.75936600  1
  O  O28  1  0.03208000  0.10642500  0.88809900  1
  O  O29  1  0.37578900  0.77196000  0.54536900  1
  O  O30  1  0.47282300  0.86893900  0.74271000  1
  O  O31  1  0.68820400  0.63556300  0.41341600  1
  O  O32  1  0.52717700  0.13106100  0.25729000  1
  O  O33  1  0.16700800  0.65657200  0.44882900  1
  O  O34  1  0.97825200  0.35839000  0.74063400  1
  O  O35  1  0.77196000  0.37578900  0.04536900  1
  O  O36  1  0.89357500  0.96792000  0.61190100  1
  O  O37  1  0.83299200  0.34342800  0.55117100  1
  O  O38  1  0.65657200  0.16700800  0.94882900  1
  O  O39  1  0.02174800  0.64161000  0.25936600  1
  O  O40  1  0.10642500  0.03208000  0.38809900  1
  O  O41  1  0.35839000  0.97825200  0.24063400  1
  O  O42  1  0.18421800  0.81578200  0.25000000  1
  O  O43  1  0.29876200  0.70123800  0.75000000  1
  O  O44  1  0.31179600  0.36443700  0.58658400  1
  O  O45  1  0.70123800  0.29876200  0.25000000  1
  F  F46  1  0.69127500  0.72721800  0.53736700  1
  F  F47  1  0.72721800  0.69127500  0.03736700  1
  F  F48  1  0.27278200  0.30872500  0.96263300  1
  F  F49  1  0.30872500  0.27278200  0.46263300  1
