# generated using pymatgen
data_Na5Cr3F14
_symmetry_space_group_name_H-M   'P 1'
_cell_length_a   7.35487500
_cell_length_b   7.40403800
_cell_length_c   12.90734728
_cell_angle_alpha   55.82360303
_cell_angle_beta   90.00000000
_cell_angle_gamma   90.00000000
_symmetry_Int_Tables_number   1
_chemical_formula_structural   Na5Cr3F14
_chemical_formula_sum   'Na10 Cr6 F28'
_cell_volume   581.50075475
_cell_formula_units_Z   2
loop_
 _symmetry_equiv_pos_site_id
 _symmetry_equiv_pos_as_xyz
  1  'x, y, z'
loop_
 _atom_site_type_symbol
 _atom_site_label
 _atom_site_symmetry_multiplicity
 _atom_site_fract_x
 _atom_site_fract_y
 _atom_site_fract_z
 _atom_site_occupancy
  Na  Na0  1  0.79800800  0.98711400  0.74825900  1
  Na  Na1  1  0.50000000  0.50000000  0.00000000  1
  Na  Na2  1  0.23608700  0.52231900  0.75724900  1
  Na  Na3  1  0.70199200  0.98711400  0.24825900  1
  Na  Na4  1  0.76391300  0.47768100  0.24275100  1
  Na  Na5  1  0.20199200  0.01288600  0.25174100  1
  Na  Na6  1  0.73608700  0.47768100  0.74275100  1
  Na  Na7  1  0.00000000  0.50000000  0.50000000  1
  Na  Na8  1  0.26391300  0.52231900  0.25724900  1
  Na  Na9  1  0.29800800  0.01288600  0.75174100  1
  Cr  Cr10  1  0.00000000  0.00000000  0.00000000  1
  Cr  Cr11  1  0.00000000  0.00000000  0.50000000  1
  Cr  Cr12  1  0.50000000  0.00000000  0.50000000  1
  Cr  Cr13  1  0.00000000  0.50000000  0.00000000  1
  Cr  Cr14  1  0.50000000  0.50000000  0.50000000  1
  Cr  Cr15  1  0.50000000  0.00000000  0.00000000  1
  F  F16  1  0.06023300  0.04878100  0.62884200  1
  F  F17  1  0.51007600  0.68403700  0.11845900  1
  F  F18  1  0.25207600  0.96701200  0.46007400  1
  F  F19  1  0.08215100  0.25095800  0.99730400  1
  F  F20  1  0.74792400  0.03298800  0.53992600  1
  F  F21  1  0.66795600  0.60362600  0.36162300  1
  F  F22  1  0.91784900  0.74904200  0.00269600  1
  F  F23  1  0.33204400  0.39637400  0.63837700  1
  F  F24  1  0.01007600  0.31596300  0.38154100  1
  F  F25  1  0.75207600  0.03298800  0.03992600  1
  F  F26  1  0.24792400  0.96701200  0.96007400  1
  F  F27  1  0.70409400  0.34875700  0.61203200  1
  F  F28  1  0.16795600  0.39637400  0.13837700  1
  F  F29  1  0.45557900  0.81412300  0.67722400  1
  F  F30  1  0.93976700  0.95121900  0.37115800  1
  F  F31  1  0.48992400  0.31596300  0.88154100  1
  F  F32  1  0.20409400  0.65124300  0.88796800  1
  F  F33  1  0.54442100  0.18587700  0.32277600  1
  F  F34  1  0.83204400  0.60362600  0.86162300  1
  F  F35  1  0.41784900  0.25095800  0.49730400  1
  F  F36  1  0.98992400  0.68403700  0.61845900  1
  F  F37  1  0.43976700  0.04878100  0.12884200  1
  F  F38  1  0.95557900  0.18587700  0.82277600  1
  F  F39  1  0.29590600  0.65124300  0.38796800  1
  F  F40  1  0.04442100  0.81412300  0.17722400  1
  F  F41  1  0.79590600  0.34875700  0.11203200  1
  F  F42  1  0.56023300  0.95121900  0.87115800  1
  F  F43  1  0.58215100  0.74904200  0.50269600  1
