# generated using pymatgen
data_NbP4(SCl)5
_symmetry_space_group_name_H-M   'P 1'
_cell_length_a   13.95387300
_cell_length_b   7.27244700
_cell_length_c   18.74227848
_cell_angle_alpha   76.67104264
_cell_angle_beta   90.00000000
_cell_angle_gamma   90.00000000
_symmetry_Int_Tables_number   1
_chemical_formula_structural   NbP4(SCl)5
_chemical_formula_sum   'Nb4 P16 S20 Cl20'
_cell_volume   1850.71031246
_cell_formula_units_Z   4
loop_
 _symmetry_equiv_pos_site_id
 _symmetry_equiv_pos_as_xyz
  1  'x, y, z'
loop_
 _atom_site_type_symbol
 _atom_site_label
 _atom_site_symmetry_multiplicity
 _atom_site_fract_x
 _atom_site_fract_y
 _atom_site_fract_z
 _atom_site_occupancy
  Nb  Nb0  1  0.69333500  0.72852000  0.47029900  1
  Nb  Nb1  1  0.80666500  0.72852000  0.97029900  1
  Nb  Nb2  1  0.30666500  0.27148000  0.52970100  1
  Nb  Nb3  1  0.19333500  0.27148000  0.02970100  1
  P  P4  1  0.64006600  0.69569500  0.88603100  1
  P  P5  1  0.49233900  0.58363300  0.19113200  1
  P  P6  1  0.94772200  0.09312300  0.70198500  1
  P  P7  1  0.55227800  0.09312300  0.20198500  1
  P  P8  1  0.32846200  0.23127800  0.23964600  1
  P  P9  1  0.99233900  0.41636700  0.30886800  1
  P  P10  1  0.14006600  0.30430500  0.61396900  1
  P  P11  1  0.00766100  0.58363300  0.69113200  1
  P  P12  1  0.67153800  0.76872200  0.76035400  1
  P  P13  1  0.50766100  0.41636700  0.80886800  1
  P  P14  1  0.05227800  0.90687700  0.29801500  1
  P  P15  1  0.44772200  0.90687700  0.79801500  1
  P  P16  1  0.17153800  0.23127800  0.73964600  1
  P  P17  1  0.82846200  0.76872200  0.26035400  1
  P  P18  1  0.85993400  0.69569500  0.38603100  1
  P  P19  1  0.35993400  0.30430500  0.11396900  1
  S  S20  1  0.02786100  0.11949800  0.60257700  1
  S  S21  1  0.52786100  0.88050200  0.89742300  1
  S  S22  1  0.93510700  0.97691700  0.22376500  1
  S  S23  1  0.58345600  0.42044900  0.90752700  1
  S  S24  1  0.39992900  0.62998800  0.79468300  1
  S  S25  1  0.87832100  0.51668800  0.23453000  1
  S  S26  1  0.89992900  0.37001200  0.70531700  1
  S  S27  1  0.62167900  0.51668800  0.73453000  1
  S  S28  1  0.47213900  0.11949800  0.10257700  1
  S  S29  1  0.97213900  0.88050200  0.39742300  1
  S  S30  1  0.60007100  0.37001200  0.20531700  1
  S  S31  1  0.37832100  0.48331200  0.26547000  1
  S  S32  1  0.91654400  0.42044900  0.40752700  1
  S  S33  1  0.06489300  0.02308300  0.77623500  1
  S  S34  1  0.08345600  0.57955100  0.59247300  1
  S  S35  1  0.43510700  0.02308300  0.27623500  1
  S  S36  1  0.56489300  0.97691700  0.72376500  1
  S  S37  1  0.10007100  0.62998800  0.29468300  1
  S  S38  1  0.12167900  0.48331200  0.76547000  1
  S  S39  1  0.41654400  0.57955100  0.09247300  1
  Cl  Cl40  1  0.19721800  0.16569800  0.45206200  1
  Cl  Cl41  1  0.37331200  0.38971800  0.62594400  1
  Cl  Cl42  1  0.70244000  0.02889000  0.38957300  1
  Cl  Cl43  1  0.62668800  0.61028200  0.37405600  1
  Cl  Cl44  1  0.55424800  0.76491200  0.52987000  1
  Cl  Cl45  1  0.94575200  0.76491200  0.02987000  1
  Cl  Cl46  1  0.26896500  0.58285400  0.47006900  1
  Cl  Cl47  1  0.20244000  0.97111000  0.11042700  1
  Cl  Cl48  1  0.29756000  0.97111000  0.61042700  1
  Cl  Cl49  1  0.79756000  0.02889000  0.88957300  1
  Cl  Cl50  1  0.30278200  0.16569800  0.95206200  1
  Cl  Cl51  1  0.44575200  0.23508800  0.47013000  1
  Cl  Cl52  1  0.12668800  0.38971800  0.12594400  1
  Cl  Cl53  1  0.73103500  0.41714600  0.52993100  1
  Cl  Cl54  1  0.80278200  0.83430200  0.54793800  1
  Cl  Cl55  1  0.23103500  0.58285400  0.97006900  1
  Cl  Cl56  1  0.05424800  0.23508800  0.97013000  1
  Cl  Cl57  1  0.87331200  0.61028200  0.87405600  1
  Cl  Cl58  1  0.69721800  0.83430200  0.04793800  1
  Cl  Cl59  1  0.76896500  0.41714600  0.02993100  1
