# generated using pymatgen
data_NaAl(MoO4)2
_symmetry_space_group_name_H-M   'P 1'
_cell_length_a   5.58201726
_cell_length_b   5.58201726
_cell_length_c   13.53109950
_cell_angle_alpha   89.81871618
_cell_angle_beta   89.81871618
_cell_angle_gamma   57.95926510
_symmetry_Int_Tables_number   1
_chemical_formula_structural   NaAl(MoO4)2
_chemical_formula_sum   'Na2 Al2 Mo4 O16'
_cell_volume   357.38802034
_cell_formula_units_Z   2
loop_
 _symmetry_equiv_pos_site_id
 _symmetry_equiv_pos_as_xyz
  1  'x, y, z'
loop_
 _atom_site_type_symbol
 _atom_site_label
 _atom_site_symmetry_multiplicity
 _atom_site_fract_x
 _atom_site_fract_y
 _atom_site_fract_z
 _atom_site_occupancy
  Na  Na0  1  0.07104800  0.92895200  0.25000000  1
  Na  Na1  1  0.92895200  0.07104800  0.75000000  1
  Al  Al2  1  0.00000000  0.00000000  0.50000000  1
  Al  Al3  1  0.00000000  0.00000000  0.00000000  1
  Mo  Mo4  1  0.69808300  0.63930600  0.12003300  1
  Mo  Mo5  1  0.30191700  0.36069400  0.87996700  1
  Mo  Mo6  1  0.63930600  0.69808300  0.62003300  1
  Mo  Mo7  1  0.36069400  0.30191700  0.37996700  1
  O  O8  1  0.59521400  0.73479500  0.24307400  1
  O  O9  1  0.37875800  0.79497700  0.04923300  1
  O  O10  1  0.79497700  0.37875800  0.54923300  1
  O  O11  1  0.22406900  0.08571500  0.41956300  1
  O  O12  1  0.62124200  0.20502300  0.95076700  1
  O  O13  1  0.74562800  0.10792500  0.39054900  1
  O  O14  1  0.73479500  0.59521400  0.74307400  1
  O  O15  1  0.10792500  0.74562800  0.89054900  1
  O  O16  1  0.26520500  0.40478600  0.25692600  1
  O  O17  1  0.08571500  0.22406900  0.91956300  1
  O  O18  1  0.40478600  0.26520500  0.75692600  1
  O  O19  1  0.77593100  0.91428500  0.58043700  1
  O  O20  1  0.20502300  0.62124200  0.45076700  1
  O  O21  1  0.89207500  0.25437200  0.10945100  1
  O  O22  1  0.25437200  0.89207500  0.60945100  1
  O  O23  1  0.91428500  0.77593100  0.08043700  1
