# generated using pymatgen
data_KSbMoO5
_symmetry_space_group_name_H-M   'P 1'
_cell_length_a   11.72167800
_cell_length_b   5.82924400
_cell_length_c   9.30583067
_cell_angle_alpha   72.09282211
_cell_angle_beta   90.00000000
_cell_angle_gamma   90.00000000
_symmetry_Int_Tables_number   1
_chemical_formula_structural   KSbMoO5
_chemical_formula_sum   'K4 Sb4 Mo4 O20'
_cell_volume   605.05028471
_cell_formula_units_Z   4
loop_
 _symmetry_equiv_pos_site_id
 _symmetry_equiv_pos_as_xyz
  1  'x, y, z'
loop_
 _atom_site_type_symbol
 _atom_site_label
 _atom_site_symmetry_multiplicity
 _atom_site_fract_x
 _atom_site_fract_y
 _atom_site_fract_z
 _atom_site_occupancy
  K  K0  1  0.14397000  0.45699100  0.10742200  1
  K  K1  1  0.35603000  0.95699100  0.10742200  1
  K  K2  1  0.85603000  0.54300900  0.89257800  1
  K  K3  1  0.64397000  0.04300900  0.89257800  1
  Sb  Sb4  1  0.66873600  0.78497700  0.53695900  1
  Sb  Sb5  1  0.16873600  0.71502300  0.46304100  1
  Sb  Sb6  1  0.83126400  0.28497700  0.53695900  1
  Sb  Sb7  1  0.33126400  0.21502300  0.46304100  1
  Mo  Mo8  1  0.91297900  0.92778600  0.21672000  1
  Mo  Mo9  1  0.58702100  0.42778600  0.21672000  1
  Mo  Mo10  1  0.41297900  0.57221400  0.78328000  1
  Mo  Mo11  1  0.08702100  0.07221400  0.78328000  1
  O  O12  1  0.76183900  0.96405400  0.64826400  1
  O  O13  1  0.94794900  0.22424000  0.73265900  1
  O  O14  1  0.82086800  0.82685600  0.38308400  1
  O  O15  1  0.55205100  0.72424000  0.73265900  1
  O  O16  1  0.06678800  0.75742800  0.83130600  1
  O  O17  1  0.05205100  0.77576000  0.26734100  1
  O  O18  1  0.23816100  0.03594600  0.35173600  1
  O  O19  1  0.43321200  0.25742800  0.83130600  1
  O  O20  1  0.85177300  0.86125700  0.06061100  1
  O  O21  1  0.44794900  0.27576000  0.26734100  1
  O  O22  1  0.35177300  0.63874300  0.93938900  1
  O  O23  1  0.32086800  0.67314400  0.61691600  1
  O  O24  1  0.93321200  0.24257200  0.16869400  1
  O  O25  1  0.67913200  0.32685600  0.38308400  1
  O  O26  1  0.73816100  0.46405400  0.64826400  1
  O  O27  1  0.56678800  0.74257200  0.16869400  1
  O  O28  1  0.64822700  0.36125700  0.06061100  1
  O  O29  1  0.26183900  0.53594600  0.35173600  1
  O  O30  1  0.14822700  0.13874300  0.93938900  1
  O  O31  1  0.17913200  0.17314400  0.61691600  1
