# generated using pymatgen
data_KFe2(PO4)2
_symmetry_space_group_name_H-M   'P 1'
_cell_length_a   10.22876900
_cell_length_b   8.00051700
_cell_length_c   9.27738336
_cell_angle_alpha   64.45907877
_cell_angle_beta   90.00000000
_cell_angle_gamma   90.00000000
_symmetry_Int_Tables_number   1
_chemical_formula_structural   KFe2(PO4)2
_chemical_formula_sum   'K4 Fe8 P8 O32'
_cell_volume   685.02605756
_cell_formula_units_Z   4
loop_
 _symmetry_equiv_pos_site_id
 _symmetry_equiv_pos_as_xyz
  1  'x, y, z'
loop_
 _atom_site_type_symbol
 _atom_site_label
 _atom_site_symmetry_multiplicity
 _atom_site_fract_x
 _atom_site_fract_y
 _atom_site_fract_z
 _atom_site_occupancy
  K  K0  1  0.35945000  0.35321800  0.57257500  1
  K  K1  1  0.85945000  0.64678200  0.92742500  1
  K  K2  1  0.64055000  0.64678200  0.42742500  1
  K  K3  1  0.14055000  0.35321800  0.07257500  1
  Fe  Fe4  1  0.61770600  0.93564000  0.94593000  1
  Fe  Fe5  1  0.12162900  0.72889500  0.25645000  1
  Fe  Fe6  1  0.62162900  0.27110500  0.24355000  1
  Fe  Fe7  1  0.11770600  0.06436000  0.55407000  1
  Fe  Fe8  1  0.88229400  0.93564000  0.44593000  1
  Fe  Fe9  1  0.37837100  0.72889500  0.75645000  1
  Fe  Fe10  1  0.38229400  0.06436000  0.05407000  1
  Fe  Fe11  1  0.87837100  0.27110500  0.74355000  1
  P  P12  1  0.16040100  0.00735700  0.86427000  1
  P  P13  1  0.83959900  0.99264300  0.13573000  1
  P  P14  1  0.90435200  0.38602400  0.35226600  1
  P  P15  1  0.09564800  0.61397600  0.64773400  1
  P  P16  1  0.40435200  0.61397600  0.14773400  1
  P  P17  1  0.66040100  0.99264300  0.63573000  1
  P  P18  1  0.33959900  0.00735700  0.36427000  1
  P  P19  1  0.59564800  0.38602400  0.85226600  1
  O  O20  1  0.74895400  0.05820300  0.23872500  1
  O  O21  1  0.87103500  0.40558600  0.50634600  1
  O  O22  1  0.95600900  0.89375000  0.25464900  1
  O  O23  1  0.96543600  0.18978800  0.39609600  1
  O  O24  1  0.24895400  0.94179700  0.26127500  1
  O  O25  1  0.49531800  0.53174400  0.74595400  1
  O  O26  1  0.04399100  0.10625000  0.74535100  1
  O  O27  1  0.23461300  0.15288800  0.90065800  1
  O  O28  1  0.10965100  0.84532700  0.01521500  1
  O  O29  1  0.21926000  0.58962500  0.75022100  1
  O  O30  1  0.99531800  0.46825600  0.75404600  1
  O  O31  1  0.39034900  0.84532700  0.51521500  1
  O  O32  1  0.89034900  0.15467300  0.98478500  1
  O  O33  1  0.60965100  0.15467300  0.48478500  1
  O  O34  1  0.25104600  0.94179700  0.76127500  1
  O  O35  1  0.03456400  0.81021200  0.60390400  1
  O  O36  1  0.62896500  0.40558600  0.00634600  1
  O  O37  1  0.75104600  0.05820300  0.73872500  1
  O  O38  1  0.73461300  0.84711200  0.59934200  1
  O  O39  1  0.28074000  0.58962500  0.25022100  1
  O  O40  1  0.50468200  0.46825600  0.25404600  1
  O  O41  1  0.53456400  0.18978800  0.89609600  1
  O  O42  1  0.26538700  0.15288800  0.40065800  1
  O  O43  1  0.00468200  0.53174400  0.24595400  1
  O  O44  1  0.71926000  0.41037500  0.74977900  1
  O  O45  1  0.78074000  0.41037500  0.24977900  1
  O  O46  1  0.54399100  0.89375000  0.75464900  1
  O  O47  1  0.76538700  0.84711200  0.09934200  1
  O  O48  1  0.12896500  0.59441400  0.49365400  1
  O  O49  1  0.46543600  0.81021200  0.10390400  1
  O  O50  1  0.37103500  0.59441400  0.99365400  1
  O  O51  1  0.45600900  0.10625000  0.24535100  1
