# generated using pymatgen
data_Na4Sc2(PO4)3
_symmetry_space_group_name_H-M   'P 1'
_cell_length_a   8.87383145
_cell_length_b   8.87383145
_cell_length_c   8.87383209
_cell_angle_alpha   63.26192974
_cell_angle_beta   63.26192974
_cell_angle_gamma   63.26193560
_symmetry_Int_Tables_number   1
_chemical_formula_structural   Na4Sc2(PO4)3
_chemical_formula_sum   'Na8 Sc4 P6 O24'
_cell_volume   529.81243788
_cell_formula_units_Z   2
loop_
 _symmetry_equiv_pos_site_id
 _symmetry_equiv_pos_as_xyz
  1  'x, y, z'
loop_
 _atom_site_type_symbol
 _atom_site_label
 _atom_site_symmetry_multiplicity
 _atom_site_fract_x
 _atom_site_fract_y
 _atom_site_fract_z
 _atom_site_occupancy
  Na  Na0  1  0.38624300  0.11375700  0.75000000  1
  Na  Na1  1  0.88624300  0.25000000  0.61375700  1
  Na  Na2  1  0.11375700  0.75000000  0.38624300  1
  Na  Na3  1  0.75000000  0.38624300  0.11375700  1
  Na  Na4  1  0.25000000  0.61375700  0.88624300  1
  Na  Na5  1  0.00000000  0.00000000  0.00000000  1
  Na  Na6  1  0.61375700  0.88624300  0.25000000  1
  Na  Na7  1  0.50000000  0.50000000  0.50000000  1
  Sc  Sc8  1  0.65592100  0.65592100  0.65592100  1
  Sc  Sc9  1  0.15592100  0.15592100  0.15592100  1
  Sc  Sc10  1  0.84407900  0.84407900  0.84407900  1
  Sc  Sc11  1  0.34407900  0.34407900  0.34407900  1
  P  P12  1  0.05812500  0.44187500  0.75000000  1
  P  P13  1  0.55812500  0.25000000  0.94187500  1
  P  P14  1  0.94187500  0.55812500  0.25000000  1
  P  P15  1  0.75000000  0.05812500  0.44187500  1
  P  P16  1  0.25000000  0.94187500  0.55812500  1
  P  P17  1  0.44187500  0.75000000  0.05812500  1
  O  O18  1  0.58992100  0.23104600  0.42354100  1
  O  O19  1  0.42354100  0.58992100  0.23104600  1
  O  O20  1  0.29624200  0.10386300  0.52936000  1
  O  O21  1  0.26895400  0.91007900  0.07645900  1
  O  O22  1  0.39613700  0.20375800  0.97064000  1
  O  O23  1  0.07645900  0.26895400  0.91007900  1
  O  O24  1  0.02936000  0.60386300  0.79624200  1
  O  O25  1  0.92354100  0.73104600  0.08992100  1
  O  O26  1  0.97064000  0.39613700  0.20375800  1
  O  O27  1  0.73104600  0.08992100  0.92354100  1
  O  O28  1  0.57645900  0.41007900  0.76895400  1
  O  O29  1  0.20375800  0.97064000  0.39613700  1
  O  O30  1  0.10386300  0.52936000  0.29624200  1
  O  O31  1  0.23104600  0.42354100  0.58992100  1
  O  O32  1  0.89613700  0.47064000  0.70375800  1
  O  O33  1  0.47064000  0.70375800  0.89613700  1
  O  O34  1  0.60386300  0.79624200  0.02936000  1
  O  O35  1  0.08992100  0.92354100  0.73104600  1
  O  O36  1  0.41007900  0.76895400  0.57645900  1
  O  O37  1  0.91007900  0.07645900  0.26895400  1
  O  O38  1  0.76895400  0.57645900  0.41007900  1
  O  O39  1  0.70375800  0.89613700  0.47064000  1
  O  O40  1  0.79624200  0.02936000  0.60386300  1
  O  O41  1  0.52936000  0.29624200  0.10386300  1
