# generated using pymatgen
data_CsEr(PO3)4
_symmetry_space_group_name_H-M   'P 1'
_cell_length_a   8.92294900
_cell_length_b   10.37716900
_cell_length_c   12.94763684
_cell_angle_alpha   56.56221290
_cell_angle_beta   90.00000000
_cell_angle_gamma   90.00000000
_symmetry_Int_Tables_number   1
_chemical_formula_structural   CsEr(PO3)4
_chemical_formula_sum   'Cs4 Er4 P16 O48'
_cell_volume   1000.45176446
_cell_formula_units_Z   4
loop_
 _symmetry_equiv_pos_site_id
 _symmetry_equiv_pos_as_xyz
  1  'x, y, z'
loop_
 _atom_site_type_symbol
 _atom_site_label
 _atom_site_symmetry_multiplicity
 _atom_site_fract_x
 _atom_site_fract_y
 _atom_site_fract_z
 _atom_site_occupancy
  Cs  Cs0  1  0.06505100  0.78164300  0.03942900  1
  Cs  Cs1  1  0.56505100  0.21835700  0.46057100  1
  Cs  Cs2  1  0.93494900  0.21835700  0.96057100  1
  Cs  Cs3  1  0.43494900  0.78164300  0.53942900  1
  Er  Er4  1  0.72619900  0.68417000  0.81911500  1
  Er  Er5  1  0.77380100  0.68417000  0.31911500  1
  Er  Er6  1  0.22619900  0.31583000  0.68088500  1
  Er  Er7  1  0.27380100  0.31583000  0.18088500  1
  P  P8  1  0.11178600  0.20079200  0.47252400  1
  P  P9  1  0.67224100  0.33013800  0.12957900  1
  P  P10  1  0.82775900  0.33013800  0.62957900  1
  P  P11  1  0.08948300  0.60854700  0.74375900  1
  P  P12  1  0.97269100  0.03179500  0.71250100  1
  P  P13  1  0.32775900  0.66986200  0.87042100  1
  P  P14  1  0.17224100  0.66986200  0.37042100  1
  P  P15  1  0.61178600  0.79920800  0.02747600  1
  P  P16  1  0.41051700  0.60854700  0.24375900  1
  P  P17  1  0.47269100  0.96820500  0.78749900  1
  P  P18  1  0.91051700  0.39145300  0.25624100  1
  P  P19  1  0.52730900  0.03179500  0.21250100  1
  P  P20  1  0.88821400  0.79920800  0.52747600  1
  P  P21  1  0.02730900  0.96820500  0.28749900  1
  P  P22  1  0.58948300  0.39145300  0.75624100  1
  P  P23  1  0.38821400  0.20079200  0.97252400  1
  O  O24  1  0.21417100  0.16511400  0.39934200  1
  O  O25  1  0.33994000  0.83938400  0.84946300  1
  O  O26  1  0.32720800  0.29639000  0.01719400  1
  O  O27  1  0.83994000  0.16061600  0.65053700  1
  O  O28  1  0.66006000  0.16061600  0.15053700  1
  O  O29  1  0.20829400  0.71513000  0.76002500  1
  O  O30  1  0.74344900  0.43442600  0.00562500  1
  O  O31  1  0.82686600  0.52408600  0.24423100  1
  O  O32  1  0.54459300  0.57715500  0.32431900  1
  O  O33  1  0.95540700  0.57715500  0.82431900  1
  O  O34  1  0.24344900  0.56557400  0.49437500  1
  O  O35  1  0.90400300  0.87497400  0.79206900  1
  O  O36  1  0.45540700  0.42284500  0.67568100  1
  O  O37  1  0.91559800  0.91998900  0.22769200  1
  O  O38  1  0.04571700  0.72864200  0.60047400  1
  O  O39  1  0.82720800  0.70361000  0.48280600  1
  O  O40  1  0.29170600  0.71513000  0.26002500  1
  O  O41  1  0.02706100  0.62790000  0.33810900  1
  O  O42  1  0.95415300  0.95715600  0.40751000  1
  O  O43  1  0.08440200  0.08001100  0.77230800  1
  O  O44  1  0.79170600  0.28487000  0.23997500  1
  O  O45  1  0.67279200  0.70361000  0.98280600  1
  O  O46  1  0.45428300  0.72864200  0.10047400  1
  O  O47  1  0.16006000  0.83938400  0.34946300  1
  O  O48  1  0.67313400  0.52408600  0.74423100  1
  O  O49  1  0.32686600  0.47591400  0.25576900  1
  O  O50  1  0.17313400  0.47591400  0.75576900  1
  O  O51  1  0.54584700  0.95715600  0.90751000  1
  O  O52  1  0.17279200  0.29639000  0.51719400  1
  O  O53  1  0.04459300  0.42284500  0.17568100  1
  O  O54  1  0.97293900  0.37210000  0.66189100  1
  O  O55  1  0.04584700  0.04284400  0.59249000  1
  O  O56  1  0.41559800  0.08001100  0.27230800  1
  O  O57  1  0.75655100  0.43442600  0.50562500  1
  O  O58  1  0.95428300  0.27135800  0.39952600  1
  O  O59  1  0.25655100  0.56557400  0.99437500  1
  O  O60  1  0.28582900  0.16511400  0.89934200  1
  O  O61  1  0.78582900  0.83488600  0.60065800  1
  O  O62  1  0.09599700  0.12502600  0.20793100  1
  O  O63  1  0.52706100  0.37210000  0.16189100  1
  O  O64  1  0.40400300  0.12502600  0.70793100  1
  O  O65  1  0.70829400  0.28487000  0.73997500  1
  O  O66  1  0.71417100  0.83488600  0.10065800  1
  O  O67  1  0.58440200  0.91998900  0.72769200  1
  O  O68  1  0.59599700  0.87497400  0.29206900  1
  O  O69  1  0.47293900  0.62790000  0.83810900  1
  O  O70  1  0.54571700  0.27135800  0.89952600  1
  O  O71  1  0.45415300  0.04284400  0.09249000  1
