# generated using pymatgen
data_MgSn2
_symmetry_space_group_name_H-M   'P 1'
_cell_length_a   5.65820414
_cell_length_b   5.65820414
_cell_length_c   6.73603203
_cell_angle_alpha   59.92154249
_cell_angle_beta   59.92154249
_cell_angle_gamma   62.19541111
_symmetry_Int_Tables_number   1
_chemical_formula_structural   MgSn2
_chemical_formula_sum   'Mg2 Sn4'
_cell_volume   154.66900305
_cell_formula_units_Z   2
loop_
 _symmetry_equiv_pos_site_id
 _symmetry_equiv_pos_as_xyz
  1  'x, y, z'
loop_
 _atom_site_type_symbol
 _atom_site_label
 _atom_site_symmetry_multiplicity
 _atom_site_fract_x
 _atom_site_fract_y
 _atom_site_fract_z
 _atom_site_occupancy
  Mg  Mg0  1  0.08624300  0.91375700  0.25000000  1
  Mg  Mg1  1  0.91375700  0.08624300  0.75000000  1
  Sn  Sn2  1  0.24167900  0.42841000  0.74232000  1
  Sn  Sn3  1  0.57159000  0.75832100  0.75768000  1
  Sn  Sn4  1  0.42841000  0.24167900  0.24232000  1
  Sn  Sn5  1  0.75832100  0.57159000  0.25768000  1
