# generated using pymatgen
data_YTl5Co2(NO2)12
_symmetry_space_group_name_H-M   'P 1'
_cell_length_a   10.60085700
_cell_length_b   10.60085700
_cell_length_c   10.60085700
_cell_angle_alpha   90.00000000
_cell_angle_beta   90.00000000
_cell_angle_gamma   90.00000000
_symmetry_Int_Tables_number   1
_chemical_formula_structural   YTl5Co2(NO2)12
_chemical_formula_sum   'Y2 Tl10 Co4 N24 O48'
_cell_volume   1191.30490092
_cell_formula_units_Z   2
loop_
 _symmetry_equiv_pos_site_id
 _symmetry_equiv_pos_as_xyz
  1  'x, y, z'
loop_
 _atom_site_type_symbol
 _atom_site_label
 _atom_site_symmetry_multiplicity
 _atom_site_fract_x
 _atom_site_fract_y
 _atom_site_fract_z
 _atom_site_occupancy
  Y  Y0  1  0.00000000  0.00000000  0.00000000  1
  Y  Y1  1  0.50000000  0.50000000  0.50000000  1
  Tl  Tl2  1  0.25000000  0.25000000  0.75000000  1
  Tl  Tl3  1  0.25000000  0.75000000  0.25000000  1
  Tl  Tl4  1  0.00000000  0.50000000  0.50000000  1
  Tl  Tl5  1  0.50000000  0.00000000  0.00000000  1
  Tl  Tl6  1  0.50000000  0.00000000  0.50000000  1
  Tl  Tl7  1  0.75000000  0.75000000  0.75000000  1
  Tl  Tl8  1  0.50000000  0.50000000  0.00000000  1
  Tl  Tl9  1  0.00000000  0.50000000  0.00000000  1
  Tl  Tl10  1  0.75000000  0.25000000  0.25000000  1
  Tl  Tl11  1  0.00000000  0.00000000  0.50000000  1
  Co  Co12  1  0.75000000  0.75000000  0.25000000  1
  Co  Co13  1  0.25000000  0.75000000  0.75000000  1
  Co  Co14  1  0.75000000  0.25000000  0.75000000  1
  Co  Co15  1  0.25000000  0.25000000  0.25000000  1
  N  N16  1  0.25228600  0.25911800  0.43449500  1
  N  N17  1  0.56550500  0.74771400  0.25911800  1
  N  N18  1  0.43449500  0.74771400  0.74088200  1
  N  N19  1  0.25911800  0.56550500  0.74771400  1
  N  N20  1  0.74771400  0.74088200  0.43449500  1
  N  N21  1  0.75911800  0.06550500  0.75228600  1
  N  N22  1  0.06550500  0.75228600  0.75911800  1
  N  N23  1  0.56550500  0.25228600  0.74088200  1
  N  N24  1  0.25911800  0.43449500  0.25228600  1
  N  N25  1  0.75228600  0.24088200  0.93449500  1
  N  N26  1  0.74088200  0.56550500  0.25228600  1
  N  N27  1  0.24771400  0.24088200  0.06550500  1
  N  N28  1  0.25228600  0.74088200  0.56550500  1
  N  N29  1  0.75911800  0.93449500  0.24771400  1
  N  N30  1  0.43449500  0.25228600  0.25911800  1
  N  N31  1  0.24088200  0.93449500  0.75228600  1
  N  N32  1  0.24088200  0.06550500  0.24771400  1
  N  N33  1  0.93449500  0.75228600  0.24088200  1
  N  N34  1  0.74088200  0.43449500  0.74771400  1
  N  N35  1  0.74771400  0.25911800  0.56550500  1
  N  N36  1  0.24771400  0.75911800  0.93449500  1
  N  N37  1  0.75228600  0.75911800  0.06550500  1
  N  N38  1  0.93449500  0.24771400  0.75911800  1
  N  N39  1  0.06550500  0.24771400  0.24088200  1
  O  O40  1  0.25482400  0.99328300  0.65055100  1
  O  O41  1  0.75482400  0.49328300  0.84944900  1
  O  O42  1  0.15055100  0.75482400  0.50671700  1
  O  O43  1  0.00671700  0.34944900  0.25482400  1
  O  O44  1  0.65055100  0.25482400  0.99328300  1
  O  O45  1  0.99657200  0.85185200  0.21401800  1
  O  O46  1  0.14814800  0.21401800  0.00342800  1
  O  O47  1  0.71401800  0.50342800  0.35185200  1
  O  O48  1  0.34944900  0.74517600  0.99328300  1
  O  O49  1  0.78598200  0.99657200  0.14814800  1
  O  O50  1  0.84944900  0.75482400  0.49328300  1
  O  O51  1  0.14814800  0.78598200  0.99657200  1
  O  O52  1  0.50671700  0.15055100  0.75482400  1
  O  O53  1  0.64814800  0.71401800  0.49657200  1
  O  O54  1  0.78598200  0.00342800  0.85185200  1
  O  O55  1  0.65055100  0.74517600  0.00671700  1
  O  O56  1  0.64814800  0.28598200  0.50342800  1
  O  O57  1  0.99328300  0.65055100  0.25482400  1
  O  O58  1  0.84944900  0.24517600  0.50671700  1
  O  O59  1  0.85185200  0.78598200  0.00342800  1
  O  O60  1  0.28598200  0.50342800  0.64814800  1
  O  O61  1  0.99328300  0.34944900  0.74517600  1
  O  O62  1  0.99657200  0.14814800  0.78598200  1
  O  O63  1  0.50671700  0.84944900  0.24517600  1
  O  O64  1  0.75482400  0.50671700  0.15055100  1
  O  O65  1  0.00342800  0.14814800  0.21401800  1
  O  O66  1  0.15055100  0.24517600  0.49328300  1
  O  O67  1  0.74517600  0.99328300  0.34944900  1
  O  O68  1  0.34944900  0.25482400  0.00671700  1
  O  O69  1  0.28598200  0.49657200  0.35185200  1
  O  O70  1  0.50342800  0.35185200  0.71401800  1
  O  O71  1  0.35185200  0.71401800  0.50342800  1
  O  O72  1  0.00671700  0.65055100  0.74517600  1
  O  O73  1  0.49657200  0.64814800  0.71401800  1
  O  O74  1  0.49328300  0.84944900  0.75482400  1
  O  O75  1  0.25482400  0.00671700  0.34944900  1
  O  O76  1  0.50342800  0.64814800  0.28598200  1
  O  O77  1  0.49328300  0.15055100  0.24517600  1
  O  O78  1  0.74517600  0.00671700  0.65055100  1
  O  O79  1  0.24517600  0.50671700  0.84944900  1
  O  O80  1  0.85185200  0.21401800  0.99657200  1
  O  O81  1  0.00342800  0.85185200  0.78598200  1
  O  O82  1  0.21401800  0.00342800  0.14814800  1
  O  O83  1  0.35185200  0.28598200  0.49657200  1
  O  O84  1  0.24517600  0.49328300  0.15055100  1
  O  O85  1  0.71401800  0.49657200  0.64814800  1
  O  O86  1  0.49657200  0.35185200  0.28598200  1
  O  O87  1  0.21401800  0.99657200  0.85185200  1
