# generated using pymatgen
data_PH8C2NO2
_symmetry_space_group_name_H-M   'P 1'
_cell_length_a   6.32897000
_cell_length_b   5.92971000
_cell_length_c   13.43459536
_cell_angle_alpha   81.07505875
_cell_angle_beta   90.00000000
_cell_angle_gamma   90.00000000
_symmetry_Int_Tables_number   1
_chemical_formula_structural   PH8C2NO2
_chemical_formula_sum   'P4 H32 C8 N4 O8'
_cell_volume   498.08187392
_cell_formula_units_Z   4
loop_
 _symmetry_equiv_pos_site_id
 _symmetry_equiv_pos_as_xyz
  1  'x, y, z'
loop_
 _atom_site_type_symbol
 _atom_site_label
 _atom_site_symmetry_multiplicity
 _atom_site_fract_x
 _atom_site_fract_y
 _atom_site_fract_z
 _atom_site_occupancy
  P  P0  1  0.35602600  0.33349100  0.37598700  1
  P  P1  1  0.85602600  0.66650900  0.12401300  1
  P  P2  1  0.14397400  0.33349100  0.87598700  1
  P  P3  1  0.64397400  0.66650900  0.62401300  1
  H  H4  1  0.45732200  0.22904300  0.97546500  1
  H  H5  1  0.04267800  0.22904300  0.47546500  1
  H  H6  1  0.54267800  0.77095700  0.02453500  1
  H  H7  1  0.17701600  0.94785900  0.76526300  1
  H  H8  1  0.01005600  0.24610300  0.25301600  1
  H  H9  1  0.24910900  0.32946200  0.54897200  1
  H  H10  1  0.98994400  0.75389700  0.74698400  1
  H  H11  1  0.90226100  0.35852900  0.64540100  1
  H  H12  1  0.09773900  0.64147100  0.35459900  1
  H  H13  1  0.74191200  0.26678600  0.80167500  1
  H  H14  1  0.40226100  0.64147100  0.85459900  1
  H  H15  1  0.95732200  0.77095700  0.52453500  1
  H  H16  1  0.76262700  0.95208200  0.98322000  1
  H  H17  1  0.75089100  0.67053800  0.45102800  1
  H  H18  1  0.25089100  0.32946200  0.04897200  1
  H  H19  1  0.74910900  0.67053800  0.95102800  1
  H  H20  1  0.73737300  0.95208200  0.48322000  1
  H  H21  1  0.23737300  0.04791800  0.01678000  1
  H  H22  1  0.32699900  0.71168000  0.42020300  1
  H  H23  1  0.67300100  0.28832000  0.57979700  1
  H  H24  1  0.17300100  0.71168000  0.92020300  1
  H  H25  1  0.32298400  0.94785900  0.26526300  1
  H  H26  1  0.82699900  0.28832000  0.07979700  1
  H  H27  1  0.82298400  0.05214100  0.23473700  1
  H  H28  1  0.67701600  0.05214100  0.73473700  1
  H  H29  1  0.51005600  0.75389700  0.24698400  1
  H  H30  1  0.75808800  0.26678600  0.30167500  1
  H  H31  1  0.26262700  0.04791800  0.51678000  1
  H  H32  1  0.24191200  0.73321400  0.69832500  1
  H  H33  1  0.48994400  0.24610300  0.75301600  1
  H  H34  1  0.25808800  0.73321400  0.19832500  1
  H  H35  1  0.59773900  0.35852900  0.14540100  1
  C  C36  1  0.78655900  0.77504300  0.50976500  1
  C  C37  1  0.22858000  0.63533500  0.85540200  1
  C  C38  1  0.77142000  0.36466500  0.14459800  1
  C  C39  1  0.28655900  0.22495700  0.99023500  1
  C  C40  1  0.21344100  0.22495700  0.49023500  1
  C  C41  1  0.71344100  0.77504300  0.00976500  1
  C  C42  1  0.27142000  0.63533500  0.35540200  1
  C  C43  1  0.72858000  0.36466500  0.64459800  1
  N  N44  1  0.65278100  0.22638100  0.73973000  1
  N  N45  1  0.84721900  0.22638100  0.23973000  1
  N  N46  1  0.15278100  0.77361900  0.76027000  1
  N  N47  1  0.34721900  0.77361900  0.26027000  1
  O  O48  1  0.59348900  0.31868300  0.39411400  1
  O  O49  1  0.77403100  0.77758800  0.21257900  1
  O  O50  1  0.09348900  0.68131700  0.10588600  1
  O  O51  1  0.72596900  0.77758800  0.71257900  1
  O  O52  1  0.40651100  0.68131700  0.60588600  1
  O  O53  1  0.90651100  0.31868300  0.89411400  1
  O  O54  1  0.22596900  0.22241200  0.78742100  1
  O  O55  1  0.27403100  0.22241200  0.28742100  1
