# generated using pymatgen
data_CsTmCoS3
_symmetry_space_group_name_H-M   'P 1'
_cell_length_a   8.03124195
_cell_length_b   8.03124195
_cell_length_c   10.40269700
_cell_angle_alpha   90.00000000
_cell_angle_beta   90.00000000
_cell_angle_gamma   151.69723043
_symmetry_Int_Tables_number   1
_chemical_formula_structural   CsTmCoS3
_chemical_formula_sum   'Cs2 Tm2 Co2 S6'
_cell_volume   318.13357687
_cell_formula_units_Z   2
loop_
 _symmetry_equiv_pos_site_id
 _symmetry_equiv_pos_as_xyz
  1  'x, y, z'
loop_
 _atom_site_type_symbol
 _atom_site_label
 _atom_site_symmetry_multiplicity
 _atom_site_fract_x
 _atom_site_fract_y
 _atom_site_fract_z
 _atom_site_occupancy
  Cs  Cs0  1  0.26224000  0.73776000  0.75000000  1
  Cs  Cs1  1  0.73776000  0.26224000  0.25000000  1
  Tm  Tm2  1  0.00000000  0.00000000  0.50000000  1
  Tm  Tm3  1  0.00000000  0.00000000  0.00000000  1
  Co  Co4  1  0.53636700  0.46363300  0.75000000  1
  Co  Co5  1  0.46363300  0.53636700  0.25000000  1
  S  S6  1  0.38821100  0.61178900  0.06434100  1
  S  S7  1  0.61178900  0.38821100  0.56434100  1
  S  S8  1  0.38821100  0.61178900  0.43565900  1
  S  S9  1  0.61178900  0.38821100  0.93565900  1
  S  S10  1  0.95377900  0.04622100  0.75000000  1
  S  S11  1  0.04622100  0.95377900  0.25000000  1
