# generated using pymatgen
data_S
_symmetry_space_group_name_H-M   'P 1'
_cell_length_a   6.05936900
_cell_length_b   10.34384173
_cell_length_c   15.54443531
_cell_angle_alpha   95.13797164
_cell_angle_beta   97.95035588
_cell_angle_gamma   100.77510675
_symmetry_Int_Tables_number   1
_chemical_formula_structural   S
_chemical_formula_sum   S28
_cell_volume   941.21061204
_cell_formula_units_Z   28
loop_
 _symmetry_equiv_pos_site_id
 _symmetry_equiv_pos_as_xyz
  1  'x, y, z'
loop_
 _atom_site_type_symbol
 _atom_site_label
 _atom_site_symmetry_multiplicity
 _atom_site_fract_x
 _atom_site_fract_y
 _atom_site_fract_z
 _atom_site_occupancy
  S  S0  1  0.08795900  0.43642100  0.72352800  1
  S  S1  1  0.58303300  0.04948500  0.67541800  1
  S  S2  1  0.30563800  0.62733500  0.91685100  1
  S  S3  1  0.71490700  0.32320300  0.46884400  1
  S  S4  1  0.01642400  0.70073100  0.93123900  1
  S  S5  1  0.20235500  0.43595800  0.85490700  1
  S  S6  1  0.91204100  0.56357900  0.27647200  1
  S  S7  1  0.98357600  0.29926900  0.06876100  1
  S  S8  1  0.12407200  0.80684200  0.59569300  1
  S  S9  1  0.88234100  0.98804300  0.11195300  1
  S  S10  1  0.87592800  0.19315800  0.40430700  1
  S  S11  1  0.47705600  0.83595300  0.21810900  1
  S  S12  1  0.69436200  0.37266500  0.08314900  1
  S  S13  1  0.97445500  0.82067800  0.83324500  1
  S  S14  1  0.65937000  0.57379400  0.35203600  1
  S  S15  1  0.52294400  0.16404700  0.78189100  1
  S  S16  1  0.02554500  0.17932200  0.16675500  1
  S  S17  1  0.28509300  0.67679700  0.53115600  1
  S  S18  1  0.53648300  0.94731100  0.11693800  1
  S  S19  1  0.49760100  0.61343600  0.62711900  1
  S  S20  1  0.71027200  0.00442300  0.41625300  1
  S  S21  1  0.11765900  0.01195700  0.88804700  1
  S  S22  1  0.28972800  0.99557700  0.58374700  1
  S  S23  1  0.34063000  0.42620600  0.64796400  1
  S  S24  1  0.41696700  0.95051500  0.32458200  1
  S  S25  1  0.79764500  0.56404200  0.14509300  1
  S  S26  1  0.46351700  0.05268900  0.88306200  1
  S  S27  1  0.50239900  0.38656400  0.37288100  1
