# generated using pymatgen
data_Te4As2S(OF6)2
_symmetry_space_group_name_H-M   'P 1'
_cell_length_a   18.90201600
_cell_length_b   9.04877000
_cell_length_c   9.91333735
_cell_angle_alpha   83.23592045
_cell_angle_beta   90.00000000
_cell_angle_gamma   90.00000000
_symmetry_Int_Tables_number   1
_chemical_formula_structural   Te4As2S(OF6)2
_chemical_formula_sum   'Te16 As8 S4 O8 F48'
_cell_volume   1683.77518337
_cell_formula_units_Z   4
loop_
 _symmetry_equiv_pos_site_id
 _symmetry_equiv_pos_as_xyz
  1  'x, y, z'
loop_
 _atom_site_type_symbol
 _atom_site_label
 _atom_site_symmetry_multiplicity
 _atom_site_fract_x
 _atom_site_fract_y
 _atom_site_fract_z
 _atom_site_occupancy
  Te  Te0  1  0.06973200  0.71578000  0.61909700  1
  Te  Te1  1  0.07168600  0.65737300  0.89253900  1
  Te  Te2  1  0.92831400  0.34262700  0.10746100  1
  Te  Te3  1  0.71257500  0.80874700  0.38579500  1
  Te  Te4  1  0.21257500  0.69125300  0.61420500  1
  Te  Te5  1  0.21393400  0.62514900  0.88874700  1
  Te  Te6  1  0.56973200  0.78422000  0.38090300  1
  Te  Te7  1  0.78606600  0.37485100  0.11125300  1
  Te  Te8  1  0.42831400  0.15737300  0.89253900  1
  Te  Te9  1  0.71393400  0.87485100  0.11125300  1
  Te  Te10  1  0.28742500  0.19125300  0.61420500  1
  Te  Te11  1  0.78742500  0.30874700  0.38579500  1
  Te  Te12  1  0.28606600  0.12514900  0.88874700  1
  Te  Te13  1  0.43026800  0.21578000  0.61909700  1
  Te  Te14  1  0.57168600  0.84262700  0.10746100  1
  Te  Te15  1  0.93026800  0.28422000  0.38090300  1
  As  As16  1  0.57606300  0.31979500  0.22757000  1
  As  As17  1  0.07606300  0.18020500  0.77243000  1
  As  As18  1  0.64580900  0.11948900  0.71602100  1
  As  As19  1  0.35419100  0.88051100  0.28397900  1
  As  As20  1  0.14580900  0.38051100  0.28397900  1
  As  As21  1  0.85419100  0.61948900  0.71602100  1
  As  As22  1  0.42393700  0.68020500  0.77243000  1
  As  As23  1  0.92393700  0.81979500  0.22757000  1
  S  S24  1  0.63054700  0.56056600  0.76862700  1
  S  S25  1  0.36945300  0.43943400  0.23137300  1
  S  S26  1  0.13054700  0.93943400  0.23137300  1
  S  S27  1  0.86945300  0.06056600  0.76862700  1
  O  O28  1  0.13333300  0.82581400  0.34829700  1
  O  O29  1  0.36666700  0.32581400  0.34829700  1
  O  O30  1  0.15296500  0.89614300  0.10209400  1
  O  O31  1  0.34703500  0.39614300  0.10209400  1
  O  O32  1  0.63333300  0.67418600  0.65170300  1
  O  O33  1  0.86666700  0.17418600  0.65170300  1
  O  O34  1  0.84703500  0.10385700  0.89790600  1
  O  O35  1  0.65296500  0.60385700  0.89790600  1
  F  F36  1  0.06914300  0.29241900  0.22037800  1
  F  F37  1  0.19939700  0.30013700  0.16650000  1
  F  F38  1  0.80060300  0.69986300  0.83350000  1
  F  F39  1  0.58938100  0.03852900  0.60299800  1
  F  F40  1  0.84085400  0.77784300  0.59606200  1
  F  F41  1  0.97684800  0.96727700  0.14888100  1
  F  F42  1  0.11104800  0.21270800  0.93173200  1
  F  F43  1  0.36746700  0.03779200  0.15875000  1
  F  F44  1  0.71984000  0.02981900  0.65181700  1
  F  F45  1  0.38895200  0.71270800  0.93173200  1
  F  F46  1  0.04253900  0.14428800  0.61263700  1
  F  F47  1  0.65914600  0.27784300  0.59606200  1
  F  F48  1  0.36888900  0.82425400  0.69242300  1
  F  F49  1  0.93085700  0.70758100  0.77962200  1
  F  F50  1  0.35250100  0.55093300  0.75535400  1
  F  F51  1  0.86888900  0.67574600  0.30757700  1
  F  F52  1  0.34085400  0.72215700  0.40393800  1
  F  F53  1  0.88895200  0.78729200  0.06826800  1
  F  F54  1  0.41061900  0.96147100  0.39700200  1
  F  F55  1  0.85250100  0.94906700  0.24464600  1
  F  F56  1  0.13111100  0.32425400  0.69242300  1
  F  F57  1  0.91061900  0.53852900  0.60299800  1
  F  F58  1  0.69939700  0.19986300  0.83350000  1
  F  F59  1  0.30060300  0.80013700  0.16650000  1
  F  F60  1  0.15914600  0.22215700  0.40393800  1
  F  F61  1  0.02315200  0.03272300  0.85111900  1
  F  F62  1  0.45746100  0.64428800  0.61263700  1
  F  F63  1  0.86746700  0.46220800  0.84125000  1
  F  F64  1  0.21984000  0.47018100  0.34818300  1
  F  F65  1  0.54253900  0.35571200  0.38736300  1
  F  F66  1  0.00729300  0.30934300  0.78982000  1
  F  F67  1  0.50729300  0.19065700  0.21018000  1
  F  F68  1  0.43085700  0.79241900  0.22037800  1
  F  F69  1  0.52315200  0.46727700  0.14888100  1
  F  F70  1  0.99270700  0.69065700  0.21018000  1
  F  F71  1  0.47684800  0.53272300  0.85111900  1
  F  F72  1  0.13253300  0.53779200  0.15875000  1
  F  F73  1  0.63253300  0.96220800  0.84125000  1
  F  F74  1  0.56914300  0.20758100  0.77962200  1
  F  F75  1  0.08938100  0.46147100  0.39700200  1
  F  F76  1  0.95746100  0.85571200  0.38736300  1
  F  F77  1  0.49270700  0.80934300  0.78982000  1
  F  F78  1  0.61104800  0.28729200  0.06826800  1
  F  F79  1  0.64749900  0.44906700  0.24464600  1
  F  F80  1  0.78016000  0.52981900  0.65181700  1
  F  F81  1  0.63111100  0.17574600  0.30757700  1
  F  F82  1  0.14749900  0.05093300  0.75535400  1
  F  F83  1  0.28016000  0.97018100  0.34818300  1
