# generated using pymatgen
data_FePO4
_symmetry_space_group_name_H-M   'P 1'
_cell_length_a   7.56730100
_cell_length_b   5.60502600
_cell_length_c   9.37528535
_cell_angle_alpha   60.19331418
_cell_angle_beta   90.00000000
_cell_angle_gamma   90.00000000
_symmetry_Int_Tables_number   1
_chemical_formula_structural   FePO4
_chemical_formula_sum   'Fe4 P4 O16'
_cell_volume   345.04557696
_cell_formula_units_Z   4
loop_
 _symmetry_equiv_pos_site_id
 _symmetry_equiv_pos_as_xyz
  1  'x, y, z'
loop_
 _atom_site_type_symbol
 _atom_site_label
 _atom_site_symmetry_multiplicity
 _atom_site_fract_x
 _atom_site_fract_y
 _atom_site_fract_z
 _atom_site_occupancy
  Fe  Fe0  1  0.30888500  0.32881800  0.56017700  1
  Fe  Fe1  1  0.80888500  0.67118200  0.93982300  1
  Fe  Fe2  1  0.69111500  0.67118200  0.43982300  1
  Fe  Fe3  1  0.19111500  0.32881800  0.06017700  1
  P  P4  1  0.45471500  0.68404600  0.73019000  1
  P  P5  1  0.54528500  0.31595400  0.26981000  1
  P  P6  1  0.04528500  0.68404600  0.23019000  1
  P  P7  1  0.95471500  0.31595400  0.76981000  1
  O  O8  1  0.85733500  0.51735800  0.61255300  1
  O  O9  1  0.34971300  0.95206100  0.63293900  1
  O  O10  1  0.84971300  0.04793900  0.86706100  1
  O  O11  1  0.64210100  0.74067400  0.76725200  1
  O  O12  1  0.64266500  0.51735800  0.11255300  1
  O  O13  1  0.97316800  0.44917300  0.88436700  1
  O  O14  1  0.35733500  0.48264200  0.88744700  1
  O  O15  1  0.52683200  0.44917300  0.38436700  1
  O  O16  1  0.14210100  0.25932600  0.73274800  1
  O  O17  1  0.14266500  0.48264200  0.38744700  1
  O  O18  1  0.15028700  0.95206100  0.13293900  1
  O  O19  1  0.65028700  0.04793900  0.36706100  1
  O  O20  1  0.47316800  0.55082700  0.61563300  1
  O  O21  1  0.35789900  0.25932600  0.23274800  1
  O  O22  1  0.85789900  0.74067400  0.26725200  1
  O  O23  1  0.02683200  0.55082700  0.11563300  1
