# generated using pymatgen
data_RbFe(MoO4)2
_symmetry_space_group_name_H-M   'P 1'
_cell_length_a   5.71855900
_cell_length_b   9.76036590
_cell_length_c   9.76036590
_cell_angle_alpha   71.73261392
_cell_angle_beta   72.96547294
_cell_angle_gamma   107.03452706
_symmetry_Int_Tables_number   1
_chemical_formula_structural   RbFe(MoO4)2
_chemical_formula_sum   'Rb2 Fe2 Mo4 O16'
_cell_volume   448.01443535
_cell_formula_units_Z   2
loop_
 _symmetry_equiv_pos_site_id
 _symmetry_equiv_pos_as_xyz
  1  'x, y, z'
loop_
 _atom_site_type_symbol
 _atom_site_label
 _atom_site_symmetry_multiplicity
 _atom_site_fract_x
 _atom_site_fract_y
 _atom_site_fract_z
 _atom_site_occupancy
  Rb  Rb0  1  0.00000000  0.25000000  0.25000000  1
  Rb  Rb1  1  0.00000000  0.75000000  0.75000000  1
  Fe  Fe2  1  0.00000000  0.50000000  0.50000000  1
  Fe  Fe3  1  0.00000000  0.00000000  0.00000000  1
  Mo  Mo4  1  0.66666700  0.05684100  0.72350800  1
  Mo  Mo5  1  0.33333300  0.94315900  0.27649200  1
  Mo  Mo6  1  0.66666700  0.55684200  0.22350900  1
  Mo  Mo7  1  0.33333300  0.44315900  0.77649100  1
  O  O8  1  0.33333300  0.55388800  0.88722100  1
  O  O9  1  0.33333300  0.05388800  0.38722100  1
  O  O10  1  0.66666700  0.44611200  0.11277900  1
  O  O11  1  0.66666700  0.94611200  0.61277900  1
  O  O12  1  0.21002200  0.23678600  0.91400500  1
  O  O13  1  0.21002200  0.73678600  0.41400500  1
  O  O14  1  0.78997800  0.76321400  0.08599500  1
  O  O15  1  0.78997800  0.26321400  0.58599500  1
  O  O16  1  0.88724100  0.52961500  0.31959300  1
  O  O17  1  0.88724100  0.02961500  0.81959300  1
  O  O18  1  0.67721900  0.51901600  0.63177500  1
  O  O19  1  0.67721900  0.01901600  0.13177500  1
  O  O20  1  0.32278100  0.48098400  0.36822500  1
  O  O21  1  0.32278100  0.98098400  0.86822500  1
  O  O22  1  0.11275900  0.47038500  0.68040700  1
  O  O23  1  0.11275900  0.97038500  0.18040700  1
