# generated using pymatgen
data_KCa9Co(PO4)7
_symmetry_space_group_name_H-M   'P 1'
_cell_length_a   13.82250188
_cell_length_b   13.82250188
_cell_length_c   13.82250173
_cell_angle_alpha   44.74933273
_cell_angle_beta   44.74933273
_cell_angle_gamma   44.74933329
_symmetry_Int_Tables_number   1
_chemical_formula_structural   KCa9Co(PO4)7
_chemical_formula_sum   'K2 Ca18 Co2 P14 O56'
_cell_volume   1190.72206309
_cell_formula_units_Z   2
loop_
 _symmetry_equiv_pos_site_id
 _symmetry_equiv_pos_as_xyz
  1  'x, y, z'
loop_
 _atom_site_type_symbol
 _atom_site_label
 _atom_site_symmetry_multiplicity
 _atom_site_fract_x
 _atom_site_fract_y
 _atom_site_fract_z
 _atom_site_occupancy
  K  K0  1  0.31368800  0.31368800  0.31368800  1
  K  K1  1  0.81368800  0.81368800  0.81368800  1
  Ca  Ca2  1  0.15500800  0.55313900  0.58912700  1
  Ca  Ca3  1  0.55313900  0.58912700  0.15500800  1
  Ca  Ca4  1  0.05359400  0.43726900  0.02818900  1
  Ca  Ca5  1  0.02818900  0.05359400  0.43726900  1
  Ca  Ca6  1  0.93726900  0.55359400  0.52818900  1
  Ca  Ca7  1  0.93485900  0.33757900  0.92494300  1
  Ca  Ca8  1  0.58912700  0.15500800  0.55313900  1
  Ca  Ca9  1  0.33757900  0.92494300  0.93485900  1
  Ca  Ca10  1  0.55359400  0.52818900  0.93726900  1
  Ca  Ca11  1  0.43726900  0.02818900  0.05359400  1
  Ca  Ca12  1  0.83757900  0.43485900  0.42494300  1
  Ca  Ca13  1  0.65500800  0.08912700  0.05313900  1
  Ca  Ca14  1  0.05313900  0.65500800  0.08912700  1
  Ca  Ca15  1  0.42494300  0.83757900  0.43485900  1
  Ca  Ca16  1  0.08912700  0.05313900  0.65500800  1
  Ca  Ca17  1  0.92494300  0.93485900  0.33757900  1
  Ca  Ca18  1  0.52818900  0.93726900  0.55359400  1
  Ca  Ca19  1  0.43485900  0.42494300  0.83757900  1
  Co  Co20  1  0.99784500  0.99784500  0.99784500  1
  Co  Co21  1  0.49784500  0.49784500  0.49784500  1
  P  P22  1  0.31038100  0.77343900  0.81702900  1
  P  P23  1  0.27343900  0.81038100  0.31702900  1
  P  P24  1  0.18418300  0.68023900  0.22338000  1
  P  P25  1  0.68418300  0.72338000  0.18023900  1
  P  P26  1  0.31702900  0.27343900  0.81038100  1
  P  P27  1  0.18023900  0.68418300  0.72338000  1
  P  P28  1  0.72969900  0.72969900  0.72969900  1
  P  P29  1  0.81038100  0.31702900  0.27343900  1
  P  P30  1  0.22338000  0.18418300  0.68023900  1
  P  P31  1  0.72338000  0.18023900  0.68418300  1
  P  P32  1  0.68023900  0.22338000  0.18418300  1
  P  P33  1  0.77343900  0.81702900  0.31038100  1
  P  P34  1  0.81702900  0.31038100  0.77343900  1
  P  P35  1  0.22969900  0.22969900  0.22969900  1
  O  O36  1  0.62586300  0.35629900  0.62161900  1
  O  O37  1  0.31068200  0.88436900  0.32733000  1
  O  O38  1  0.73638000  0.10161900  0.63197200  1
  O  O39  1  0.23638000  0.13197200  0.60161900  1
  O  O40  1  0.60785100  0.88636600  0.16212500  1
  O  O41  1  0.88906900  0.60892500  0.73142800  1
  O  O42  1  0.38436900  0.81068200  0.82733000  1
  O  O43  1  0.35629900  0.62161900  0.62586300  1
  O  O44  1  0.32721800  0.86493800  0.14832300  1
  O  O45  1  0.85448800  0.40936400  0.10044000  1
  O  O46  1  0.60892500  0.73142800  0.88906900  1
  O  O47  1  0.32733000  0.31068200  0.88436900  1
  O  O48  1  0.85862200  0.65235900  0.11501800  1
  O  O49  1  0.63197200  0.73638000  0.10161900  1
  O  O50  1  0.14832300  0.32721800  0.86493800  1
  O  O51  1  0.11501800  0.85862200  0.65235900  1
  O  O52  1  0.65235900  0.11501800  0.85862200  1
  O  O53  1  0.73142800  0.88906900  0.60892500  1
  O  O54  1  0.10161900  0.63197200  0.73638000  1
  O  O55  1  0.88436900  0.32733000  0.31068200  1
  O  O56  1  0.23142800  0.10892500  0.38906900  1
  O  O57  1  0.38906900  0.23142800  0.10892500  1
  O  O58  1  0.18801800  0.18801800  0.18801800  1
  O  O59  1  0.38624200  0.35864600  0.63383800  1
  O  O60  1  0.61501800  0.15235900  0.35862200  1
  O  O61  1  0.13197200  0.60161900  0.23638000  1
  O  O62  1  0.90936400  0.35448800  0.60044000  1
  O  O63  1  0.88636600  0.16212500  0.60785100  1
  O  O64  1  0.16212500  0.60785100  0.88636600  1
  O  O65  1  0.66212500  0.38636600  0.10785100  1
  O  O66  1  0.63383800  0.38624200  0.35864600  1
  O  O67  1  0.88624200  0.13383800  0.85864600  1
  O  O68  1  0.85629900  0.12586300  0.12161900  1
  O  O69  1  0.15235900  0.35862200  0.61501800  1
  O  O70  1  0.68801800  0.68801800  0.68801800  1
  O  O71  1  0.13383800  0.85864600  0.88624200  1
  O  O72  1  0.60161900  0.23638000  0.13197200  1
  O  O73  1  0.10044000  0.85448800  0.40936400  1
  O  O74  1  0.82721800  0.64832300  0.36493800  1
  O  O75  1  0.40936400  0.10044000  0.85448800  1
  O  O76  1  0.64832300  0.36493800  0.82721800  1
  O  O77  1  0.62161900  0.62586300  0.35629900  1
  O  O78  1  0.82733000  0.38436900  0.81068200  1
  O  O79  1  0.38636600  0.10785100  0.66212500  1
  O  O80  1  0.35448800  0.60044000  0.90936400  1
  O  O81  1  0.10785100  0.66212500  0.38636600  1
  O  O82  1  0.85864600  0.88624200  0.13383800  1
  O  O83  1  0.81068200  0.82733000  0.38436900  1
  O  O84  1  0.35864600  0.63383800  0.38624200  1
  O  O85  1  0.86493800  0.14832300  0.32721800  1
  O  O86  1  0.12586300  0.12161900  0.85629900  1
  O  O87  1  0.60044000  0.90936400  0.35448800  1
  O  O88  1  0.36493800  0.82721800  0.64832300  1
  O  O89  1  0.12161900  0.85629900  0.12586300  1
  O  O90  1  0.35862200  0.61501800  0.15235900  1
  O  O91  1  0.10892500  0.38906900  0.23142800  1
