# generated using pymatgen
data_Zr2Sn
_symmetry_space_group_name_H-M   'P 1'
_cell_length_a   5.65121187
_cell_length_b   5.65121187
_cell_length_c   4.95237300
_cell_angle_alpha   90.00000000
_cell_angle_beta   90.00000000
_cell_angle_gamma   119.99999844
_symmetry_Int_Tables_number   1
_chemical_formula_structural   Zr2Sn
_chemical_formula_sum   'Zr4 Sn2'
_cell_volume   136.97053898
_cell_formula_units_Z   2
loop_
 _symmetry_equiv_pos_site_id
 _symmetry_equiv_pos_as_xyz
  1  'x, y, z'
loop_
 _atom_site_type_symbol
 _atom_site_label
 _atom_site_symmetry_multiplicity
 _atom_site_fract_x
 _atom_site_fract_y
 _atom_site_fract_z
 _atom_site_occupancy
  Zr  Zr0  1  0.64908900  0.64908900  0.50000000  1
  Zr  Zr1  1  0.00000000  0.00000000  0.00000000  1
  Zr  Zr2  1  0.00000000  0.35091100  0.50000000  1
  Zr  Zr3  1  0.35091100  0.00000000  0.50000000  1
  Sn  Sn4  1  0.66666700  0.33333300  0.00000000  1
  Sn  Sn5  1  0.33333300  0.66666700  0.00000000  1
