# generated using pymatgen
data_Cs5FeO4
_symmetry_space_group_name_H-M   'P 1'
_cell_length_a   13.08443700
_cell_length_b   7.41836100
_cell_length_c   11.54966604
_cell_angle_alpha   81.03961567
_cell_angle_beta   90.00000000
_cell_angle_gamma   90.00000000
_symmetry_Int_Tables_number   1
_chemical_formula_structural   Cs5FeO4
_chemical_formula_sum   'Cs20 Fe4 O16'
_cell_volume   1107.38799576
_cell_formula_units_Z   4
loop_
 _symmetry_equiv_pos_site_id
 _symmetry_equiv_pos_as_xyz
  1  'x, y, z'
loop_
 _atom_site_type_symbol
 _atom_site_label
 _atom_site_symmetry_multiplicity
 _atom_site_fract_x
 _atom_site_fract_y
 _atom_site_fract_z
 _atom_site_occupancy
  Cs  Cs0  1  0.70236900  0.00784100  0.23442400  1
  Cs  Cs1  1  0.20236900  0.49215900  0.76557600  1
  Cs  Cs2  1  0.29763100  0.99215900  0.76557600  1
  Cs  Cs3  1  0.79763100  0.50784100  0.23442400  1
  Cs  Cs4  1  0.17475600  0.16223100  0.14895100  1
  Cs  Cs5  1  0.67475600  0.33776900  0.85104900  1
  Cs  Cs6  1  0.82524400  0.83776900  0.85104900  1
  Cs  Cs7  1  0.32524400  0.66223100  0.14895100  1
  Cs  Cs8  1  0.07052600  0.44960800  0.36755100  1
  Cs  Cs9  1  0.57052600  0.05039200  0.63244900  1
  Cs  Cs10  1  0.92947400  0.55039200  0.63244900  1
  Cs  Cs11  1  0.42947400  0.94960800  0.36755100  1
  Cs  Cs12  1  0.92540600  0.23791400  0.00738900  1
  Cs  Cs13  1  0.42540600  0.26208600  0.99261100  1
  Cs  Cs14  1  0.07459400  0.76208600  0.99261100  1
  Cs  Cs15  1  0.57459400  0.73791400  0.00738900  1
  Cs  Cs16  1  0.86498600  0.07440600  0.50348300  1
  Cs  Cs17  1  0.36498600  0.42559400  0.49651700  1
  Cs  Cs18  1  0.13501400  0.92559400  0.49651700  1
  Cs  Cs19  1  0.63501400  0.57440600  0.50348300  1
  Fe  Fe20  1  0.53150300  0.38707300  0.25365400  1
  Fe  Fe21  1  0.03150300  0.11292700  0.74634600  1
  Fe  Fe22  1  0.46849700  0.61292700  0.74634600  1
  Fe  Fe23  1  0.96849700  0.88707300  0.25365400  1
  O  O24  1  0.88896400  0.18498700  0.75955900  1
  O  O25  1  0.38896400  0.31501300  0.24044100  1
  O  O26  1  0.11103600  0.81501300  0.24044100  1
  O  O27  1  0.61103600  0.68498700  0.75955900  1
  O  O28  1  0.60592500  0.35410400  0.11208900  1
  O  O29  1  0.10592500  0.14589600  0.88791100  1
  O  O30  1  0.39407500  0.64589600  0.88791100  1
  O  O31  1  0.89407500  0.85410400  0.11208900  1
  O  O32  1  0.59392400  0.24355300  0.39030700  1
  O  O33  1  0.09392400  0.25644700  0.60969300  1
  O  O34  1  0.40607600  0.75644700  0.60969300  1
  O  O35  1  0.90607600  0.74355300  0.39030700  1
  O  O36  1  0.96773500  0.14375700  0.27157800  1
  O  O37  1  0.46773500  0.35624300  0.72842200  1
  O  O38  1  0.03226500  0.85624300  0.72842200  1
  O  O39  1  0.53226500  0.64375700  0.27157800  1
