# generated using pymatgen
data_BaCoSiO4
_symmetry_space_group_name_H-M   'P 1'
_cell_length_a   9.22902243
_cell_length_b   9.22902243
_cell_length_c   8.78892100
_cell_angle_alpha   90.00000000
_cell_angle_beta   90.00000000
_cell_angle_gamma   120.00000308
_symmetry_Int_Tables_number   1
_chemical_formula_structural   BaCoSiO4
_chemical_formula_sum   'Ba6 Co6 Si6 O24'
_cell_volume   648.30232923
_cell_formula_units_Z   6
loop_
 _symmetry_equiv_pos_site_id
 _symmetry_equiv_pos_as_xyz
  1  'x, y, z'
loop_
 _atom_site_type_symbol
 _atom_site_label
 _atom_site_symmetry_multiplicity
 _atom_site_fract_x
 _atom_site_fract_y
 _atom_site_fract_z
 _atom_site_occupancy
  Ba  Ba0  1  0.00000000  0.00000000  0.24950500  1
  Ba  Ba1  1  0.00000000  0.00000000  0.74950500  1
  Ba  Ba2  1  0.66666700  0.33333300  0.27957700  1
  Ba  Ba3  1  0.33333300  0.66666700  0.77957700  1
  Ba  Ba4  1  0.33333300  0.66666700  0.28175300  1
  Ba  Ba5  1  0.66666700  0.33333300  0.78175300  1
  Co  Co6  1  0.31719100  0.98873100  0.96721600  1
  Co  Co7  1  0.01126900  0.32845900  0.96721600  1
  Co  Co8  1  0.67154100  0.68280900  0.96721600  1
  Co  Co9  1  0.68280900  0.01126900  0.46721600  1
  Co  Co10  1  0.98873100  0.67154100  0.46721600  1
  Co  Co11  1  0.32845900  0.31719100  0.46721600  1
  Si  Si12  1  0.34040600  0.32899000  0.06976100  1
  Si  Si13  1  0.67101000  0.01141700  0.06976100  1
  Si  Si14  1  0.98858300  0.65959400  0.06976100  1
  Si  Si15  1  0.65959400  0.67101000  0.56976100  1
  Si  Si16  1  0.32899000  0.98858300  0.56976100  1
  Si  Si17  1  0.01141700  0.34040600  0.56976100  1
  O  O18  1  0.23583500  0.14956200  0.97775200  1
  O  O19  1  0.85043800  0.08627400  0.97775200  1
  O  O20  1  0.91372600  0.76416500  0.97775200  1
  O  O21  1  0.76416500  0.85043800  0.47775200  1
  O  O22  1  0.14956200  0.91372600  0.47775200  1
  O  O23  1  0.08627400  0.23583500  0.47775200  1
  O  O24  1  0.53593600  0.44071400  0.01094500  1
  O  O25  1  0.55928600  0.09522200  0.01094500  1
  O  O26  1  0.90477800  0.46406400  0.01094500  1
  O  O27  1  0.46406400  0.55928600  0.51094500  1
  O  O28  1  0.44071400  0.90477800  0.51094500  1
  O  O29  1  0.09522200  0.53593600  0.51094500  1
  O  O30  1  0.23964300  0.43402700  0.05445000  1
  O  O31  1  0.56597300  0.80561600  0.05445000  1
  O  O32  1  0.19438400  0.76035700  0.05445000  1
  O  O33  1  0.76035700  0.56597300  0.55445000  1
  O  O34  1  0.43402700  0.19438400  0.55445000  1
  O  O35  1  0.80561600  0.23964300  0.55445000  1
  O  O36  1  0.27789800  0.93101400  0.74909400  1
  O  O37  1  0.06898600  0.34688400  0.74909400  1
  O  O38  1  0.65311600  0.72210200  0.74909400  1
  O  O39  1  0.72210200  0.06898600  0.24909400  1
  O  O40  1  0.93101400  0.65311600  0.24909400  1
  O  O41  1  0.34688400  0.27789800  0.24909400  1
