# generated using pymatgen
data_NaV3(FeO4)3
_symmetry_space_group_name_H-M   'P 1'
_cell_length_a   6.88757100
_cell_length_b   8.31830728
_cell_length_c   10.03358242
_cell_angle_alpha   106.18976526
_cell_angle_beta   104.52066612
_cell_angle_gamma   101.92853996
_symmetry_Int_Tables_number   1
_chemical_formula_structural   NaV3(FeO4)3
_chemical_formula_sum   'Na2 V6 Fe6 O24'
_cell_volume   510.22056536
_cell_formula_units_Z   2
loop_
 _symmetry_equiv_pos_site_id
 _symmetry_equiv_pos_as_xyz
  1  'x, y, z'
loop_
 _atom_site_type_symbol
 _atom_site_label
 _atom_site_symmetry_multiplicity
 _atom_site_fract_x
 _atom_site_fract_y
 _atom_site_fract_z
 _atom_site_occupancy
  Na  Na0  1  0.98109200  0.02927000  0.55758700  1
  Na  Na1  1  0.45329800  0.98699200  0.46111900  1
  V  V2  1  0.73458200  0.17061000  0.26289400  1
  V  V3  1  0.09712900  0.78316300  0.13006100  1
  V  V4  1  0.27258700  0.83333300  0.73876900  1
  V  V5  1  0.90679200  0.21374900  0.87637400  1
  V  V6  1  0.38742900  0.40977000  0.67006300  1
  V  V7  1  0.61384700  0.58897900  0.33070700  1
  Fe  Fe8  1  0.88195500  0.44414500  0.60551300  1
  Fe  Fe9  1  0.45819300  0.29159900  0.98169600  1
  Fe  Fe10  1  0.12184500  0.55455100  0.39704400  1
  Fe  Fe11  1  0.77610700  0.76521800  0.79817300  1
  Fe  Fe12  1  0.23047500  0.23127400  0.20678400  1
  Fe  Fe13  1  0.54782100  0.70758200  0.01940700  1
  O  O14  1  0.69433800  0.95818600  0.17483600  1
  O  O15  1  0.31180500  0.05199600  0.82390800  1
  O  O16  1  0.98653600  0.28719500  0.26159500  1
  O  O17  1  0.37154600  0.47659400  0.34906000  1
  O  O18  1  0.63122400  0.52301600  0.66008700  1
  O  O19  1  0.83296200  0.52825300  0.41379500  1
  O  O20  1  0.49326800  0.77661200  0.82598000  1
  O  O21  1  0.41357300  0.43710700  0.85631200  1
  O  O22  1  0.18135400  0.47815300  0.57830100  1
  O  O23  1  0.19711400  0.01106100  0.23500500  1
  O  O24  1  0.16019600  0.26094400  0.01543700  1
  O  O25  1  0.08269700  0.67005500  0.25135900  1
  O  O26  1  0.82272800  0.98865100  0.77211700  1
  O  O27  1  0.50985800  0.22754900  0.16950300  1
  O  O28  1  0.32828900  0.19601400  0.57953600  1
  O  O29  1  0.72720500  0.27055800  0.95833900  1
  O  O30  1  0.24972700  0.80115400  0.55492900  1
  O  O31  1  0.57739800  0.54668500  0.14289300  1
  O  O32  1  0.74555500  0.19232900  0.44168500  1
  O  O33  1  0.85366500  0.74286700  0.98877400  1
  O  O34  1  0.93460800  0.31461100  0.75468900  1
  O  O35  1  0.02541400  0.72039400  0.74294200  1
  O  O36  1  0.26705900  0.72983700  0.04567000  1
  O  O37  1  0.66211900  0.80231900  0.41809700  1
