# generated using pymatgen
data_Co3SnC12BrO12
_symmetry_space_group_name_H-M   'P 1'
_cell_length_a   10.49916782
_cell_length_b   10.49916782
_cell_length_c   12.28609800
_cell_angle_alpha   90.00000000
_cell_angle_beta   90.00000000
_cell_angle_gamma   119.99999887
_symmetry_Int_Tables_number   1
_chemical_formula_structural   Co3SnC12BrO12
_chemical_formula_sum   'Co6 Sn2 C24 Br2 O24'
_cell_volume   1172.88212356
_cell_formula_units_Z   2
loop_
 _symmetry_equiv_pos_site_id
 _symmetry_equiv_pos_as_xyz
  1  'x, y, z'
loop_
 _atom_site_type_symbol
 _atom_site_label
 _atom_site_symmetry_multiplicity
 _atom_site_fract_x
 _atom_site_fract_y
 _atom_site_fract_z
 _atom_site_occupancy
  Co  Co0  1  0.11313300  0.40321100  0.94237100  1
  Co  Co1  1  0.88686700  0.59678900  0.44237100  1
  Co  Co2  1  0.40321100  0.29007700  0.44237100  1
  Co  Co3  1  0.29007700  0.88686700  0.94237100  1
  Co  Co4  1  0.70992300  0.11313300  0.44237100  1
  Co  Co5  1  0.59678900  0.70992300  0.94237100  1
  Sn  Sn6  1  0.66666700  0.33333300  0.49717100  1
  Sn  Sn7  1  0.33333300  0.66666700  0.99717100  1
  C  C8  1  0.16797700  0.83155900  0.05507400  1
  C  C9  1  0.66358200  0.83202300  0.05507400  1
  C  C10  1  0.77272600  0.74642800  0.90160600  1
  C  C11  1  0.99242100  0.47176400  0.97160800  1
  C  C12  1  0.97370200  0.22727400  0.90160600  1
  C  C13  1  0.20830000  0.43980500  0.81672500  1
  C  C14  1  0.22727400  0.25357200  0.40160600  1
  C  C15  1  0.47934300  0.00757900  0.97160800  1
  C  C16  1  0.76849500  0.20830000  0.31672500  1
  C  C17  1  0.83202300  0.16844100  0.55507400  1
  C  C18  1  0.83155900  0.66358200  0.55507400  1
  C  C19  1  0.16844100  0.33641800  0.05507400  1
  C  C20  1  0.74642800  0.97370200  0.40160600  1
  C  C21  1  0.43980500  0.23150500  0.31672500  1
  C  C22  1  0.02629800  0.77272600  0.40160600  1
  C  C23  1  0.33641800  0.16797700  0.55507400  1
  C  C24  1  0.52065700  0.99242100  0.47160800  1
  C  C25  1  0.52823600  0.52065700  0.97160800  1
  C  C26  1  0.79170000  0.56019500  0.31672500  1
  C  C27  1  0.23150500  0.79170000  0.81672500  1
  C  C28  1  0.00757900  0.52823600  0.47160800  1
  C  C29  1  0.25357200  0.02629800  0.90160600  1
  C  C30  1  0.47176400  0.47934300  0.47160800  1
  C  C31  1  0.56019500  0.76849500  0.81672500  1
  Br  Br32  1  0.33333300  0.66666700  0.20669000  1
  Br  Br33  1  0.66666700  0.33333300  0.70669000  1
  O  O34  1  0.73580500  0.54746900  0.23291900  1
  O  O35  1  0.39966800  0.90440000  0.48926900  1
  O  O36  1  0.54746900  0.81166500  0.73291900  1
  O  O37  1  0.72064800  0.91387800  0.12599300  1
  O  O38  1  0.60033200  0.09560000  0.98926900  1
  O  O39  1  0.88416400  0.11070200  0.87541500  1
  O  O40  1  0.22653800  0.11583600  0.87541500  1
  O  O41  1  0.27935200  0.08612200  0.62599300  1
  O  O42  1  0.09560000  0.49526800  0.48926900  1
  O  O43  1  0.77346200  0.88416400  0.37541500  1
  O  O44  1  0.26419500  0.45253100  0.73291900  1
  O  O45  1  0.88929800  0.77346200  0.87541500  1
  O  O46  1  0.11070200  0.22653800  0.37541500  1
  O  O47  1  0.90440000  0.50473200  0.98926900  1
  O  O48  1  0.45253100  0.18833500  0.23291900  1
  O  O49  1  0.91387800  0.19323000  0.62599300  1
  O  O50  1  0.11583600  0.88929800  0.37541500  1
  O  O51  1  0.49526800  0.39966800  0.98926900  1
  O  O52  1  0.18833500  0.73580500  0.73291900  1
  O  O53  1  0.81166500  0.26419500  0.23291900  1
  O  O54  1  0.19323000  0.27935200  0.12599300  1
  O  O55  1  0.08612200  0.80677000  0.12599300  1
  O  O56  1  0.50473200  0.60033200  0.48926900  1
  O  O57  1  0.80677000  0.72064800  0.62599300  1
