# generated using pymatgen
data_CoBC8(OF2)5
_symmetry_space_group_name_H-M   'P 1'
_cell_length_a   14.32881300
_cell_length_b   8.22644500
_cell_length_c   13.08193906
_cell_angle_alpha   81.01477559
_cell_angle_beta   90.00000000
_cell_angle_gamma   90.00000000
_symmetry_Int_Tables_number   1
_chemical_formula_structural   CoBC8(OF2)5
_chemical_formula_sum   'Co4 B4 C32 O20 F40'
_cell_volume   1523.11321393
_cell_formula_units_Z   4
loop_
 _symmetry_equiv_pos_site_id
 _symmetry_equiv_pos_as_xyz
  1  'x, y, z'
loop_
 _atom_site_type_symbol
 _atom_site_label
 _atom_site_symmetry_multiplicity
 _atom_site_fract_x
 _atom_site_fract_y
 _atom_site_fract_z
 _atom_site_occupancy
  Co  Co0  1  0.60228700  0.22411300  0.76086800  1
  Co  Co1  1  0.39771300  0.77588700  0.23913200  1
  Co  Co2  1  0.89771300  0.22411300  0.26086800  1
  Co  Co3  1  0.10228700  0.77588700  0.73913200  1
  B  B4  1  0.75841900  0.77796700  0.49919200  1
  B  B5  1  0.24158100  0.22203300  0.50080800  1
  B  B6  1  0.25841900  0.22203300  0.00080800  1
  B  B7  1  0.74158100  0.77796700  0.99919200  1
  C  C8  1  0.91183000  0.19774500  0.39916400  1
  C  C9  1  0.61240500  0.25251500  0.62187700  1
  C  C10  1  0.19294900  0.40173300  0.50821100  1
  C  C11  1  0.78203800  0.83238400  0.61239200  1
  C  C12  1  0.22869100  0.76874700  0.72350800  1
  C  C13  1  0.08817000  0.80225500  0.60083600  1
  C  C14  1  0.30705100  0.40173300  0.00821100  1
  C  C15  1  0.38759500  0.74748500  0.37812300  1
  C  C16  1  0.88759500  0.25251500  0.12187700  1
  C  C17  1  0.05061600  0.97761300  0.74092000  1
  C  C18  1  0.71796200  0.83238400  0.11239200  1
  C  C19  1  0.41183000  0.80225500  0.10083600  1
  C  C20  1  0.46995300  0.59252500  0.24963300  1
  C  C21  1  0.55061600  0.02238700  0.75908000  1
  C  C22  1  0.69294900  0.59826700  0.99178900  1
  C  C23  1  0.28203800  0.16761600  0.88760800  1
  C  C24  1  0.11240500  0.74748500  0.87812300  1
  C  C25  1  0.14438700  0.23087600  0.01600900  1
  C  C26  1  0.35561300  0.23087600  0.51600900  1
  C  C27  1  0.96995300  0.40747500  0.25036700  1
  C  C28  1  0.27130900  0.76874700  0.22350800  1
  C  C29  1  0.77130900  0.23125300  0.27649200  1
  C  C30  1  0.94938400  0.02238700  0.25908000  1
  C  C31  1  0.72869100  0.23125300  0.77649200  1
  C  C32  1  0.53004700  0.40747500  0.75036700  1
  C  C33  1  0.80705100  0.59826700  0.49178900  1
  C  C34  1  0.64438700  0.76912400  0.48399100  1
  C  C35  1  0.21796200  0.16761600  0.38760800  1
  C  C36  1  0.44938400  0.97761300  0.24092000  1
  C  C37  1  0.85561300  0.76912400  0.98399100  1
  C  C38  1  0.58817000  0.19774500  0.89916400  1
  C  C39  1  0.03004700  0.59252500  0.74963300  1
  O  O40  1  0.69222600  0.23364000  0.28826800  1
  O  O41  1  0.51631100  0.47814100  0.25515600  1
  O  O42  1  0.61697400  0.26947500  0.53363700  1
  O  O43  1  0.98368900  0.47814100  0.75515600  1
  O  O44  1  0.01631100  0.52185900  0.24484400  1
  O  O45  1  0.98212400  0.89573800  0.25807800  1
  O  O46  1  0.88302600  0.26947500  0.03363700  1
  O  O47  1  0.57763200  0.18280700  0.98677600  1
  O  O48  1  0.48368900  0.52185900  0.74484400  1
  O  O49  1  0.51787600  0.89573800  0.75807800  1
  O  O50  1  0.30777400  0.76636000  0.71173200  1
  O  O51  1  0.11697400  0.73052500  0.96636300  1
  O  O52  1  0.19222600  0.76636000  0.21173200  1
  O  O53  1  0.92236800  0.18280700  0.48677600  1
  O  O54  1  0.48212400  0.10426200  0.24192200  1
  O  O55  1  0.07763200  0.81719300  0.51322400  1
  O  O56  1  0.80777400  0.23364000  0.78826800  1
  O  O57  1  0.42236800  0.81719300  0.01322400  1
  O  O58  1  0.38302600  0.73052500  0.46636300  1
  O  O59  1  0.01787600  0.10426200  0.74192200  1
  F  F60  1  0.10212600  0.36375900  0.95526800  1
  F  F61  1  0.76069200  0.99649200  0.61491100  1
  F  F62  1  0.88161800  0.75782300  0.88370800  1
  F  F63  1  0.37641500  0.17994500  0.86262300  1
  F  F64  1  0.12358500  0.17994500  0.36262300  1
  F  F65  1  0.23930800  0.00350800  0.38508900  1
  F  F66  1  0.26069200  0.00350800  0.88508900  1
  F  F67  1  0.20369000  0.10056300  0.58012800  1
  F  F68  1  0.29434600  0.51862600  0.92074700  1
  F  F69  1  0.90243800  0.60956700  0.47766100  1
  F  F70  1  0.38161800  0.24217700  0.61629200  1
  F  F71  1  0.60212600  0.63624100  0.54473200  1
  F  F72  1  0.22512000  0.47592600  0.58945000  1
  F  F73  1  0.40221900  0.09389600  0.49302200  1
  F  F74  1  0.70369000  0.89943700  0.91987200  1
  F  F75  1  0.87641500  0.82005500  0.63737700  1
  F  F76  1  0.40243800  0.39043300  0.02233900  1
  F  F77  1  0.62358500  0.82005500  0.13737700  1
  F  F78  1  0.73613700  0.74464100  0.69487600  1
  F  F79  1  0.76386300  0.74464100  0.19487600  1
  F  F80  1  0.09778100  0.09389600  0.99302200  1
  F  F81  1  0.79434600  0.48137400  0.57925300  1
  F  F82  1  0.70565400  0.48137400  0.07925300  1
  F  F83  1  0.20565400  0.51862600  0.42074700  1
  F  F84  1  0.73930800  0.99649200  0.11491100  1
  F  F85  1  0.79631000  0.89943700  0.41987200  1
  F  F86  1  0.27488000  0.47592600  0.08945000  1
  F  F87  1  0.11838200  0.24217700  0.11629200  1
  F  F88  1  0.77488000  0.52407400  0.41055000  1
  F  F89  1  0.26386300  0.25535900  0.30512400  1
  F  F90  1  0.29631000  0.10056300  0.08012800  1
  F  F91  1  0.09756200  0.39043300  0.52233900  1
  F  F92  1  0.89787400  0.63624100  0.04473200  1
  F  F93  1  0.90221900  0.90610400  0.00697800  1
  F  F94  1  0.23613700  0.25535900  0.80512400  1
  F  F95  1  0.61838200  0.75782300  0.38370800  1
  F  F96  1  0.59778100  0.90610400  0.50697800  1
  F  F97  1  0.39787400  0.36375900  0.45526800  1
  F  F98  1  0.72511900  0.52407400  0.91055000  1
  F  F99  1  0.59756200  0.60956700  0.97766100  1
