# generated using pymatgen
data_Rb6In2Co2Si9O26
_symmetry_space_group_name_H-M   'P 1'
_cell_length_a   8.22821012
_cell_length_b   8.22821012
_cell_length_c   21.15627300
_cell_angle_alpha   90.00000000
_cell_angle_beta   90.00000000
_cell_angle_gamma   96.31804044
_symmetry_Int_Tables_number   1
_chemical_formula_structural   Rb6In2Co2Si9O26
_chemical_formula_sum   'Rb12 In4 Co4 Si18 O52'
_cell_volume   1423.65289650
_cell_formula_units_Z   2
loop_
 _symmetry_equiv_pos_site_id
 _symmetry_equiv_pos_as_xyz
  1  'x, y, z'
loop_
 _atom_site_type_symbol
 _atom_site_label
 _atom_site_symmetry_multiplicity
 _atom_site_fract_x
 _atom_site_fract_y
 _atom_site_fract_z
 _atom_site_occupancy
  Rb  Rb0  1  0.01131800  0.01131800  0.00000000  1
  Rb  Rb1  1  0.21773000  0.90485100  0.36676100  1
  Rb  Rb2  1  0.70827800  0.78772700  0.66462200  1
  Rb  Rb3  1  0.51131800  0.51131800  0.50000000  1
  Rb  Rb4  1  0.71773000  0.40485100  0.13323900  1
  Rb  Rb5  1  0.20827800  0.28772700  0.83537800  1
  Rb  Rb6  1  0.40485100  0.71773000  0.86676100  1
  Rb  Rb7  1  0.90485100  0.21773000  0.63323900  1
  Rb  Rb8  1  0.78772700  0.70827800  0.33537800  1
  Rb  Rb9  1  0.67360600  0.67360600  0.00000000  1
  Rb  Rb10  1  0.28772700  0.20827800  0.16462200  1
  Rb  Rb11  1  0.17360600  0.17360600  0.50000000  1
  In  In12  1  0.27180000  0.68541700  0.08960000  1
  In  In13  1  0.18541700  0.77180000  0.58960000  1
  In  In14  1  0.77180000  0.18541700  0.41040000  1
  In  In15  1  0.68541700  0.27180000  0.91040000  1
  Co  Co16  1  0.94177100  0.16157900  0.27081900  1
  Co  Co17  1  0.66157900  0.44177100  0.77081900  1
  Co  Co18  1  0.44177100  0.66157900  0.22918100  1
  Co  Co19  1  0.16157900  0.94177100  0.72918100  1
  Si  Si20  1  0.35747000  0.49627600  0.67753100  1
  Si  Si21  1  0.49627600  0.35747000  0.32246900  1
  Si  Si22  1  0.13589700  0.43008300  0.35912300  1
  Si  Si23  1  0.97690800  0.51481500  0.48659500  1
  Si  Si24  1  0.51481500  0.97690800  0.51340500  1
  Si  Si25  1  0.93008300  0.63589700  0.85912300  1
  Si  Si26  1  0.43008300  0.13589700  0.64087700  1
  Si  Si27  1  0.47690800  0.01481500  0.01340500  1
  Si  Si28  1  0.06852000  0.52600900  0.22296200  1
  Si  Si29  1  0.52600900  0.06852000  0.77703800  1
  Si  Si30  1  0.63589700  0.93008300  0.14087700  1
  Si  Si31  1  0.85554200  0.85554200  0.50000000  1
  Si  Si32  1  0.01481500  0.47690800  0.98659500  1
  Si  Si33  1  0.35554200  0.35554200  0.00000000  1
  Si  Si34  1  0.02600900  0.56852000  0.72296200  1
  Si  Si35  1  0.99627600  0.85747000  0.17753100  1
  Si  Si36  1  0.56852000  0.02600900  0.27703800  1
  Si  Si37  1  0.85747000  0.99627600  0.82246900  1
  O  O38  1  0.03093800  0.97034900  0.23987100  1
  O  O39  1  0.84255800  0.48313600  0.71109600  1
  O  O40  1  0.82964500  0.90070300  0.13812700  1
  O  O41  1  0.88008700  0.14747300  0.87172900  1
  O  O42  1  0.55609800  0.10580200  0.69979400  1
  O  O43  1  0.56579500  0.24083400  0.81524000  1
  O  O44  1  0.08782400  0.54164300  0.54939200  1
  O  O45  1  0.44622200  0.16355300  0.29816900  1
  O  O46  1  0.54164300  0.08782400  0.45060800  1
  O  O47  1  0.10144200  0.53253000  0.42332100  1
  O  O48  1  0.37132800  0.83628200  0.01250600  1
  O  O49  1  0.04164300  0.58782400  0.04939200  1
  O  O50  1  0.03253000  0.60144200  0.92332100  1
  O  O51  1  0.10580200  0.55609800  0.30020600  1
  O  O52  1  0.16184700  0.35564800  0.97625600  1
  O  O53  1  0.40070300  0.32964500  0.63812700  1
  O  O54  1  0.05609800  0.60580200  0.80020600  1
  O  O55  1  0.33628200  0.87132800  0.51250600  1
  O  O56  1  0.66355300  0.94622200  0.79816900  1
  O  O57  1  0.01793400  0.25871500  0.35577200  1
  O  O58  1  0.51793400  0.75871500  0.14422800  1
  O  O59  1  0.39656000  0.47615800  0.05997600  1
  O  O60  1  0.53253000  0.10144200  0.57667900  1
  O  O61  1  0.75871500  0.51793400  0.85577200  1
  O  O62  1  0.25871500  0.01793400  0.64422800  1
  O  O63  1  0.60144200  0.03253000  0.07667900  1
  O  O64  1  0.16355300  0.44622200  0.70183100  1
  O  O65  1  0.48313600  0.84255800  0.28890400  1
  O  O66  1  0.83628200  0.37132800  0.98749400  1
  O  O67  1  0.32964500  0.40070300  0.36187300  1
  O  O68  1  0.66184700  0.85564800  0.52374400  1
  O  O69  1  0.74083400  0.06579500  0.31524000  1
  O  O70  1  0.06579500  0.74083400  0.68476000  1
  O  O71  1  0.24083400  0.56579500  0.18476000  1
  O  O72  1  0.60580200  0.05609800  0.19979400  1
  O  O73  1  0.34255800  0.98313600  0.78890400  1
  O  O74  1  0.47034900  0.53093800  0.73987100  1
  O  O75  1  0.90070300  0.82964500  0.86187300  1
  O  O76  1  0.97034900  0.03093800  0.76012900  1
  O  O77  1  0.38008700  0.64747300  0.62827100  1
  O  O78  1  0.14747300  0.88008700  0.12827100  1
  O  O79  1  0.53093800  0.47034900  0.26012900  1
  O  O80  1  0.85564800  0.66184700  0.47625600  1
  O  O81  1  0.35564800  0.16184700  0.02374400  1
  O  O82  1  0.94622200  0.66355300  0.20183100  1
  O  O83  1  0.87132800  0.33628200  0.48749400  1
  O  O84  1  0.58782400  0.04164300  0.95060800  1
  O  O85  1  0.89656000  0.97615800  0.44002400  1
  O  O86  1  0.64747300  0.38008700  0.37172900  1
  O  O87  1  0.47615800  0.39656000  0.94002400  1
  O  O88  1  0.98313600  0.34255800  0.21109600  1
  O  O89  1  0.97615800  0.89656000  0.55997600  1
