# generated using pymatgen
data_RbCo(CO)4
_symmetry_space_group_name_H-M   'P 1'
_cell_length_a   11.65246544
_cell_length_b   11.65246544
_cell_length_c   14.54353184
_cell_angle_alpha   55.61916288
_cell_angle_beta   55.61916288
_cell_angle_gamma   29.36894451
_symmetry_Int_Tables_number   1
_chemical_formula_structural   RbCo(CO)4
_chemical_formula_sum   'Rb4 Co4 C16 O16'
_cell_volume   786.32300926
_cell_formula_units_Z   4
loop_
 _symmetry_equiv_pos_site_id
 _symmetry_equiv_pos_as_xyz
  1  'x, y, z'
loop_
 _atom_site_type_symbol
 _atom_site_label
 _atom_site_symmetry_multiplicity
 _atom_site_fract_x
 _atom_site_fract_y
 _atom_site_fract_z
 _atom_site_occupancy
  Rb  Rb0  1  0.87155700  0.78153000  0.06110900  1
  Rb  Rb1  1  0.78153000  0.87155700  0.56110900  1
  Rb  Rb2  1  0.12844300  0.21847000  0.93889100  1
  Rb  Rb3  1  0.21847000  0.12844300  0.43889100  1
  Co  Co4  1  0.83169300  0.41328800  0.73873900  1
  Co  Co5  1  0.41328800  0.83169300  0.23873900  1
  Co  Co6  1  0.16830700  0.58671200  0.26126100  1
  Co  Co7  1  0.58671200  0.16830700  0.76126100  1
  C  C8  1  0.10598100  0.26569100  0.65906400  1
  C  C9  1  0.26569100  0.10598100  0.15906400  1
  C  C10  1  0.89401900  0.73430900  0.34093600  1
  C  C11  1  0.73430900  0.89401900  0.84093600  1
  C  C12  1  0.66230200  0.63128600  0.80116300  1
  C  C13  1  0.63128600  0.66230200  0.30116300  1
  C  C14  1  0.33769800  0.36871400  0.19883700  1
  C  C15  1  0.36871400  0.33769800  0.69883700  1
  C  C16  1  0.88218100  0.19728600  0.84111600  1
  C  C17  1  0.19728600  0.88218100  0.34111600  1
  C  C18  1  0.11781900  0.80271400  0.15888400  1
  C  C19  1  0.80271400  0.11781900  0.65888400  1
  C  C20  1  0.65001200  0.56223300  0.65649600  1
  C  C21  1  0.56223300  0.65001200  0.15649600  1
  C  C22  1  0.34998800  0.43776700  0.34350400  1
  C  C23  1  0.43776700  0.34998800  0.84350400  1
  O  O24  1  0.29396400  0.15984600  0.60263300  1
  O  O25  1  0.15984600  0.29396400  0.10263300  1
  O  O26  1  0.70603600  0.84015400  0.39736700  1
  O  O27  1  0.84015400  0.70603600  0.89736700  1
  O  O28  1  0.54178100  0.78615300  0.84029700  1
  O  O29  1  0.78615300  0.54178100  0.34029700  1
  O  O30  1  0.45821900  0.21384700  0.15970300  1
  O  O31  1  0.21384700  0.45821900  0.65970300  1
  O  O32  1  0.91295300  0.05453000  0.90825700  1
  O  O33  1  0.05453000  0.91295300  0.40825700  1
  O  O34  1  0.08704700  0.94547000  0.09174300  1
  O  O35  1  0.94547000  0.08704700  0.59174300  1
  O  O36  1  0.52074200  0.66699800  0.60430500  1
  O  O37  1  0.66699800  0.52074200  0.10430500  1
  O  O38  1  0.47925800  0.33300200  0.39569500  1
  O  O39  1  0.33300200  0.47925800  0.89569500  1
