# generated using pymatgen
data_P2O2F3
_symmetry_space_group_name_H-M   'P 1'
_cell_length_a   13.23493618
_cell_length_b   13.23493618
_cell_length_c   9.54030000
_cell_angle_alpha   90.00000000
_cell_angle_beta   90.00000000
_cell_angle_gamma   120.00000089
_symmetry_Int_Tables_number   1
_chemical_formula_structural   P2O2F3
_chemical_formula_sum   'P24 O24 F36'
_cell_volume   1447.22601977
_cell_formula_units_Z   12
loop_
 _symmetry_equiv_pos_site_id
 _symmetry_equiv_pos_as_xyz
  1  'x, y, z'
loop_
 _atom_site_type_symbol
 _atom_site_label
 _atom_site_symmetry_multiplicity
 _atom_site_fract_x
 _atom_site_fract_y
 _atom_site_fract_z
 _atom_site_occupancy
  P  P0  1  0.33333300  0.66666700  0.96695200  1
  P  P1  1  0.88339300  0.43549300  0.35232600  1
  P  P2  1  0.00000000  0.00000000  0.42145900  1
  P  P3  1  0.55120900  0.76305300  0.78574400  1
  P  P4  1  0.93908400  0.78806400  0.09954300  1
  P  P5  1  0.21184400  0.76305300  0.28574400  1
  P  P6  1  0.21184400  0.44879100  0.78574400  1
  P  P7  1  0.88339300  0.44790000  0.85232600  1
  P  P8  1  0.66666700  0.33333300  0.53227200  1
  P  P9  1  0.66666700  0.33333300  0.03227200  1
  P  P10  1  0.93908400  0.15102000  0.59954300  1
  P  P11  1  0.55210000  0.11660700  0.35232600  1
  P  P12  1  0.84898000  0.78806400  0.59954300  1
  P  P13  1  0.55210000  0.43549300  0.85232600  1
  P  P14  1  0.56450700  0.11660700  0.85232600  1
  P  P15  1  0.21193600  0.06091600  0.59954300  1
  P  P16  1  0.21193600  0.15102000  0.09954300  1
  P  P17  1  0.84898000  0.06091600  0.09954300  1
  P  P18  1  0.33333300  0.66666700  0.46695200  1
  P  P19  1  0.55120900  0.78815600  0.28574400  1
  P  P20  1  0.23694700  0.44879100  0.28574400  1
  P  P21  1  0.56450700  0.44790000  0.35232600  1
  P  P22  1  0.00000000  0.00000000  0.92145900  1
  P  P23  1  0.23694700  0.78815600  0.78574400  1
  O  O24  1  0.64407300  0.21318300  0.46902600  1
  O  O25  1  0.56911000  0.35592700  0.46902600  1
  O  O26  1  0.92132000  0.04772300  0.48499300  1
  O  O27  1  0.30243300  0.54393800  0.90410600  1
  O  O28  1  0.78681700  0.35592700  0.96902600  1
  O  O29  1  0.12640300  0.04772300  0.98499300  1
  O  O30  1  0.30243300  0.75849400  0.40410600  1
  O  O31  1  0.24150600  0.54393800  0.40410600  1
  O  O32  1  0.64407300  0.43089000  0.96902600  1
  O  O33  1  0.45606200  0.69756700  0.40410600  1
  O  O34  1  0.92132000  0.87359700  0.98499300  1
  O  O35  1  0.78681700  0.43089000  0.46902600  1
  O  O36  1  0.33333300  0.66666700  0.12173200  1
  O  O37  1  0.45606200  0.75849400  0.90410600  1
  O  O38  1  0.12640300  0.07868000  0.48499300  1
  O  O39  1  0.95227700  0.07868000  0.98499300  1
  O  O40  1  0.00000000  0.00000000  0.76677500  1
  O  O41  1  0.66666700  0.33333300  0.18703900  1
  O  O42  1  0.24150600  0.69756700  0.90410600  1
  O  O43  1  0.33333300  0.66666700  0.62173200  1
  O  O44  1  0.00000000  0.00000000  0.26677500  1
  O  O45  1  0.56911000  0.21318300  0.96902600  1
  O  O46  1  0.66666700  0.33333300  0.68703900  1
  O  O47  1  0.95227700  0.87359700  0.48499300  1
  F  F48  1  0.45122300  0.09956900  0.77039800  1
  F  F49  1  0.82022300  0.74709600  0.18225300  1
  F  F50  1  0.51010500  0.00568700  0.45366500  1
  F  F51  1  0.99431300  0.50441800  0.45366500  1
  F  F52  1  0.92687300  0.17977700  0.18225300  1
  F  F53  1  0.16964200  0.83267200  0.88615400  1
  F  F54  1  0.12394500  0.43218400  0.20479800  1
  F  F55  1  0.66303000  0.83035800  0.88615400  1
  F  F56  1  0.66303000  0.83267200  0.38615400  1
  F  F57  1  0.51010500  0.50441800  0.95366500  1
  F  F58  1  0.32311400  0.10987700  0.49768600  1
  F  F59  1  0.45122300  0.35165400  0.27039800  1
  F  F60  1  0.64834600  0.09956900  0.27039800  1
  F  F61  1  0.89012300  0.21323700  0.49768600  1
  F  F62  1  0.32311400  0.21323700  0.99768600  1
  F  F63  1  0.49558200  0.00568700  0.95366500  1
  F  F64  1  0.49558200  0.48989500  0.45366500  1
  F  F65  1  0.99431300  0.48989500  0.95366500  1
  F  F66  1  0.56781600  0.69176200  0.20479800  1
  F  F67  1  0.89012300  0.67688600  0.99768600  1
  F  F68  1  0.25290400  0.17977700  0.68225300  1
  F  F69  1  0.78676300  0.10987700  0.99768600  1
  F  F70  1  0.16732800  0.33697000  0.88615400  1
  F  F71  1  0.16964200  0.33697000  0.38615400  1
  F  F72  1  0.25290400  0.07312700  0.18225300  1
  F  F73  1  0.92687300  0.74709600  0.68225300  1
  F  F74  1  0.90043100  0.35165400  0.77039800  1
  F  F75  1  0.12394500  0.69176200  0.70479800  1
  F  F76  1  0.16732800  0.83035800  0.38615400  1
  F  F77  1  0.56781600  0.87605500  0.70479800  1
  F  F78  1  0.30823800  0.87605500  0.20479800  1
  F  F79  1  0.64834600  0.54877700  0.77039800  1
  F  F80  1  0.78676300  0.67688600  0.49768600  1
  F  F81  1  0.82022300  0.07312700  0.68225300  1
  F  F82  1  0.90043100  0.54877700  0.27039800  1
  F  F83  1  0.30823800  0.43218400  0.70479800  1
