# generated using pymatgen
data_Ti8O15
_symmetry_space_group_name_H-M   'P 1'
_cell_length_a   5.58414600
_cell_length_b   7.19517073
_cell_length_c   13.49265541
_cell_angle_alpha   100.30865482
_cell_angle_beta   96.32630808
_cell_angle_gamma   108.65359021
_symmetry_Int_Tables_number   1
_chemical_formula_structural   Ti8O15
_chemical_formula_sum   'Ti16 O30'
_cell_volume   497.13289992
_cell_formula_units_Z   2
loop_
 _symmetry_equiv_pos_site_id
 _symmetry_equiv_pos_as_xyz
  1  'x, y, z'
loop_
 _atom_site_type_symbol
 _atom_site_label
 _atom_site_symmetry_multiplicity
 _atom_site_fract_x
 _atom_site_fract_y
 _atom_site_fract_z
 _atom_site_occupancy
  Ti  Ti0  1  0.22348400  0.72176100  0.54539900  1
  Ti  Ti1  1  0.77491000  0.77865400  0.45155800  1
  Ti  Ti2  1  0.51137100  0.80983700  0.80866200  1
  Ti  Ti3  1  0.48862900  0.19016300  0.19133800  1
  Ti  Ti4  1  0.77651600  0.27823900  0.45460100  1
  Ti  Ti5  1  0.83474900  0.89914700  0.06381000  1
  Ti  Ti6  1  0.14403600  0.46939800  0.31948100  1
  Ti  Ti7  1  0.83039000  0.39859000  0.06433700  1
  Ti  Ti8  1  0.85444900  0.02606700  0.67993100  1
  Ti  Ti9  1  0.16525100  0.10085300  0.93619000  1
  Ti  Ti10  1  0.49283300  0.69105400  0.19032700  1
  Ti  Ti11  1  0.22509000  0.22134600  0.54844200  1
  Ti  Ti12  1  0.14555100  0.97393300  0.32006900  1
  Ti  Ti13  1  0.16961000  0.60141000  0.93566300  1
  Ti  Ti14  1  0.50716700  0.30894600  0.80967300  1
  Ti  Ti15  1  0.85596400  0.53060200  0.68051900  1
  O  O16  1  0.85300100  0.85693600  0.21181200  1
  O  O17  1  0.60429600  0.06616500  0.75718900  1
  O  O18  1  0.48733300  0.35047900  0.65886100  1
  O  O19  1  0.14699900  0.14306400  0.78818800  1
  O  O20  1  0.57132000  0.85507200  0.54799800  1
  O  O21  1  0.80313100  0.92960400  0.92203100  1
  O  O22  1  0.58456900  0.44668900  0.15445200  1
  O  O23  1  0.73121400  0.13902700  0.10977600  1
  O  O24  1  0.39570400  0.93383500  0.24281100  1
  O  O25  1  0.23400000  0.23533100  0.28349100  1
  O  O26  1  0.91510900  0.26092600  0.60766100  1
  O  O27  1  0.76600000  0.76466900  0.71650900  1
  O  O28  1  0.08883200  0.95118300  0.57983400  1
  O  O29  1  0.12364000  0.51989400  0.18788400  1
  O  O30  1  0.18928800  0.44253900  0.47644000  1
  O  O31  1  0.93056500  0.65555200  0.02359200  1
  O  O32  1  0.51266700  0.64952100  0.34113900  1
  O  O33  1  0.42868000  0.14492800  0.45200200  1
  O  O34  1  0.87636000  0.48010600  0.81211600  1
  O  O35  1  0.78258500  0.32354900  0.32136000  1
  O  O36  1  0.81071200  0.55746100  0.52356000  1
  O  O37  1  0.46382700  0.72238100  0.05431800  1
  O  O38  1  0.41543100  0.55331100  0.84554800  1
  O  O39  1  0.26878600  0.86097300  0.89022400  1
  O  O40  1  0.19686900  0.07039600  0.07796900  1
  O  O41  1  0.91116800  0.04881700  0.42016600  1
  O  O42  1  0.21741500  0.67645100  0.67864000  1
  O  O43  1  0.06943500  0.34444800  0.97640800  1
  O  O44  1  0.08489100  0.73907400  0.39233900  1
  O  O45  1  0.53617300  0.27761900  0.94568200  1
