# generated using pymatgen
data_Ag3N5O6
_symmetry_space_group_name_H-M   'P 1'
_cell_length_a   7.38748687
_cell_length_b   7.38748687
_cell_length_c   9.32769600
_cell_angle_alpha   90.00000000
_cell_angle_beta   90.00000000
_cell_angle_gamma   130.66298577
_symmetry_Int_Tables_number   1
_chemical_formula_structural   Ag3N5O6
_chemical_formula_sum   'Ag6 N10 O12'
_cell_volume   386.14921757
_cell_formula_units_Z   2
loop_
 _symmetry_equiv_pos_site_id
 _symmetry_equiv_pos_as_xyz
  1  'x, y, z'
loop_
 _atom_site_type_symbol
 _atom_site_label
 _atom_site_symmetry_multiplicity
 _atom_site_fract_x
 _atom_site_fract_y
 _atom_site_fract_z
 _atom_site_occupancy
  Ag  Ag0  1  0.57649000  0.57649000  0.04418100  1
  Ag  Ag1  1  0.77554500  0.04797300  0.60632400  1
  Ag  Ag2  1  0.42351000  0.42351000  0.54418100  1
  Ag  Ag3  1  0.22445500  0.95202700  0.10632400  1
  Ag  Ag4  1  0.04797300  0.77554500  0.60632400  1
  Ag  Ag5  1  0.95202700  0.22445500  0.10632400  1
  N  N6  1  0.18178300  0.18178300  0.83346000  1
  N  N7  1  0.43437100  0.83069100  0.87615800  1
  N  N8  1  0.56562900  0.16930900  0.37615800  1
  N  N9  1  0.81821700  0.81821700  0.33346000  1
  N  N10  1  0.85228300  0.85228300  0.20808300  1
  N  N11  1  0.78791200  0.78791200  0.45949600  1
  N  N12  1  0.21208800  0.21208800  0.95949600  1
  N  N13  1  0.16930900  0.56562900  0.37615800  1
  N  N14  1  0.14771700  0.14771700  0.70808300  1
  N  N15  1  0.83069100  0.43437100  0.87615800  1
  O  O16  1  0.37345900  0.77344600  0.00822100  1
  O  O17  1  0.44277700  0.21575500  0.31934100  1
  O  O18  1  0.06741000  0.62226000  0.30694000  1
  O  O19  1  0.21575500  0.44277700  0.31934100  1
  O  O20  1  0.62654100  0.22655400  0.50822100  1
  O  O21  1  0.78424500  0.55722300  0.81934100  1
  O  O22  1  0.93259000  0.37774000  0.80694000  1
  O  O23  1  0.77344600  0.37345900  0.00822100  1
  O  O24  1  0.37774000  0.93259000  0.80694000  1
  O  O25  1  0.55722300  0.78424500  0.81934100  1
  O  O26  1  0.22655400  0.62654100  0.50822100  1
  O  O27  1  0.62226000  0.06741000  0.30694000  1
