# generated using pymatgen
data_Mg2Sn
_symmetry_space_group_name_H-M   'P 1'
_cell_length_a   6.11749521
_cell_length_b   6.11749521
_cell_length_c   6.11749538
_cell_angle_alpha   54.58474879
_cell_angle_beta   54.58474879
_cell_angle_gamma   54.58475041
_symmetry_Int_Tables_number   1
_chemical_formula_structural   Mg2Sn
_chemical_formula_sum   'Mg4 Sn2'
_cell_volume   141.45386284
_cell_formula_units_Z   2
loop_
 _symmetry_equiv_pos_site_id
 _symmetry_equiv_pos_as_xyz
  1  'x, y, z'
loop_
 _atom_site_type_symbol
 _atom_site_label
 _atom_site_symmetry_multiplicity
 _atom_site_fract_x
 _atom_site_fract_y
 _atom_site_fract_z
 _atom_site_occupancy
  Mg  Mg0  1  0.00000000  0.66560700  0.33439300  1
  Mg  Mg1  1  0.66560700  0.33439300  0.00000000  1
  Mg  Mg2  1  0.50000000  0.50000000  0.50000000  1
  Mg  Mg3  1  0.33439300  0.00000000  0.66560700  1
  Sn  Sn4  1  0.83348400  0.83348400  0.83348400  1
  Sn  Sn5  1  0.16651600  0.16651600  0.16651600  1
