# generated using pymatgen
data_K3Bi5(PO4)6
_symmetry_space_group_name_H-M   'P 1'
_cell_length_a   9.59211819
_cell_length_b   9.59211819
_cell_length_c   18.89795740
_cell_angle_alpha   68.44412293
_cell_angle_beta   68.44412293
_cell_angle_gamma   43.15736834
_symmetry_Int_Tables_number   1
_chemical_formula_structural   K3Bi5(PO4)6
_chemical_formula_sum   'K6 Bi10 P12 O48'
_cell_volume   1092.56532948
_cell_formula_units_Z   2
loop_
 _symmetry_equiv_pos_site_id
 _symmetry_equiv_pos_as_xyz
  1  'x, y, z'
loop_
 _atom_site_type_symbol
 _atom_site_label
 _atom_site_symmetry_multiplicity
 _atom_site_fract_x
 _atom_site_fract_y
 _atom_site_fract_z
 _atom_site_occupancy
  K  K0  1  0.68692800  0.31307200  0.25000000  1
  K  K1  1  0.31307200  0.68692800  0.75000000  1
  K  K2  1  0.52154500  0.32287300  0.06992200  1
  K  K3  1  0.32287300  0.52154500  0.56992200  1
  K  K4  1  0.47845500  0.67712700  0.93007800  1
  K  K5  1  0.67712700  0.47845500  0.43007800  1
  Bi  Bi6  1  0.23643100  0.03804400  0.52853500  1
  Bi  Bi7  1  0.16682900  0.38399100  0.29557800  1
  Bi  Bi8  1  0.38399100  0.16682900  0.79557800  1
  Bi  Bi9  1  0.83317100  0.61600900  0.70442200  1
  Bi  Bi10  1  0.03804400  0.23643100  0.02853500  1
  Bi  Bi11  1  0.76356900  0.96195600  0.47146500  1
  Bi  Bi12  1  0.96195600  0.76356900  0.97146500  1
  Bi  Bi13  1  0.85267000  0.14733000  0.75000000  1
  Bi  Bi14  1  0.14733000  0.85267000  0.25000000  1
  Bi  Bi15  1  0.61600900  0.83317100  0.20442200  1
  P  P16  1  0.84626600  0.00876900  0.61816400  1
  P  P17  1  0.68171500  0.88726100  0.34876600  1
  P  P18  1  0.11273900  0.31828500  0.15123400  1
  P  P19  1  0.54307100  0.71669700  0.09122000  1
  P  P20  1  0.88726100  0.68171500  0.84876600  1
  P  P21  1  0.31828500  0.11273900  0.65123400  1
  P  P22  1  0.99123100  0.15373400  0.88183600  1
  P  P23  1  0.45692900  0.28330300  0.90878000  1
  P  P24  1  0.71669700  0.54307100  0.59122000  1
  P  P25  1  0.00876900  0.84626600  0.11816400  1
  P  P26  1  0.15373400  0.99123100  0.38183600  1
  P  P27  1  0.28330300  0.45692900  0.40878000  1
  O  O28  1  0.13335200  0.62895300  0.45716400  1
  O  O29  1  0.62895300  0.13335200  0.95716400  1
  O  O30  1  0.95089200  0.04583300  0.11865100  1
  O  O31  1  0.29685000  0.53993800  0.31794700  1
  O  O32  1  0.69263100  0.49289100  0.07540800  1
  O  O33  1  0.46006200  0.70315000  0.18205300  1
  O  O34  1  0.21369100  0.34688600  0.41535700  1
  O  O35  1  0.86475200  0.24656100  0.95704000  1
  O  O36  1  0.86745700  0.31414200  0.81307800  1
  O  O37  1  0.31414200  0.86745700  0.31307800  1
  O  O38  1  0.41817800  0.10178400  0.56568300  1
  O  O39  1  0.92387100  0.82273400  0.83812700  1
  O  O40  1  0.67457500  0.80695700  0.82681000  1
  O  O41  1  0.79889800  0.90938200  0.12983300  1
  O  O42  1  0.30736900  0.50710900  0.92459200  1
  O  O43  1  0.95416700  0.04910800  0.38134900  1
  O  O44  1  0.17726600  0.07612900  0.66187300  1
  O  O45  1  0.58182200  0.89821600  0.43431700  1
  O  O46  1  0.13524800  0.75343900  0.04296000  1
  O  O47  1  0.82273400  0.92387100  0.33812700  1
  O  O48  1  0.09061800  0.20110200  0.37016700  1
  O  O49  1  0.94964600  0.47595000  0.20906900  1
  O  O50  1  0.49289100  0.69263100  0.57540800  1
  O  O51  1  0.53993800  0.29685000  0.81794700  1
  O  O52  1  0.80695700  0.67457500  0.32681000  1
  O  O53  1  0.04583300  0.95089200  0.61865100  1
  O  O54  1  0.68585800  0.13254300  0.68692200  1
  O  O55  1  0.07612900  0.17726600  0.16187300  1
  O  O56  1  0.32542500  0.19304300  0.17319000  1
  O  O57  1  0.52405000  0.05035400  0.29093100  1
  O  O58  1  0.65311400  0.78630900  0.08464300  1
  O  O59  1  0.34688600  0.21369100  0.91535700  1
  O  O60  1  0.10178400  0.41817800  0.06568300  1
  O  O61  1  0.05035400  0.52405000  0.79093100  1
  O  O62  1  0.24656100  0.86475200  0.45704000  1
  O  O63  1  0.70315000  0.46006200  0.68205300  1
  O  O64  1  0.37104700  0.86664800  0.04283600  1
  O  O65  1  0.90938200  0.79889800  0.62983300  1
  O  O66  1  0.50710900  0.30736900  0.42459200  1
  O  O67  1  0.75343900  0.13524800  0.54296000  1
  O  O68  1  0.86664800  0.37104700  0.54283600  1
  O  O69  1  0.20110200  0.09061800  0.87016700  1
  O  O70  1  0.04910800  0.95416700  0.88134900  1
  O  O71  1  0.89821600  0.58182200  0.93431700  1
  O  O72  1  0.19304300  0.32542500  0.67319000  1
  O  O73  1  0.47595000  0.94964600  0.70906900  1
  O  O74  1  0.13254300  0.68585800  0.18692200  1
  O  O75  1  0.78630900  0.65311400  0.58464300  1
