# generated using pymatgen
data_LaMnO3
_symmetry_space_group_name_H-M   'P 1'
_cell_length_a   10.47480100
_cell_length_b   5.71690100
_cell_length_c   6.22764421
_cell_angle_alpha   62.94228853
_cell_angle_beta   90.00000000
_cell_angle_gamma   90.00000000
_symmetry_Int_Tables_number   1
_chemical_formula_structural   LaMnO3
_chemical_formula_sum   'La4 Mn4 O12'
_cell_volume   332.11459568
_cell_formula_units_Z   4
loop_
 _symmetry_equiv_pos_site_id
 _symmetry_equiv_pos_as_xyz
  1  'x, y, z'
loop_
 _atom_site_type_symbol
 _atom_site_label
 _atom_site_symmetry_multiplicity
 _atom_site_fract_x
 _atom_site_fract_y
 _atom_site_fract_z
 _atom_site_occupancy
  La  La0  1  0.66338000  0.00383500  0.50098200  1
  La  La1  1  0.16338000  0.99616500  0.99901800  1
  La  La2  1  0.83662000  0.00383500  0.00098200  1
  La  La3  1  0.33662000  0.99616500  0.49901800  1
  Mn  Mn4  1  0.50000000  0.00000000  0.00000000  1
  Mn  Mn5  1  0.00000000  0.50000000  0.50000000  1
  Mn  Mn6  1  0.00000000  0.00000000  0.50000000  1
  Mn  Mn7  1  0.50000000  0.50000000  0.00000000  1
  O  O8  1  0.37355800  0.23042000  0.04397700  1
  O  O9  1  0.12653900  0.76786200  0.45699800  1
  O  O10  1  0.00186200  0.20467700  0.06277400  1
  O  O11  1  0.62644200  0.76958000  0.95602300  1
  O  O12  1  0.87346100  0.23213800  0.54300200  1
  O  O13  1  0.50186200  0.79532300  0.43722600  1
  O  O14  1  0.12644200  0.23042000  0.54397700  1
  O  O15  1  0.37346100  0.76786200  0.95699800  1
  O  O16  1  0.99813800  0.79532300  0.93722600  1
  O  O17  1  0.49813800  0.20467700  0.56277400  1
  O  O18  1  0.87355800  0.76958000  0.45602300  1
  O  O19  1  0.62653900  0.23213800  0.04300200  1
