# generated using pymatgen
data_KAuN12
_symmetry_space_group_name_H-M   'P 1'
_cell_length_a   7.61204419
_cell_length_b   7.61204419
_cell_length_c   8.03130613
_cell_angle_alpha   88.69524662
_cell_angle_beta   88.69524662
_cell_angle_gamma   89.54161364
_symmetry_Int_Tables_number   1
_chemical_formula_structural   KAuN12
_chemical_formula_sum   'K2 Au2 N24'
_cell_volume   465.10539764
_cell_formula_units_Z   2
loop_
 _symmetry_equiv_pos_site_id
 _symmetry_equiv_pos_as_xyz
  1  'x, y, z'
loop_
 _atom_site_type_symbol
 _atom_site_label
 _atom_site_symmetry_multiplicity
 _atom_site_fract_x
 _atom_site_fract_y
 _atom_site_fract_z
 _atom_site_occupancy
  K  K0  1  0.08621100  0.91378900  0.75000000  1
  K  K1  1  0.91378900  0.08621100  0.25000000  1
  Au  Au2  1  0.49374400  0.50625600  0.75000000  1
  Au  Au3  1  0.50625600  0.49374400  0.25000000  1
  N  N4  1  0.75601200  0.51484200  0.68087500  1
  N  N5  1  0.48515800  0.24398800  0.81912500  1
  N  N6  1  0.71540900  0.90756500  0.54318100  1
  N  N7  1  0.83006300  0.38476000  0.62818000  1
  N  N8  1  0.28459100  0.09243500  0.45681900  1
  N  N9  1  0.51484200  0.75601200  0.18087500  1
  N  N10  1  0.09243500  0.28459100  0.95681900  1
  N  N11  1  0.16349900  0.40198100  0.89072200  1
  N  N12  1  0.47000900  0.77077300  0.67839400  1
  N  N13  1  0.83650100  0.59801900  0.10927800  1
  N  N14  1  0.52999100  0.22922700  0.32160600  1
  N  N15  1  0.77077300  0.47000900  0.17839400  1
  N  N16  1  0.91497000  0.26972500  0.57687100  1
  N  N17  1  0.38476000  0.83006300  0.12818000  1
  N  N18  1  0.26972500  0.91497000  0.07687100  1
  N  N19  1  0.59801900  0.83650100  0.60927800  1
  N  N20  1  0.24398800  0.48515800  0.31912500  1
  N  N21  1  0.90756500  0.71540900  0.04318100  1
  N  N22  1  0.22922700  0.52999100  0.82160600  1
  N  N23  1  0.08503000  0.73027500  0.42312900  1
  N  N24  1  0.61524000  0.16993700  0.87182000  1
  N  N25  1  0.16993700  0.61524000  0.37182000  1
  N  N26  1  0.73027500  0.08503000  0.92312900  1
  N  N27  1  0.40198100  0.16349900  0.39072200  1
