data_image0
_chemical_formula_structural       As3Sn4
_chemical_formula_sum              "As3 Sn4"
_cell_length_a       12.3659
_cell_length_b       12.3659
_cell_length_c       12.3659
_cell_angle_alpha    19.218
_cell_angle_beta     19.218
_cell_angle_gamma    19.218

_space_group_name_H-M_alt    "P 1"
_space_group_IT_number       1

loop_
  _space_group_symop_operation_xyz
  'x, y, z'

loop_
  _atom_site_type_symbol
  _atom_site_label
  _atom_site_symmetry_multiplicity
  _atom_site_fract_x
  _atom_site_fract_y
  _atom_site_fract_z
  _atom_site_occupancy
  As  As1       1.0  0.00000  0.00000  0.00000  1.0000
  As  As2       1.0  0.43000  0.43000  0.43000  1.0000
  As  As3       1.0  0.57000  0.57000  0.57000  1.0000
  Sn  Sn1       1.0  0.13600  0.13600  0.13600  1.0000
  Sn  Sn2       1.0  0.28900  0.28900  0.28900  1.0000
  Sn  Sn3       1.0  0.71100  0.71100  0.71100  1.0000
  Sn  Sn4       1.0  0.86400  0.86400  0.86400  1.0000
