# generated using pymatgen
data_YbIn4Pd
_symmetry_space_group_name_H-M   'P 1'
_cell_length_a   8.72488941
_cell_length_b   8.72488941
_cell_length_c   7.63680400
_cell_angle_alpha   90.00000000
_cell_angle_beta   90.00000000
_cell_angle_gamma   150.17986039
_symmetry_Int_Tables_number   1
_chemical_formula_structural   YbIn4Pd
_chemical_formula_sum   'Yb2 In8 Pd2'
_cell_volume   289.08901127
_cell_formula_units_Z   2
loop_
 _symmetry_equiv_pos_site_id
 _symmetry_equiv_pos_as_xyz
  1  'x, y, z'
loop_
 _atom_site_type_symbol
 _atom_site_label
 _atom_site_symmetry_multiplicity
 _atom_site_fract_x
 _atom_site_fract_y
 _atom_site_fract_z
 _atom_site_occupancy
  Yb  Yb0  1  0.12822700  0.87177300  0.75000000  1
  Yb  Yb1  1  0.87177300  0.12822700  0.25000000  1
  In  In2  1  0.68208600  0.31791400  0.45144600  1
  In  In3  1  0.31791400  0.68208600  0.95144600  1
  In  In4  1  0.06532100  0.93467900  0.25000000  1
  In  In5  1  0.31791400  0.68208600  0.54855400  1
  In  In6  1  0.68208600  0.31791400  0.04855400  1
  In  In7  1  0.93467900  0.06532100  0.75000000  1
  In  In8  1  0.50000000  0.50000000  0.50000000  1
  In  In9  1  0.50000000  0.50000000  0.00000000  1
  Pd  Pd10  1  0.22746000  0.77254000  0.25000000  1
  Pd  Pd11  1  0.77254000  0.22746000  0.75000000  1
