# generated using pymatgen
data_SnS8(N2Cl)4
_symmetry_space_group_name_H-M   'P 1'
_cell_length_a   12.11579900
_cell_length_b   12.76266500
_cell_length_c   12.96296700
_cell_angle_alpha   90.00000000
_cell_angle_beta   90.00000000
_cell_angle_gamma   90.00000000
_symmetry_Int_Tables_number   1
_chemical_formula_structural   SnS8(N2Cl)4
_chemical_formula_sum   'Sn4 S32 N32 Cl16'
_cell_volume   2004.46208149
_cell_formula_units_Z   4
loop_
 _symmetry_equiv_pos_site_id
 _symmetry_equiv_pos_as_xyz
  1  'x, y, z'
loop_
 _atom_site_type_symbol
 _atom_site_label
 _atom_site_symmetry_multiplicity
 _atom_site_fract_x
 _atom_site_fract_y
 _atom_site_fract_z
 _atom_site_occupancy
  Sn  Sn0  1  0.24729900  0.00108100  0.56980800  1
  Sn  Sn1  1  0.75270100  0.00108100  0.06980800  1
  Sn  Sn2  1  0.75270100  0.50108100  0.43019200  1
  Sn  Sn3  1  0.24729900  0.50108100  0.93019200  1
  S  S4  1  0.88301700  0.09717100  0.74210400  1
  S  S5  1  0.61253300  0.89358200  0.39468500  1
  S  S6  1  0.94705600  0.65763100  0.10439100  1
  S  S7  1  0.51397700  0.55951300  0.85203500  1
  S  S8  1  0.51397700  0.05951300  0.64796500  1
  S  S9  1  0.64148000  0.10197000  0.29590900  1
  S  S10  1  0.48602300  0.05951300  0.14796500  1
  S  S11  1  0.02186900  0.44820200  0.50877600  1
  S  S12  1  0.35852000  0.60197000  0.70409100  1
  S  S13  1  0.55868700  0.34889200  0.76362100  1
  S  S14  1  0.38746700  0.89358200  0.89468500  1
  S  S15  1  0.05294400  0.65763100  0.60439100  1
  S  S16  1  0.05294400  0.15763100  0.89560900  1
  S  S17  1  0.86646500  0.39203700  0.65184300  1
  S  S18  1  0.11698300  0.59717100  0.25789600  1
  S  S19  1  0.02186900  0.94820200  0.99122400  1
  S  S20  1  0.44131300  0.34889200  0.26362100  1
  S  S21  1  0.64148000  0.60197000  0.20409100  1
  S  S22  1  0.48602300  0.55951300  0.35203500  1
  S  S23  1  0.35852000  0.10197000  0.79590900  1
  S  S24  1  0.13353500  0.39203700  0.15184300  1
  S  S25  1  0.86646500  0.89203700  0.84815700  1
  S  S26  1  0.97813100  0.94820200  0.49122400  1
  S  S27  1  0.13353500  0.89203700  0.34815700  1
  S  S28  1  0.61253300  0.39358200  0.10531500  1
  S  S29  1  0.88301700  0.59717100  0.75789600  1
  S  S30  1  0.94705600  0.15763100  0.39560900  1
  S  S31  1  0.97813100  0.44820200  0.00877600  1
  S  S32  1  0.44131300  0.84889200  0.23637900  1
  S  S33  1  0.55868700  0.84889200  0.73637900  1
  S  S34  1  0.38746700  0.39358200  0.60531500  1
  S  S35  1  0.11698300  0.09717100  0.24210400  1
  N  N36  1  0.45072900  0.33230900  0.69502500  1
  N  N37  1  0.63970000  0.01235600  0.38182600  1
  N  N38  1  0.38119500  0.05215500  0.67882300  1
  N  N39  1  0.54927100  0.83230900  0.30497500  1
  N  N40  1  0.36030000  0.51235600  0.61817400  1
  N  N41  1  0.11213200  0.94712700  0.46264600  1
  N  N42  1  0.13833200  0.97753200  0.25842300  1
  N  N43  1  0.92077300  0.55535600  0.04251100  1
  N  N44  1  0.05745300  0.66476500  0.17105000  1
  N  N45  1  0.42196300  0.95433000  0.17779300  1
  N  N46  1  0.07922700  0.55535600  0.54251100  1
  N  N47  1  0.86166800  0.97753200  0.75842300  1
  N  N48  1  0.63970000  0.51235600  0.11817400  1
  N  N49  1  0.94254700  0.16476500  0.82895000  1
  N  N50  1  0.45072900  0.83230900  0.80497500  1
  N  N51  1  0.05745300  0.16476500  0.32895000  1
  N  N52  1  0.13833200  0.47753200  0.24157700  1
  N  N53  1  0.07922700  0.05535600  0.95748900  1
  N  N54  1  0.57803700  0.95433000  0.67779300  1
  N  N55  1  0.88786800  0.94712700  0.96264600  1
  N  N56  1  0.92077300  0.05535600  0.45748900  1
  N  N57  1  0.86166800  0.47753200  0.74157700  1
  N  N58  1  0.57803700  0.45433000  0.82220700  1
  N  N59  1  0.42196300  0.45433000  0.32220700  1
  N  N60  1  0.11213200  0.44712700  0.03735400  1
  N  N61  1  0.88786800  0.44712700  0.53735400  1
  N  N62  1  0.36030000  0.01235600  0.88182600  1
  N  N63  1  0.54927100  0.33230900  0.19502500  1
  N  N64  1  0.61880500  0.05215500  0.17882300  1
  N  N65  1  0.94254700  0.66476500  0.67105000  1
  N  N66  1  0.61880500  0.55215500  0.32117700  1
  N  N67  1  0.38119500  0.55215500  0.82117700  1
  Cl  Cl68  1  0.14451000  0.16156300  0.60927600  1
  Cl  Cl69  1  0.15236800  0.91188400  0.71142200  1
  Cl  Cl70  1  0.65524700  0.59059000  0.57068200  1
  Cl  Cl71  1  0.34475300  0.59059000  0.07068200  1
  Cl  Cl72  1  0.85549000  0.66156300  0.39072400  1
  Cl  Cl73  1  0.65258600  0.33905200  0.47403500  1
  Cl  Cl74  1  0.84763200  0.41188400  0.28857800  1
  Cl  Cl75  1  0.34475300  0.09059000  0.42931800  1
  Cl  Cl76  1  0.65524700  0.09059000  0.92931800  1
  Cl  Cl77  1  0.14451000  0.66156300  0.89072400  1
  Cl  Cl78  1  0.65258600  0.83905200  0.02596500  1
  Cl  Cl79  1  0.34741400  0.83905200  0.52596500  1
  Cl  Cl80  1  0.34741400  0.33905200  0.97403500  1
  Cl  Cl81  1  0.15236800  0.41188400  0.78857800  1
  Cl  Cl82  1  0.84763200  0.91188400  0.21142200  1
  Cl  Cl83  1  0.85549000  0.16156300  0.10927600  1
