# generated using pymatgen
data_MgTi2
_symmetry_space_group_name_H-M   'P 1'
_cell_length_a   8.08948778
_cell_length_b   8.08948778
_cell_length_c   4.87178400
_cell_angle_alpha   90.00000000
_cell_angle_beta   90.00000000
_cell_angle_gamma   159.28819826
_symmetry_Int_Tables_number   1
_chemical_formula_structural   MgTi2
_chemical_formula_sum   'Mg2 Ti4'
_cell_volume   112.75225764
_cell_formula_units_Z   2
loop_
 _symmetry_equiv_pos_site_id
 _symmetry_equiv_pos_as_xyz
  1  'x, y, z'
loop_
 _atom_site_type_symbol
 _atom_site_label
 _atom_site_symmetry_multiplicity
 _atom_site_fract_x
 _atom_site_fract_y
 _atom_site_fract_z
 _atom_site_occupancy
  Mg  Mg0  1  0.44716100  0.55283900  0.25000000  1
  Mg  Mg1  1  0.55283900  0.44716100  0.75000000  1
  Ti  Ti2  1  0.12694100  0.87305900  0.25000000  1
  Ti  Ti3  1  0.77480500  0.22519500  0.25000000  1
  Ti  Ti4  1  0.22519500  0.77480500  0.75000000  1
  Ti  Ti5  1  0.87305900  0.12694100  0.75000000  1
