# generated using pymatgen
data_HgI2
_symmetry_space_group_name_H-M   'P 1'
_cell_length_a   14.72197262
_cell_length_b   14.72197262
_cell_length_c   14.72197262
_cell_angle_alpha   143.72051650
_cell_angle_beta   143.72051650
_cell_angle_gamma   52.24542325
_symmetry_Int_Tables_number   1
_chemical_formula_structural   HgI2
_chemical_formula_sum   'Hg8 I16'
_cell_volume   1110.76202947
_cell_formula_units_Z   8
loop_
 _symmetry_equiv_pos_site_id
 _symmetry_equiv_pos_as_xyz
  1  'x, y, z'
loop_
 _atom_site_type_symbol
 _atom_site_label
 _atom_site_symmetry_multiplicity
 _atom_site_fract_x
 _atom_site_fract_y
 _atom_site_fract_z
 _atom_site_occupancy
  Hg  Hg0  1  0.06111900  0.30656700  0.24544700  1
  Hg  Hg1  1  0.05656700  0.31111900  0.74544700  1
  Hg  Hg2  1  0.06111900  0.81567200  0.75455300  1
  Hg  Hg3  1  0.68888100  0.43432800  0.74544700  1
  Hg  Hg4  1  0.69343300  0.93888100  0.75455300  1
  Hg  Hg5  1  0.56567200  0.31111900  0.25455300  1
  Hg  Hg6  1  0.68888100  0.94343300  0.25455300  1
  Hg  Hg7  1  0.18432800  0.93888100  0.24544700  1
  I  I8  1  0.12568700  0.62568700  0.50000000  1
  I  I9  1  0.12773900  0.12773900  0.00000000  1
  I  I10  1  0.49211100  0.50788900  0.50000000  1
  I  I11  1  0.62226100  0.12226100  0.50000000  1
  I  I12  1  0.00788900  0.50788900  0.01577800  1
  I  I13  1  0.74211100  0.25788900  0.00000000  1
  I  I14  1  0.49211100  0.99211100  0.98422200  1
  I  I15  1  0.37568700  0.37568700  0.00000000  1
  I  I16  1  0.25788900  0.74211100  0.00000000  1
  I  I17  1  0.25788900  0.25788900  0.51577800  1
  I  I18  1  0.37431300  0.87431300  0.50000000  1
  I  I19  1  0.87226100  0.87226100  0.00000000  1
  I  I20  1  0.74211100  0.74211100  0.48422200  1
  I  I21  1  0.62431300  0.62431300  0.00000000  1
  I  I22  1  0.87773900  0.37773900  0.50000000  1
  I  I23  1  0.00788900  0.99211100  0.50000000  1
