# generated using pymatgen
data_GdH8C10N(O2F3)4
_symmetry_space_group_name_H-M   'P 1'
_cell_length_a   9.00727600
_cell_length_b   10.41204662
_cell_length_c   11.89286852
_cell_angle_alpha   105.67894673
_cell_angle_beta   99.40490673
_cell_angle_gamma   108.17982120
_symmetry_Int_Tables_number   1
_chemical_formula_structural   GdH8C10N(O2F3)4
_chemical_formula_sum   'Gd2 H16 C20 N2 O16 F24'
_cell_volume   982.12941844
_cell_formula_units_Z   2
loop_
 _symmetry_equiv_pos_site_id
 _symmetry_equiv_pos_as_xyz
  1  'x, y, z'
loop_
 _atom_site_type_symbol
 _atom_site_label
 _atom_site_symmetry_multiplicity
 _atom_site_fract_x
 _atom_site_fract_y
 _atom_site_fract_z
 _atom_site_occupancy
  Gd  Gd0  1  0.26609400  0.04720800  0.48823700  1
  Gd  Gd1  1  0.73390600  0.95279200  0.51176300  1
  H  H2  1  0.71803000  0.82202000  0.92412900  1
  H  H3  1  0.44752000  0.37819200  0.32719900  1
  H  H4  1  0.41884000  0.46885500  0.14716000  1
  H  H5  1  0.25121900  0.28815000  0.27927900  1
  H  H6  1  0.28197000  0.17798000  0.07587100  1
  H  H7  1  0.74878100  0.71185000  0.72072100  1
  H  H8  1  0.58116000  0.53114500  0.85284000  1
  H  H9  1  0.50414700  0.74124400  0.85306900  1
  H  H10  1  0.36571100  0.12897400  0.19777000  1
  H  H11  1  0.20896600  0.41184400  0.14609200  1
  H  H12  1  0.49585300  0.25875600  0.14693100  1
  H  H13  1  0.63428900  0.87102600  0.80223000  1
  H  H14  1  0.36197600  0.54777800  0.27737000  1
  H  H15  1  0.79103400  0.58815600  0.85390800  1
  H  H16  1  0.63802400  0.45222200  0.72263000  1
  H  H17  1  0.55248000  0.62180800  0.67280100  1
  C  C18  1  0.37584300  0.21618600  0.16124800  1
  C  C19  1  0.15515200  0.37579300  0.79141500  1
  C  C20  1  0.02690300  0.90057100  0.67521700  1
  C  C21  1  0.36132100  0.80321900  0.12356800  1
  C  C22  1  0.97309700  0.09942900  0.32478300  1
  C  C23  1  0.10151200  0.24547500  0.67042400  1
  C  C24  1  0.61726700  0.24902000  0.48702800  1
  C  C25  1  0.88858800  0.11854300  0.20830700  1
  C  C26  1  0.75777700  0.37900500  0.48219400  1
  C  C27  1  0.62415700  0.78381400  0.83875200  1
  C  C28  1  0.24222300  0.62099500  0.51780600  1
  C  C29  1  0.63867900  0.19678100  0.87643200  1
  C  C30  1  0.42010200  0.88506900  0.26416400  1
  C  C31  1  0.11141200  0.88145700  0.79169300  1
  C  C32  1  0.66645800  0.55100200  0.79815800  1
  C  C33  1  0.57989800  0.11493100  0.73583600  1
  C  C34  1  0.89848800  0.75452500  0.32957600  1
  C  C35  1  0.84484800  0.62420700  0.20858500  1
  C  C36  1  0.33354200  0.44899800  0.20184200  1
  C  C37  1  0.38273300  0.75098000  0.51297200  1
  N  N38  1  0.35129100  0.33452000  0.25056300  1
  N  N39  1  0.64870900  0.66548000  0.74943700  1
  O  O40  1  0.34901600  0.85490100  0.50052500  1
  O  O41  1  0.79333100  0.76105300  0.38627400  1
  O  O42  1  0.88298300  0.04588600  0.38298300  1
  O  O43  1  0.34785500  0.96668300  0.30263800  1
  O  O44  1  0.65098400  0.14509900  0.49947500  1
  O  O45  1  0.95769700  0.15983100  0.64748300  1
  O  O46  1  0.48138800  0.26252000  0.47739600  1
  O  O47  1  0.04230300  0.84016900  0.35251700  1
  O  O48  1  0.52927600  0.85706300  0.32122300  1
  O  O49  1  0.87433900  0.86374800  0.65514300  1
  O  O50  1  0.12566100  0.13625200  0.34485700  1
  O  O51  1  0.47072400  0.14293700  0.67877700  1
  O  O52  1  0.51861200  0.73748000  0.52260400  1
  O  O53  1  0.65214500  0.03331700  0.69736200  1
  O  O54  1  0.20666900  0.23894700  0.61372600  1
  O  O55  1  0.11701700  0.95411400  0.61701700  1
  F  F56  1  0.73341200  0.10695100  0.20229000  1
  F  F57  1  0.89727500  0.35596700  0.48494500  1
  F  F58  1  0.78815600  0.30302800  0.90702300  1
  F  F59  1  0.02945800  0.75062500  0.79953000  1
  F  F60  1  0.46287700  0.74012100  0.08258400  1
  F  F61  1  0.71509400  0.40735800  0.37823300  1
  F  F62  1  0.11269900  0.98434400  0.89205700  1
  F  F63  1  0.65119300  0.10718300  0.93941500  1
  F  F64  1  0.97054200  0.24937500  0.20047000  1
  F  F65  1  0.26658800  0.89304900  0.79771000  1
  F  F66  1  0.21038900  0.49857200  0.42290800  1
  F  F67  1  0.95770100  0.56358300  0.19976600  1
  F  F68  1  0.78961100  0.50142800  0.57709200  1
  F  F69  1  0.29816500  0.48241900  0.80544000  1
  F  F70  1  0.88730100  0.01565600  0.10794300  1
  F  F71  1  0.17675000  0.32945900  0.88803700  1
  F  F72  1  0.28490600  0.59264200  0.62176700  1
  F  F73  1  0.21184400  0.69697200  0.09297700  1
  F  F74  1  0.70183500  0.51758100  0.19456000  1
  F  F75  1  0.53712300  0.25987900  0.91741600  1
  F  F76  1  0.82325000  0.67054100  0.11196300  1
  F  F77  1  0.04229900  0.43641700  0.80023400  1
  F  F78  1  0.34880700  0.89281700  0.06058500  1
  F  F79  1  0.10272500  0.64403300  0.51505500  1
