# generated using pymatgen
data_KHgC2
_symmetry_space_group_name_H-M   'P 1'
_cell_length_a   18.71985576
_cell_length_b   18.35396300
_cell_length_c   5.17889336
_cell_angle_alpha   86.00158916
_cell_angle_beta   77.97804369
_cell_angle_gamma   16.02036715
_symmetry_Int_Tables_number   1
_chemical_formula_structural   KHgC2
_chemical_formula_sum   'K4 Hg4 C8'
_cell_volume   420.46966526
_cell_formula_units_Z   4
loop_
 _symmetry_equiv_pos_site_id
 _symmetry_equiv_pos_as_xyz
  1  'x, y, z'
loop_
 _atom_site_type_symbol
 _atom_site_label
 _atom_site_symmetry_multiplicity
 _atom_site_fract_x
 _atom_site_fract_y
 _atom_site_fract_z
 _atom_site_occupancy
  K  K0  1  0.43581600  0.43581600  0.56418400  1
  K  K1  1  0.81418400  0.81418400  0.68581600  1
  K  K2  1  0.68581600  0.68581600  0.81418400  1
  K  K3  1  0.56418400  0.56418400  0.43581600  1
  Hg  Hg4  1  0.83523500  0.16476500  0.83523500  1
  Hg  Hg5  1  0.08523500  0.41476500  0.08523500  1
  Hg  Hg6  1  0.41476500  0.08523500  0.41476500  1
  Hg  Hg7  1  0.16476500  0.83523500  0.16476500  1
  C  C8  1  0.25032500  0.49972600  0.12468000  1
  C  C9  1  0.12473100  0.12532000  0.75027400  1
  C  C10  1  0.99967500  0.75027400  0.12532000  1
  C  C11  1  0.75027400  0.99967500  0.12473100  1
  C  C12  1  0.49972600  0.25032500  0.12526900  1
  C  C13  1  0.12468000  0.12526900  0.25032500  1
  C  C14  1  0.12532000  0.12473100  0.99967500  1
  C  C15  1  0.12526900  0.12468000  0.49972600  1
