# generated using pymatgen
data_Mn2Nb9Ge8
_symmetry_space_group_name_H-M   'P 1'
_cell_length_a   5.33645700
_cell_length_b   14.00256100
_cell_length_c   16.84898700
_cell_angle_alpha   90.00000000
_cell_angle_beta   90.00000000
_cell_angle_gamma   90.00000000
_symmetry_Int_Tables_number   1
_chemical_formula_structural   Mn2Nb9Ge8
_chemical_formula_sum   'Mn8 Nb36 Ge32'
_cell_volume   1259.02479415
_cell_formula_units_Z   4
loop_
 _symmetry_equiv_pos_site_id
 _symmetry_equiv_pos_as_xyz
  1  'x, y, z'
loop_
 _atom_site_type_symbol
 _atom_site_label
 _atom_site_symmetry_multiplicity
 _atom_site_fract_x
 _atom_site_fract_y
 _atom_site_fract_z
 _atom_site_occupancy
  Mn  Mn0  1  0.25000000  0.19352100  0.24940700  1
  Mn  Mn1  1  0.75000000  0.80647900  0.75059300  1
  Mn  Mn2  1  0.75000000  0.30647900  0.74940700  1
  Mn  Mn3  1  0.25000000  0.69352100  0.25059300  1
  Mn  Mn4  1  0.25000000  0.86383100  0.33935700  1
  Mn  Mn5  1  0.75000000  0.63616900  0.83935700  1
  Mn  Mn6  1  0.75000000  0.13616900  0.66064300  1
  Mn  Mn7  1  0.25000000  0.36383100  0.16064300  1
  Nb  Nb8  1  0.25000000  0.74709000  0.52731700  1
  Nb  Nb9  1  0.25000000  0.37434600  0.49728800  1
  Nb  Nb10  1  0.75000000  0.56684200  0.30460200  1
  Nb  Nb11  1  0.00357100  0.36444900  0.32393400  1
  Nb  Nb12  1  0.25000000  0.24709000  0.97268300  1
  Nb  Nb13  1  0.99955400  0.05883400  0.37982100  1
  Nb  Nb14  1  0.75000000  0.25291000  0.47268300  1
  Nb  Nb15  1  0.25000000  0.04947200  0.09486700  1
  Nb  Nb16  1  0.25000000  0.87434600  0.00271200  1
  Nb  Nb17  1  0.50044600  0.55883400  0.12017900  1
  Nb  Nb18  1  0.99955400  0.55883400  0.12017900  1
  Nb  Nb19  1  0.75000000  0.37090300  0.04173800  1
  Nb  Nb20  1  0.75000000  0.75291000  0.02731700  1
  Nb  Nb21  1  0.50044600  0.05883400  0.37982100  1
  Nb  Nb22  1  0.75000000  0.12565400  0.99728800  1
  Nb  Nb23  1  0.25000000  0.93315800  0.80460200  1
  Nb  Nb24  1  0.49642900  0.86444900  0.17606600  1
  Nb  Nb25  1  0.75000000  0.45052800  0.59486700  1
  Nb  Nb26  1  0.25000000  0.62909700  0.95826200  1
  Nb  Nb27  1  0.00044600  0.94116600  0.62017900  1
  Nb  Nb28  1  0.49955400  0.44116600  0.87982100  1
  Nb  Nb29  1  0.25000000  0.54947200  0.40513300  1
  Nb  Nb30  1  0.25000000  0.12909700  0.54173800  1
  Nb  Nb31  1  0.00357100  0.86444900  0.17606600  1
  Nb  Nb32  1  0.50357100  0.63555100  0.67606600  1
  Nb  Nb33  1  0.49642900  0.36444900  0.32393400  1
  Nb  Nb34  1  0.99642900  0.13555100  0.82393400  1
  Nb  Nb35  1  0.50357100  0.13555100  0.82393400  1
  Nb  Nb36  1  0.00044600  0.44116600  0.87982100  1
  Nb  Nb37  1  0.75000000  0.95052800  0.90513300  1
  Nb  Nb38  1  0.25000000  0.43315800  0.69539800  1
  Nb  Nb39  1  0.75000000  0.62565400  0.50271200  1
  Nb  Nb40  1  0.75000000  0.87090300  0.45826200  1
  Nb  Nb41  1  0.49955400  0.94116600  0.62017900  1
  Nb  Nb42  1  0.75000000  0.06684200  0.19539800  1
  Nb  Nb43  1  0.99642900  0.63555100  0.67606600  1
  Ge  Ge44  1  0.75000000  0.95139500  0.06033800  1
  Ge  Ge45  1  0.25000000  0.54860500  0.56033800  1
  Ge  Ge46  1  0.75000000  0.56135500  0.97975000  1
  Ge  Ge47  1  0.25000000  0.58691400  0.80557100  1
  Ge  Ge48  1  0.49744300  0.28084300  0.61930600  1
  Ge  Ge49  1  0.00255700  0.78084300  0.88069400  1
  Ge  Ge50  1  0.25000000  0.93864500  0.47975000  1
  Ge  Ge51  1  0.99744300  0.71915700  0.38069400  1
  Ge  Ge52  1  0.50255700  0.71915700  0.38069400  1
  Ge  Ge53  1  0.25000000  0.04860500  0.93966200  1
  Ge  Ge54  1  0.75000000  0.48921300  0.74704000  1
  Ge  Ge55  1  0.25000000  0.43864500  0.02025000  1
  Ge  Ge56  1  0.25000000  0.79677000  0.69470100  1
  Ge  Ge57  1  0.25000000  0.51078700  0.25296000  1
  Ge  Ge58  1  0.75000000  0.41308600  0.19442900  1
  Ge  Ge59  1  0.25000000  0.29677000  0.80529900  1
  Ge  Ge60  1  0.75000000  0.98921300  0.75296000  1
  Ge  Ge61  1  0.25000000  0.72446500  0.09737400  1
  Ge  Ge62  1  0.00255700  0.28084300  0.61930600  1
  Ge  Ge63  1  0.25000000  0.01078700  0.24704000  1
  Ge  Ge64  1  0.75000000  0.45139500  0.43966200  1
  Ge  Ge65  1  0.75000000  0.91308600  0.30557100  1
  Ge  Ge66  1  0.75000000  0.70323000  0.19470100  1
  Ge  Ge67  1  0.75000000  0.20323000  0.30529900  1
  Ge  Ge68  1  0.75000000  0.27553500  0.90262600  1
  Ge  Ge69  1  0.25000000  0.22446500  0.40262600  1
  Ge  Ge70  1  0.75000000  0.06135500  0.52025000  1
  Ge  Ge71  1  0.49744300  0.78084300  0.88069400  1
  Ge  Ge72  1  0.25000000  0.08691400  0.69442900  1
  Ge  Ge73  1  0.99744300  0.21915700  0.11930600  1
  Ge  Ge74  1  0.50255700  0.21915700  0.11930600  1
  Ge  Ge75  1  0.75000000  0.77553500  0.59737400  1
