# generated using pymatgen
data_In3Au7
_symmetry_space_group_name_H-M   'P 1'
_cell_length_a   12.50938012
_cell_length_b   12.50938012
_cell_length_c   8.74973300
_cell_angle_alpha   90.00000000
_cell_angle_beta   90.00000000
_cell_angle_gamma   120.00000062
_symmetry_Int_Tables_number   1
_chemical_formula_structural   In3Au7
_chemical_formula_sum   'In18 Au42'
_cell_volume   1185.76058030
_cell_formula_units_Z   6
loop_
 _symmetry_equiv_pos_site_id
 _symmetry_equiv_pos_as_xyz
  1  'x, y, z'
loop_
 _atom_site_type_symbol
 _atom_site_label
 _atom_site_symmetry_multiplicity
 _atom_site_fract_x
 _atom_site_fract_y
 _atom_site_fract_z
 _atom_site_occupancy
  In  In0  1  0.69075000  0.16581000  0.46089800  1
  In  In1  1  0.52494000  0.69075000  0.53910200  1
  In  In2  1  0.14104100  0.64310100  0.04123600  1
  In  In3  1  0.49794000  0.14104100  0.95876400  1
  In  In4  1  0.83419000  0.52494000  0.46089800  1
  In  In5  1  0.83355200  0.81294900  0.75134000  1
  In  In6  1  0.02060300  0.83355200  0.24866000  1
  In  In7  1  0.35689900  0.49794000  0.04123600  1
  In  In8  1  0.81294900  0.97939700  0.24866000  1
  In  In9  1  0.64310100  0.50206000  0.95876400  1
  In  In10  1  0.16644800  0.18705100  0.24866000  1
  In  In11  1  0.18705100  0.02060300  0.75134000  1
  In  In12  1  0.16581000  0.47506000  0.53910200  1
  In  In13  1  0.30925000  0.83419000  0.53910200  1
  In  In14  1  0.85895900  0.35689900  0.95876400  1
  In  In15  1  0.97939700  0.16644800  0.75134000  1
  In  In16  1  0.50206000  0.85895900  0.04123600  1
  In  In17  1  0.47506000  0.30925000  0.46089800  1
  Au  Au18  1  0.22300000  0.22983900  0.57397200  1
  Au  Au19  1  0.99316100  0.22300000  0.42602800  1
  Au  Au20  1  0.35528600  0.44162800  0.36578300  1
  Au  Au21  1  0.22983900  0.00683900  0.42602800  1
  Au  Au22  1  0.52948300  0.88775500  0.70450000  1
  Au  Au23  1  0.79405100  0.75713100  0.08455800  1
  Au  Au24  1  0.89316500  0.57833700  0.12575600  1
  Au  Au25  1  0.33333300  0.66666700  0.32484700  1
  Au  Au26  1  0.33333300  0.66666700  0.83388100  1
  Au  Au27  1  0.91365800  0.35528600  0.63421700  1
  Au  Au28  1  0.86264900  0.56077500  0.79108100  1
  Au  Au29  1  0.44162800  0.08634200  0.63421700  1
  Au  Au30  1  0.30187400  0.86264900  0.20891900  1
  Au  Au31  1  0.42166300  0.31482800  0.12575600  1
  Au  Au32  1  0.10683500  0.42166300  0.87424400  1
  Au  Au33  1  0.77700000  0.77016100  0.42602800  1
  Au  Au34  1  0.68517200  0.10683500  0.12575600  1
  Au  Au35  1  0.96308000  0.20594900  0.08455800  1
  Au  Au36  1  0.13735100  0.43922500  0.20891900  1
  Au  Au37  1  0.08634200  0.64471400  0.36578300  1
  Au  Au38  1  0.55837200  0.91365800  0.36578300  1
  Au  Au39  1  0.64172800  0.52948300  0.29550000  1
  Au  Au40  1  0.69812600  0.13735100  0.79108100  1
  Au  Au41  1  0.11224500  0.64172800  0.70450000  1
  Au  Au42  1  0.03692000  0.79405100  0.91544200  1
  Au  Au43  1  0.66666700  0.33333300  0.16611900  1
  Au  Au44  1  0.75713100  0.96308000  0.91544200  1
  Au  Au45  1  0.00683900  0.77700000  0.57397200  1
  Au  Au46  1  0.77016100  0.99316100  0.57397200  1
  Au  Au47  1  0.66666700  0.33333300  0.67515300  1
  Au  Au48  1  0.47051700  0.11224500  0.29550000  1
  Au  Au49  1  0.00000000  0.00000000  0.00000000  1
  Au  Au50  1  0.31482800  0.89316500  0.87424400  1
  Au  Au51  1  0.57833700  0.68517200  0.87424400  1
  Au  Au52  1  0.88775500  0.35827200  0.29550000  1
  Au  Au53  1  0.64471400  0.55837200  0.63421700  1
  Au  Au54  1  0.35827200  0.47051700  0.70450000  1
  Au  Au55  1  0.43922500  0.30187400  0.79108100  1
  Au  Au56  1  0.56077500  0.69812600  0.20891900  1
  Au  Au57  1  0.20594900  0.24286900  0.91544200  1
  Au  Au58  1  0.24286900  0.03692000  0.08455800  1
  Au  Au59  1  0.00000000  0.00000000  0.50000000  1
