# generated using pymatgen
data_TaSe2
_symmetry_space_group_name_H-M   'P 1'
_cell_length_a   7.46786973
_cell_length_b   7.46786973
_cell_length_c   7.46786960
_cell_angle_alpha   27.12807079
_cell_angle_beta   27.12807079
_cell_angle_gamma   27.12806808
_symmetry_Int_Tables_number   1
_chemical_formula_structural   TaSe2
_chemical_formula_sum   'Ta1 Se2'
_cell_volume   76.39149522
_cell_formula_units_Z   1
loop_
 _symmetry_equiv_pos_site_id
 _symmetry_equiv_pos_as_xyz
  1  'x, y, z'
loop_
 _atom_site_type_symbol
 _atom_site_label
 _atom_site_symmetry_multiplicity
 _atom_site_fract_x
 _atom_site_fract_y
 _atom_site_fract_z
 _atom_site_occupancy
  Ta  Ta0  1  0.00000000  0.00000000  0.00000000  1
  Se  Se1  1  0.25655500  0.25655500  0.25655500  1
  Se  Se2  1  0.74344500  0.74344500  0.74344500  1
