# generated using pymatgen
data_KBH4(CN4)2
_symmetry_space_group_name_H-M   'P 1'
_cell_length_a   17.36408400
_cell_length_b   5.44429500
_cell_length_c   9.64011993
_cell_angle_alpha   72.60329547
_cell_angle_beta   90.00000000
_cell_angle_gamma   90.00000000
_symmetry_Int_Tables_number   1
_chemical_formula_structural   KBH4(CN4)2
_chemical_formula_sum   'K4 B4 H16 C8 N32'
_cell_volume   869.64410728
_cell_formula_units_Z   4
loop_
 _symmetry_equiv_pos_site_id
 _symmetry_equiv_pos_as_xyz
  1  'x, y, z'
loop_
 _atom_site_type_symbol
 _atom_site_label
 _atom_site_symmetry_multiplicity
 _atom_site_fract_x
 _atom_site_fract_y
 _atom_site_fract_z
 _atom_site_occupancy
  K  K0  1  0.47043000  0.43988000  0.79416200  1
  K  K1  1  0.02957000  0.43988000  0.29416200  1
  K  K2  1  0.52957000  0.56012000  0.20583800  1
  K  K3  1  0.97043000  0.56012000  0.70583800  1
  B  B4  1  0.70810600  0.17995200  0.35955800  1
  B  B5  1  0.29189400  0.82004800  0.64044200  1
  B  B6  1  0.79189400  0.17995200  0.85955800  1
  B  B7  1  0.20810600  0.82004800  0.14044200  1
  H  H8  1  0.80435400  0.39636400  0.78210700  1
  H  H9  1  0.63747400  0.69115900  0.54080100  1
  H  H10  1  0.79132600  0.01864300  0.79638100  1
  H  H11  1  0.68707300  0.57644300  0.91641700  1
  H  H12  1  0.18707300  0.42355700  0.58358300  1
  H  H13  1  0.19564600  0.60363600  0.21789300  1
  H  H14  1  0.29132600  0.98135700  0.70361900  1
  H  H15  1  0.31292700  0.42355700  0.08358300  1
  H  H16  1  0.36252600  0.30884100  0.45919900  1
  H  H17  1  0.30435400  0.60363600  0.71789300  1
  H  H18  1  0.81292700  0.57644300  0.41641700  1
  H  H19  1  0.13747400  0.30884100  0.95919900  1
  H  H20  1  0.20867400  0.98135700  0.20361900  1
  H  H21  1  0.86252600  0.69115900  0.04080100  1
  H  H22  1  0.70867400  0.01864300  0.29638100  1
  H  H23  1  0.69564600  0.39636400  0.28210700  1
  C  C24  1  0.88131100  0.87105100  0.05693200  1
  C  C25  1  0.61868900  0.87105100  0.55693200  1
  C  C26  1  0.16941600  0.62405400  0.55044900  1
  C  C27  1  0.38131100  0.12894900  0.44306800  1
  C  C28  1  0.83058400  0.37594600  0.44955100  1
  C  C29  1  0.11868900  0.12894900  0.94306800  1
  C  C30  1  0.66941600  0.37594600  0.94955100  1
  C  C31  1  0.33058400  0.62405400  0.05044900  1
  N  N32  1  0.60587700  0.27869300  0.52853400  1
  N  N33  1  0.05879800  0.84862800  0.86925300  1
  N  N34  1  0.39366400  0.97271600  0.95958400  1
  N  N35  1  0.55879800  0.15137200  0.63074700  1
  N  N36  1  0.94120200  0.15137200  0.13074700  1
  N  N37  1  0.21174100  0.81989100  0.56699000  1
  N  N38  1  0.60324600  0.28707300  0.01559800  1
  N  N39  1  0.32930400  0.03774800  0.00870100  1
  N  N40  1  0.93465900  0.89411800  0.15145900  1
  N  N41  1  0.56534100  0.89411800  0.65145900  1
  N  N42  1  0.89412300  0.27869300  0.02853400  1
  N  N43  1  0.44120200  0.84862800  0.36925300  1
  N  N44  1  0.67069600  0.96225200  0.99129900  1
  N  N45  1  0.10633600  0.97271600  0.45958400  1
  N  N46  1  0.60633600  0.02728400  0.04041600  1
  N  N47  1  0.10324600  0.71292700  0.48440200  1
  N  N48  1  0.39412300  0.72130700  0.47146600  1
  N  N49  1  0.17069600  0.03774800  0.50870100  1
  N  N50  1  0.64465100  0.10453900  0.48015500  1
  N  N51  1  0.06534100  0.10588200  0.84854100  1
  N  N52  1  0.85534900  0.10453900  0.98015500  1
  N  N53  1  0.78825900  0.18010900  0.43301000  1
  N  N54  1  0.35534900  0.89546100  0.51984500  1
  N  N55  1  0.89366400  0.02728400  0.54041600  1
  N  N56  1  0.89675400  0.28707300  0.51559800  1
  N  N57  1  0.14465100  0.89546100  0.01984500  1
  N  N58  1  0.28825900  0.81989100  0.06699000  1
  N  N59  1  0.82930400  0.96225200  0.49129900  1
  N  N60  1  0.71174100  0.18010900  0.93301000  1
  N  N61  1  0.39675400  0.71292700  0.98440200  1
  N  N62  1  0.10587700  0.72130700  0.97146600  1
  N  N63  1  0.43465900  0.10588200  0.34854100  1
