# generated using pymatgen
data_Ag2H12C6N3Cl
_symmetry_space_group_name_H-M   'P 1'
_cell_length_a   9.04354100
_cell_length_b   9.05157700
_cell_length_c   13.67222500
_cell_angle_alpha   90.00000000
_cell_angle_beta   90.00000000
_cell_angle_gamma   90.00000000
_symmetry_Int_Tables_number   1
_chemical_formula_structural   Ag2H12C6N3Cl
_chemical_formula_sum   'Ag8 H48 C24 N12 Cl4'
_cell_volume   1119.18520119
_cell_formula_units_Z   4
loop_
 _symmetry_equiv_pos_site_id
 _symmetry_equiv_pos_as_xyz
  1  'x, y, z'
loop_
 _atom_site_type_symbol
 _atom_site_label
 _atom_site_symmetry_multiplicity
 _atom_site_fract_x
 _atom_site_fract_y
 _atom_site_fract_z
 _atom_site_occupancy
  Ag  Ag0  1  0.05337800  0.86120600  0.63952000  1
  Ag  Ag1  1  0.42812000  0.41128800  0.24488800  1
  Ag  Ag2  1  0.07188000  0.91128800  0.24488800  1
  Ag  Ag3  1  0.92812000  0.08871200  0.74488800  1
  Ag  Ag4  1  0.94662200  0.13879400  0.13952000  1
  Ag  Ag5  1  0.44662200  0.36120600  0.63952000  1
  Ag  Ag6  1  0.55337800  0.63879400  0.13952000  1
  Ag  Ag7  1  0.57188000  0.58871200  0.74488800  1
  H  H8  1  0.98781200  0.23963600  0.39059800  1
  H  H9  1  0.92909600  0.46875600  0.60746500  1
  H  H10  1  0.01218800  0.76036400  0.89059800  1
  H  H11  1  0.63684100  0.89714100  0.95865000  1
  H  H12  1  0.59676100  0.13809700  0.54019500  1
  H  H13  1  0.76411600  0.49503500  0.53621200  1
  H  H14  1  0.48781200  0.26036400  0.89059800  1
  H  H15  1  0.16488500  0.43401600  0.52604800  1
  H  H16  1  0.68744200  0.76979400  0.44984200  1
  H  H17  1  0.09676100  0.36190300  0.04019500  1
  H  H18  1  0.04910300  0.53276700  0.79951400  1
  H  H19  1  0.58315200  0.13736700  0.36369700  1
  H  H20  1  0.86315900  0.39714100  0.95865000  1
  H  H21  1  0.77678200  0.49500200  0.35980000  1
  H  H22  1  0.97742400  0.24129900  0.52137700  1
  H  H23  1  0.45089700  0.03276700  0.79951400  1
  H  H24  1  0.73588400  0.99503500  0.53621200  1
  H  H25  1  0.23588400  0.50496500  0.03621200  1
  H  H26  1  0.42909600  0.03124400  0.10746500  1
  H  H27  1  0.67419200  0.06737000  0.89521400  1
  H  H28  1  0.90323900  0.63809700  0.54019500  1
  H  H29  1  0.95089700  0.46723300  0.29951400  1
  H  H30  1  0.32580800  0.93263000  0.39521400  1
  H  H31  1  0.08315200  0.36263300  0.86369700  1
  H  H32  1  0.40323900  0.86190300  0.04019500  1
  H  H33  1  0.22321800  0.50499800  0.85980000  1
  H  H34  1  0.26411600  0.00496500  0.03621200  1
  H  H35  1  0.33511500  0.93401600  0.52604800  1
  H  H36  1  0.02257600  0.75870100  0.02137700  1
  H  H37  1  0.41684800  0.86263300  0.86369700  1
  H  H38  1  0.66488500  0.06598400  0.02604800  1
  H  H39  1  0.36315900  0.10285900  0.45865000  1
  H  H40  1  0.82580800  0.56737000  0.89521400  1
  H  H41  1  0.07090400  0.53124400  0.10746500  1
  H  H42  1  0.31255800  0.23020600  0.94984200  1
  H  H43  1  0.91684800  0.63736700  0.36369700  1
  H  H44  1  0.27678200  0.00499800  0.85980000  1
  H  H45  1  0.13684100  0.60285900  0.45865000  1
  H  H46  1  0.83511500  0.56598400  0.02604800  1
  H  H47  1  0.17419200  0.43263000  0.39521400  1
  H  H48  1  0.72321800  0.99500200  0.35980000  1
  H  H49  1  0.51218800  0.73963600  0.39059800  1
  H  H50  1  0.52257600  0.74129900  0.52137700  1
  H  H51  1  0.57090400  0.96875600  0.60746500  1
  H  H52  1  0.54910300  0.96723300  0.29951400  1
  H  H53  1  0.81255800  0.26979400  0.44984200  1
  H  H54  1  0.18744200  0.73020600  0.94984200  1
  H  H55  1  0.47742400  0.25870100  0.02137700  1
  C  C56  1  0.06792600  0.71182100  0.95393600  1
  C  C57  1  0.38280100  0.98130400  0.04125900  1
  C  C58  1  0.39564600  0.98179000  0.86226600  1
  C  C59  1  0.12086100  0.48286100  0.45888100  1
  C  C60  1  0.34223100  0.63971600  0.23278500  1
  C  C61  1  0.60435400  0.01821000  0.36226600  1
  C  C62  1  0.43207400  0.21182100  0.95393600  1
  C  C63  1  0.61719900  0.01869600  0.54125900  1
  C  C64  1  0.87043500  0.81229900  0.19514300  1
  C  C65  1  0.93207400  0.28817900  0.45393600  1
  C  C66  1  0.88280100  0.51869600  0.54125900  1
  C  C67  1  0.84223100  0.86028400  0.73278500  1
  C  C68  1  0.87913900  0.51713900  0.95888100  1
  C  C69  1  0.62956500  0.31229900  0.19514300  1
  C  C70  1  0.10435400  0.48179000  0.86226600  1
  C  C71  1  0.37043500  0.68770100  0.69514300  1
  C  C72  1  0.62086100  0.01713900  0.95888100  1
  C  C73  1  0.12956500  0.18770100  0.69514300  1
  C  C74  1  0.56792600  0.78817900  0.45393600  1
  C  C75  1  0.11719900  0.48130400  0.04125900  1
  C  C76  1  0.37913900  0.98286100  0.45888100  1
  C  C77  1  0.65776900  0.36028400  0.73278500  1
  C  C78  1  0.15776900  0.13971600  0.23278500  1
  C  C79  1  0.89564600  0.51821000  0.36226600  1
  N  N80  1  0.23816600  0.24034600  0.24626500  1
  N  N81  1  0.25803900  0.74183100  0.67118500  1
  N  N82  1  0.76183400  0.75965400  0.74626500  1
  N  N83  1  0.45799200  0.04812900  0.95405000  1
  N  N84  1  0.73816600  0.25965400  0.74626500  1
  N  N85  1  0.75803900  0.75816900  0.17118500  1
  N  N86  1  0.04200800  0.54812900  0.95405000  1
  N  N87  1  0.54200800  0.95187100  0.45405000  1
  N  N88  1  0.26183400  0.74034600  0.24626500  1
  N  N89  1  0.74196100  0.25816900  0.17118500  1
  N  N90  1  0.95799200  0.45187100  0.45405000  1
  N  N91  1  0.24196100  0.24183100  0.67118500  1
  Cl  Cl92  1  0.50384900  0.39853100  0.45643800  1
  Cl  Cl93  1  0.00384900  0.10146900  0.95643800  1
  Cl  Cl94  1  0.99615100  0.89853100  0.45643800  1
  Cl  Cl95  1  0.49615100  0.60146900  0.95643800  1
