# generated using pymatgen
data_TaI4
_symmetry_space_group_name_H-M   'P 1'
_cell_length_a   7.64861000
_cell_length_b   11.11984648
_cell_length_c   11.26941701
_cell_angle_alpha   98.15319544
_cell_angle_beta   88.41856234
_cell_angle_gamma   105.53493133
_symmetry_Int_Tables_number   1
_chemical_formula_structural   TaI4
_chemical_formula_sum   'Ta4 I16'
_cell_volume   914.07536632
_cell_formula_units_Z   4
loop_
 _symmetry_equiv_pos_site_id
 _symmetry_equiv_pos_as_xyz
  1  'x, y, z'
loop_
 _atom_site_type_symbol
 _atom_site_label
 _atom_site_symmetry_multiplicity
 _atom_site_fract_x
 _atom_site_fract_y
 _atom_site_fract_z
 _atom_site_occupancy
  Ta  Ta0  1  0.88756500  0.90876100  0.16175300  1
  Ta  Ta1  1  0.11243500  0.09123900  0.83824700  1
  Ta  Ta2  1  0.81200000  0.67376100  0.27665800  1
  Ta  Ta3  1  0.18800000  0.32623900  0.72334200  1
  I  I4  1  0.77516600  0.94835600  0.93001300  1
  I  I5  1  0.53680800  0.76013100  0.16939900  1
  I  I6  1  0.10604800  0.89663200  0.34784100  1
  I  I7  1  0.80261300  0.11355500  0.27659700  1
  I  I8  1  0.19738700  0.88644500  0.72340300  1
  I  I9  1  0.94103900  0.44940000  0.66849000  1
  I  I10  1  0.58861900  0.43974300  0.19660600  1
  I  I11  1  0.97222100  0.68887100  0.03962400  1
  I  I12  1  0.89395200  0.10336800  0.65215900  1
  I  I13  1  0.46319200  0.23986900  0.83060100  1
  I  I14  1  0.22483400  0.05164400  0.06998700  1
  I  I15  1  0.02777900  0.31112900  0.96037600  1
  I  I16  1  0.33616700  0.29085200  0.50820000  1
  I  I17  1  0.05896100  0.55060000  0.33151000  1
  I  I18  1  0.66383300  0.70914800  0.49180000  1
  I  I19  1  0.41138100  0.56025700  0.80339400  1
