# generated using pymatgen
data_CeTl5Fe2(NO2)12
_symmetry_space_group_name_H-M   'P 1'
_cell_length_a   10.75382700
_cell_length_b   10.75382700
_cell_length_c   10.75382700
_cell_angle_alpha   90.00000000
_cell_angle_beta   90.00000000
_cell_angle_gamma   90.00000000
_symmetry_Int_Tables_number   1
_chemical_formula_structural   CeTl5Fe2(NO2)12
_chemical_formula_sum   'Ce2 Tl10 Fe4 N24 O48'
_cell_volume   1243.62412045
_cell_formula_units_Z   2
loop_
 _symmetry_equiv_pos_site_id
 _symmetry_equiv_pos_as_xyz
  1  'x, y, z'
loop_
 _atom_site_type_symbol
 _atom_site_label
 _atom_site_symmetry_multiplicity
 _atom_site_fract_x
 _atom_site_fract_y
 _atom_site_fract_z
 _atom_site_occupancy
  Ce  Ce0  1  0.00000000  0.00000000  0.00000000  1
  Ce  Ce1  1  0.50000000  0.50000000  0.50000000  1
  Tl  Tl2  1  0.25000000  0.25000000  0.75000000  1
  Tl  Tl3  1  0.25000000  0.75000000  0.25000000  1
  Tl  Tl4  1  0.00000000  0.50000000  0.50000000  1
  Tl  Tl5  1  0.50000000  0.00000000  0.00000000  1
  Tl  Tl6  1  0.50000000  0.00000000  0.50000000  1
  Tl  Tl7  1  0.75000000  0.75000000  0.75000000  1
  Tl  Tl8  1  0.50000000  0.50000000  0.00000000  1
  Tl  Tl9  1  0.00000000  0.50000000  0.00000000  1
  Tl  Tl10  1  0.75000000  0.25000000  0.25000000  1
  Tl  Tl11  1  0.00000000  0.00000000  0.50000000  1
  Fe  Fe12  1  0.75000000  0.75000000  0.25000000  1
  Fe  Fe13  1  0.25000000  0.75000000  0.75000000  1
  Fe  Fe14  1  0.75000000  0.25000000  0.75000000  1
  Fe  Fe15  1  0.25000000  0.25000000  0.25000000  1
  N  N16  1  0.25130600  0.25812300  0.43503200  1
  N  N17  1  0.56496800  0.74869400  0.25812300  1
  N  N18  1  0.43503200  0.74869400  0.74187700  1
  N  N19  1  0.25812300  0.56496800  0.74869400  1
  N  N20  1  0.74869400  0.74187700  0.43503200  1
  N  N21  1  0.75812300  0.06496800  0.75130600  1
  N  N22  1  0.06496800  0.75130600  0.75812300  1
  N  N23  1  0.56496800  0.25130600  0.74187700  1
  N  N24  1  0.25812300  0.43503200  0.25130600  1
  N  N25  1  0.75130600  0.24187700  0.93503200  1
  N  N26  1  0.74187700  0.56496800  0.25130600  1
  N  N27  1  0.24869400  0.24187700  0.06496800  1
  N  N28  1  0.25130600  0.74187700  0.56496800  1
  N  N29  1  0.75812300  0.93503200  0.24869400  1
  N  N30  1  0.43503200  0.25130600  0.25812300  1
  N  N31  1  0.24187700  0.93503200  0.75130600  1
  N  N32  1  0.24187700  0.06496800  0.24869400  1
  N  N33  1  0.93503200  0.75130600  0.24187700  1
  N  N34  1  0.74187700  0.43503200  0.74869400  1
  N  N35  1  0.74869400  0.25812300  0.56496800  1
  N  N36  1  0.24869400  0.75812300  0.93503200  1
  N  N37  1  0.75130600  0.75812300  0.06496800  1
  N  N38  1  0.93503200  0.24869400  0.75812300  1
  N  N39  1  0.06496800  0.24869400  0.24187700  1
  O  O40  1  0.26199600  0.99431000  0.65296900  1
  O  O41  1  0.76199600  0.49431000  0.84703100  1
  O  O42  1  0.15296900  0.76199600  0.50569000  1
  O  O43  1  0.00569000  0.34703100  0.26199600  1
  O  O44  1  0.65296900  0.26199600  0.99431000  1
  O  O45  1  0.99771600  0.84748300  0.21219400  1
  O  O46  1  0.15251700  0.21219400  0.00228400  1
  O  O47  1  0.71219400  0.50228400  0.34748300  1
  O  O48  1  0.34703100  0.73800400  0.99431000  1
  O  O49  1  0.78780600  0.99771600  0.15251700  1
  O  O50  1  0.84703100  0.76199600  0.49431000  1
  O  O51  1  0.15251700  0.78780600  0.99771600  1
  O  O52  1  0.50569000  0.15296900  0.76199600  1
  O  O53  1  0.65251700  0.71219400  0.49771600  1
  O  O54  1  0.78780600  0.00228400  0.84748300  1
  O  O55  1  0.65296900  0.73800400  0.00569000  1
  O  O56  1  0.65251700  0.28780600  0.50228400  1
  O  O57  1  0.99431000  0.65296900  0.26199600  1
  O  O58  1  0.84703100  0.23800400  0.50569000  1
  O  O59  1  0.84748300  0.78780600  0.00228400  1
  O  O60  1  0.28780600  0.50228400  0.65251700  1
  O  O61  1  0.99431000  0.34703100  0.73800400  1
  O  O62  1  0.99771600  0.15251700  0.78780600  1
  O  O63  1  0.50569000  0.84703100  0.23800400  1
  O  O64  1  0.76199600  0.50569000  0.15296900  1
  O  O65  1  0.00228400  0.15251700  0.21219400  1
  O  O66  1  0.15296900  0.23800400  0.49431000  1
  O  O67  1  0.73800400  0.99431000  0.34703100  1
  O  O68  1  0.34703100  0.26199600  0.00569000  1
  O  O69  1  0.28780600  0.49771600  0.34748300  1
  O  O70  1  0.50228400  0.34748300  0.71219400  1
  O  O71  1  0.34748300  0.71219400  0.50228400  1
  O  O72  1  0.00569000  0.65296900  0.73800400  1
  O  O73  1  0.49771600  0.65251700  0.71219400  1
  O  O74  1  0.49431000  0.84703100  0.76199600  1
  O  O75  1  0.26199600  0.00569000  0.34703100  1
  O  O76  1  0.50228400  0.65251700  0.28780600  1
  O  O77  1  0.49431000  0.15296900  0.23800400  1
  O  O78  1  0.73800400  0.00569000  0.65296900  1
  O  O79  1  0.23800400  0.50569000  0.84703100  1
  O  O80  1  0.84748300  0.21219400  0.99771600  1
  O  O81  1  0.00228400  0.84748300  0.78780600  1
  O  O82  1  0.21219400  0.00228400  0.15251700  1
  O  O83  1  0.34748300  0.28780600  0.49771600  1
  O  O84  1  0.23800400  0.49431000  0.15296900  1
  O  O85  1  0.71219400  0.49771600  0.65251700  1
  O  O86  1  0.49771600  0.34748300  0.28780600  1
  O  O87  1  0.21219400  0.99771600  0.84748300  1
