# generated using pymatgen
data_K4La6OsI14
_symmetry_space_group_name_H-M   'P 1'
_cell_length_a   13.37422300
_cell_length_b   13.37422300
_cell_length_c   25.34424600
_cell_angle_alpha   90.00000000
_cell_angle_beta   90.00000000
_cell_angle_gamma   90.00000000
_symmetry_Int_Tables_number   1
_chemical_formula_structural   K4La6OsI14
_chemical_formula_sum   'K16 La24 Os4 I56'
_cell_volume   4533.32124858
_cell_formula_units_Z   4
loop_
 _symmetry_equiv_pos_site_id
 _symmetry_equiv_pos_as_xyz
  1  'x, y, z'
loop_
 _atom_site_type_symbol
 _atom_site_label
 _atom_site_symmetry_multiplicity
 _atom_site_fract_x
 _atom_site_fract_y
 _atom_site_fract_z
 _atom_site_occupancy
  K  K0  1  0.20656000  0.93866000  0.42543400  1
  K  K1  1  0.20656000  0.06134000  0.92543400  1
  K  K2  1  0.29344000  0.56134000  0.57456600  1
  K  K3  1  0.06134000  0.20656000  0.57456600  1
  K  K4  1  0.06134000  0.79344000  0.07456600  1
  K  K5  1  0.56134000  0.70656000  0.42543400  1
  K  K6  1  0.43866000  0.29344000  0.42543400  1
  K  K7  1  0.79344000  0.93866000  0.92543400  1
  K  K8  1  0.93866000  0.20656000  0.07456600  1
  K  K9  1  0.70656000  0.56134000  0.07456600  1
  K  K10  1  0.43866000  0.70656000  0.92543400  1
  K  K11  1  0.29344000  0.43866000  0.07456600  1
  K  K12  1  0.79344000  0.06134000  0.42543400  1
  K  K13  1  0.93866000  0.79344000  0.57456600  1
  K  K14  1  0.56134000  0.29344000  0.92543400  1
  K  K15  1  0.70656000  0.43866000  0.57456600  1
  La  La16  1  0.00000000  0.50000000  0.43095300  1
  La  La17  1  0.37395300  0.82838900  0.18279400  1
  La  La18  1  0.82838900  0.37395300  0.31720600  1
  La  La19  1  0.32838900  0.87395300  0.68279400  1
  La  La20  1  0.50000000  0.00000000  0.06904700  1
  La  La21  1  0.37395300  0.17161100  0.68279400  1
  La  La22  1  0.17161100  0.62604700  0.31720600  1
  La  La23  1  0.87395300  0.32838900  0.81720600  1
  La  La24  1  0.12604700  0.32838900  0.31720600  1
  La  La25  1  0.32838900  0.12604700  0.18279400  1
  La  La26  1  0.62604700  0.17161100  0.18279400  1
  La  La27  1  0.67161100  0.87395300  0.18279400  1
  La  La28  1  0.00000000  0.50000000  0.93095300  1
  La  La29  1  0.00000000  0.50000000  0.20266700  1
  La  La30  1  0.67161100  0.12604700  0.68279400  1
  La  La31  1  0.82838900  0.62604700  0.81720600  1
  La  La32  1  0.00000000  0.50000000  0.70266700  1
  La  La33  1  0.12604700  0.67161100  0.81720600  1
  La  La34  1  0.50000000  0.00000000  0.79733300  1
  La  La35  1  0.17161100  0.37395300  0.81720600  1
  La  La36  1  0.62604700  0.82838900  0.68279400  1
  La  La37  1  0.50000000  0.00000000  0.56904700  1
  La  La38  1  0.50000000  0.00000000  0.29733300  1
  La  La39  1  0.87395300  0.67161100  0.31720600  1
  Os  Os40  1  0.00000000  0.50000000  0.81621100  1
  Os  Os41  1  0.00000000  0.50000000  0.31621100  1
  Os  Os42  1  0.50000000  0.00000000  0.68378900  1
  Os  Os43  1  0.50000000  0.00000000  0.18378900  1
  I  I44  1  0.69204700  0.84991100  0.05477700  1
  I  I45  1  0.50000000  0.00000000  0.43267900  1
  I  I46  1  0.12168800  0.28835300  0.18587300  1
  I  I47  1  0.15008900  0.69204700  0.94522300  1
  I  I48  1  0.87831200  0.28835300  0.68587300  1
  I  I49  1  0.30795300  0.15008900  0.05477700  1
  I  I50  1  0.16338900  0.94939000  0.17754200  1
  I  I51  1  0.84991100  0.30795300  0.94522300  1
  I  I52  1  0.55061000  0.33661100  0.67754200  1
  I  I53  1  0.71164700  0.87831200  0.31412700  1
  I  I54  1  0.87831200  0.71164700  0.18587300  1
  I  I55  1  0.00000000  0.50000000  0.06732100  1
  I  I56  1  0.44939000  0.66338900  0.67754200  1
  I  I57  1  0.78835300  0.37831200  0.18587300  1
  I  I58  1  0.65008900  0.19204700  0.05477700  1
  I  I59  1  0.37831200  0.21164700  0.81412700  1
  I  I60  1  0.62168800  0.21164700  0.31412700  1
  I  I61  1  0.28835300  0.12168800  0.31412700  1
  I  I62  1  0.80795300  0.34991100  0.44522300  1
  I  I63  1  0.83661100  0.05061000  0.17754200  1
  I  I64  1  0.44939000  0.33661100  0.17754200  1
  I  I65  1  0.71164700  0.12168800  0.81412700  1
  I  I66  1  0.62168800  0.78835300  0.81412700  1
  I  I67  1  0.80795300  0.65008900  0.94522300  1
  I  I68  1  0.00000000  0.00000000  0.50000000  1
  I  I69  1  0.78835300  0.62168800  0.68587300  1
  I  I70  1  0.94939000  0.16338900  0.32245800  1
  I  I71  1  0.05061000  0.16338900  0.82245800  1
  I  I72  1  0.00000000  0.50000000  0.56732100  1
  I  I73  1  0.34991100  0.80795300  0.05477700  1
  I  I74  1  0.83661100  0.94939000  0.67754200  1
  I  I75  1  0.34991100  0.19204700  0.55477700  1
  I  I76  1  0.05061000  0.83661100  0.32245800  1
  I  I77  1  0.55061000  0.66338900  0.17754200  1
  I  I78  1  0.33661100  0.55061000  0.82245800  1
  I  I79  1  0.84991100  0.69204700  0.44522300  1
  I  I80  1  0.65008900  0.80795300  0.55477700  1
  I  I81  1  0.00000000  0.00000000  0.00000000  1
  I  I82  1  0.12168800  0.71164700  0.68587300  1
  I  I83  1  0.15008900  0.30795300  0.44522300  1
  I  I84  1  0.19204700  0.34991100  0.94522300  1
  I  I85  1  0.94939000  0.83661100  0.82245800  1
  I  I86  1  0.50000000  0.50000000  0.00000000  1
  I  I87  1  0.16338900  0.05061000  0.67754200  1
  I  I88  1  0.21164700  0.62168800  0.18587300  1
  I  I89  1  0.66338900  0.55061000  0.32245800  1
  I  I90  1  0.28835300  0.87831200  0.81412700  1
  I  I91  1  0.30795300  0.84991100  0.55477700  1
  I  I92  1  0.37831200  0.78835300  0.31412700  1
  I  I93  1  0.33661100  0.44939000  0.32245800  1
  I  I94  1  0.66338900  0.44939000  0.82245800  1
  I  I95  1  0.50000000  0.50000000  0.50000000  1
  I  I96  1  0.69204700  0.15008900  0.55477700  1
  I  I97  1  0.21164700  0.37831200  0.68587300  1
  I  I98  1  0.19204700  0.65008900  0.44522300  1
  I  I99  1  0.50000000  0.00000000  0.93267900  1
