# generated using pymatgen
data_K2PtC4(BrN2)2
_symmetry_space_group_name_H-M   'P 1'
_cell_length_a   9.26229100
_cell_length_b   7.31402300
_cell_length_c   8.80648756
_cell_angle_alpha   73.29083552
_cell_angle_beta   90.00000000
_cell_angle_gamma   90.00000000
_symmetry_Int_Tables_number   1
_chemical_formula_structural   K2PtC4(BrN2)2
_chemical_formula_sum   'K4 Pt2 C8 Br4 N8'
_cell_volume   571.40186650
_cell_formula_units_Z   2
loop_
 _symmetry_equiv_pos_site_id
 _symmetry_equiv_pos_as_xyz
  1  'x, y, z'
loop_
 _atom_site_type_symbol
 _atom_site_label
 _atom_site_symmetry_multiplicity
 _atom_site_fract_x
 _atom_site_fract_y
 _atom_site_fract_z
 _atom_site_occupancy
  K  K0  1  0.71986100  0.50281200  0.12173100  1
  K  K1  1  0.21986100  0.49718800  0.37826900  1
  K  K2  1  0.78013900  0.50281200  0.62173100  1
  K  K3  1  0.28013900  0.49718800  0.87826900  1
  Pt  Pt4  1  0.00000000  0.00000000  0.00000000  1
  Pt  Pt5  1  0.50000000  0.00000000  0.50000000  1
  C  C6  1  0.45360000  0.19381000  0.29195700  1
  C  C7  1  0.03744700  0.20202900  0.11024600  1
  C  C8  1  0.95360000  0.80619000  0.20804300  1
  C  C9  1  0.54640000  0.80619000  0.70804300  1
  C  C10  1  0.46255300  0.20202900  0.61024600  1
  C  C11  1  0.96255300  0.79797100  0.88975400  1
  C  C12  1  0.53744700  0.79797100  0.38975400  1
  C  C13  1  0.04640000  0.19381000  0.79195700  1
  Br  Br14  1  0.23811800  0.89665300  0.53411800  1
  Br  Br15  1  0.26188200  0.89665300  0.03411800  1
  Br  Br16  1  0.76188200  0.10334700  0.46588200  1
  Br  Br17  1  0.73811800  0.10334700  0.96588200  1
  N  N18  1  0.92748800  0.68695300  0.32556700  1
  N  N19  1  0.56042200  0.67553000  0.33173500  1
  N  N20  1  0.43957800  0.32447000  0.66826500  1
  N  N21  1  0.07251200  0.31304700  0.67443300  1
  N  N22  1  0.06042200  0.32447000  0.16826500  1
  N  N23  1  0.93957800  0.67553000  0.83173500  1
  N  N24  1  0.42748800  0.31304700  0.17443300  1
  N  N25  1  0.57251200  0.68695300  0.82556700  1
