# generated using pymatgen
data_SrMg2
_symmetry_space_group_name_H-M   'P 1'
_cell_length_a   9.09679492
_cell_length_b   9.09679492
_cell_length_c   5.72593000
_cell_angle_alpha   90.00000000
_cell_angle_beta   90.00000000
_cell_angle_gamma   155.10178995
_symmetry_Int_Tables_number   1
_chemical_formula_structural   SrMg2
_chemical_formula_sum   'Sr2 Mg4'
_cell_volume   199.48610494
_cell_formula_units_Z   2
loop_
 _symmetry_equiv_pos_site_id
 _symmetry_equiv_pos_as_xyz
  1  'x, y, z'
loop_
 _atom_site_type_symbol
 _atom_site_label
 _atom_site_symmetry_multiplicity
 _atom_site_fract_x
 _atom_site_fract_y
 _atom_site_fract_z
 _atom_site_occupancy
  Sr  Sr0  1  0.28815700  0.71184300  0.25000000  1
  Sr  Sr1  1  0.71184300  0.28815700  0.75000000  1
  Mg  Mg2  1  0.59423600  0.40576400  0.25000000  1
  Mg  Mg3  1  0.95459400  0.04540600  0.25000000  1
  Mg  Mg4  1  0.04540600  0.95459400  0.75000000  1
  Mg  Mg5  1  0.40576400  0.59423600  0.75000000  1
