# generated using pymatgen
data_MnH16C4(NCl2)2
_symmetry_space_group_name_H-M   'P 1'
_cell_length_a   7.28291400
_cell_length_b   7.40342600
_cell_length_c   22.51288400
_cell_angle_alpha   90.00000000
_cell_angle_beta   90.00000000
_cell_angle_gamma   90.00000000
_symmetry_Int_Tables_number   1
_chemical_formula_structural   MnH16C4(NCl2)2
_chemical_formula_sum   'Mn4 H64 C16 N8 Cl16'
_cell_volume   1213.86127057
_cell_formula_units_Z   4
loop_
 _symmetry_equiv_pos_site_id
 _symmetry_equiv_pos_as_xyz
  1  'x, y, z'
loop_
 _atom_site_type_symbol
 _atom_site_label
 _atom_site_symmetry_multiplicity
 _atom_site_fract_x
 _atom_site_fract_y
 _atom_site_fract_z
 _atom_site_occupancy
  Mn  Mn0  1  0.00000000  0.00000000  0.00000000  1
  Mn  Mn1  1  0.00000000  0.50000000  0.50000000  1
  Mn  Mn2  1  0.50000000  0.50000000  0.00000000  1
  Mn  Mn3  1  0.50000000  0.00000000  0.50000000  1
  H  H4  1  0.51732100  0.19509700  0.78892100  1
  H  H5  1  0.98267900  0.69509700  0.21107900  1
  H  H6  1  0.00934300  0.65385400  0.09968800  1
  H  H7  1  0.01070600  0.19772100  0.66393300  1
  H  H8  1  0.17992400  0.45192200  0.16572500  1
  H  H9  1  0.32007600  0.45192200  0.66572500  1
  H  H10  1  0.52296200  0.99794700  0.74384300  1
  H  H11  1  0.95344200  0.05413100  0.57004100  1
  H  H12  1  0.97703800  0.49794700  0.25615700  1
  H  H13  1  0.71118900  0.54936200  0.70864900  1
  H  H14  1  0.02296200  0.50205300  0.74384300  1
  H  H15  1  0.45344200  0.44586900  0.57004100  1
  H  H16  1  0.50934300  0.34614600  0.40031200  1
  H  H17  1  0.01732100  0.30490300  0.78892100  1
  H  H18  1  0.49065700  0.15385400  0.90031200  1
  H  H19  1  0.04655800  0.44586900  0.07004100  1
  H  H20  1  0.83727900  0.00552000  0.40384700  1
  H  H21  1  0.50934300  0.84614600  0.09968800  1
  H  H22  1  0.54655800  0.55413100  0.42995900  1
  H  H23  1  0.01070600  0.69772100  0.83606700  1
  H  H24  1  0.45344200  0.94586900  0.92995900  1
  H  H25  1  0.99065700  0.34614600  0.90031200  1
  H  H26  1  0.98929400  0.30227900  0.16393300  1
  H  H27  1  0.33727900  0.49448000  0.40384700  1
  H  H28  1  0.16272100  0.99448000  0.59615300  1
  H  H29  1  0.98267900  0.19509700  0.28892100  1
  H  H30  1  0.67992400  0.04807800  0.16572500  1
  H  H31  1  0.47703800  0.50205300  0.24384300  1
  H  H32  1  0.98929400  0.80227900  0.33606700  1
  H  H33  1  0.21118900  0.95063800  0.70864900  1
  H  H34  1  0.52296200  0.49794700  0.75615700  1
  H  H35  1  0.66272100  0.50552000  0.59615300  1
  H  H36  1  0.67992400  0.54807800  0.33427500  1
  H  H37  1  0.48929400  0.69772100  0.33606700  1
  H  H38  1  0.02296200  0.00205300  0.75615700  1
  H  H39  1  0.04655800  0.94586900  0.42995900  1
  H  H40  1  0.99065700  0.84614600  0.59968800  1
  H  H41  1  0.01732100  0.80490300  0.71107900  1
  H  H42  1  0.51070600  0.30227900  0.66393300  1
  H  H43  1  0.51732100  0.69509700  0.71107900  1
  H  H44  1  0.82007600  0.54807800  0.83427500  1
  H  H45  1  0.71118900  0.04936200  0.79135100  1
  H  H46  1  0.00934300  0.15385400  0.40031200  1
  H  H47  1  0.16272100  0.49448000  0.90384700  1
  H  H48  1  0.78881100  0.54936200  0.20864900  1
  H  H49  1  0.49065700  0.65385400  0.59968800  1
  H  H50  1  0.17992400  0.95192200  0.33427500  1
  H  H51  1  0.82007600  0.04807800  0.66572500  1
  H  H52  1  0.47703800  0.00205300  0.25615700  1
  H  H53  1  0.54655800  0.05413100  0.07004100  1
  H  H54  1  0.83727900  0.50552000  0.09615300  1
  H  H55  1  0.33727900  0.99448000  0.09615300  1
  H  H56  1  0.21118900  0.45063800  0.79135100  1
  H  H57  1  0.66272100  0.00552000  0.90384700  1
  H  H58  1  0.48267900  0.30490300  0.28892100  1
  H  H59  1  0.32007600  0.95192200  0.83427500  1
  H  H60  1  0.28881100  0.95063800  0.20864900  1
  H  H61  1  0.48929400  0.19772100  0.16393300  1
  H  H62  1  0.95344200  0.55413100  0.92995900  1
  H  H63  1  0.51070600  0.80227900  0.83606700  1
  H  H64  1  0.78881100  0.04936200  0.29135100  1
  H  H65  1  0.97703800  0.99794700  0.24384300  1
  H  H66  1  0.48267900  0.80490300  0.21107900  1
  H  H67  1  0.28881100  0.45063800  0.29135100  1
  C  C68  1  0.52954500  0.05482600  0.16324200  1
  C  C69  1  0.06097900  0.44679400  0.78741100  1
  C  C70  1  0.47045500  0.94517400  0.83675800  1
  C  C71  1  0.06097900  0.94679400  0.71258900  1
  C  C72  1  0.56097900  0.55320600  0.71258900  1
  C  C73  1  0.97045500  0.55482600  0.83675800  1
  C  C74  1  0.56097900  0.05320600  0.78741100  1
  C  C75  1  0.02954500  0.44517400  0.16324200  1
  C  C76  1  0.43902100  0.44679400  0.28741100  1
  C  C77  1  0.93902100  0.55320600  0.21258900  1
  C  C78  1  0.93902100  0.05320600  0.28741100  1
  C  C79  1  0.02954500  0.94517400  0.33675800  1
  C  C80  1  0.43902100  0.94679400  0.21258900  1
  C  C81  1  0.47045500  0.44517400  0.66324200  1
  C  C82  1  0.52954500  0.55482600  0.33675800  1
  C  C83  1  0.97045500  0.05482600  0.66324200  1
  N  N84  1  0.97774400  0.51674000  0.10342000  1
  N  N85  1  0.47774400  0.48326000  0.39658000  1
  N  N86  1  0.52225600  0.01674000  0.89658000  1
  N  N87  1  0.02225600  0.48326000  0.89658000  1
  N  N88  1  0.02225600  0.98326000  0.60342000  1
  N  N89  1  0.52225600  0.51674000  0.60342000  1
  N  N90  1  0.47774400  0.98326000  0.10342000  1
  N  N91  1  0.97774400  0.01674000  0.39658000  1
  Cl  Cl92  1  0.51929700  0.54680200  0.10875200  1
  Cl  Cl93  1  0.01929700  0.95319800  0.10875200  1
  Cl  Cl94  1  0.48070300  0.95319800  0.60875200  1
  Cl  Cl95  1  0.77590800  0.22254500  0.51333100  1
  Cl  Cl96  1  0.72409200  0.22254500  0.01333100  1
  Cl  Cl97  1  0.22409200  0.27745500  0.01333100  1
  Cl  Cl98  1  0.77590800  0.72254500  0.98666900  1
  Cl  Cl99  1  0.98070300  0.54680200  0.60875200  1
  Cl  Cl100  1  0.27590800  0.27745500  0.51333100  1
  Cl  Cl101  1  0.22409200  0.77745500  0.48666900  1
  Cl  Cl102  1  0.27590800  0.77745500  0.98666900  1
  Cl  Cl103  1  0.01929700  0.45319800  0.39124800  1
  Cl  Cl104  1  0.98070300  0.04680200  0.89124800  1
  Cl  Cl105  1  0.48070300  0.45319800  0.89124800  1
  Cl  Cl106  1  0.51929700  0.04680200  0.39124800  1
  Cl  Cl107  1  0.72409200  0.72254500  0.48666900  1
