# generated using pymatgen
data_RbSi2H18C6N
_symmetry_space_group_name_H-M   'P 1'
_cell_length_a   9.12419700
_cell_length_b   10.70640100
_cell_length_c   13.13187567
_cell_angle_alpha   79.84666365
_cell_angle_beta   90.00000000
_cell_angle_gamma   90.00000000
_symmetry_Int_Tables_number   1
_chemical_formula_structural   RbSi2H18C6N
_chemical_formula_sum   'Rb4 Si8 H72 C24 N4'
_cell_volume   1262.72807538
_cell_formula_units_Z   4
loop_
 _symmetry_equiv_pos_site_id
 _symmetry_equiv_pos_as_xyz
  1  'x, y, z'
loop_
 _atom_site_type_symbol
 _atom_site_label
 _atom_site_symmetry_multiplicity
 _atom_site_fract_x
 _atom_site_fract_y
 _atom_site_fract_z
 _atom_site_occupancy
  Rb  Rb0  1  0.05559600  0.43007300  0.87026900  1
  Rb  Rb1  1  0.55559600  0.56992700  0.62973100  1
  Rb  Rb2  1  0.44440400  0.43007300  0.37026900  1
  Rb  Rb3  1  0.94440400  0.56992700  0.12973100  1
  Si  Si4  1  0.74555400  0.29149600  0.05173600  1
  Si  Si5  1  0.94505900  0.78638700  0.86777500  1
  Si  Si6  1  0.44505900  0.21361300  0.63222500  1
  Si  Si7  1  0.55494100  0.78638700  0.36777500  1
  Si  Si8  1  0.25444600  0.70850400  0.94826400  1
  Si  Si9  1  0.24555400  0.70850400  0.44826400  1
  Si  Si10  1  0.05494100  0.21361300  0.13222500  1
  Si  Si11  1  0.75444600  0.29149600  0.55173600  1
  H  H12  1  0.72402200  0.78621100  0.21616700  1
  H  H13  1  0.31740500  0.37190800  0.72328300  1
  H  H14  1  0.81740500  0.62809200  0.77671700  1
  H  H15  1  0.74154900  0.10981500  0.95433800  1
  H  H16  1  0.22109900  0.28802700  0.52250300  1
  H  H17  1  0.27597800  0.21378900  0.78383300  1
  H  H18  1  0.09948400  0.95880600  0.76261700  1
  H  H19  1  0.69354500  0.84304900  0.52075300  1
  H  H20  1  0.93536300  0.13513700  0.50351500  1
  H  H21  1  0.70083400  0.05484500  0.08653400  1
  H  H22  1  0.79916600  0.05484500  0.58653400  1
  H  H23  1  0.40051600  0.95880600  0.26261700  1
  H  H24  1  0.41487300  0.99150100  0.73008000  1
  H  H25  1  0.70703300  0.51143100  0.94330600  1
  H  H26  1  0.68259500  0.62809200  0.27671700  1
  H  H27  1  0.20703300  0.48856900  0.55669400  1
  H  H28  1  0.24154900  0.89018500  0.54566200  1
  H  H29  1  0.27890100  0.28802700  0.02250300  1
  H  H30  1  0.78673100  0.39247600  0.36403300  1
  H  H31  1  0.44722100  0.28164600  0.80826500  1
  H  H32  1  0.19354500  0.15695100  0.97924700  1
  H  H33  1  0.90051600  0.04119400  0.23738300  1
  H  H34  1  0.56463700  0.13513700  0.00351500  1
  H  H35  1  0.51346500  0.29736600  0.15702800  1
  H  H36  1  0.19630600  0.13283100  0.59140500  1
  H  H37  1  0.58512700  0.00849900  0.26992000  1
  H  H38  1  0.44639000  0.58772500  0.06410400  1
  H  H39  1  0.25845100  0.89018500  0.04566200  1
  H  H40  1  0.80369400  0.86716900  0.40859500  1
  H  H41  1  0.80645500  0.84304900  0.02075300  1
  H  H42  1  0.13604200  0.57978600  0.32319400  1
  H  H43  1  0.16912300  0.73970900  0.26079900  1
  H  H44  1  0.30369400  0.13283100  0.09140500  1
  H  H45  1  0.66912300  0.26029100  0.23920100  1
  H  H46  1  0.72109900  0.71197300  0.97749700  1
  H  H47  1  0.01346500  0.70263400  0.34297200  1
  H  H48  1  0.55361000  0.41227500  0.93589600  1
  H  H49  1  0.22402200  0.21378900  0.28383300  1
  H  H50  1  0.28673100  0.60752400  0.13596700  1
  H  H51  1  0.79296700  0.51143100  0.44330600  1
  H  H52  1  0.96618800  0.99362300  0.12254900  1
  H  H53  1  0.94639000  0.41227500  0.43589600  1
  H  H54  1  0.08512700  0.99150100  0.23008000  1
  H  H55  1  0.29296700  0.48856900  0.05669400  1
  H  H56  1  0.05277900  0.28164600  0.30826500  1
  H  H57  1  0.48653500  0.70263400  0.84297200  1
  H  H58  1  0.91487300  0.00849900  0.76992000  1
  H  H59  1  0.63604200  0.42021400  0.17680600  1
  H  H60  1  0.77890100  0.71197300  0.47749700  1
  H  H61  1  0.43536300  0.86486300  0.99648500  1
  H  H62  1  0.30645500  0.15695100  0.47924700  1
  H  H63  1  0.18259500  0.37190800  0.22328300  1
  H  H64  1  0.06463700  0.86486300  0.49648500  1
  H  H65  1  0.77597800  0.78621100  0.71616700  1
  H  H66  1  0.94722100  0.71835400  0.69173500  1
  H  H67  1  0.71326900  0.39247600  0.86403300  1
  H  H68  1  0.33087700  0.73970900  0.76079900  1
  H  H69  1  0.86395800  0.42021400  0.67680600  1
  H  H70  1  0.03381200  0.00637700  0.87745100  1
  H  H71  1  0.29916600  0.94515500  0.91346600  1
  H  H72  1  0.83087700  0.26029100  0.73920100  1
  H  H73  1  0.36395800  0.57978600  0.82319400  1
  H  H74  1  0.59948400  0.04119400  0.73738300  1
  H  H75  1  0.98653500  0.29736600  0.65702800  1
  H  H76  1  0.53381200  0.99362300  0.62254900  1
  H  H77  1  0.21326900  0.60752400  0.63596700  1
  H  H78  1  0.46618800  0.00637700  0.37745100  1
  H  H79  1  0.20083400  0.94515500  0.41346600  1
  H  H80  1  0.05361000  0.58772500  0.56410400  1
  H  H81  1  0.69630600  0.86716900  0.90859500  1
  H  H82  1  0.55277900  0.71835400  0.19173500  1
  H  H83  1  0.75845100  0.10981500  0.45433800  1
  C  C84  1  0.50427600  0.04446100  0.68552000  1
  C  C85  1  0.77801800  0.80290000  0.95166500  1
  C  C86  1  0.87029400  0.31991400  0.66745200  1
  C  C87  1  0.37029400  0.68008600  0.83254800  1
  C  C88  1  0.68256500  0.13330200  0.02161600  1
  C  C89  1  0.86464000  0.72348500  0.75191300  1
  C  C90  1  0.17416000  0.58635700  0.56137000  1
  C  C91  1  0.12970600  0.68008600  0.33254800  1
  C  C92  1  0.49572400  0.95553900  0.31448000  1
  C  C93  1  0.82584000  0.41364300  0.43863000  1
  C  C94  1  0.81743500  0.13330200  0.52161600  1
  C  C95  1  0.62970600  0.31991400  0.16745200  1
  C  C96  1  0.31743500  0.86669800  0.97838400  1
  C  C97  1  0.63536000  0.72348500  0.25191300  1
  C  C98  1  0.72198200  0.80290000  0.45166500  1
  C  C99  1  0.67416000  0.41364300  0.93863000  1
  C  C100  1  0.32584000  0.58635700  0.06137000  1
  C  C101  1  0.00427600  0.95553900  0.81448000  1
  C  C102  1  0.18256500  0.86669800  0.47838400  1
  C  C103  1  0.36464000  0.27651500  0.74808700  1
  C  C104  1  0.22198200  0.19710000  0.04833500  1
  C  C105  1  0.27801800  0.19710000  0.54833500  1
  C  C106  1  0.99572400  0.04446100  0.18552000  1
  C  C107  1  0.13536000  0.27651500  0.24808700  1
  N  N108  1  0.92725200  0.31246800  0.06791700  1
  N  N109  1  0.07274800  0.68753200  0.93208300  1
  N  N110  1  0.57274800  0.31246800  0.56791700  1
  N  N111  1  0.42725200  0.68753200  0.43208300  1
