# generated using pymatgen
data_Si2Bi14RhI12
_symmetry_space_group_name_H-M   'P 1'
_cell_length_a   10.51454100
_cell_length_b   10.51454100
_cell_length_c   20.82249800
_cell_angle_alpha   90.00000000
_cell_angle_beta   90.00000000
_cell_angle_gamma   90.00000000
_symmetry_Int_Tables_number   1
_chemical_formula_structural   Si2Bi14RhI12
_chemical_formula_sum   'Si4 Bi28 Rh2 I24'
_cell_volume   2302.04318603
_cell_formula_units_Z   2
loop_
 _symmetry_equiv_pos_site_id
 _symmetry_equiv_pos_as_xyz
  1  'x, y, z'
loop_
 _atom_site_type_symbol
 _atom_site_label
 _atom_site_symmetry_multiplicity
 _atom_site_fract_x
 _atom_site_fract_y
 _atom_site_fract_z
 _atom_site_occupancy
  Si  Si0  1  0.50000000  0.50000000  0.59606200  1
  Si  Si1  1  0.50000000  0.50000000  0.40393800  1
  Si  Si2  1  0.50000000  0.50000000  0.09606200  1
  Si  Si3  1  0.50000000  0.50000000  0.90393800  1
  Bi  Bi4  1  0.24998400  0.05496900  0.00000000  1
  Bi  Bi5  1  0.41279500  0.69867900  0.81774000  1
  Bi  Bi6  1  0.69867900  0.41279500  0.68226000  1
  Bi  Bi7  1  0.69867900  0.58720500  0.81774000  1
  Bi  Bi8  1  0.24998400  0.94503100  0.50000000  1
  Bi  Bi9  1  0.41279500  0.30132100  0.31774000  1
  Bi  Bi10  1  0.30132100  0.58720500  0.68226000  1
  Bi  Bi11  1  0.05496900  0.24998400  0.50000000  1
  Bi  Bi12  1  0.41279500  0.69867900  0.18226000  1
  Bi  Bi13  1  0.69867900  0.58720500  0.18226000  1
  Bi  Bi14  1  0.00000000  0.00000000  0.87141500  1
  Bi  Bi15  1  0.94503100  0.24998400  0.00000000  1
  Bi  Bi16  1  0.30132100  0.41279500  0.81774000  1
  Bi  Bi17  1  0.00000000  0.00000000  0.62858500  1
  Bi  Bi18  1  0.30132100  0.58720500  0.31774000  1
  Bi  Bi19  1  0.58720500  0.69867900  0.68226000  1
  Bi  Bi20  1  0.75001600  0.94503100  0.00000000  1
  Bi  Bi21  1  0.69867900  0.41279500  0.31774000  1
  Bi  Bi22  1  0.00000000  0.00000000  0.12858500  1
  Bi  Bi23  1  0.58720500  0.30132100  0.18226000  1
  Bi  Bi24  1  0.58720500  0.30132100  0.81774000  1
  Bi  Bi25  1  0.94503100  0.75001600  0.50000000  1
  Bi  Bi26  1  0.00000000  0.00000000  0.37141500  1
  Bi  Bi27  1  0.75001600  0.05496900  0.50000000  1
  Bi  Bi28  1  0.58720500  0.69867900  0.31774000  1
  Bi  Bi29  1  0.30132100  0.41279500  0.18226000  1
  Bi  Bi30  1  0.05496900  0.75001600  0.00000000  1
  Bi  Bi31  1  0.41279500  0.30132100  0.68226000  1
  Rh  Rh32  1  0.00000000  0.00000000  0.00000000  1
  Rh  Rh33  1  0.00000000  0.00000000  0.50000000  1
  I  I34  1  0.36711300  0.77674700  0.00000000  1
  I  I35  1  0.70186600  0.06268900  0.65233800  1
  I  I36  1  0.93731100  0.29813400  0.84766200  1
  I  I37  1  0.06268900  0.29813400  0.34766200  1
  I  I38  1  0.93731100  0.70186600  0.65233800  1
  I  I39  1  0.06268900  0.70186600  0.84766200  1
  I  I40  1  0.29813400  0.06268900  0.84766200  1
  I  I41  1  0.93731100  0.70186600  0.34766200  1
  I  I42  1  0.77674700  0.36711300  0.50000000  1
  I  I43  1  0.70186600  0.93731100  0.84766200  1
  I  I44  1  0.29813400  0.93731100  0.65233800  1
  I  I45  1  0.36711300  0.22325300  0.50000000  1
  I  I46  1  0.29813400  0.06268900  0.15233800  1
  I  I47  1  0.06268900  0.70186600  0.15233800  1
  I  I48  1  0.06268900  0.29813400  0.65233800  1
  I  I49  1  0.70186600  0.06268900  0.34766200  1
  I  I50  1  0.22325300  0.36711300  0.00000000  1
  I  I51  1  0.70186600  0.93731100  0.15233800  1
  I  I52  1  0.22325300  0.63288700  0.50000000  1
  I  I53  1  0.93731100  0.29813400  0.15233800  1
  I  I54  1  0.63288700  0.77674700  0.50000000  1
  I  I55  1  0.29813400  0.93731100  0.34766200  1
  I  I56  1  0.77674700  0.63288700  0.00000000  1
  I  I57  1  0.63288700  0.22325300  0.00000000  1
