# generated using pymatgen
data_Dy2Sn5
_symmetry_space_group_name_H-M   'P 1'
_cell_length_a   4.37669000
_cell_length_b   4.45981100
_cell_length_c   19.16614600
_cell_angle_alpha   90.00000000
_cell_angle_beta   90.00000000
_cell_angle_gamma   90.00000000
_symmetry_Int_Tables_number   1
_chemical_formula_structural   Dy2Sn5
_chemical_formula_sum   'Dy4 Sn10'
_cell_volume   374.10803261
_cell_formula_units_Z   2
loop_
 _symmetry_equiv_pos_site_id
 _symmetry_equiv_pos_as_xyz
  1  'x, y, z'
loop_
 _atom_site_type_symbol
 _atom_site_label
 _atom_site_symmetry_multiplicity
 _atom_site_fract_x
 _atom_site_fract_y
 _atom_site_fract_z
 _atom_site_occupancy
  Dy  Dy0  1  0.00000000  0.50000000  0.87082100  1
  Dy  Dy1  1  0.00000000  0.00000000  0.30108100  1
  Dy  Dy2  1  0.50000000  0.50000000  0.69891900  1
  Dy  Dy3  1  0.50000000  0.00000000  0.12917900  1
  Sn  Sn4  1  0.00000000  0.00000000  0.73517000  1
  Sn  Sn5  1  0.50000000  0.00000000  0.42464400  1
  Sn  Sn6  1  0.50000000  0.00000000  0.84353800  1
  Sn  Sn7  1  0.50000000  0.00000000  0.57668200  1
  Sn  Sn8  1  0.50000000  0.50000000  0.26483000  1
  Sn  Sn9  1  0.00000000  0.50000000  0.42331800  1
  Sn  Sn10  1  0.00000000  0.50000000  0.57535600  1
  Sn  Sn11  1  0.00000000  0.50000000  0.15646200  1
  Sn  Sn12  1  0.00000000  0.00000000  0.99843400  1
  Sn  Sn13  1  0.50000000  0.50000000  0.00156600  1
