# generated using pymatgen
data_La3MnBi5
_symmetry_space_group_name_H-M   'P 1'
_cell_length_a   9.77965057
_cell_length_b   9.77965057
_cell_length_c   6.57426200
_cell_angle_alpha   90.00000000
_cell_angle_beta   90.00000000
_cell_angle_gamma   120.00000387
_symmetry_Int_Tables_number   1
_chemical_formula_structural   La3MnBi5
_chemical_formula_sum   'La6 Mn2 Bi10'
_cell_volume   544.53311744
_cell_formula_units_Z   2
loop_
 _symmetry_equiv_pos_site_id
 _symmetry_equiv_pos_as_xyz
  1  'x, y, z'
loop_
 _atom_site_type_symbol
 _atom_site_label
 _atom_site_symmetry_multiplicity
 _atom_site_fract_x
 _atom_site_fract_y
 _atom_site_fract_z
 _atom_site_occupancy
  La  La0  1  0.37951500  0.37951500  0.25000000  1
  La  La1  1  0.00000000  0.62048500  0.25000000  1
  La  La2  1  0.00000000  0.37951500  0.75000000  1
  La  La3  1  0.62048500  0.00000000  0.25000000  1
  La  La4  1  0.62048500  0.62048500  0.75000000  1
  La  La5  1  0.37951500  0.00000000  0.75000000  1
  Mn  Mn6  1  0.00000000  0.00000000  0.00000000  1
  Mn  Mn7  1  0.00000000  0.00000000  0.50000000  1
  Bi  Bi8  1  0.66666700  0.33333300  0.50000000  1
  Bi  Bi9  1  0.74752100  0.00000000  0.75000000  1
  Bi  Bi10  1  0.66666700  0.33333300  0.00000000  1
  Bi  Bi11  1  0.00000000  0.25247900  0.25000000  1
  Bi  Bi12  1  0.33333300  0.66666700  0.50000000  1
  Bi  Bi13  1  0.25247900  0.00000000  0.25000000  1
  Bi  Bi14  1  0.00000000  0.74752100  0.75000000  1
  Bi  Bi15  1  0.74752100  0.74752100  0.25000000  1
  Bi  Bi16  1  0.33333300  0.66666700  0.00000000  1
  Bi  Bi17  1  0.25247900  0.25247900  0.75000000  1
