# generated using pymatgen
data_Cs2SnAs2Se9
_symmetry_space_group_name_H-M   'P 1'
_cell_length_a   18.19709400
_cell_length_b   7.42909300
_cell_length_c   7.99952489
_cell_angle_alpha   64.78527609
_cell_angle_beta   90.00000000
_cell_angle_gamma   90.00000000
_symmetry_Int_Tables_number   1
_chemical_formula_structural   Cs2SnAs2Se9
_chemical_formula_sum   'Cs4 Sn2 As4 Se18'
_cell_volume   978.39690219
_cell_formula_units_Z   2
loop_
 _symmetry_equiv_pos_site_id
 _symmetry_equiv_pos_as_xyz
  1  'x, y, z'
loop_
 _atom_site_type_symbol
 _atom_site_label
 _atom_site_symmetry_multiplicity
 _atom_site_fract_x
 _atom_site_fract_y
 _atom_site_fract_z
 _atom_site_occupancy
  Cs  Cs0  1  0.06346700  0.69227300  0.24218700  1
  Cs  Cs1  1  0.79166900  0.08509900  0.48321000  1
  Cs  Cs2  1  0.56346700  0.30772700  0.75781300  1
  Cs  Cs3  1  0.29166900  0.91490100  0.51679000  1
  Sn  Sn4  1  0.66794900  0.67728800  0.11837400  1
  Sn  Sn5  1  0.16794900  0.32271200  0.88162600  1
  As  As6  1  0.35465300  0.19088100  0.93597000  1
  As  As7  1  0.95359100  0.36176500  0.84063100  1
  As  As8  1  0.45359100  0.63823500  0.15936900  1
  As  As9  1  0.85465300  0.80911900  0.06403000  1
  Se  Se10  1  0.11840600  0.70145100  0.79231100  1
  Se  Se11  1  0.75343300  0.02740800  0.00572000  1
  Se  Se12  1  0.10613600  0.18748000  0.22761200  1
  Se  Se13  1  0.29286400  0.43283300  0.01012900  1
  Se  Se14  1  0.85138500  0.62454900  0.41243400  1
  Se  Se15  1  0.99540300  0.70795100  0.68958200  1
  Se  Se16  1  0.22369600  0.39731700  0.53598800  1
  Se  Se17  1  0.35138500  0.37545100  0.58756600  1
  Se  Se18  1  0.79286400  0.56716700  0.98987100  1
  Se  Se19  1  0.04800600  0.19932300  0.75620300  1
  Se  Se20  1  0.25343300  0.97259200  0.99428000  1
  Se  Se21  1  0.47854300  0.74447400  0.82711900  1
  Se  Se22  1  0.49540300  0.29204900  0.31041800  1
  Se  Se23  1  0.72369600  0.60268300  0.46401200  1
  Se  Se24  1  0.60613600  0.81252000  0.77238800  1
  Se  Se25  1  0.54800600  0.80067700  0.24379700  1
  Se  Se26  1  0.61840600  0.29854900  0.20768900  1
  Se  Se27  1  0.97854300  0.25552600  0.17288100  1
