# generated using pymatgen
data_P
_symmetry_space_group_name_H-M   'P 1'
_cell_length_a   9.26050600
_cell_length_b   9.29048400
_cell_length_c   24.11237676
_cell_angle_alpha   75.71232492
_cell_angle_beta   90.00000000
_cell_angle_gamma   90.00000000
_symmetry_Int_Tables_number   1
_chemical_formula_structural   P
_chemical_formula_sum   P84
_cell_volume   2010.33163941
_cell_formula_units_Z   84
loop_
 _symmetry_equiv_pos_site_id
 _symmetry_equiv_pos_as_xyz
  1  'x, y, z'
loop_
 _atom_site_type_symbol
 _atom_site_label
 _atom_site_symmetry_multiplicity
 _atom_site_fract_x
 _atom_site_fract_y
 _atom_site_fract_z
 _atom_site_occupancy
  P  P0  1  0.39243500  0.04464100  0.41990200  1
  P  P1  1  0.40628800  0.25111200  0.44949200  1
  P  P2  1  0.79858700  0.29763000  0.82148700  1
  P  P3  1  0.16319600  0.99802400  0.05302600  1
  P  P4  1  0.64247400  0.48282900  0.03671600  1
  P  P5  1  0.14031200  0.79183000  0.41891000  1
  P  P6  1  0.78510300  0.07563000  0.11770500  1
  P  P7  1  0.32254900  0.78840400  0.83115700  1
  P  P8  1  0.38589700  0.85560200  0.17361400  1
  P  P9  1  0.09993900  0.14065200  0.17479900  1
  P  P10  1  0.63553800  0.68795900  0.06813600  1
  P  P11  1  0.96465700  0.82771000  0.61880900  1
  P  P12  1  0.94828700  0.04531700  0.32152200  1
  P  P13  1  0.79858700  0.70237000  0.67851300  1
  P  P14  1  0.45074900  0.56209400  0.33212300  1
  P  P15  1  0.31736400  0.05237100  0.20364300  1
  P  P16  1  0.14031200  0.20817000  0.08109000  1
  P  P17  1  0.90006100  0.85934800  0.82520100  1
  P  P18  1  0.64247400  0.51717100  0.46328400  1
  P  P19  1  0.35752600  0.48282900  0.53671600  1
  P  P20  1  0.03534300  0.17229000  0.38119100  1
  P  P21  1  0.86682900  0.53949800  0.42993500  1
  P  P22  1  0.96465700  0.17229000  0.88119100  1
  P  P23  1  0.51329600  0.31319400  0.10424400  1
  P  P24  1  0.05171300  0.04531700  0.82152200  1
  P  P25  1  0.71960000  0.42245100  0.88258400  1
  P  P26  1  0.05171300  0.95468300  0.67847800  1
  P  P27  1  0.54925100  0.56209400  0.83212300  1
  P  P28  1  0.60756500  0.95535900  0.58009800  1
  P  P29  1  0.61410300  0.85560200  0.67361400  1
  P  P30  1  0.40628800  0.74888800  0.05050800  1
  P  P31  1  0.13317100  0.53949800  0.92993500  1
  P  P32  1  0.54925100  0.43790600  0.66787700  1
  P  P33  1  0.28040000  0.42245100  0.38258400  1
  P  P34  1  0.03534300  0.82771000  0.11880900  1
  P  P35  1  0.64476300  0.58478600  0.16258100  1
  P  P36  1  0.35523700  0.41521400  0.83741900  1
  P  P37  1  0.86682900  0.46050200  0.07006500  1
  P  P38  1  0.13317100  0.46050200  0.57006500  1
  P  P39  1  0.82070400  0.59059100  0.33604300  1
  P  P40  1  0.60756500  0.04464100  0.91990200  1
  P  P41  1  0.16319600  0.00197600  0.44697400  1
  P  P42  1  0.68263600  0.94762900  0.79635700  1
  P  P43  1  0.17929600  0.59059100  0.83604300  1
  P  P44  1  0.83680400  0.99802400  0.55302600  1
  P  P45  1  0.35523700  0.58478600  0.66258100  1
  P  P46  1  0.63553800  0.31204100  0.43186400  1
  P  P47  1  0.59371200  0.25111200  0.94949200  1
  P  P48  1  0.32254900  0.21159600  0.66884300  1
  P  P49  1  0.59371200  0.74888800  0.55050800  1
  P  P50  1  0.78510300  0.92437000  0.38229500  1
  P  P51  1  0.21489700  0.92437000  0.88229500  1
  P  P52  1  0.20141300  0.29763000  0.32148700  1
  P  P53  1  0.67745100  0.21159600  0.16884300  1
  P  P54  1  0.35752600  0.51717100  0.96328400  1
  P  P55  1  0.31736400  0.94762900  0.29635700  1
  P  P56  1  0.51329600  0.68680600  0.39575600  1
  P  P57  1  0.21489700  0.07563000  0.61770500  1
  P  P58  1  0.64476300  0.41521400  0.33741900  1
  P  P59  1  0.71960000  0.57754900  0.61741600  1
  P  P60  1  0.90006100  0.14065200  0.67479900  1
  P  P61  1  0.28040000  0.57754900  0.11741600  1
  P  P62  1  0.45074900  0.43790600  0.16787700  1
  P  P63  1  0.08511700  0.75538400  0.94870500  1
  P  P64  1  0.36446200  0.68795900  0.56813600  1
  P  P65  1  0.68263600  0.05237100  0.70364300  1
  P  P66  1  0.67745100  0.78840400  0.33115700  1
  P  P67  1  0.38589700  0.14439800  0.32638600  1
  P  P68  1  0.91488300  0.75538400  0.44870500  1
  P  P69  1  0.36446200  0.31204100  0.93186400  1
  P  P70  1  0.09993900  0.85934800  0.32520100  1
  P  P71  1  0.82070400  0.40940900  0.16395700  1
  P  P72  1  0.85968800  0.20817000  0.58109000  1
  P  P73  1  0.48670400  0.31319400  0.60424400  1
  P  P74  1  0.48670400  0.68680600  0.89575600  1
  P  P75  1  0.91488300  0.24461600  0.05129500  1
  P  P76  1  0.85968800  0.79183000  0.91891000  1
  P  P77  1  0.17929600  0.40940900  0.66395700  1
  P  P78  1  0.83680400  0.00197600  0.94697400  1
  P  P79  1  0.08511700  0.24461600  0.55129500  1
  P  P80  1  0.61410300  0.14439800  0.82638600  1
  P  P81  1  0.94828700  0.95468300  0.17847800  1
  P  P82  1  0.20141300  0.70237000  0.17851300  1
  P  P83  1  0.39243500  0.95535900  0.08009800  1
