# generated using pymatgen
data_PrMg2Ni9
_symmetry_space_group_name_H-M   'P 1'
_cell_length_a   8.36100213
_cell_length_b   8.36100213
_cell_length_c   8.36100225
_cell_angle_alpha   34.05280085
_cell_angle_beta   34.05280085
_cell_angle_gamma   34.05279534
_symmetry_Int_Tables_number   1
_chemical_formula_structural   PrMg2Ni9
_chemical_formula_sum   'Pr1 Mg2 Ni9'
_cell_volume   163.37401894
_cell_formula_units_Z   1
loop_
 _symmetry_equiv_pos_site_id
 _symmetry_equiv_pos_as_xyz
  1  'x, y, z'
loop_
 _atom_site_type_symbol
 _atom_site_label
 _atom_site_symmetry_multiplicity
 _atom_site_fract_x
 _atom_site_fract_y
 _atom_site_fract_z
 _atom_site_occupancy
  Pr  Pr0  1  0.00000000  0.00000000  0.00000000  1
  Mg  Mg1  1  0.85539400  0.85539400  0.85539400  1
  Mg  Mg2  1  0.14460600  0.14460600  0.14460600  1
  Ni  Ni3  1  0.08259700  0.58647400  0.58647400  1
  Ni  Ni4  1  0.91740300  0.41352600  0.41352600  1
  Ni  Ni5  1  0.66632100  0.66632100  0.66632100  1
  Ni  Ni6  1  0.58647400  0.58647400  0.08259700  1
  Ni  Ni7  1  0.41352600  0.91740300  0.41352600  1
  Ni  Ni8  1  0.33367900  0.33367900  0.33367900  1
  Ni  Ni9  1  0.50000000  0.50000000  0.50000000  1
  Ni  Ni10  1  0.41352600  0.41352600  0.91740300  1
  Ni  Ni11  1  0.58647400  0.08259700  0.58647400  1
