# generated using pymatgen
data_SrHg2
_symmetry_space_group_name_H-M   'P 1'
_cell_length_a   6.43806048
_cell_length_b   6.43806048
_cell_length_c   6.43806048
_cell_angle_alpha   132.73863912
_cell_angle_beta   103.73989736
_cell_angle_gamma   94.80876336
_symmetry_Int_Tables_number   1
_chemical_formula_structural   SrHg2
_chemical_formula_sum   'Sr2 Hg4'
_cell_volume   178.80084855
_cell_formula_units_Z   2
loop_
 _symmetry_equiv_pos_site_id
 _symmetry_equiv_pos_as_xyz
  1  'x, y, z'
loop_
 _atom_site_type_symbol
 _atom_site_label
 _atom_site_symmetry_multiplicity
 _atom_site_fract_x
 _atom_site_fract_y
 _atom_site_fract_z
 _atom_site_occupancy
  Sr  Sr0  1  0.79004900  0.54004900  0.25000000  1
  Sr  Sr1  1  0.20995100  0.45995100  0.75000000  1
  Hg  Hg2  1  0.21183900  0.16594200  0.04589700  1
  Hg  Hg3  1  0.37995500  0.83405800  0.54589700  1
  Hg  Hg4  1  0.62004500  0.16594200  0.45410300  1
  Hg  Hg5  1  0.78816100  0.83405800  0.95410300  1
