# generated using pymatgen
data_CsHg5Cl11
_symmetry_space_group_name_H-M   'P 1'
_cell_length_a   9.71804907
_cell_length_b   9.71804907
_cell_length_c   6.94094540
_cell_angle_alpha   71.09584560
_cell_angle_beta   71.09584560
_cell_angle_gamma   99.97979587
_symmetry_Int_Tables_number   1
_chemical_formula_structural   CsHg5Cl11
_chemical_formula_sum   'Cs1 Hg5 Cl11'
_cell_volume   557.62398375
_cell_formula_units_Z   1
loop_
 _symmetry_equiv_pos_site_id
 _symmetry_equiv_pos_as_xyz
  1  'x, y, z'
loop_
 _atom_site_type_symbol
 _atom_site_label
 _atom_site_symmetry_multiplicity
 _atom_site_fract_x
 _atom_site_fract_y
 _atom_site_fract_z
 _atom_site_occupancy
  Cs  Cs0  1  0.00000000  0.00000000  0.00000000  1
  Hg  Hg1  1  0.01593700  0.34972500  0.31785500  1
  Hg  Hg2  1  0.50000000  0.50000000  0.00000000  1
  Hg  Hg3  1  0.98406300  0.65027500  0.68214500  1
  Hg  Hg4  1  0.65027500  0.98406300  0.68214500  1
  Hg  Hg5  1  0.34972500  0.01593700  0.31785500  1
  Cl  Cl6  1  0.83186900  0.58136400  0.05813200  1
  Cl  Cl7  1  0.13986400  0.70061500  0.31324400  1
  Cl  Cl8  1  0.70061500  0.13986400  0.31324400  1
  Cl  Cl9  1  0.00000000  0.00000000  0.50000000  1
  Cl  Cl10  1  0.86013600  0.29938500  0.68675600  1
  Cl  Cl11  1  0.58136400  0.83186900  0.05813200  1
  Cl  Cl12  1  0.64656700  0.64656700  0.62123700  1
  Cl  Cl13  1  0.35343300  0.35343300  0.37876300  1
  Cl  Cl14  1  0.41863600  0.16813100  0.94186800  1
  Cl  Cl15  1  0.29938500  0.86013600  0.68675600  1
  Cl  Cl16  1  0.16813100  0.41863600  0.94186800  1
