data_image0
_chemical_formula_structural       Nd2Se2Te4
_chemical_formula_sum              "Nd2 Se2 Te4"
_cell_length_a       4.29893
_cell_length_b       4.30012
_cell_length_c       13.151
_cell_angle_alpha    90
_cell_angle_beta     80.5931
_cell_angle_gamma    90

_space_group_name_H-M_alt    "P 1"
_space_group_IT_number       1

loop_
  _space_group_symop_operation_xyz
  'x, y, z'

loop_
  _atom_site_type_symbol
  _atom_site_label
  _atom_site_symmetry_multiplicity
  _atom_site_fract_x
  _atom_site_fract_y
  _atom_site_fract_z
  _atom_site_occupancy
  Nd  Nd1       1.0  0.82100  0.75000  0.35800  1.0000
  Nd  Nd2       1.0  0.17900  0.25000  0.64200  1.0000
  Se  Se1       1.0  0.29500  0.25000  0.41000  1.0000
  Se  Se2       1.0  0.70500  0.75000  0.59000  1.0000
  Te  Te1       1.0  0.92400  0.25000  0.15300  1.0000
  Te  Te2       1.0  0.42400  0.75000  0.15300  1.0000
  Te  Te3       1.0  0.57600  0.25000  0.84700  1.0000
  Te  Te4       1.0  0.07640  0.75000  0.84700  1.0000
