# generated using pymatgen
data_H8C2I3N
_symmetry_space_group_name_H-M   'P 1'
_cell_length_a   6.59731100
_cell_length_b   10.10922100
_cell_length_c   14.95699800
_cell_angle_alpha   90.00000000
_cell_angle_beta   90.00000000
_cell_angle_gamma   90.00000000
_symmetry_Int_Tables_number   1
_chemical_formula_structural   H8C2I3N
_chemical_formula_sum   'H32 C8 I12 N4'
_cell_volume   997.53716216
_cell_formula_units_Z   4
loop_
 _symmetry_equiv_pos_site_id
 _symmetry_equiv_pos_as_xyz
  1  'x, y, z'
loop_
 _atom_site_type_symbol
 _atom_site_label
 _atom_site_symmetry_multiplicity
 _atom_site_fract_x
 _atom_site_fract_y
 _atom_site_fract_z
 _atom_site_occupancy
  H  H0  1  0.48366900  0.36546500  0.36328500  1
  H  H1  1  0.33507700  0.60949200  0.54841900  1
  H  H2  1  0.16492300  0.89050800  0.54841900  1
  H  H3  1  0.81727200  0.31981200  0.31281600  1
  H  H4  1  0.83507700  0.39050800  0.95158100  1
  H  H5  1  0.51633100  0.63453500  0.63671500  1
  H  H6  1  0.01633100  0.36546500  0.86328500  1
  H  H7  1  0.68272800  0.31981200  0.81281600  1
  H  H8  1  0.83507700  0.10949200  0.45158100  1
  H  H9  1  0.66492300  0.39050800  0.45158100  1
  H  H10  1  0.51400300  0.25750500  0.94967300  1
  H  H11  1  0.48599700  0.74249500  0.05032700  1
  H  H12  1  0.51400300  0.24249500  0.44967300  1
  H  H13  1  0.16492300  0.60949200  0.04841900  1
  H  H14  1  0.01400300  0.75750500  0.05032700  1
  H  H15  1  0.31727200  0.68018800  0.18718400  1
  H  H16  1  0.98366900  0.63453500  0.13671500  1
  H  H17  1  0.18272800  0.81981200  0.18718400  1
  H  H18  1  0.66492300  0.10949200  0.95158100  1
  H  H19  1  0.31727200  0.81981200  0.68718400  1
  H  H20  1  0.81727200  0.18018800  0.81281600  1
  H  H21  1  0.98366900  0.86546500  0.63671500  1
  H  H22  1  0.48366900  0.13453500  0.86328500  1
  H  H23  1  0.18272800  0.68018800  0.68718400  1
  H  H24  1  0.98599700  0.25750500  0.44967300  1
  H  H25  1  0.01633100  0.13453500  0.36328500  1
  H  H26  1  0.68272800  0.18018800  0.31281600  1
  H  H27  1  0.98599700  0.24249500  0.94967300  1
  H  H28  1  0.01400300  0.74249500  0.55032700  1
  H  H29  1  0.48599700  0.75750500  0.55032700  1
  H  H30  1  0.33507700  0.89050800  0.04841900  1
  H  H31  1  0.51633100  0.86546500  0.13671500  1
  C  C32  1  0.59085600  0.31708500  0.40875800  1
  C  C33  1  0.09085600  0.68291500  0.09124200  1
  C  C34  1  0.40914400  0.81708500  0.09124200  1
  C  C35  1  0.90914400  0.31708500  0.90875800  1
  C  C36  1  0.40914400  0.68291500  0.59124200  1
  C  C37  1  0.59085600  0.18291500  0.90875800  1
  C  C38  1  0.09085600  0.81708500  0.59124200  1
  C  C39  1  0.90914400  0.18291500  0.40875800  1
  I  I40  1  0.57918200  0.44685900  0.15063800  1
  I  I41  1  0.25000000  0.25000000  0.14672100  1
  I  I42  1  0.07918200  0.94685900  0.84936200  1
  I  I43  1  0.92081800  0.05314100  0.15063800  1
  I  I44  1  0.57918200  0.05314100  0.65063800  1
  I  I45  1  0.75000000  0.75000000  0.85327900  1
  I  I46  1  0.25000000  0.25000000  0.64672100  1
  I  I47  1  0.42081800  0.94685900  0.34936200  1
  I  I48  1  0.92081800  0.44685900  0.65063800  1
  I  I49  1  0.75000000  0.75000000  0.35327900  1
  I  I50  1  0.42081800  0.55314100  0.84936200  1
  I  I51  1  0.07918200  0.55314100  0.34936200  1
  N  N52  1  0.25000000  0.75000000  0.64587300  1
  N  N53  1  0.75000000  0.25000000  0.35412700  1
  N  N54  1  0.25000000  0.75000000  0.14587300  1
  N  N55  1  0.75000000  0.25000000  0.85412700  1
