# generated using pymatgen
data_Si5Rh4
_symmetry_space_group_name_H-M   'P 1'
_cell_length_a   3.55905700
_cell_length_b   5.98827300
_cell_length_c   12.44866782
_cell_angle_alpha   79.91163178
_cell_angle_beta   90.00000000
_cell_angle_gamma   90.00000000
_symmetry_Int_Tables_number   1
_chemical_formula_structural   Si5Rh4
_chemical_formula_sum   'Si10 Rh8'
_cell_volume   261.21146340
_cell_formula_units_Z   2
loop_
 _symmetry_equiv_pos_site_id
 _symmetry_equiv_pos_as_xyz
  1  'x, y, z'
loop_
 _atom_site_type_symbol
 _atom_site_label
 _atom_site_symmetry_multiplicity
 _atom_site_fract_x
 _atom_site_fract_y
 _atom_site_fract_z
 _atom_site_occupancy
  Si  Si0  1  0.75000000  0.48704100  0.07739800  1
  Si  Si1  1  0.75000000  0.02014700  0.13982400  1
  Si  Si2  1  0.25000000  0.36151000  0.63535500  1
  Si  Si3  1  0.25000000  0.10679100  0.42245000  1
  Si  Si4  1  0.25000000  0.53288700  0.22384200  1
  Si  Si5  1  0.25000000  0.51295900  0.92260200  1
  Si  Si6  1  0.75000000  0.63849000  0.36464500  1
  Si  Si7  1  0.75000000  0.46711300  0.77615800  1
  Si  Si8  1  0.25000000  0.97985300  0.86017600  1
  Si  Si9  1  0.75000000  0.89320900  0.57755000  1
  Rh  Rh10  1  0.25000000  0.69991200  0.50003700  1
  Rh  Rh11  1  0.75000000  0.30008800  0.49996300  1
  Rh  Rh12  1  0.75000000  0.10767700  0.72668800  1
  Rh  Rh13  1  0.25000000  0.89232300  0.27331200  1
  Rh  Rh14  1  0.25000000  0.71471300  0.73017200  1
  Rh  Rh15  1  0.25000000  0.79094300  0.05011900  1
  Rh  Rh16  1  0.75000000  0.20905700  0.94988100  1
  Rh  Rh17  1  0.75000000  0.28528700  0.26982800  1
