# generated using pymatgen
data_TlBr
_symmetry_space_group_name_H-M   'P 1'
_cell_length_a   6.71707429
_cell_length_b   6.71707429
_cell_length_c   5.06230700
_cell_angle_alpha   90.00000000
_cell_angle_beta   90.00000000
_cell_angle_gamma   141.09978447
_symmetry_Int_Tables_number   1
_chemical_formula_structural   TlBr
_chemical_formula_sum   'Tl2 Br2'
_cell_volume   143.43161957
_cell_formula_units_Z   2
loop_
 _symmetry_equiv_pos_site_id
 _symmetry_equiv_pos_as_xyz
  1  'x, y, z'
loop_
 _atom_site_type_symbol
 _atom_site_label
 _atom_site_symmetry_multiplicity
 _atom_site_fract_x
 _atom_site_fract_y
 _atom_site_fract_z
 _atom_site_occupancy
  Tl  Tl0  1  0.38570400  0.61429600  0.75000000  1
  Tl  Tl1  1  0.61429600  0.38570400  0.25000000  1
  Br  Br2  1  0.86760200  0.13239800  0.25000000  1
  Br  Br3  1  0.13239800  0.86760200  0.75000000  1
