# generated using pymatgen
data_Sr2Mg
_symmetry_space_group_name_H-M   'P 1'
_cell_length_a   7.00425921
_cell_length_b   7.00425921
_cell_length_c   10.18131004
_cell_angle_alpha   69.01889873
_cell_angle_beta   69.01889873
_cell_angle_gamma   33.79101445
_symmetry_Int_Tables_number   1
_chemical_formula_structural   Sr2Mg
_chemical_formula_sum   'Sr4 Mg2'
_cell_volume   257.61573054
_cell_formula_units_Z   2
loop_
 _symmetry_equiv_pos_site_id
 _symmetry_equiv_pos_as_xyz
  1  'x, y, z'
loop_
 _atom_site_type_symbol
 _atom_site_label
 _atom_site_symmetry_multiplicity
 _atom_site_fract_x
 _atom_site_fract_y
 _atom_site_fract_z
 _atom_site_occupancy
  Sr  Sr0  1  0.16645800  0.16645800  0.88630400  1
  Sr  Sr1  1  0.48760100  0.48760100  0.69620700  1
  Sr  Sr2  1  0.51239900  0.51239900  0.30379300  1
  Sr  Sr3  1  0.83354200  0.83354200  0.11369600  1
  Mg  Mg4  1  0.80409300  0.80409300  0.56719800  1
  Mg  Mg5  1  0.19590700  0.19590700  0.43280200  1
