# generated using pymatgen
data_Ca28Ga11
_symmetry_space_group_name_H-M   'P 1'
_cell_length_a   5.30046665
_cell_length_b   7.47401299
_cell_length_c   30.96725755
_cell_angle_alpha   96.93111825
_cell_angle_beta   94.90947469
_cell_angle_gamma   90.00000405
_symmetry_Int_Tables_number   1
_chemical_formula_structural   Ca28Ga11
_chemical_formula_sum   'Ca28 Ga11'
_cell_volume   1213.29171780
_cell_formula_units_Z   1
loop_
 _symmetry_equiv_pos_site_id
 _symmetry_equiv_pos_as_xyz
  1  'x, y, z'
loop_
 _atom_site_type_symbol
 _atom_site_label
 _atom_site_symmetry_multiplicity
 _atom_site_fract_x
 _atom_site_fract_y
 _atom_site_fract_z
 _atom_site_occupancy
  Ca  Ca0  1  0.81778300  0.91846000  0.63556600  1
  Ca  Ca1  1  0.56000400  0.23488300  0.12000900  1
  Ca  Ca2  1  0.72403700  0.25369800  0.44807300  1
  Ca  Ca3  1  0.63720400  0.17274600  0.27440800  1
  Ca  Ca4  1  0.32393300  0.24179800  0.64786600  1
  Ca  Ca5  1  0.85315300  0.56695600  0.70630600  1
  Ca  Ca6  1  0.54346500  0.67048600  0.08692900  1
  Ca  Ca7  1  0.00000000  0.55524100  0.00000000  1
  Ca  Ca8  1  0.61733300  0.59430200  0.23466500  1
  Ca  Ca9  1  0.91710900  0.53022400  0.83421900  1
  Ca  Ca10  1  0.26219200  0.25841300  0.52438400  1
  Ca  Ca11  1  0.27596300  0.80562500  0.55192700  1
  Ca  Ca12  1  0.90334500  0.98962100  0.80668900  1
  Ca  Ca13  1  0.36279600  0.89833900  0.72559200  1
  Ca  Ca14  1  0.45653500  0.58355700  0.91307100  1
  Ca  Ca15  1  0.67606700  0.59393200  0.35213400  1
  Ca  Ca16  1  0.43999600  0.11487400  0.87999100  1
  Ca  Ca17  1  0.14684700  0.86065100  0.29369500  1
  Ca  Ca18  1  0.09665500  0.18293200  0.19331100  1
  Ca  Ca19  1  0.79398000  0.46828700  0.58796000  1
  Ca  Ca20  1  0.38266700  0.35963700  0.76533500  1
  Ca  Ca21  1  0.50000000  0.23890000  0.00000000  1
  Ca  Ca22  1  0.73780800  0.73403000  0.47561600  1
  Ca  Ca23  1  0.97009200  0.92988900  0.94018400  1
  Ca  Ca24  1  0.08289100  0.69600500  0.16578100  1
  Ca  Ca25  1  0.20602000  0.88032700  0.41204000  1
  Ca  Ca26  1  0.18221700  0.28289400  0.36443400  1
  Ca  Ca27  1  0.02990800  0.98970600  0.05981600  1
  Ga  Ga28  1  0.68018200  0.00466200  0.36036400  1
  Ga  Ga29  1  0.13935900  0.44836300  0.27871800  1
  Ga  Ga30  1  0.77296900  0.06502400  0.54593900  1
  Ga  Ga31  1  0.95649600  0.31330300  0.91299200  1
  Ga  Ga32  1  0.31981800  0.64429900  0.63963600  1
  Ga  Ga33  1  0.86064100  0.16964400  0.72128200  1
  Ga  Ga34  1  0.04350400  0.40031200  0.08700800  1
  Ga  Ga35  1  0.59087900  0.93129200  0.18175700  1
  Ga  Ga36  1  0.40912100  0.74953500  0.81824300  1
  Ga  Ga37  1  0.22703100  0.51908500  0.45406100  1
  Ga  Ga38  1  0.50000000  0.83206700  0.00000000  1
