# generated using pymatgen
data_Ag2Se
_symmetry_space_group_name_H-M   'P 1'
_cell_length_a   4.58224100
_cell_length_b   7.34844300
_cell_length_c   7.93763600
_cell_angle_alpha   90.00000000
_cell_angle_beta   90.00000000
_cell_angle_gamma   90.00000000
_symmetry_Int_Tables_number   1
_chemical_formula_structural   Ag2Se
_chemical_formula_sum   'Ag8 Se4'
_cell_volume   267.27875279
_cell_formula_units_Z   4
loop_
 _symmetry_equiv_pos_site_id
 _symmetry_equiv_pos_as_xyz
  1  'x, y, z'
loop_
 _atom_site_type_symbol
 _atom_site_label
 _atom_site_symmetry_multiplicity
 _atom_site_fract_x
 _atom_site_fract_y
 _atom_site_fract_z
 _atom_site_occupancy
  Ag  Ag0  1  0.00554400  0.10289600  0.24414600  1
  Ag  Ag1  1  0.99445600  0.10289600  0.75585400  1
  Ag  Ag2  1  0.50000000  0.60905200  0.00000000  1
  Ag  Ag3  1  0.49445600  0.89710400  0.24414600  1
  Ag  Ag4  1  0.00000000  0.39094800  0.00000000  1
  Ag  Ag5  1  0.00000000  0.38506700  0.50000000  1
  Ag  Ag6  1  0.50554400  0.89710400  0.75585400  1
  Ag  Ag7  1  0.50000000  0.61493300  0.50000000  1
  Se  Se8  1  0.51998100  0.29445100  0.25064900  1
  Se  Se9  1  0.48001900  0.29445100  0.74935100  1
  Se  Se10  1  0.01998100  0.70554900  0.74935100  1
  Se  Se11  1  0.98001900  0.70554900  0.25064900  1
