# generated using pymatgen
data_Ca36Sn23
_symmetry_space_group_name_H-M   'P 1'
_cell_length_a   12.59466708
_cell_length_b   12.59466708
_cell_length_c   23.10763740
_cell_angle_alpha   90.00000000
_cell_angle_beta   90.00000000
_cell_angle_gamma   90.00000000
_symmetry_Int_Tables_number   1
_chemical_formula_structural   Ca36Sn23
_chemical_formula_sum   'Ca72 Sn46'
_cell_volume   3665.46374503
_cell_formula_units_Z   2
loop_
 _symmetry_equiv_pos_site_id
 _symmetry_equiv_pos_as_xyz
  1  'x, y, z'
loop_
 _atom_site_type_symbol
 _atom_site_label
 _atom_site_symmetry_multiplicity
 _atom_site_fract_x
 _atom_site_fract_y
 _atom_site_fract_z
 _atom_site_occupancy
  Ca  Ca0  1  0.41749862  0.28328789  0.50000000  1
  Ca  Ca1  1  0.00000000  0.50000000  0.27951560  1
  Ca  Ca2  1  0.58250138  0.71671211  0.50000000  1
  Ca  Ca3  1  0.21110050  0.94357579  0.09200800  1
  Ca  Ca4  1  0.28649545  0.41320389  0.63097902  1
  Ca  Ca5  1  0.21350455  0.91320389  0.36902098  1
  Ca  Ca6  1  0.21179930  0.07676057  0.23819127  1
  Ca  Ca7  1  0.50000000  0.00000000  0.27951560  1
  Ca  Ca8  1  0.07676057  0.78820070  0.23819127  1
  Ca  Ca9  1  0.78889950  0.05642421  0.90799200  1
  Ca  Ca10  1  0.28649545  0.41320389  0.36902098  1
  Ca  Ca11  1  0.41320389  0.71350455  0.63097902  1
  Ca  Ca12  1  0.21350455  0.91320389  0.63097902  1
  Ca  Ca13  1  0.57676057  0.71179930  0.23819127  1
  Ca  Ca14  1  0.28889950  0.44357579  0.09200800  1
  Ca  Ca15  1  0.78820070  0.92323943  0.23819127  1
  Ca  Ca16  1  0.78649545  0.08679611  0.36902098  1
  Ca  Ca17  1  0.21671211  0.08250138  0.50000000  1
  Ca  Ca18  1  0.94357579  0.78889950  0.09200800  1
  Ca  Ca19  1  0.50000000  0.00000000  0.72048440  1
  Ca  Ca20  1  0.92323943  0.21179930  0.76180873  1
  Ca  Ca21  1  0.78649545  0.08679611  0.63097902  1
  Ca  Ca22  1  0.55642421  0.28889950  0.90799200  1
  Ca  Ca23  1  0.94357579  0.78889950  0.90799200  1
  Ca  Ca24  1  0.44357579  0.71110050  0.90799200  1
  Ca  Ca25  1  0.28820070  0.57676057  0.23819127  1
  Ca  Ca26  1  0.71671211  0.41749862  0.50000000  1
  Ca  Ca27  1  0.28820070  0.57676057  0.76180873  1
  Ca  Ca28  1  0.78889950  0.05642421  0.09200800  1
  Ca  Ca29  1  0.21110050  0.94357579  0.90799200  1
  Ca  Ca30  1  0.00000000  0.50000000  0.72048440  1
  Ca  Ca31  1  0.71350455  0.58679611  0.63097902  1
  Ca  Ca32  1  0.05642421  0.21110050  0.09200800  1
  Ca  Ca33  1  0.78328789  0.91749862  0.50000000  1
  Ca  Ca34  1  0.58679611  0.28649545  0.63097902  1
  Ca  Ca35  1  0.57676057  0.71179930  0.76180873  1
  Ca  Ca36  1  0.91320389  0.78649545  0.63097902  1
  Ca  Ca37  1  0.42323943  0.28820070  0.76180873  1
  Ca  Ca38  1  0.71350455  0.58679611  0.36902098  1
  Ca  Ca39  1  0.00000000  0.50000000  0.87281256  1
  Ca  Ca40  1  0.50000000  0.00000000  0.42831625  1
  Ca  Ca41  1  0.28328789  0.58250138  0.50000000  1
  Ca  Ca42  1  0.00000000  0.50000000  0.12718744  1
  Ca  Ca43  1  0.07676057  0.78820070  0.76180873  1
  Ca  Ca44  1  0.05642421  0.21110050  0.90799200  1
  Ca  Ca45  1  0.91749862  0.21671211  0.50000000  1
  Ca  Ca46  1  0.00000000  0.50000000  0.57168375  1
  Ca  Ca47  1  0.08679611  0.21350455  0.63097902  1
  Ca  Ca48  1  0.58679611  0.28649545  0.36902098  1
  Ca  Ca49  1  0.21179930  0.07676057  0.76180873  1
  Ca  Ca50  1  0.71110050  0.55642421  0.09200800  1
  Ca  Ca51  1  0.50000000  0.00000000  0.87281256  1
  Ca  Ca52  1  0.83513578  0.33513578  0.00000000  1
  Ca  Ca53  1  0.00000000  0.50000000  0.42831625  1
  Ca  Ca54  1  0.50000000  0.00000000  0.57168375  1
  Ca  Ca55  1  0.92323943  0.21179930  0.23819127  1
  Ca  Ca56  1  0.78820070  0.92323943  0.76180873  1
  Ca  Ca57  1  0.66486422  0.83513578  0.00000000  1
  Ca  Ca58  1  0.08250138  0.78328789  0.50000000  1
  Ca  Ca59  1  0.44357579  0.71110050  0.09200800  1
  Ca  Ca60  1  0.41320389  0.71350455  0.36902098  1
  Ca  Ca61  1  0.55642421  0.28889950  0.09200800  1
  Ca  Ca62  1  0.91320389  0.78649545  0.36902098  1
  Ca  Ca63  1  0.08679611  0.21350455  0.36902098  1
  Ca  Ca64  1  0.33513578  0.16486422  0.00000000  1
  Ca  Ca65  1  0.16486422  0.66486422  0.00000000  1
  Ca  Ca66  1  0.71179930  0.42323943  0.76180873  1
  Ca  Ca67  1  0.71179930  0.42323943  0.23819127  1
  Ca  Ca68  1  0.50000000  0.00000000  0.12718744  1
  Ca  Ca69  1  0.42323943  0.28820070  0.23819127  1
  Ca  Ca70  1  0.28889950  0.44357579  0.90799200  1
  Ca  Ca71  1  0.71110050  0.55642421  0.90799200  1
  Sn  Sn72  1  0.16270346  0.33729654  0.21551099  1
  Sn  Sn73  1  0.83729654  0.66270346  0.78448901  1
  Sn  Sn74  1  0.16270346  0.33729654  0.78448901  1
  Sn  Sn75  1  0.19641901  0.69641901  0.13029441  1
  Sn  Sn76  1  0.00000000  0.00000000  0.83565397  1
  Sn  Sn77  1  0.34257482  0.84257482  0.50000000  1
  Sn  Sn78  1  0.65303973  0.84696027  0.36090607  1
  Sn  Sn79  1  0.83729654  0.66270346  0.21551099  1
  Sn  Sn80  1  0.65303973  0.84696027  0.63909393  1
  Sn  Sn81  1  0.84696027  0.34696027  0.63909393  1
  Sn  Sn82  1  0.30358099  0.19641901  0.13029441  1
  Sn  Sn83  1  0.00000000  0.00000000  0.56613573  1
  Sn  Sn84  1  0.66270346  0.16270346  0.21551099  1
  Sn  Sn85  1  0.66270346  0.16270346  0.78448901  1
  Sn  Sn86  1  0.15303973  0.65303973  0.36090607  1
  Sn  Sn87  1  0.80358099  0.30358099  0.86970559  1
  Sn  Sn88  1  0.34696027  0.15303973  0.63909393  1
  Sn  Sn89  1  0.34696027  0.15303973  0.36090607  1
  Sn  Sn90  1  0.84257482  0.65742518  0.50000000  1
  Sn  Sn91  1  0.69641901  0.80358099  0.13029441  1
  Sn  Sn92  1  0.08758677  0.41241323  0.00000000  1
  Sn  Sn93  1  0.65742518  0.15742518  0.50000000  1
  Sn  Sn94  1  0.30358099  0.19641901  0.86970559  1
  Sn  Sn95  1  0.19641901  0.69641901  0.86970559  1
  Sn  Sn96  1  0.50000000  0.50000000  0.69870878  1
  Sn  Sn97  1  0.00000000  0.00000000  0.30129122  1
  Sn  Sn98  1  0.91241323  0.58758677  0.00000000  1
  Sn  Sn99  1  0.50000000  0.50000000  0.30129122  1
  Sn  Sn100  1  0.50000000  0.50000000  0.83565397  1
  Sn  Sn101  1  0.58758677  0.08758677  0.00000000  1
  Sn  Sn102  1  0.50000000  0.50000000  0.00000000  1
  Sn  Sn103  1  0.00000000  0.00000000  0.00000000  1
  Sn  Sn104  1  0.15742518  0.34257482  0.50000000  1
  Sn  Sn105  1  0.41241323  0.91241323  0.00000000  1
  Sn  Sn106  1  0.00000000  0.00000000  0.69870878  1
  Sn  Sn107  1  0.33729654  0.83729654  0.21551099  1
  Sn  Sn108  1  0.80358099  0.30358099  0.13029441  1
  Sn  Sn109  1  0.33729654  0.83729654  0.78448901  1
  Sn  Sn110  1  0.69641901  0.80358099  0.86970559  1
  Sn  Sn111  1  0.00000000  0.00000000  0.43386427  1
  Sn  Sn112  1  0.15303973  0.65303973  0.63909393  1
  Sn  Sn113  1  0.00000000  0.00000000  0.16434603  1
  Sn  Sn114  1  0.50000000  0.50000000  0.56613573  1
  Sn  Sn115  1  0.50000000  0.50000000  0.16434603  1
  Sn  Sn116  1  0.50000000  0.50000000  0.43386427  1
  Sn  Sn117  1  0.84696027  0.34696027  0.36090607  1
