# generated using pymatgen
data_U2BiN2
_symmetry_space_group_name_H-M   'P 1'
_cell_length_a   6.14170307
_cell_length_b   6.14170307
_cell_length_c   6.14170307
_cell_angle_alpha   136.28925450
_cell_angle_beta   136.28925450
_cell_angle_gamma   63.53345888
_symmetry_Int_Tables_number   1
_chemical_formula_structural   U2BiN2
_chemical_formula_sum   'U2 Bi1 N2'
_cell_volume   109.18203192
_cell_formula_units_Z   1
loop_
 _symmetry_equiv_pos_site_id
 _symmetry_equiv_pos_as_xyz
  1  'x, y, z'
loop_
 _atom_site_type_symbol
 _atom_site_label
 _atom_site_symmetry_multiplicity
 _atom_site_fract_x
 _atom_site_fract_y
 _atom_site_fract_z
 _atom_site_occupancy
  U  U0  1  0.75000000  0.25000000  0.50000000  1
  U  U1  1  0.25000000  0.75000000  0.50000000  1
  Bi  Bi2  1  0.00000000  0.00000000  0.00000000  1
  N  N3  1  0.72437800  0.72437800  0.00000000  1
  N  N4  1  0.27562200  0.27562200  0.00000000  1
