data_image0
_chemical_formula_structural       Ca4In2N2
_chemical_formula_sum              "Ca4 In2 N2"
_cell_length_a       3.48464
_cell_length_b       4.99239
_cell_length_c       10.2747
_cell_angle_alpha    90
_cell_angle_beta     80.237
_cell_angle_gamma    90

_space_group_name_H-M_alt    "P 1"
_space_group_IT_number       1

loop_
  _space_group_symop_operation_xyz
  'x, y, z'

loop_
  _atom_site_type_symbol
  _atom_site_label
  _atom_site_symmetry_multiplicity
  _atom_site_fract_x
  _atom_site_fract_y
  _atom_site_fract_z
  _atom_site_occupancy
  Ca  Ca1       1.0  0.37900  0.75000  0.24200  1.0000
  Ca  Ca2       1.0  0.78200  0.25000  0.43700  1.0000
  Ca  Ca3       1.0  0.21800  0.75000  0.56300  1.0000
  Ca  Ca4       1.0  0.62100  0.25000  0.75800  1.0000
  In  In1       1.0  0.96100  0.25000  0.07900  1.0000
  In  In2       1.0  0.03950  0.75000  0.92100  1.0000
  N   N1        1.0  0.80100  0.75000  0.39900  1.0000
  N   N2        1.0  0.19900  0.25000  0.60100  1.0000
