# generated using pymatgen
data_LaRh3
_symmetry_space_group_name_H-M   'P 1'
_cell_length_a   9.48292503
_cell_length_b   9.48292503
_cell_length_c   9.48292462
_cell_angle_alpha   32.95876961
_cell_angle_beta   32.95876961
_cell_angle_gamma   32.95877506
_symmetry_Int_Tables_number   1
_chemical_formula_structural   LaRh3
_chemical_formula_sum   'La3 Rh9'
_cell_volume   224.59506839
_cell_formula_units_Z   3
loop_
 _symmetry_equiv_pos_site_id
 _symmetry_equiv_pos_as_xyz
  1  'x, y, z'
loop_
 _atom_site_type_symbol
 _atom_site_label
 _atom_site_symmetry_multiplicity
 _atom_site_fract_x
 _atom_site_fract_y
 _atom_site_fract_z
 _atom_site_occupancy
  La  La0  1  0.13850100  0.13850100  0.13850100  1
  La  La1  1  0.00000000  0.00000000  0.00000000  1
  La  La2  1  0.86149900  0.86149900  0.86149900  1
  Rh  Rh3  1  0.41945400  0.41945400  0.91739800  1
  Rh  Rh4  1  0.41945400  0.91739800  0.41945400  1
  Rh  Rh5  1  0.08260200  0.58054600  0.58054600  1
  Rh  Rh6  1  0.58054600  0.58054600  0.08260200  1
  Rh  Rh7  1  0.91739800  0.41945400  0.41945400  1
  Rh  Rh8  1  0.58054600  0.08260200  0.58054600  1
  Rh  Rh9  1  0.33238200  0.33238200  0.33238200  1
  Rh  Rh10  1  0.66761800  0.66761800  0.66761800  1
  Rh  Rh11  1  0.50000000  0.50000000  0.50000000  1
