# generated using pymatgen
data_U3Si11Pt23
_symmetry_space_group_name_H-M   'P 1'
_cell_length_a   12.14517132
_cell_length_b   12.14517132
_cell_length_c   12.14517132
_cell_angle_alpha   60.00000000
_cell_angle_beta   60.00000000
_cell_angle_gamma   60.00000000
_symmetry_Int_Tables_number   1
_chemical_formula_structural   U3Si11Pt23
_chemical_formula_sum   'U6 Si22 Pt46'
_cell_volume   1266.76465817
_cell_formula_units_Z   2
loop_
 _symmetry_equiv_pos_site_id
 _symmetry_equiv_pos_as_xyz
  1  'x, y, z'
loop_
 _atom_site_type_symbol
 _atom_site_label
 _atom_site_symmetry_multiplicity
 _atom_site_fract_x
 _atom_site_fract_y
 _atom_site_fract_z
 _atom_site_occupancy
  U  U0  1  0.38418500  0.61581500  0.38418500  1
  U  U1  1  0.61581500  0.61581500  0.38418500  1
  U  U2  1  0.38418500  0.61581500  0.61581500  1
  U  U3  1  0.61581500  0.38418500  0.61581500  1
  U  U4  1  0.38418500  0.38418500  0.61581500  1
  U  U5  1  0.61581500  0.38418500  0.38418500  1
  Si  Si6  1  0.38284200  0.38284200  0.38284200  1
  Si  Si7  1  0.83185600  0.16814400  0.16814400  1
  Si  Si8  1  0.16562800  0.50311600  0.16562800  1
  Si  Si9  1  0.83185600  0.16814400  0.83185600  1
  Si  Si10  1  0.14852500  0.61715800  0.61715800  1
  Si  Si11  1  0.16562800  0.16562800  0.16562800  1
  Si  Si12  1  0.49688400  0.83437200  0.83437200  1
  Si  Si13  1  0.83437200  0.83437200  0.83437200  1
  Si  Si14  1  0.85147500  0.38284200  0.38284200  1
  Si  Si15  1  0.61715800  0.14852500  0.61715800  1
  Si  Si16  1  0.38284200  0.85147500  0.38284200  1
  Si  Si17  1  0.50311600  0.16562800  0.16562800  1
  Si  Si18  1  0.38284200  0.38284200  0.85147500  1
  Si  Si19  1  0.83437200  0.83437200  0.49688400  1
  Si  Si20  1  0.83185600  0.83185600  0.16814400  1
  Si  Si21  1  0.16814400  0.16814400  0.83185600  1
  Si  Si22  1  0.61715800  0.61715800  0.14852500  1
  Si  Si23  1  0.16562800  0.16562800  0.50311600  1
  Si  Si24  1  0.83437200  0.49688400  0.83437200  1
  Si  Si25  1  0.61715800  0.61715800  0.61715800  1
  Si  Si26  1  0.16814400  0.83185600  0.83185600  1
  Si  Si27  1  0.16814400  0.83185600  0.16814400  1
  Pt  Pt28  1  0.91903300  0.58205300  0.24945700  1
  Pt  Pt29  1  0.69385600  0.91843300  0.69385600  1
  Pt  Pt30  1  0.24945700  0.58205300  0.91903300  1
  Pt  Pt31  1  0.91843300  0.69385600  0.69385600  1
  Pt  Pt32  1  0.75054300  0.41794700  0.75054300  1
  Pt  Pt33  1  0.00000000  0.00000000  0.50000000  1
  Pt  Pt34  1  0.75054300  0.08096700  0.41794700  1
  Pt  Pt35  1  0.08299000  0.08299000  0.08299000  1
  Pt  Pt36  1  0.58205300  0.91903300  0.24945700  1
  Pt  Pt37  1  0.91701000  0.24896900  0.91701000  1
  Pt  Pt38  1  0.08299000  0.08299000  0.75103100  1
  Pt  Pt39  1  0.75054300  0.75054300  0.41794700  1
  Pt  Pt40  1  0.08096700  0.75054300  0.75054300  1
  Pt  Pt41  1  0.08096700  0.41794700  0.75054300  1
  Pt  Pt42  1  0.69385600  0.69385600  0.91843300  1
  Pt  Pt43  1  0.75054300  0.75054300  0.08096700  1
  Pt  Pt44  1  0.69385600  0.69385600  0.69385600  1
  Pt  Pt45  1  0.41794700  0.75054300  0.08096700  1
  Pt  Pt46  1  0.24945700  0.91903300  0.24945700  1
  Pt  Pt47  1  0.58205300  0.24945700  0.24945700  1
  Pt  Pt48  1  0.41794700  0.75054300  0.75054300  1
  Pt  Pt49  1  0.91701000  0.91701000  0.24896900  1
  Pt  Pt50  1  0.24945700  0.24945700  0.58205300  1
  Pt  Pt51  1  0.75054300  0.41794700  0.08096700  1
  Pt  Pt52  1  0.58205300  0.24945700  0.91903300  1
  Pt  Pt53  1  0.24945700  0.91903300  0.58205300  1
  Pt  Pt54  1  0.30614400  0.30614400  0.08156700  1
  Pt  Pt55  1  0.30614400  0.30614400  0.30614400  1
  Pt  Pt56  1  0.24945700  0.24945700  0.91903300  1
  Pt  Pt57  1  0.91701000  0.91701000  0.91701000  1
  Pt  Pt58  1  0.08299000  0.75103100  0.08299000  1
  Pt  Pt59  1  0.00000000  0.50000000  0.00000000  1
  Pt  Pt60  1  0.91903300  0.24945700  0.58205300  1
  Pt  Pt61  1  0.24896900  0.91701000  0.91701000  1
  Pt  Pt62  1  0.91903300  0.24945700  0.24945700  1
  Pt  Pt63  1  0.41794700  0.08096700  0.75054300  1
  Pt  Pt64  1  0.50000000  0.50000000  0.00000000  1
  Pt  Pt65  1  0.08156700  0.30614400  0.30614400  1
  Pt  Pt66  1  0.75054300  0.08096700  0.75054300  1
  Pt  Pt67  1  0.30614400  0.08156700  0.30614400  1
  Pt  Pt68  1  0.24945700  0.58205300  0.24945700  1
  Pt  Pt69  1  0.50000000  0.00000000  0.00000000  1
  Pt  Pt70  1  0.08096700  0.75054300  0.41794700  1
  Pt  Pt71  1  0.75103100  0.08299000  0.08299000  1
  Pt  Pt72  1  0.50000000  0.00000000  0.50000000  1
  Pt  Pt73  1  0.00000000  0.50000000  0.50000000  1
