# generated using pymatgen
data_Si(H3C)2
_symmetry_space_group_name_H-M   'P 1'
_cell_length_a   10.65533500
_cell_length_b   10.67120744
_cell_length_c   14.75402624
_cell_angle_alpha   76.68239527
_cell_angle_beta   88.88377822
_cell_angle_gamma   88.47242303
_symmetry_Int_Tables_number   1
_chemical_formula_structural   Si(H3C)2
_chemical_formula_sum   'Si16 H96 C32'
_cell_volume   1631.76313431
_cell_formula_units_Z   16
loop_
 _symmetry_equiv_pos_site_id
 _symmetry_equiv_pos_as_xyz
  1  'x, y, z'
loop_
 _atom_site_type_symbol
 _atom_site_label
 _atom_site_symmetry_multiplicity
 _atom_site_fract_x
 _atom_site_fract_y
 _atom_site_fract_z
 _atom_site_occupancy
  Si  Si0  1  0.95248700  0.79487100  0.99986900  1
  Si  Si1  1  0.65059900  0.41709100  0.60444000  1
  Si  Si2  1  0.13400800  0.88697100  0.91735100  1
  Si  Si3  1  0.04751300  0.20512900  0.00013100  1
  Si  Si4  1  0.29156400  0.72750100  0.90799800  1
  Si  Si5  1  0.20665900  0.04826000  0.98950200  1
  Si  Si6  1  0.19578800  0.24427000  0.42812300  1
  Si  Si7  1  0.52025300  0.28255000  0.54108300  1
  Si  Si8  1  0.79334100  0.95174000  0.01049800  1
  Si  Si9  1  0.86599200  0.11302900  0.08264900  1
  Si  Si10  1  0.32015600  0.37838500  0.49718600  1
  Si  Si11  1  0.47974700  0.71745000  0.45891700  1
  Si  Si12  1  0.67984400  0.62161500  0.50281400  1
  Si  Si13  1  0.70843600  0.27249900  0.09200200  1
  Si  Si14  1  0.34940100  0.58290900  0.39556000  1
  Si  Si15  1  0.80421200  0.75573000  0.57187700  1
  H  H16  1  0.38215000  0.67930200  0.62002000  1
  H  H17  1  0.90754900  0.66700000  0.16261500  1
  H  H18  1  0.22508400  0.30025200  0.65768000  1
  H  H19  1  0.44746300  0.65339200  0.23622100  1
  H  H20  1  0.79134200  0.64158100  0.96874400  1
  H  H21  1  0.29742700  0.80043600  0.54027300  1
  H  H22  1  0.68715600  0.81657500  0.15331700  1
  H  H23  1  0.34751500  0.90694900  0.10813700  1
  H  H24  1  0.63420800  0.85693700  0.65442400  1
  H  H25  1  0.01604200  0.04126500  0.78815600  1
  H  H26  1  0.89586600  0.88569800  0.42205600  1
  H  H27  1  0.13628400  0.43312600  0.59375600  1
  H  H28  1  0.59119100  0.44306200  0.97823300  1
  H  H29  1  0.70180200  0.71930500  0.73019200  1
  H  H30  1  0.64000200  0.48802300  0.75595700  1
  H  H31  1  0.41795500  0.85687400  0.77439600  1
  H  H32  1  0.05615600  0.40501000  0.32160800  1
  H  H33  1  0.42195300  0.07338900  0.91399400  1
  H  H34  1  0.98395800  0.95873500  0.21184400  1
  H  H35  1  0.85250800  0.43705600  0.12896500  1
  H  H36  1  0.75663600  0.96146100  0.45344900  1
  H  H37  1  0.30487100  0.53693900  0.83644400  1
  H  H38  1  0.61785000  0.32069800  0.37998000  1
  H  H39  1  0.31284400  0.18342500  0.84668300  1
  H  H40  1  0.94525400  0.10543600  0.24438900  1
  H  H41  1  0.69512900  0.46306100  0.16355600  1
  H  H42  1  0.72003100  0.54076900  0.35551000  1
  H  H43  1  0.89871100  0.97096500  0.51225600  1
  H  H44  1  0.97898800  0.25729900  0.36508900  1
  H  H45  1  0.85655100  0.31357500  0.56952300  1
  H  H46  1  0.47731800  0.87270100  0.88262100  1
  H  H47  1  0.37402900  0.21558300  0.94993500  1
  H  H48  1  0.13346600  0.27988700  0.13684600  1
  H  H49  1  0.79258000  0.23046800  0.67812600  1
  H  H50  1  0.29819800  0.28069500  0.26980800  1
  H  H51  1  0.55838700  0.16293200  0.41401500  1
  H  H52  1  0.24336400  0.03853900  0.54655100  1
  H  H53  1  0.78966400  0.33884000  0.23271500  1
  H  H54  1  0.48912500  0.49861100  0.70541800  1
  H  H55  1  0.00739900  0.63094200  0.56339000  1
  H  H56  1  0.95860500  0.23726900  0.83842500  1
  H  H57  1  0.14344900  0.68642500  0.43047700  1
  H  H58  1  0.10413400  0.11430200  0.57794400  1
  H  H59  1  0.44752200  0.05703900  0.60939600  1
  H  H60  1  0.04139500  0.76273100  0.16157500  1
  H  H61  1  0.36579200  0.14306300  0.34557600  1
  H  H62  1  0.44161300  0.83706800  0.58598500  1
  H  H63  1  0.77491600  0.69974800  0.34232000  1
  H  H64  1  0.05505100  0.40838100  0.05882400  1
  H  H65  1  0.14749200  0.56294400  0.87103500  1
  H  H66  1  0.99260100  0.36905800  0.43661000  1
  H  H67  1  0.55253700  0.34660800  0.76377900  1
  H  H68  1  0.25840500  0.58529100  0.06789200  1
  H  H69  1  0.05443100  0.61851400  0.12148100  1
  H  H70  1  0.20865800  0.35841900  0.03125600  1
  H  H71  1  0.62597100  0.78441700  0.05006500  1
  H  H72  1  0.09245100  0.33300000  0.83738500  1
  H  H73  1  0.13069400  0.62131000  0.33059600  1
  H  H74  1  0.58851900  0.08639600  0.66285400  1
  H  H75  1  0.41148100  0.91360400  0.33714600  1
  H  H76  1  0.17145800  0.01115200  0.75175200  1
  H  H77  1  0.21033600  0.66116000  0.76728500  1
  H  H78  1  0.86371600  0.56687400  0.40624400  1
  H  H79  1  0.94384400  0.59499000  0.67839200  1
  H  H80  1  0.38076200  0.69462700  0.06820900  1
  H  H81  1  0.05474600  0.89456400  0.75561100  1
  H  H82  1  0.94494900  0.59161900  0.94117600  1
  H  H83  1  0.19407600  0.91693100  0.15497600  1
  H  H84  1  0.02101200  0.74270100  0.63491100  1
  H  H85  1  0.29759700  0.04706700  0.14587500  1
  H  H86  1  0.55247800  0.94296100  0.39060400  1
  H  H87  1  0.51087500  0.50138900  0.29458200  1
  H  H88  1  0.40880900  0.55693800  0.02176700  1
  H  H89  1  0.20742000  0.76953200  0.32187400  1
  H  H90  1  0.61923800  0.30537300  0.93179100  1
  H  H91  1  0.82854200  0.98884800  0.24824800  1
  H  H92  1  0.86653400  0.72011300  0.86315400  1
  H  H93  1  0.52268200  0.12729900  0.11737900  1
  H  H94  1  0.49026600  0.26998200  0.15701200  1
  H  H95  1  0.80592400  0.08306900  0.84502400  1
  H  H96  1  0.57804700  0.92661100  0.08600600  1
  H  H97  1  0.70257300  0.19956400  0.45972700  1
  H  H98  1  0.74159500  0.41470900  0.93210800  1
  H  H99  1  0.58204500  0.14312600  0.22560400  1
  H  H100  1  0.50973400  0.73001800  0.84298800  1
  H  H101  1  0.65248500  0.09305100  0.89186300  1
  H  H102  1  0.27996900  0.45923100  0.64449000  1
  H  H103  1  0.78392000  0.86642700  0.70282500  1
  H  H104  1  0.10128900  0.02903500  0.48774400  1
  H  H105  1  0.94556900  0.38148600  0.87851900  1
  H  H106  1  0.86930600  0.37869000  0.66940400  1
  H  H107  1  0.44320900  0.14936100  0.69535900  1
  H  H108  1  0.70240300  0.95293300  0.85412500  1
  H  H109  1  0.55679100  0.85063900  0.30464100  1
  H  H110  1  0.21608000  0.13357300  0.29717500  1
  H  H111  1  0.35999800  0.51197700  0.24404300  1
  C  C112  1  0.50219500  0.87044100  0.36398700  1
  C  C113  1  0.04185700  0.32727500  0.38404000  1
  C  C114  1  0.49780500  0.12955900  0.63601300  1
  C  C115  1  0.08949100  0.96617400  0.79144300  1
  C  C116  1  0.42391400  0.56003000  0.28211800  1
  C  C117  1  0.23247000  0.61170600  0.83934000  1
  C  C118  1  0.34149800  0.13862000  0.91825300  1
  C  C119  1  0.76753000  0.38829400  0.16066000  1
  C  C120  1  0.23228100  0.39472700  0.60873200  1
  C  C121  1  0.60772700  0.23736100  0.43906600  1
  C  C122  1  0.84206500  0.90731200  0.48117400  1
  C  C123  1  0.65850200  0.86138000  0.08174700  1
  C  C124  1  0.00710100  0.29747200  0.87719600  1
  C  C125  1  0.91050900  0.03382600  0.20855700  1
  C  C126  1  0.72286300  0.80378700  0.67410500  1
  C  C127  1  0.56277000  0.19554000  0.15374800  1
  C  C128  1  0.95814300  0.67272500  0.61596000  1
  C  C129  1  0.88208000  0.67615000  0.93717400  1
  C  C130  1  0.99289900  0.70252800  0.12280400  1
  C  C131  1  0.76771900  0.60527300  0.39126800  1
  C  C132  1  0.19292200  0.67332500  0.36713300  1
  C  C133  1  0.27713700  0.19621300  0.32589500  1
  C  C134  1  0.57608600  0.43997000  0.71788200  1
  C  C135  1  0.80707800  0.32667500  0.63286700  1
  C  C136  1  0.39227300  0.76263900  0.56093400  1
  C  C137  1  0.66124100  0.36740200  0.97241000  1
  C  C138  1  0.33875900  0.63259800  0.02759000  1
  C  C139  1  0.73299000  0.02730100  0.88903900  1
  C  C140  1  0.43723000  0.80446000  0.84625200  1
  C  C141  1  0.11792000  0.32385000  0.06282600  1
  C  C142  1  0.26701000  0.97269900  0.11096100  1
  C  C143  1  0.15793500  0.09268800  0.51882600  1
