# generated using pymatgen
data_MgTi5
_symmetry_space_group_name_H-M   'P 1'
_cell_length_a   5.66663662
_cell_length_b   5.66663662
_cell_length_c   7.00717402
_cell_angle_alpha   75.76252526
_cell_angle_beta   75.76252526
_cell_angle_gamma   29.75932010
_symmetry_Int_Tables_number   1
_chemical_formula_structural   MgTi5
_chemical_formula_sum   'Mg1 Ti5'
_cell_volume   108.00666865
_cell_formula_units_Z   1
loop_
 _symmetry_equiv_pos_site_id
 _symmetry_equiv_pos_as_xyz
  1  'x, y, z'
loop_
 _atom_site_type_symbol
 _atom_site_label
 _atom_site_symmetry_multiplicity
 _atom_site_fract_x
 _atom_site_fract_y
 _atom_site_fract_z
 _atom_site_occupancy
  Mg  Mg0  1  0.60790000  0.60790000  0.28311300  1
  Ti  Ti1  1  0.00017000  0.00017000  0.98596900  1
  Ti  Ti2  1  0.33555500  0.33555500  0.33391000  1
  Ti  Ti3  1  0.93645300  0.93645300  0.61539400  1
  Ti  Ti4  1  0.66793500  0.66793500  0.67438800  1
  Ti  Ti5  1  0.28532100  0.28532100  0.94056000  1
