# generated using pymatgen
data_CdI2
_symmetry_space_group_name_H-M   'P 1'
_cell_length_a   4.33502321
_cell_length_b   4.33502321
_cell_length_c   129.43161600
_cell_angle_alpha   90.00000000
_cell_angle_beta   90.00000000
_cell_angle_gamma   119.99998797
_symmetry_Int_Tables_number   1
_chemical_formula_structural   CdI2
_chemical_formula_sum   'Cd17 I34'
_cell_volume   2106.46337449
_cell_formula_units_Z   17
loop_
 _symmetry_equiv_pos_site_id
 _symmetry_equiv_pos_as_xyz
  1  'x, y, z'
loop_
 _atom_site_type_symbol
 _atom_site_label
 _atom_site_symmetry_multiplicity
 _atom_site_fract_x
 _atom_site_fract_y
 _atom_site_fract_z
 _atom_site_occupancy
  Cd  Cd0  1  0.00000000  0.00000000  0.13239500  1
  Cd  Cd1  1  0.00000000  0.00000000  0.83823200  1
  Cd  Cd2  1  0.66666700  0.33333300  0.07352200  1
  Cd  Cd3  1  0.66666700  0.33333300  0.48526300  1
  Cd  Cd4  1  0.00000000  0.00000000  0.89704800  1
  Cd  Cd5  1  0.00000000  0.00000000  0.72061600  1
  Cd  Cd6  1  0.66666700  0.33333300  0.36767500  1
  Cd  Cd7  1  0.66666700  0.33333300  0.19113200  1
  Cd  Cd8  1  0.00000000  0.00000000  0.01472800  1
  Cd  Cd9  1  0.00000000  0.00000000  0.42649800  1
  Cd  Cd10  1  0.33333300  0.66666700  0.30883300  1
  Cd  Cd11  1  0.66666700  0.33333300  0.66177500  1
  Cd  Cd12  1  0.00000000  0.00000000  0.54407900  1
  Cd  Cd13  1  0.66666700  0.33333300  0.95585700  1
  Cd  Cd14  1  0.66666700  0.33333300  0.24997400  1
  Cd  Cd15  1  0.00000000  0.00000000  0.60293500  1
  Cd  Cd16  1  0.66666700  0.33333300  0.77943700  1
  I  I17  1  0.33333300  0.66666700  0.41319300  1
  I  I18  1  0.00000000  0.00000000  0.67507600  1
  I  I19  1  0.66666700  0.33333300  0.91035200  1
  I  I20  1  0.33333300  0.66666700  0.06022500  1
  I  I21  1  0.66666700  0.33333300  0.43980300  1
  I  I22  1  0.66666700  0.33333300  0.55737800  1
  I  I23  1  0.33333300  0.66666700  0.17782700  1
  I  I24  1  0.33333300  0.66666700  0.94256700  1
  I  I25  1  0.66666700  0.33333300  0.29552500  1
  I  I26  1  0.66666700  0.33333300  0.14569400  1
  I  I27  1  0.00000000  0.00000000  0.32213900  1
  I  I28  1  0.33333300  0.66666700  0.23666500  1
  I  I29  1  0.00000000  0.00000000  0.38097900  1
  I  I30  1  0.33333300  0.66666700  0.88373900  1
  I  I31  1  0.33333300  0.66666700  0.64848500  1
  I  I32  1  0.33333300  0.66666700  0.70731200  1
  I  I33  1  0.33333300  0.66666700  0.47195900  1
  I  I34  1  0.33333300  0.66666700  0.11909000  1
  I  I35  1  0.33333300  0.66666700  0.82493200  1
  I  I36  1  0.00000000  0.00000000  0.20444100  1
  I  I37  1  0.66666700  0.33333300  0.02803000  1
  I  I38  1  0.00000000  0.00000000  0.08682500  1
  I  I39  1  0.33333300  0.66666700  0.76613200  1
  I  I40  1  0.33333300  0.66666700  0.00142200  1
  I  I41  1  0.33333300  0.66666700  0.35436700  1
  I  I42  1  0.66666700  0.33333300  0.61624300  1
  I  I43  1  0.00000000  0.00000000  0.79274500  1
  I  I44  1  0.00000000  0.00000000  0.96915800  1
  I  I45  1  0.33333300  0.66666700  0.58962300  1
  I  I46  1  0.66666700  0.33333300  0.73391500  1
  I  I47  1  0.00000000  0.00000000  0.49856100  1
  I  I48  1  0.66666700  0.33333300  0.85153500  1
  I  I49  1  0.33333300  0.66666700  0.53078500  1
  I  I50  1  0.00000000  0.00000000  0.26327800  1
