# generated using pymatgen
data_BN
_symmetry_space_group_name_H-M   'P 1'
_cell_length_a   4.93859300
_cell_length_b   3.92705000
_cell_length_c   4.94150360
_cell_angle_alpha   68.04205984
_cell_angle_beta   90.00000000
_cell_angle_gamma   90.00000000
_symmetry_Int_Tables_number   1
_chemical_formula_structural   BN
_chemical_formula_sum   'B4 N4'
_cell_volume   88.88394358
_cell_formula_units_Z   4
loop_
 _symmetry_equiv_pos_site_id
 _symmetry_equiv_pos_as_xyz
  1  'x, y, z'
loop_
 _atom_site_type_symbol
 _atom_site_label
 _atom_site_symmetry_multiplicity
 _atom_site_fract_x
 _atom_site_fract_y
 _atom_site_fract_z
 _atom_site_occupancy
  B  B0  1  0.64223700  0.49972900  0.64202900  1
  B  B1  1  0.35776300  0.50027100  0.35797100  1
  B  B2  1  0.14223700  0.50027100  0.85797100  1
  B  B3  1  0.85776300  0.49972900  0.14202900  1
  N  N4  1  0.65654700  0.49896600  0.34355900  1
  N  N5  1  0.84345300  0.49896600  0.84355900  1
  N  N6  1  0.34345300  0.50103400  0.65644100  1
  N  N7  1  0.15654700  0.50103400  0.15644100  1
