# generated using pymatgen
data_MgCl2
_symmetry_space_group_name_H-M   'P 1'
_cell_length_a   4.45646242
_cell_length_b   4.45646242
_cell_length_c   9.55426300
_cell_angle_alpha   90.00000000
_cell_angle_beta   90.00000000
_cell_angle_gamma   123.07881221
_symmetry_Int_Tables_number   1
_chemical_formula_structural   MgCl2
_chemical_formula_sum   'Mg2 Cl4'
_cell_volume   158.99393533
_cell_formula_units_Z   2
loop_
 _symmetry_equiv_pos_site_id
 _symmetry_equiv_pos_as_xyz
  1  'x, y, z'
loop_
 _atom_site_type_symbol
 _atom_site_label
 _atom_site_symmetry_multiplicity
 _atom_site_fract_x
 _atom_site_fract_y
 _atom_site_fract_z
 _atom_site_occupancy
  Mg  Mg0  1  0.02024400  0.05531800  0.25000000  1
  Mg  Mg1  1  0.05531800  0.02024400  0.75000000  1
  Cl  Cl2  1  0.35707900  0.72967700  0.25000000  1
  Cl  Cl3  1  0.07084100  0.07084100  0.50000000  1
  Cl  Cl4  1  0.07084100  0.07084100  0.00000000  1
  Cl  Cl5  1  0.72967700  0.35707900  0.75000000  1
