# generated using pymatgen
data_CdI2
_symmetry_space_group_name_H-M   'P 1'
_cell_length_a   4.33749760
_cell_length_b   4.33749760
_cell_length_c   125.80690100
_cell_angle_alpha   90.00000000
_cell_angle_beta   90.00000000
_cell_angle_gamma   119.99999397
_symmetry_Int_Tables_number   1
_chemical_formula_structural   CdI2
_chemical_formula_sum   'Cd16 I32'
_cell_volume   2049.81005181
_cell_formula_units_Z   16
loop_
 _symmetry_equiv_pos_site_id
 _symmetry_equiv_pos_as_xyz
  1  'x, y, z'
loop_
 _atom_site_type_symbol
 _atom_site_label
 _atom_site_symmetry_multiplicity
 _atom_site_fract_x
 _atom_site_fract_y
 _atom_site_fract_z
 _atom_site_occupancy
  Cd  Cd0  1  0.00000000  0.00000000  0.76564300  1
  Cd  Cd1  1  0.00000000  0.00000000  0.14059600  1
  Cd  Cd2  1  0.00000000  0.00000000  0.01563000  1
  Cd  Cd3  1  0.33333300  0.66666700  0.32811700  1
  Cd  Cd4  1  0.33333300  0.66666700  0.70316200  1
  Cd  Cd5  1  0.33333300  0.66666700  0.57812400  1
  Cd  Cd6  1  0.00000000  0.00000000  0.26563800  1
  Cd  Cd7  1  0.33333300  0.66666700  0.45305200  1
  Cd  Cd8  1  0.00000000  0.00000000  0.64059300  1
  Cd  Cd9  1  0.00000000  0.00000000  0.82813600  1
  Cd  Cd10  1  0.00000000  0.00000000  0.39069100  1
  Cd  Cd11  1  0.00000000  0.00000000  0.51563300  1
  Cd  Cd12  1  0.33333300  0.66666700  0.20317200  1
  Cd  Cd13  1  0.33333300  0.66666700  0.07811300  1
  Cd  Cd14  1  0.33333300  0.66666700  0.89063400  1
  Cd  Cd15  1  0.00000000  0.00000000  0.95310900  1
  I  I16  1  0.00000000  0.00000000  0.87698300  1
  I  I17  1  0.66666700  0.33333300  0.02928700  1
  I  I18  1  0.66666700  0.33333300  0.27929900  1
  I  I19  1  0.66666700  0.33333300  0.52929200  1
  I  I20  1  0.00000000  0.00000000  0.18947600  1
  I  I21  1  0.33333300  0.66666700  0.37703600  1
  I  I22  1  0.33333300  0.66666700  0.93946300  1
  I  I23  1  0.66666700  0.33333300  0.15429400  1
  I  I24  1  0.66666700  0.33333300  0.65427800  1
  I  I25  1  0.66666700  0.33333300  0.09175400  1
  I  I26  1  0.66666700  0.33333300  0.71680800  1
  I  I27  1  0.00000000  0.00000000  0.31436500  1
  I  I28  1  0.66666700  0.33333300  0.46672500  1
  I  I29  1  0.00000000  0.00000000  0.68948700  1
  I  I30  1  0.00000000  0.00000000  0.06446400  1
  I  I31  1  0.66666700  0.33333300  0.90429400  1
  I  I32  1  0.33333300  0.66666700  0.25198500  1
  I  I33  1  0.33333300  0.66666700  0.50198300  1
  I  I34  1  0.00000000  0.00000000  0.56447700  1
  I  I35  1  0.66666700  0.33333300  0.77930100  1
  I  I36  1  0.33333300  0.66666700  0.75199100  1
  I  I37  1  0.33333300  0.66666700  0.12690400  1
  I  I38  1  0.33333300  0.66666700  0.81446400  1
  I  I39  1  0.66666700  0.33333300  0.40434200  1
  I  I40  1  0.66666700  0.33333300  0.21684700  1
  I  I41  1  0.33333300  0.66666700  0.00198500  1
  I  I42  1  0.66666700  0.33333300  0.96675000  1
  I  I43  1  0.00000000  0.00000000  0.43937200  1
  I  I44  1  0.66666700  0.33333300  0.84180600  1
  I  I45  1  0.33333300  0.66666700  0.62692500  1
  I  I46  1  0.66666700  0.33333300  0.59176400  1
  I  I47  1  0.66666700  0.33333300  0.34183700  1
