# generated using pymatgen
data_HfCr2
_symmetry_space_group_name_H-M   'P 1'
_cell_length_a   5.03879880
_cell_length_b   5.03879880
_cell_length_c   8.09511100
_cell_angle_alpha   90.00000000
_cell_angle_beta   90.00000000
_cell_angle_gamma   120.00001055
_symmetry_Int_Tables_number   1
_chemical_formula_structural   HfCr2
_chemical_formula_sum   'Hf4 Cr8'
_cell_volume   177.99484669
_cell_formula_units_Z   4
loop_
 _symmetry_equiv_pos_site_id
 _symmetry_equiv_pos_as_xyz
  1  'x, y, z'
loop_
 _atom_site_type_symbol
 _atom_site_label
 _atom_site_symmetry_multiplicity
 _atom_site_fract_x
 _atom_site_fract_y
 _atom_site_fract_z
 _atom_site_occupancy
  Hf  Hf0  1  0.33333300  0.66666700  0.43969300  1
  Hf  Hf1  1  0.66666700  0.33333300  0.56030700  1
  Hf  Hf2  1  0.66666700  0.33333300  0.93969300  1
  Hf  Hf3  1  0.33333300  0.66666700  0.06030700  1
  Cr  Cr4  1  0.00000000  0.00000000  0.50000000  1
  Cr  Cr5  1  0.00000000  0.00000000  0.00000000  1
  Cr  Cr6  1  0.83115700  0.16884300  0.25000000  1
  Cr  Cr7  1  0.83115700  0.66231500  0.25000000  1
  Cr  Cr8  1  0.33768500  0.16884300  0.25000000  1
  Cr  Cr9  1  0.16884300  0.83115700  0.75000000  1
  Cr  Cr10  1  0.16884300  0.33768500  0.75000000  1
  Cr  Cr11  1  0.66231500  0.83115700  0.75000000  1
