# generated using pymatgen
data_Ca3SiBr2
_symmetry_space_group_name_H-M   'P 1'
_cell_length_a   11.98536911
_cell_length_b   11.98536911
_cell_length_c   11.98536908
_cell_angle_alpha   20.59381566
_cell_angle_beta   20.59381566
_cell_angle_gamma   20.59381437
_symmetry_Int_Tables_number   1
_chemical_formula_structural   Ca3SiBr2
_chemical_formula_sum   'Ca3 Si1 Br2'
_cell_volume   186.45712542
_cell_formula_units_Z   1
loop_
 _symmetry_equiv_pos_site_id
 _symmetry_equiv_pos_as_xyz
  1  'x, y, z'
loop_
 _atom_site_type_symbol
 _atom_site_label
 _atom_site_symmetry_multiplicity
 _atom_site_fract_x
 _atom_site_fract_y
 _atom_site_fract_z
 _atom_site_occupancy
  Ca  Ca0  1  0.11945400  0.11945400  0.11945400  1
  Ca  Ca1  1  0.99618400  0.99618400  0.99618400  1
  Ca  Ca2  1  0.90453300  0.90453300  0.90453300  1
  Si  Si3  1  0.28388000  0.28388000  0.28388000  1
  Br  Br4  1  0.50028000  0.50028000  0.50028000  1
  Br  Br5  1  0.73867000  0.73867000  0.73867000  1
