# generated using pymatgen
data_Mg3Ti
_symmetry_space_group_name_H-M   'P 1'
_cell_length_a   5.96871274
_cell_length_b   5.96871274
_cell_length_c   5.96871274
_cell_angle_alpha   150.19858508
_cell_angle_beta   125.96808376
_cell_angle_gamma   62.92942389
_symmetry_Int_Tables_number   1
_chemical_formula_structural   Mg3Ti
_chemical_formula_sum   'Mg3 Ti1'
_cell_volume   84.74094684
_cell_formula_units_Z   1
loop_
 _symmetry_equiv_pos_site_id
 _symmetry_equiv_pos_as_xyz
  1  'x, y, z'
loop_
 _atom_site_type_symbol
 _atom_site_label
 _atom_site_symmetry_multiplicity
 _atom_site_fract_x
 _atom_site_fract_y
 _atom_site_fract_z
 _atom_site_occupancy
  Mg  Mg0  1  0.16742100  0.50000000  0.66742100  1
  Mg  Mg1  1  0.24999000  0.25037100  0.99962000  1
  Mg  Mg2  1  0.74924900  0.74962900  0.99962000  1
  Ti  Ti3  1  0.66667300  0.00000000  0.66667300  1
