# generated using pymatgen
data_PtN2
_symmetry_space_group_name_H-M   'P 1'
_cell_length_a   3.20025600
_cell_length_b   3.76441500
_cell_length_c   4.87588000
_cell_angle_alpha   90.00000000
_cell_angle_beta   90.00000000
_cell_angle_gamma   90.00000000
_symmetry_Int_Tables_number   1
_chemical_formula_structural   PtN2
_chemical_formula_sum   'Pt2 N4'
_cell_volume   58.74017343
_cell_formula_units_Z   2
loop_
 _symmetry_equiv_pos_site_id
 _symmetry_equiv_pos_as_xyz
  1  'x, y, z'
loop_
 _atom_site_type_symbol
 _atom_site_label
 _atom_site_symmetry_multiplicity
 _atom_site_fract_x
 _atom_site_fract_y
 _atom_site_fract_z
 _atom_site_occupancy
  Pt  Pt0  1  0.00000000  0.00000000  0.00000000  1
  Pt  Pt1  1  0.50000000  0.50000000  0.50000000  1
  N  N2  1  0.50000000  0.35094200  0.91489000  1
  N  N3  1  0.50000000  0.64905800  0.08511000  1
  N  N4  1  0.00000000  0.14905800  0.41489000  1
  N  N5  1  0.00000000  0.85094200  0.58511000  1
