# generated using pymatgen
data_Np3Se4
_symmetry_space_group_name_H-M   'P 1'
_cell_length_a   7.27585700
_cell_length_b   7.27585700
_cell_length_c   7.27585700
_cell_angle_alpha   109.47122063
_cell_angle_beta   109.47122063
_cell_angle_gamma   109.47122063
_symmetry_Int_Tables_number   1
_chemical_formula_structural   Np3Se4
_chemical_formula_sum   'Np6 Se8'
_cell_volume   296.50401222
_cell_formula_units_Z   2
loop_
 _symmetry_equiv_pos_site_id
 _symmetry_equiv_pos_as_xyz
  1  'x, y, z'
loop_
 _atom_site_type_symbol
 _atom_site_label
 _atom_site_symmetry_multiplicity
 _atom_site_fract_x
 _atom_site_fract_y
 _atom_site_fract_z
 _atom_site_occupancy
  Np  Np0  1  0.25000000  0.12500000  0.87500000  1
  Np  Np1  1  0.12500000  0.87500000  0.25000000  1
  Np  Np2  1  0.75000000  0.37500000  0.62500000  1
  Np  Np3  1  0.87500000  0.25000000  0.12500000  1
  Np  Np4  1  0.62500000  0.75000000  0.37500000  1
  Np  Np5  1  0.37500000  0.62500000  0.75000000  1
  Se  Se6  1  0.50000000  0.00000000  0.65361200  1
  Se  Se7  1  0.00000000  0.65361200  0.50000000  1
  Se  Se8  1  0.65361200  0.50000000  0.00000000  1
  Se  Se9  1  0.00000000  0.15361200  0.50000000  1
  Se  Se10  1  0.84638800  0.84638800  0.84638800  1
  Se  Se11  1  0.34638800  0.34638800  0.34638800  1
  Se  Se12  1  0.15361200  0.50000000  0.00000000  1
  Se  Se13  1  0.50000000  0.00000000  0.15361200  1
