# generated using pymatgen
data_Y5Mg
_symmetry_space_group_name_H-M   'P 1'
_cell_length_a   6.65398051
_cell_length_b   6.65398051
_cell_length_c   8.35817438
_cell_angle_alpha   76.70388313
_cell_angle_beta   76.70388313
_cell_angle_gamma   31.29067598
_symmetry_Int_Tables_number   1
_chemical_formula_structural   Y5Mg
_chemical_formula_sum   'Y5 Mg1'
_cell_volume   186.64060775
_cell_formula_units_Z   1
loop_
 _symmetry_equiv_pos_site_id
 _symmetry_equiv_pos_as_xyz
  1  'x, y, z'
loop_
 _atom_site_type_symbol
 _atom_site_label
 _atom_site_symmetry_multiplicity
 _atom_site_fract_x
 _atom_site_fract_y
 _atom_site_fract_z
 _atom_site_occupancy
  Y  Y0  1  0.00126200  0.00126200  0.00822500  1
  Y  Y1  1  0.32443600  0.32443600  0.33172700  1
  Y  Y2  1  0.94829100  0.94829100  0.60027100  1
  Y  Y3  1  0.67024200  0.67024200  0.66979700  1
  Y  Y4  1  0.28073900  0.28073900  0.94401800  1
  Mg  Mg5  1  0.60836200  0.60836200  0.27929500  1
