# generated using pymatgen
data_CdI2
_symmetry_space_group_name_H-M   'P 1'
_cell_length_a   4.33334401
_cell_length_b   4.33334401
_cell_length_c   37.01754000
_cell_angle_alpha   90.00000000
_cell_angle_beta   90.00000000
_cell_angle_gamma   120.00000017
_symmetry_Int_Tables_number   1
_chemical_formula_structural   CdI2
_chemical_formula_sum   'Cd5 I10'
_cell_volume   601.98340722
_cell_formula_units_Z   5
loop_
 _symmetry_equiv_pos_site_id
 _symmetry_equiv_pos_as_xyz
  1  'x, y, z'
loop_
 _atom_site_type_symbol
 _atom_site_label
 _atom_site_symmetry_multiplicity
 _atom_site_fract_x
 _atom_site_fract_y
 _atom_site_fract_z
 _atom_site_occupancy
  Cd  Cd0  1  0.00000000  0.00000000  0.05002400  1
  Cd  Cd1  1  0.00000000  0.00000000  0.44997000  1
  Cd  Cd2  1  0.66666700  0.33333300  0.85001000  1
  Cd  Cd3  1  0.66666700  0.33333300  0.65005000  1
  Cd  Cd4  1  0.00000000  0.00000000  0.24993100  1
  I  I5  1  0.33333300  0.66666700  0.60344100  1
  I  I6  1  0.33333300  0.66666700  0.20328800  1
  I  I7  1  0.00000000  0.00000000  0.89663500  1
  I  I8  1  0.66666700  0.33333300  0.09665500  1
  I  I9  1  0.33333300  0.66666700  0.00341900  1
  I  I10  1  0.00000000  0.00000000  0.69667100  1
  I  I11  1  0.33333300  0.66666700  0.40334000  1
  I  I12  1  0.66666700  0.33333300  0.29657300  1
  I  I13  1  0.33333300  0.66666700  0.80338000  1
  I  I14  1  0.66666700  0.33333300  0.49661100  1
