# generated using pymatgen
data_SeBr
_symmetry_space_group_name_H-M   'P 1'
_cell_length_a   4.46974556
_cell_length_b   4.46974556
_cell_length_c   15.11222500
_cell_angle_alpha   90.00000000
_cell_angle_beta   90.00000000
_cell_angle_gamma   106.17084383
_symmetry_Int_Tables_number   1
_chemical_formula_structural   SeBr
_chemical_formula_sum   'Se4 Br4'
_cell_volume   289.97611883
_cell_formula_units_Z   4
loop_
 _symmetry_equiv_pos_site_id
 _symmetry_equiv_pos_as_xyz
  1  'x, y, z'
loop_
 _atom_site_type_symbol
 _atom_site_label
 _atom_site_symmetry_multiplicity
 _atom_site_fract_x
 _atom_site_fract_y
 _atom_site_fract_z
 _atom_site_occupancy
  Se  Se0  1  0.31474100  0.07361900  0.45127000  1
  Se  Se1  1  0.57361900  0.81474100  0.95127000  1
  Se  Se2  1  0.81474100  0.57361900  0.04873000  1
  Se  Se3  1  0.07361900  0.31474100  0.54873000  1
  Br  Br4  1  0.05267300  0.93376700  0.16483800  1
  Br  Br5  1  0.55267300  0.43376700  0.33516200  1
  Br  Br6  1  0.93376700  0.05267300  0.83516200  1
  Br  Br7  1  0.43376700  0.55267300  0.66483800  1
