# generated using pymatgen
data_Ta5Si3
_symmetry_space_group_name_H-M   'P 1'
_cell_length_a   7.52763378
_cell_length_b   7.52763378
_cell_length_c   7.52763378
_cell_angle_alpha   96.65981572
_cell_angle_beta   96.65981572
_cell_angle_gamma   140.17925410
_symmetry_Int_Tables_number   1
_chemical_formula_structural   Ta5Si3
_chemical_formula_sum   'Ta10 Si6'
_cell_volume   256.83310761
_cell_formula_units_Z   2
loop_
 _symmetry_equiv_pos_site_id
 _symmetry_equiv_pos_as_xyz
  1  'x, y, z'
loop_
 _atom_site_type_symbol
 _atom_site_label
 _atom_site_symmetry_multiplicity
 _atom_site_fract_x
 _atom_site_fract_y
 _atom_site_fract_z
 _atom_site_occupancy
  Ta  Ta0  1  0.27983200  0.57500600  0.85483800  1
  Ta  Ta1  1  0.25000000  0.75000000  0.50000000  1
  Ta  Ta2  1  0.22016800  0.07500600  0.29517300  1
  Ta  Ta3  1  0.77983200  0.92499400  0.70482700  1
  Ta  Ta4  1  0.75000000  0.25000000  0.50000000  1
  Ta  Ta5  1  0.57500600  0.72016800  0.29517300  1
  Ta  Ta6  1  0.72016800  0.42499400  0.14516200  1
  Ta  Ta7  1  0.07500600  0.77983200  0.85483800  1
  Ta  Ta8  1  0.42499400  0.27983200  0.70482700  1
  Ta  Ta9  1  0.92499400  0.22016800  0.14516200  1
  Si  Si10  1  0.66557300  0.16557300  0.83114600  1
  Si  Si11  1  0.75000000  0.75000000  0.00000000  1
  Si  Si12  1  0.83442700  0.66557300  0.50000000  1
  Si  Si13  1  0.33442700  0.83442700  0.16885400  1
  Si  Si14  1  0.25000000  0.25000000  0.00000000  1
  Si  Si15  1  0.16557300  0.33442700  0.50000000  1
