# generated using pymatgen
data_Y2Mg
_symmetry_space_group_name_H-M   'P 1'
_cell_length_a   6.01566072
_cell_length_b   6.01566072
_cell_length_c   6.67258799
_cell_angle_alpha   61.95471392
_cell_angle_beta   61.95471392
_cell_angle_gamma   60.23339438
_symmetry_Int_Tables_number   1
_chemical_formula_structural   Y2Mg
_chemical_formula_sum   'Y4 Mg2'
_cell_volume   175.94090691
_cell_formula_units_Z   2
loop_
 _symmetry_equiv_pos_site_id
 _symmetry_equiv_pos_as_xyz
  1  'x, y, z'
loop_
 _atom_site_type_symbol
 _atom_site_label
 _atom_site_symmetry_multiplicity
 _atom_site_fract_x
 _atom_site_fract_y
 _atom_site_fract_z
 _atom_site_occupancy
  Y  Y0  1  0.23694000  0.42386700  0.74506300  1
  Y  Y1  1  0.57613300  0.76306000  0.75493700  1
  Y  Y2  1  0.42386700  0.23694000  0.24506300  1
  Y  Y3  1  0.76306000  0.57613300  0.25493700  1
  Mg  Mg4  1  0.08420900  0.91579100  0.25000000  1
  Mg  Mg5  1  0.91579100  0.08420900  0.75000000  1
