# generated using pymatgen
data_Y2Mg
_symmetry_space_group_name_H-M   'P 1'
_cell_length_a   6.68675585
_cell_length_b   6.68675585
_cell_length_c   8.09046321
_cell_angle_alpha   75.91615168
_cell_angle_beta   75.91615168
_cell_angle_gamma   30.87532219
_symmetry_Int_Tables_number   1
_chemical_formula_structural   Y2Mg
_chemical_formula_sum   'Y4 Mg2'
_cell_volume   179.62521440
_cell_formula_units_Z   2
loop_
 _symmetry_equiv_pos_site_id
 _symmetry_equiv_pos_as_xyz
  1  'x, y, z'
loop_
 _atom_site_type_symbol
 _atom_site_label
 _atom_site_symmetry_multiplicity
 _atom_site_fract_x
 _atom_site_fract_y
 _atom_site_fract_z
 _atom_site_occupancy
  Y  Y0  1  0.30255400  0.30255400  0.14323600  1
  Y  Y1  1  0.02395200  0.02395200  0.20617800  1
  Y  Y2  1  0.97604800  0.97604800  0.79382200  1
  Y  Y3  1  0.69744600  0.69744600  0.85676400  1
  Mg  Mg4  1  0.64109300  0.64109300  0.47505300  1
  Mg  Mg5  1  0.35890700  0.35890700  0.52494700  1
