# generated using pymatgen
data_NbI3
_symmetry_space_group_name_H-M   'P 1'
_cell_length_a   7.85594034
_cell_length_b   7.85594034
_cell_length_c   6.78340400
_cell_angle_alpha   90.00000000
_cell_angle_beta   90.00000000
_cell_angle_gamma   120.00000284
_symmetry_Int_Tables_number   1
_chemical_formula_structural   NbI3
_chemical_formula_sum   'Nb2 I6'
_cell_volume   362.55563159
_cell_formula_units_Z   2
loop_
 _symmetry_equiv_pos_site_id
 _symmetry_equiv_pos_as_xyz
  1  'x, y, z'
loop_
 _atom_site_type_symbol
 _atom_site_label
 _atom_site_symmetry_multiplicity
 _atom_site_fract_x
 _atom_site_fract_y
 _atom_site_fract_z
 _atom_site_occupancy
  Nb  Nb0  1  0.00000000  0.00000000  0.00000000  1
  Nb  Nb1  1  0.00000000  0.00000000  0.50000000  1
  I  I2  1  0.71008300  0.00000000  0.75000000  1
  I  I3  1  0.00000000  0.28991700  0.25000000  1
  I  I4  1  0.28991700  0.00000000  0.25000000  1
  I  I5  1  0.00000000  0.71008300  0.75000000  1
  I  I6  1  0.71008300  0.71008300  0.25000000  1
  I  I7  1  0.28991700  0.28991700  0.75000000  1
