# generated using pymatgen
data_CaC2
_symmetry_space_group_name_H-M   'P 1'
_cell_length_a   6.08074500
_cell_length_b   6.08074500
_cell_length_c   6.08074500
_cell_angle_alpha   90.00000000
_cell_angle_beta   90.00000000
_cell_angle_gamma   90.00000000
_symmetry_Int_Tables_number   1
_chemical_formula_structural   CaC2
_chemical_formula_sum   'Ca4 C8'
_cell_volume   224.83834203
_cell_formula_units_Z   4
loop_
 _symmetry_equiv_pos_site_id
 _symmetry_equiv_pos_as_xyz
  1  'x, y, z'
loop_
 _atom_site_type_symbol
 _atom_site_label
 _atom_site_symmetry_multiplicity
 _atom_site_fract_x
 _atom_site_fract_y
 _atom_site_fract_z
 _atom_site_occupancy
  Ca  Ca0  1  0.75000000  0.75000000  0.25000000  1
  Ca  Ca1  1  0.25000000  0.25000000  0.25000000  1
  Ca  Ca2  1  0.75000000  0.25000000  0.75000000  1
  Ca  Ca3  1  0.25000000  0.75000000  0.75000000  1
  C  C4  1  0.09113900  0.90886100  0.09113900  1
  C  C5  1  0.59113900  0.40886100  0.40886100  1
  C  C6  1  0.59113900  0.59113900  0.59113900  1
  C  C7  1  0.90886100  0.09113900  0.09113900  1
  C  C8  1  0.09113900  0.09113900  0.90886100  1
  C  C9  1  0.40886100  0.40886100  0.59113900  1
  C  C10  1  0.90886100  0.90886100  0.90886100  1
  C  C11  1  0.40886100  0.59113900  0.40886100  1
