# generated using pymatgen
data_MgZn2
_symmetry_space_group_name_H-M   'P 1'
_cell_length_a   2.98676357
_cell_length_b   2.98676357
_cell_length_c   13.52645800
_cell_angle_alpha   90.00000000
_cell_angle_beta   90.00000000
_cell_angle_gamma   119.99999043
_symmetry_Int_Tables_number   1
_chemical_formula_structural   MgZn2
_chemical_formula_sum   'Mg2 Zn4'
_cell_volume   104.50003896
_cell_formula_units_Z   2
loop_
 _symmetry_equiv_pos_site_id
 _symmetry_equiv_pos_as_xyz
  1  'x, y, z'
loop_
 _atom_site_type_symbol
 _atom_site_label
 _atom_site_symmetry_multiplicity
 _atom_site_fract_x
 _atom_site_fract_y
 _atom_site_fract_z
 _atom_site_occupancy
  Mg  Mg0  1  0.33333300  0.66666700  0.75000000  1
  Mg  Mg1  1  0.66666700  0.33333300  0.25000000  1
  Zn  Zn2  1  0.66666700  0.33333300  0.92299100  1
  Zn  Zn3  1  0.66666700  0.33333300  0.57700900  1
  Zn  Zn4  1  0.33333300  0.66666700  0.42299100  1
  Zn  Zn5  1  0.33333300  0.66666700  0.07700900  1
