# generated using pymatgen
data_BeCl2
_symmetry_space_group_name_H-M   'P 1'
_cell_length_a   12.02563707
_cell_length_b   12.02563707
_cell_length_c   12.02563707
_cell_angle_alpha   124.67680552
_cell_angle_beta   124.67680552
_cell_angle_gamma   82.07404038
_symmetry_Int_Tables_number   1
_chemical_formula_structural   BeCl2
_chemical_formula_sum   'Be16 Cl32'
_cell_volume   1130.89183274
_cell_formula_units_Z   16
loop_
 _symmetry_equiv_pos_site_id
 _symmetry_equiv_pos_as_xyz
  1  'x, y, z'
loop_
 _atom_site_type_symbol
 _atom_site_label
 _atom_site_symmetry_multiplicity
 _atom_site_fract_x
 _atom_site_fract_y
 _atom_site_fract_z
 _atom_site_occupancy
  Be  Be0  1  0.81110600  0.01275000  0.95141900  1
  Be  Be1  1  0.06133100  0.85968700  0.04858100  1
  Be  Be2  1  0.98725000  0.93866900  0.79835600  1
  Be  Be3  1  0.76275000  0.31133100  0.70164400  1
  Be  Be4  1  0.26275000  0.56110600  0.45141900  1
  Be  Be5  1  0.43889400  0.89031300  0.70164400  1
  Be  Be6  1  0.18866900  0.73725000  0.29835600  1
  Be  Be7  1  0.56133100  0.51275000  0.20164400  1
  Be  Be8  1  0.93889400  0.23725000  0.54858100  1
  Be  Be9  1  0.10968700  0.81133100  0.54858100  1
  Be  Be10  1  0.14031300  0.18889400  0.20164400  1
  Be  Be11  1  0.31110600  0.35968700  0.79835600  1
  Be  Be12  1  0.60968700  0.06110600  0.29835600  1
  Be  Be13  1  0.68866900  0.39031300  0.45141900  1
  Be  Be14  1  0.64031300  0.43866900  0.95141900  1
  Be  Be15  1  0.48725000  0.68889400  0.04858100  1
  Cl  Cl16  1  0.95873300  0.87500000  0.58373300  1
  Cl  Cl17  1  0.79126700  0.37500000  0.91626700  1
  Cl  Cl18  1  0.63081300  0.63081300  0.00000000  1
  Cl  Cl19  1  0.04287000  0.79752200  0.34107200  1
  Cl  Cl20  1  0.95179800  0.20645000  0.15892800  1
  Cl  Cl21  1  0.61918700  0.11918700  0.50000000  1
  Cl  Cl22  1  0.45645000  0.70179800  0.65892800  1
  Cl  Cl23  1  0.54287000  0.20179800  0.24534800  1
  Cl  Cl24  1  0.62500000  0.04126700  0.91626700  1
  Cl  Cl25  1  0.88081300  0.38081300  0.50000000  1
  Cl  Cl26  1  0.79355000  0.95247800  0.74534800  1
  Cl  Cl27  1  0.70713000  0.45247800  0.15892800  1
  Cl  Cl28  1  0.45873300  0.87500000  0.08373300  1
  Cl  Cl29  1  0.86918700  0.86918700  0.00000000  1
  Cl  Cl30  1  0.62500000  0.54126700  0.41626700  1
  Cl  Cl31  1  0.79820200  0.04355000  0.34107200  1
  Cl  Cl32  1  0.11918700  0.61918700  0.50000000  1
  Cl  Cl33  1  0.54752200  0.70645000  0.25465200  1
  Cl  Cl34  1  0.70247800  0.45713000  0.65892800  1
  Cl  Cl35  1  0.20713000  0.04820200  0.25465200  1
  Cl  Cl36  1  0.29820200  0.95713000  0.75465200  1
  Cl  Cl37  1  0.12500000  0.70873300  0.08373300  1
  Cl  Cl38  1  0.29126700  0.37500000  0.41626700  1
  Cl  Cl39  1  0.45179800  0.29287000  0.74534800  1
  Cl  Cl40  1  0.95645000  0.29752200  0.75465200  1
  Cl  Cl41  1  0.04752200  0.79287000  0.84107200  1
  Cl  Cl42  1  0.36918700  0.36918700  0.00000000  1
  Cl  Cl43  1  0.29355000  0.54820200  0.84107200  1
  Cl  Cl44  1  0.20247800  0.54355000  0.24534800  1
  Cl  Cl45  1  0.13081300  0.13081300  0.00000000  1
  Cl  Cl46  1  0.12500000  0.20873300  0.58373300  1
  Cl  Cl47  1  0.38081300  0.88081300  0.50000000  1
