# generated using pymatgen
data_Mg5Zn
_symmetry_space_group_name_H-M   'P 1'
_cell_length_a   8.21946164
_cell_length_b   8.21946164
_cell_length_c   5.02660200
_cell_angle_alpha   90.00000000
_cell_angle_beta   90.00000000
_cell_angle_gamma   157.87657103
_symmetry_Int_Tables_number   1
_chemical_formula_structural   Mg5Zn
_chemical_formula_sum   'Mg5 Zn1'
_cell_volume   127.89251781
_cell_formula_units_Z   1
loop_
 _symmetry_equiv_pos_site_id
 _symmetry_equiv_pos_as_xyz
  1  'x, y, z'
loop_
 _atom_site_type_symbol
 _atom_site_label
 _atom_site_symmetry_multiplicity
 _atom_site_fract_x
 _atom_site_fract_y
 _atom_site_fract_z
 _atom_site_occupancy
  Mg  Mg0  1  0.00052300  0.99947700  0.50000000  1
  Mg  Mg1  1  0.32942200  0.67057800  0.50000000  1
  Mg  Mg2  1  0.66961000  0.33039000  0.50000000  1
  Mg  Mg3  1  0.43886900  0.56113100  0.00000000  1
  Mg  Mg4  1  0.11750900  0.88249100  0.00000000  1
  Zn  Zn5  1  0.77739900  0.22260100  0.00000000  1
