# generated using pymatgen
data_Mg2Zn
_symmetry_space_group_name_H-M   'P 1'
_cell_length_a   3.09261238
_cell_length_b   3.09261238
_cell_length_c   14.58246800
_cell_angle_alpha   90.00000000
_cell_angle_beta   90.00000000
_cell_angle_gamma   120.00000822
_symmetry_Int_Tables_number   1
_chemical_formula_structural   Mg2Zn
_chemical_formula_sum   'Mg4 Zn2'
_cell_volume   120.78489029
_cell_formula_units_Z   2
loop_
 _symmetry_equiv_pos_site_id
 _symmetry_equiv_pos_as_xyz
  1  'x, y, z'
loop_
 _atom_site_type_symbol
 _atom_site_label
 _atom_site_symmetry_multiplicity
 _atom_site_fract_x
 _atom_site_fract_y
 _atom_site_fract_z
 _atom_site_occupancy
  Mg  Mg0  1  0.00000000  0.00000000  0.50000000  1
  Mg  Mg1  1  0.66666700  0.33333300  0.31679200  1
  Mg  Mg2  1  0.66666700  0.33333300  0.00000000  1
  Mg  Mg3  1  0.66666700  0.33333300  0.68320800  1
  Zn  Zn4  1  0.00000000  0.00000000  0.15861600  1
  Zn  Zn5  1  0.00000000  0.00000000  0.84138400  1
