# generated using pymatgen
data_Ga2Os
_symmetry_space_group_name_H-M   'P 1'
_cell_length_a   6.06111485
_cell_length_b   5.00492511
_cell_length_c   4.80974470
_cell_angle_alpha   76.24698507
_cell_angle_beta   53.32812427
_cell_angle_gamma   50.42489065
_symmetry_Int_Tables_number   1
_chemical_formula_structural   Ga2Os
_chemical_formula_sum   'Ga4 Os2'
_cell_volume   87.76512784
_cell_formula_units_Z   2
loop_
 _symmetry_equiv_pos_site_id
 _symmetry_equiv_pos_as_xyz
  1  'x, y, z'
loop_
 _atom_site_type_symbol
 _atom_site_label
 _atom_site_symmetry_multiplicity
 _atom_site_fract_x
 _atom_site_fract_y
 _atom_site_fract_z
 _atom_site_occupancy
  Ga  Ga0  1  0.41823900  0.08176100  0.41823900  1
  Ga  Ga1  1  0.08176100  0.41823900  0.08176100  1
  Ga  Ga2  1  0.83176100  0.16823900  0.83176100  1
  Ga  Ga3  1  0.16823900  0.83176100  0.16823900  1
  Os  Os4  1  0.75000000  0.75000000  0.75000000  1
  Os  Os5  1  0.50000000  0.50000000  0.50000000  1
