# generated using pymatgen
data_TaCr2
_symmetry_space_group_name_H-M   'P 1'
_cell_length_a   4.90171773
_cell_length_b   4.90171773
_cell_length_c   8.04410600
_cell_angle_alpha   90.00000000
_cell_angle_beta   90.00000000
_cell_angle_gamma   119.99999637
_symmetry_Int_Tables_number   1
_chemical_formula_structural   TaCr2
_chemical_formula_sum   'Ta4 Cr8'
_cell_volume   167.38056495
_cell_formula_units_Z   4
loop_
 _symmetry_equiv_pos_site_id
 _symmetry_equiv_pos_as_xyz
  1  'x, y, z'
loop_
 _atom_site_type_symbol
 _atom_site_label
 _atom_site_symmetry_multiplicity
 _atom_site_fract_x
 _atom_site_fract_y
 _atom_site_fract_z
 _atom_site_occupancy
  Ta  Ta0  1  0.33333300  0.66666700  0.43912700  1
  Ta  Ta1  1  0.66666700  0.33333300  0.93912700  1
  Ta  Ta2  1  0.66666700  0.33333300  0.56087300  1
  Ta  Ta3  1  0.33333300  0.66666700  0.06087300  1
  Cr  Cr4  1  0.16968600  0.33937100  0.75000000  1
  Cr  Cr5  1  0.16968600  0.83031400  0.75000000  1
  Cr  Cr6  1  0.33937100  0.16968600  0.25000000  1
  Cr  Cr7  1  0.83031400  0.66062900  0.25000000  1
  Cr  Cr8  1  0.00000000  0.00000000  0.00000000  1
  Cr  Cr9  1  0.66062900  0.83031400  0.75000000  1
  Cr  Cr10  1  0.83031400  0.16968600  0.25000000  1
  Cr  Cr11  1  0.00000000  0.00000000  0.50000000  1
