# generated using pymatgen
data_AgN3
_symmetry_space_group_name_H-M   'P 1'
_cell_length_a   5.10449437
_cell_length_b   5.10449437
_cell_length_c   5.10449437
_cell_angle_alpha   110.38819459
_cell_angle_beta   110.38819459
_cell_angle_gamma   107.65243933
_symmetry_Int_Tables_number   1
_chemical_formula_structural   AgN3
_chemical_formula_sum   'Ag2 N6'
_cell_volume   102.30791726
_cell_formula_units_Z   2
loop_
 _symmetry_equiv_pos_site_id
 _symmetry_equiv_pos_as_xyz
  1  'x, y, z'
loop_
 _atom_site_type_symbol
 _atom_site_label
 _atom_site_symmetry_multiplicity
 _atom_site_fract_x
 _atom_site_fract_y
 _atom_site_fract_z
 _atom_site_occupancy
  Ag  Ag0  1  0.25000000  0.25000000  0.00000000  1
  Ag  Ag1  1  0.75000000  0.75000000  0.00000000  1
  N  N2  1  0.64409200  0.14409200  0.78818500  1
  N  N3  1  0.35590800  0.85590800  0.21181500  1
  N  N4  1  0.14409200  0.35590800  0.50000000  1
  N  N5  1  0.00000000  0.50000000  0.50000000  1
  N  N6  1  0.85590800  0.64409200  0.50000000  1
  N  N7  1  0.50000000  0.00000000  0.50000000  1
