# generated using pymatgen
data_YMg
_symmetry_space_group_name_H-M   'P 1'
_cell_length_a   6.45672848
_cell_length_b   6.45672848
_cell_length_c   5.75856972
_cell_angle_alpha   66.55994884
_cell_angle_beta   66.55994884
_cell_angle_gamma   31.07887781
_symmetry_Int_Tables_number   1
_chemical_formula_structural   YMg
_chemical_formula_sum   'Y2 Mg2'
_cell_volume   112.87251949
_cell_formula_units_Z   2
loop_
 _symmetry_equiv_pos_site_id
 _symmetry_equiv_pos_as_xyz
  1  'x, y, z'
loop_
 _atom_site_type_symbol
 _atom_site_label
 _atom_site_symmetry_multiplicity
 _atom_site_fract_x
 _atom_site_fract_y
 _atom_site_fract_z
 _atom_site_occupancy
  Y  Y0  1  0.87936600  0.87936600  0.80212200  1
  Y  Y1  1  0.12063400  0.12063400  0.19787800  1
  Mg  Mg2  1  0.63243900  0.63243900  0.69689000  1
  Mg  Mg3  1  0.36756100  0.36756100  0.30311000  1
