data_image0
_chemical_formula_structural       In4Ni2Tb2
_chemical_formula_sum              "In4 Ni2 Tb2"
_cell_length_a       4.33728
_cell_length_b       5.68061
_cell_length_c       7.39354
_cell_angle_alpha    90
_cell_angle_beta     90
_cell_angle_gamma    67.5572

_space_group_name_H-M_alt    "P 1"
_space_group_IT_number       1

loop_
  _space_group_symop_operation_xyz
  'x, y, z'

loop_
  _atom_site_type_symbol
  _atom_site_label
  _atom_site_symmetry_multiplicity
  _atom_site_fract_x
  _atom_site_fract_y
  _atom_site_fract_z
  _atom_site_occupancy
  In  In1       1.0  0.35700  0.28600  0.05000  1.0000
  In  In2       1.0  0.35700  0.28600  0.45000  1.0000
  In  In3       1.0  0.64300  0.71400  0.55000  1.0000
  In  In4       1.0  0.64300  0.71400  0.95000  1.0000
  Ni  Ni1       1.0  0.78600  0.42800  0.25000  1.0000
  Ni  Ni2       1.0  0.21400  0.57200  0.75000  1.0000
  Tb  Tb1       1.0  0.06960  0.86100  0.25000  1.0000
  Tb  Tb2       1.0  0.93000  0.13900  0.75000  1.0000
