# generated using pymatgen
data_Mg5Zn
_symmetry_space_group_name_H-M   'P 1'
_cell_length_a   5.95621491
_cell_length_b   5.95621491
_cell_length_c   7.26085212
_cell_angle_alpha   76.36713382
_cell_angle_beta   76.36713382
_cell_angle_gamma   30.77894137
_symmetry_Int_Tables_number   1
_chemical_formula_structural   Mg5Zn
_chemical_formula_sum   'Mg5 Zn1'
_cell_volume   127.81604505
_cell_formula_units_Z   1
loop_
 _symmetry_equiv_pos_site_id
 _symmetry_equiv_pos_as_xyz
  1  'x, y, z'
loop_
 _atom_site_type_symbol
 _atom_site_label
 _atom_site_symmetry_multiplicity
 _atom_site_fract_x
 _atom_site_fract_y
 _atom_site_fract_z
 _atom_site_occupancy
  Mg  Mg0  1  0.00320600  0.00320600  0.00797700  1
  Mg  Mg1  1  0.32895500  0.32895500  0.33143600  1
  Mg  Mg2  1  0.94924900  0.94924900  0.60068300  1
  Mg  Mg3  1  0.66672500  0.66672500  0.66331300  1
  Mg  Mg4  1  0.27494600  0.27494600  0.95100300  1
  Zn  Zn5  1  0.61025200  0.61025200  0.27892100  1
