# generated using pymatgen
data_Hg2H10C3NCl5
_symmetry_space_group_name_H-M   'P 1'
_cell_length_a   6.38613500
_cell_length_b   10.25317831
_cell_length_c   11.11142695
_cell_angle_alpha   94.24456409
_cell_angle_beta   104.62620591
_cell_angle_gamma   98.70362277
_symmetry_Int_Tables_number   1
_chemical_formula_structural   Hg2H10C3NCl5
_chemical_formula_sum   'Hg4 H20 C6 N2 Cl10'
_cell_volume   691.06511197
_cell_formula_units_Z   2
loop_
 _symmetry_equiv_pos_site_id
 _symmetry_equiv_pos_as_xyz
  1  'x, y, z'
loop_
 _atom_site_type_symbol
 _atom_site_label
 _atom_site_symmetry_multiplicity
 _atom_site_fract_x
 _atom_site_fract_y
 _atom_site_fract_z
 _atom_site_occupancy
  Hg  Hg0  1  0.08018200  0.89130200  0.16447000  1
  Hg  Hg1  1  0.31259700  0.12808700  0.56911600  1
  Hg  Hg2  1  0.68740300  0.87191300  0.43088400  1
  Hg  Hg3  1  0.91981800  0.10869800  0.83553000  1
  H  H4  1  0.73797300  0.40428000  0.41482100  1
  H  H5  1  0.44811100  0.27166100  0.03169800  1
  H  H6  1  0.27200700  0.64217200  0.92252700  1
  H  H7  1  0.72799300  0.35782800  0.07747300  1
  H  H8  1  0.15748400  0.72026500  0.66353600  1
  H  H9  1  0.89504300  0.44958400  0.30592000  1
  H  H10  1  0.33886000  0.80557300  0.87925600  1
  H  H11  1  0.55994300  0.49247600  0.70679900  1
  H  H12  1  0.55188900  0.72833900  0.96830200  1
  H  H13  1  0.10495700  0.55041600  0.69408000  1
  H  H14  1  0.68490000  0.55534900  0.86894800  1
  H  H15  1  0.41487900  0.45428800  0.82219300  1
  H  H16  1  0.31510000  0.44465100  0.13105200  1
  H  H17  1  0.66114000  0.19442700  0.12074400  1
  H  H18  1  0.45594300  0.27936400  0.24880200  1
  H  H19  1  0.26202700  0.59572000  0.58517900  1
  H  H20  1  0.58512100  0.54571200  0.17780700  1
  H  H21  1  0.84251600  0.27973500  0.33646400  1
  H  H22  1  0.44005700  0.50752400  0.29320100  1
  H  H23  1  0.54405700  0.72063600  0.75119800  1
  C  C24  1  0.60409400  0.28872700  0.10462400  1
  C  C25  1  0.39590600  0.71127300  0.89537600  1
  C  C26  1  0.22312600  0.62776500  0.67190000  1
  C  C27  1  0.77687400  0.37223500  0.32810000  1
  C  C28  1  0.46973000  0.47067200  0.20506700  1
  C  C29  1  0.53027000  0.52932800  0.79493300  1
  N  N30  1  0.43052100  0.65191900  0.77628500  1
  N  N31  1  0.56947900  0.34808100  0.22371500  1
  Cl  Cl32  1  0.32751500  0.32954400  0.47120300  1
  Cl  Cl33  1  0.00556100  0.65717200  0.12700200  1
  Cl  Cl34  1  0.10982500  0.12250000  0.15252200  1
  Cl  Cl35  1  0.59249000  0.91357600  0.20878100  1
  Cl  Cl36  1  0.67248500  0.67045600  0.52879700  1
  Cl  Cl37  1  0.89017500  0.87750000  0.84747800  1
  Cl  Cl38  1  0.40751000  0.08642400  0.79121900  1
  Cl  Cl39  1  0.99443900  0.34282800  0.87299800  1
  Cl  Cl40  1  0.80595800  0.10271000  0.55994600  1
  Cl  Cl41  1  0.19404200  0.89729000  0.44005400  1
