# generated using pymatgen
data_FeCl2
_symmetry_space_group_name_H-M   'P 1'
_cell_length_a   3.51415878
_cell_length_b   3.51415878
_cell_length_c   6.18112800
_cell_angle_alpha   90.00000000
_cell_angle_beta   90.00000000
_cell_angle_gamma   120.00001466
_symmetry_Int_Tables_number   1
_chemical_formula_structural   FeCl2
_chemical_formula_sum   'Fe1 Cl2'
_cell_volume   66.10602826
_cell_formula_units_Z   1
loop_
 _symmetry_equiv_pos_site_id
 _symmetry_equiv_pos_as_xyz
  1  'x, y, z'
loop_
 _atom_site_type_symbol
 _atom_site_label
 _atom_site_symmetry_multiplicity
 _atom_site_fract_x
 _atom_site_fract_y
 _atom_site_fract_z
 _atom_site_occupancy
  Fe  Fe0  1  0.00000000  0.00000000  0.00000000  1
  Cl  Cl1  1  0.66666700  0.33333300  0.77261500  1
  Cl  Cl2  1  0.33333300  0.66666700  0.22738500  1
