# generated using pymatgen
data_SnH18C6Br3N
_symmetry_space_group_name_H-M   'P 1'
_cell_length_a   6.59160800
_cell_length_b   12.04673800
_cell_length_c   19.24545500
_cell_angle_alpha   90.00000000
_cell_angle_beta   90.00000000
_cell_angle_gamma   90.00000000
_symmetry_Int_Tables_number   1
_chemical_formula_structural   SnH18C6Br3N
_chemical_formula_sum   'Sn4 H72 C24 Br12 N4'
_cell_volume   1528.23105405
_cell_formula_units_Z   4
loop_
 _symmetry_equiv_pos_site_id
 _symmetry_equiv_pos_as_xyz
  1  'x, y, z'
loop_
 _atom_site_type_symbol
 _atom_site_label
 _atom_site_symmetry_multiplicity
 _atom_site_fract_x
 _atom_site_fract_y
 _atom_site_fract_z
 _atom_site_occupancy
  Sn  Sn0  1  0.58146600  0.99952000  0.75000000  1
  Sn  Sn1  1  0.41853400  0.49952000  0.75000000  1
  Sn  Sn2  1  0.58146600  0.50048000  0.25000000  1
  Sn  Sn3  1  0.41853400  0.00048000  0.25000000  1
  H  H4  1  0.66702600  0.71697000  0.25000000  1
  H  H5  1  0.78678800  0.73857300  0.91979400  1
  H  H6  1  0.77365900  0.27504500  0.92070500  1
  H  H7  1  0.96004600  0.11656000  0.42911100  1
  H  H8  1  0.78360700  0.92943700  0.20316500  1
  H  H9  1  0.02752500  0.12867700  0.57894600  1
  H  H10  1  0.02752500  0.37132300  0.07894600  1
  H  H11  1  0.75973600  0.37113900  0.99221600  1
  H  H12  1  0.77143500  0.63154000  0.51539000  1
  H  H13  1  0.96004600  0.38344000  0.57088900  1
  H  H14  1  0.97247500  0.62867700  0.92105400  1
  H  H15  1  0.86361300  0.64564900  0.29705600  1
  H  H16  1  0.75973600  0.12886100  0.00778400  1
  H  H17  1  0.03995400  0.61656000  0.07088900  1
  H  H18  1  0.24026400  0.87113900  0.99221600  1
  H  H19  1  0.24026400  0.87113900  0.50778400  1
  H  H20  1  0.77365900  0.22495500  0.07929500  1
  H  H21  1  0.75973600  0.12886100  0.49221600  1
  H  H22  1  0.22634100  0.72495500  0.07929500  1
  H  H23  1  0.97247500  0.62867700  0.57894600  1
  H  H24  1  0.96004600  0.38344000  0.92911100  1
  H  H25  1  0.77143500  0.63154000  0.98461000  1
  H  H26  1  0.13638700  0.14564900  0.29705600  1
  H  H27  1  0.18803900  0.55756000  0.25000000  1
  H  H28  1  0.03995400  0.61656000  0.42911100  1
  H  H29  1  0.18803900  0.94244000  0.75000000  1
  H  H30  1  0.86361300  0.64564900  0.20294400  1
  H  H31  1  0.02752500  0.37132300  0.42105400  1
  H  H32  1  0.78678800  0.76142700  0.08020600  1
  H  H33  1  0.81196100  0.44244000  0.75000000  1
  H  H34  1  0.78678800  0.73857300  0.58020600  1
  H  H35  1  0.33297400  0.21697000  0.25000000  1
  H  H36  1  0.78360700  0.92943700  0.29683500  1
  H  H37  1  0.77365900  0.22495500  0.42070500  1
  H  H38  1  0.78360700  0.57056300  0.70316500  1
  H  H39  1  0.33297400  0.28303000  0.75000000  1
  H  H40  1  0.13638700  0.14564900  0.20294400  1
  H  H41  1  0.21321200  0.23857300  0.91979400  1
  H  H42  1  0.21639300  0.07056300  0.70316500  1
  H  H43  1  0.66702600  0.78303000  0.75000000  1
  H  H44  1  0.21321200  0.26142700  0.41979400  1
  H  H45  1  0.03995400  0.88344000  0.92911100  1
  H  H46  1  0.13638700  0.35435100  0.70294400  1
  H  H47  1  0.86361300  0.85435100  0.79705600  1
  H  H48  1  0.97247500  0.87132300  0.07894600  1
  H  H49  1  0.22634100  0.77504500  0.57929500  1
  H  H50  1  0.22856500  0.13154000  0.51539000  1
  H  H51  1  0.22856500  0.13154000  0.98461000  1
  H  H52  1  0.22634100  0.77504500  0.92070500  1
  H  H53  1  0.86361300  0.85435100  0.70294400  1
  H  H54  1  0.13638700  0.35435100  0.79705600  1
  H  H55  1  0.03995400  0.88344000  0.57088900  1
  H  H56  1  0.75973600  0.37113900  0.50778400  1
  H  H57  1  0.21639300  0.42943700  0.20316500  1
  H  H58  1  0.21639300  0.42943700  0.29683500  1
  H  H59  1  0.22634100  0.72495500  0.42070500  1
  H  H60  1  0.81196100  0.05756000  0.25000000  1
  H  H61  1  0.22856500  0.36846000  0.48461000  1
  H  H62  1  0.21639300  0.07056300  0.79683500  1
  H  H63  1  0.21321200  0.23857300  0.58020600  1
  H  H64  1  0.78678800  0.76142700  0.41979400  1
  H  H65  1  0.02752500  0.12867700  0.92105400  1
  H  H66  1  0.96004600  0.11656000  0.07088900  1
  H  H67  1  0.78360700  0.57056300  0.79683500  1
  H  H68  1  0.77143500  0.86846000  0.48461000  1
  H  H69  1  0.24026400  0.62886100  0.00778400  1
  H  H70  1  0.22856500  0.36846000  0.01539000  1
  H  H71  1  0.24026400  0.62886100  0.49221600  1
  H  H72  1  0.77143500  0.86846000  0.01539000  1
  H  H73  1  0.21321200  0.26142700  0.08020600  1
  H  H74  1  0.97247500  0.87132300  0.42105400  1
  H  H75  1  0.77365900  0.27504500  0.57929500  1
  C  C76  1  0.77080100  0.64577200  0.25000000  1
  C  C77  1  0.74106700  0.97527500  0.25000000  1
  C  C78  1  0.13855200  0.67441800  0.04271300  1
  C  C79  1  0.87425200  0.68186100  0.54723500  1
  C  C80  1  0.87425200  0.68186100  0.95276500  1
  C  C81  1  0.13855200  0.82558200  0.95728700  1
  C  C82  1  0.12574800  0.31813900  0.45276500  1
  C  C83  1  0.87425200  0.81813900  0.45276500  1
  C  C84  1  0.87425200  0.81813900  0.04723500  1
  C  C85  1  0.12574800  0.31813900  0.04723500  1
  C  C86  1  0.12574800  0.18186100  0.54723500  1
  C  C87  1  0.22919900  0.35422800  0.75000000  1
  C  C88  1  0.74106700  0.52472500  0.75000000  1
  C  C89  1  0.77080100  0.85422800  0.75000000  1
  C  C90  1  0.86144800  0.32558200  0.95728700  1
  C  C91  1  0.13855200  0.82558200  0.54271300  1
  C  C92  1  0.86144800  0.17441800  0.45728700  1
  C  C93  1  0.13855200  0.67441800  0.45728700  1
  C  C94  1  0.25893300  0.47527500  0.25000000  1
  C  C95  1  0.25893300  0.02472500  0.75000000  1
  C  C96  1  0.86144800  0.17441800  0.04271300  1
  C  C97  1  0.86144800  0.32558200  0.54271300  1
  C  C98  1  0.22919900  0.14577200  0.25000000  1
  C  C99  1  0.12574800  0.18186100  0.95276500  1
  Br  Br100  1  0.59245600  0.99652000  0.89509700  1
  Br  Br101  1  0.76280600  0.31181600  0.25000000  1
  Br  Br102  1  0.59245600  0.50348000  0.10490300  1
  Br  Br103  1  0.40754400  0.00348000  0.10490300  1
  Br  Br104  1  0.59245600  0.50348000  0.39509700  1
  Br  Br105  1  0.59245600  0.99652000  0.60490300  1
  Br  Br106  1  0.76280600  0.18818400  0.75000000  1
  Br  Br107  1  0.40754400  0.00348000  0.39509700  1
  Br  Br108  1  0.40754400  0.49652000  0.60490300  1
  Br  Br109  1  0.23719400  0.68818400  0.75000000  1
  Br  Br110  1  0.40754400  0.49652000  0.89509700  1
  Br  Br111  1  0.23719400  0.81181600  0.25000000  1
  N  N112  1  0.99353300  0.25000000  0.00000000  1
  N  N113  1  0.00646700  0.75000000  0.50000000  1
  N  N114  1  0.00646700  0.75000000  0.00000000  1
  N  N115  1  0.99353300  0.25000000  0.50000000  1
