# generated using pymatgen
data_K2HgCl4
_symmetry_space_group_name_H-M   'P 1'
_cell_length_a   8.11870600
_cell_length_b   9.19180200
_cell_length_c   13.64945700
_cell_angle_alpha   90.00000000
_cell_angle_beta   90.00000000
_cell_angle_gamma   90.00000000
_symmetry_Int_Tables_number   1
_chemical_formula_structural   K2HgCl4
_chemical_formula_sum   'K8 Hg4 Cl16'
_cell_volume   1018.59807269
_cell_formula_units_Z   4
loop_
 _symmetry_equiv_pos_site_id
 _symmetry_equiv_pos_as_xyz
  1  'x, y, z'
loop_
 _atom_site_type_symbol
 _atom_site_label
 _atom_site_symmetry_multiplicity
 _atom_site_fract_x
 _atom_site_fract_y
 _atom_site_fract_z
 _atom_site_occupancy
  K  K0  1  0.00000000  0.50000000  0.50000000  1
  K  K1  1  0.00000000  0.00000000  0.00000000  1
  K  K2  1  0.50000000  0.50000000  0.00000000  1
  K  K3  1  0.00000000  0.50000000  0.00000000  1
  K  K4  1  0.50000000  0.00000000  0.50000000  1
  K  K5  1  0.00000000  0.00000000  0.50000000  1
  K  K6  1  0.50000000  0.50000000  0.50000000  1
  K  K7  1  0.50000000  0.00000000  0.00000000  1
  Hg  Hg8  1  0.27501800  0.25000000  0.76657100  1
  Hg  Hg9  1  0.72498200  0.75000000  0.23342900  1
  Hg  Hg10  1  0.77501800  0.75000000  0.73342900  1
  Hg  Hg11  1  0.22498200  0.25000000  0.26657100  1
  Cl  Cl12  1  0.77368400  0.49920800  0.69587700  1
  Cl  Cl13  1  0.74904800  0.25000000  0.95433400  1
  Cl  Cl14  1  0.72631600  0.00079200  0.19587700  1
  Cl  Cl15  1  0.75525600  0.75000000  0.93174200  1
  Cl  Cl16  1  0.25095200  0.75000000  0.04566600  1
  Cl  Cl17  1  0.22631600  0.50079200  0.30412300  1
  Cl  Cl18  1  0.27368400  0.50079200  0.80412300  1
  Cl  Cl19  1  0.24474400  0.25000000  0.06825800  1
  Cl  Cl20  1  0.77368400  0.00079200  0.69587700  1
  Cl  Cl21  1  0.22631600  0.99920800  0.30412300  1
  Cl  Cl22  1  0.74474400  0.75000000  0.43174200  1
  Cl  Cl23  1  0.75095200  0.25000000  0.45433400  1
  Cl  Cl24  1  0.27368400  0.99920800  0.80412300  1
  Cl  Cl25  1  0.24904800  0.75000000  0.54566600  1
  Cl  Cl26  1  0.72631600  0.49920800  0.19587700  1
  Cl  Cl27  1  0.25525600  0.25000000  0.56825800  1
