# generated using pymatgen
data_SrMg2
_symmetry_space_group_name_H-M   'P 1'
_cell_length_a   6.80976534
_cell_length_b   6.80976534
_cell_length_c   8.37636587
_cell_angle_alpha   71.64428974
_cell_angle_beta   71.64428974
_cell_angle_gamma   31.75664506
_symmetry_Int_Tables_number   1
_chemical_formula_structural   SrMg2
_chemical_formula_sum   'Sr2 Mg4'
_cell_volume   193.17092402
_cell_formula_units_Z   2
loop_
 _symmetry_equiv_pos_site_id
 _symmetry_equiv_pos_as_xyz
  1  'x, y, z'
loop_
 _atom_site_type_symbol
 _atom_site_label
 _atom_site_symmetry_multiplicity
 _atom_site_fract_x
 _atom_site_fract_y
 _atom_site_fract_z
 _atom_site_occupancy
  Sr  Sr0  1  0.51731100  0.51731100  0.23213600  1
  Sr  Sr1  1  0.48268900  0.48268900  0.76786400  1
  Mg  Mg2  1  0.80429400  0.80429400  0.13921000  1
  Mg  Mg3  1  0.17590200  0.17590200  0.44365200  1
  Mg  Mg4  1  0.82409800  0.82409800  0.55634800  1
  Mg  Mg5  1  0.19570600  0.19570600  0.86079000  1
