# generated using pymatgen
data_Cr3N4
_symmetry_space_group_name_H-M   'P 1'
_cell_length_a   13.54091888
_cell_length_b   13.54091888
_cell_length_c   9.40598500
_cell_angle_alpha   90.00000000
_cell_angle_beta   90.00000000
_cell_angle_gamma   120.00000432
_symmetry_Int_Tables_number   1
_chemical_formula_structural   Cr3N4
_chemical_formula_sum   'Cr18 N24'
_cell_volume   1493.58921034
_cell_formula_units_Z   6
loop_
 _symmetry_equiv_pos_site_id
 _symmetry_equiv_pos_as_xyz
  1  'x, y, z'
loop_
 _atom_site_type_symbol
 _atom_site_label
 _atom_site_symmetry_multiplicity
 _atom_site_fract_x
 _atom_site_fract_y
 _atom_site_fract_z
 _atom_site_occupancy
  Cr  Cr0  1  0.97822500  0.20291400  0.25000000  1
  Cr  Cr1  1  0.79708600  0.77531100  0.25000000  1
  Cr  Cr2  1  0.22468900  0.02177500  0.25000000  1
  Cr  Cr3  1  0.02177500  0.79708600  0.75000000  1
  Cr  Cr4  1  0.20291400  0.22468900  0.75000000  1
  Cr  Cr5  1  0.77531100  0.97822500  0.75000000  1
  Cr  Cr6  1  0.98126200  0.18658100  0.91492100  1
  Cr  Cr7  1  0.81341900  0.79468200  0.91492100  1
  Cr  Cr8  1  0.20531800  0.01873800  0.91492100  1
  Cr  Cr9  1  0.01873800  0.81341900  0.41492100  1
  Cr  Cr10  1  0.18658100  0.20531800  0.41492100  1
  Cr  Cr11  1  0.79468200  0.98126200  0.41492100  1
  Cr  Cr12  1  0.98126200  0.18658100  0.58507900  1
  Cr  Cr13  1  0.81341900  0.79468200  0.58507900  1
  Cr  Cr14  1  0.20531800  0.01873800  0.58507900  1
  Cr  Cr15  1  0.01873800  0.81341900  0.08507900  1
  Cr  Cr16  1  0.18658100  0.20531800  0.08507900  1
  Cr  Cr17  1  0.79468200  0.98126200  0.08507900  1
  N  N18  1  0.99987400  0.32773700  0.25000000  1
  N  N19  1  0.67226300  0.67213700  0.25000000  1
  N  N20  1  0.32786300  0.00012600  0.25000000  1
  N  N21  1  0.00012600  0.67226300  0.75000000  1
  N  N22  1  0.32773700  0.32786300  0.75000000  1
  N  N23  1  0.67213700  0.99987400  0.75000000  1
  N  N24  1  0.90216500  0.13219100  0.41905000  1
  N  N25  1  0.86780900  0.76997400  0.41905000  1
  N  N26  1  0.23002600  0.09783500  0.41905000  1
  N  N27  1  0.09783500  0.86780900  0.91905000  1
  N  N28  1  0.13219100  0.23002600  0.91905000  1
  N  N29  1  0.76997400  0.90216500  0.91905000  1
  N  N30  1  0.90216500  0.13219100  0.08095000  1
  N  N31  1  0.86780900  0.76997400  0.08095000  1
  N  N32  1  0.23002600  0.09783500  0.08095000  1
  N  N33  1  0.09783500  0.86780900  0.58095000  1
  N  N34  1  0.13219100  0.23002600  0.58095000  1
  N  N35  1  0.76997400  0.90216500  0.58095000  1
  N  N36  1  0.90612300  0.12724300  0.75000000  1
  N  N37  1  0.87275700  0.77888000  0.75000000  1
  N  N38  1  0.22112000  0.09387700  0.75000000  1
  N  N39  1  0.09387700  0.87275700  0.25000000  1
  N  N40  1  0.12724300  0.22112000  0.25000000  1
  N  N41  1  0.77888000  0.90612300  0.25000000  1
