# generated using pymatgen
data_B2S3
_symmetry_space_group_name_H-M   'P 1'
_cell_length_a   10.80679300
_cell_length_b   4.54610800
_cell_length_c   19.27592097
_cell_angle_alpha   87.90648784
_cell_angle_beta   90.00000000
_cell_angle_gamma   90.00000000
_symmetry_Int_Tables_number   1
_chemical_formula_structural   B2S3
_chemical_formula_sum   'B16 S24'
_cell_volume   946.37170326
_cell_formula_units_Z   8
loop_
 _symmetry_equiv_pos_site_id
 _symmetry_equiv_pos_as_xyz
  1  'x, y, z'
loop_
 _atom_site_type_symbol
 _atom_site_label
 _atom_site_symmetry_multiplicity
 _atom_site_fract_x
 _atom_site_fract_y
 _atom_site_fract_z
 _atom_site_occupancy
  B  B0  1  0.31363400  0.74479100  0.90118700  1
  B  B1  1  0.96619100  0.57933700  0.31860700  1
  B  B2  1  0.18636600  0.74479100  0.40118700  1
  B  B3  1  0.46619100  0.42066300  0.18139300  1
  B  B4  1  0.03380900  0.42066300  0.68139300  1
  B  B5  1  0.81363400  0.25520900  0.59881300  1
  B  B6  1  0.78138700  0.45864800  0.74136900  1
  B  B7  1  0.28138700  0.54135200  0.75863100  1
  B  B8  1  0.53380900  0.57933700  0.81860700  1
  B  B9  1  0.21861300  0.54135200  0.25863100  1
  B  B10  1  0.90101200  0.05264400  0.01034000  1
  B  B11  1  0.40101200  0.94735600  0.48966000  1
  B  B12  1  0.09898800  0.94735600  0.98966000  1
  B  B13  1  0.59898800  0.05264400  0.51034000  1
  B  B14  1  0.68636600  0.25520900  0.09881300  1
  B  B15  1  0.71861300  0.45864800  0.24136900  1
  S  S16  1  0.70254700  0.32160200  0.66661200  1
  S  S17  1  0.20294400  0.43695900  0.67894900  1
  S  S18  1  0.76366400  0.11890700  0.51481300  1
  S  S19  1  0.79745300  0.32160200  0.16661200  1
  S  S20  1  0.73633600  0.11890700  0.01481300  1
  S  S21  1  0.52000600  0.30131500  0.09764800  1
  S  S22  1  0.26366400  0.88109300  0.98518700  1
  S  S23  1  0.05414900  0.48784900  0.24336100  1
  S  S24  1  0.47999400  0.69868500  0.90235200  1
  S  S25  1  0.44585100  0.48784900  0.74336100  1
  S  S26  1  0.97999400  0.30131500  0.59764800  1
  S  S27  1  0.29745300  0.67839800  0.33338800  1
  S  S28  1  0.79705600  0.56304100  0.32105100  1
  S  S29  1  0.94585100  0.51215100  0.75663900  1
  S  S30  1  0.03132100  0.08888700  0.06966100  1
  S  S31  1  0.53132100  0.91111300  0.43033900  1
  S  S32  1  0.96867900  0.91111300  0.93033900  1
  S  S33  1  0.70294400  0.56304100  0.82105100  1
  S  S34  1  0.46867900  0.08888700  0.56966100  1
  S  S35  1  0.29705600  0.43695900  0.17894900  1
  S  S36  1  0.23633600  0.88109300  0.48518700  1
  S  S37  1  0.02000600  0.69868500  0.40235200  1
  S  S38  1  0.20254700  0.67839800  0.83338800  1
  S  S39  1  0.55414900  0.51215100  0.25663900  1
