# generated using pymatgen
data_LaFe12O19
_symmetry_space_group_name_H-M   'P 1'
_cell_length_a   5.98872010
_cell_length_b   5.98872010
_cell_length_c   23.11900600
_cell_angle_alpha   90.00000000
_cell_angle_beta   90.00000000
_cell_angle_gamma   119.07593898
_symmetry_Int_Tables_number   1
_chemical_formula_structural   LaFe12O19
_chemical_formula_sum   'La2 Fe24 O38'
_cell_volume   724.66433033
_cell_formula_units_Z   2
loop_
 _symmetry_equiv_pos_site_id
 _symmetry_equiv_pos_as_xyz
  1  'x, y, z'
loop_
 _atom_site_type_symbol
 _atom_site_label
 _atom_site_symmetry_multiplicity
 _atom_site_fract_x
 _atom_site_fract_y
 _atom_site_fract_z
 _atom_site_occupancy
  La  La0  1  0.36238700  0.63761300  0.75000000  1
  La  La1  1  0.63761300  0.36238700  0.25000000  1
  Fe  Fe2  1  0.33535100  0.66464900  0.02790500  1
  Fe  Fe3  1  0.33535100  0.66464900  0.47209500  1
  Fe  Fe4  1  0.67019900  0.32980100  0.81026000  1
  Fe  Fe5  1  0.66464900  0.33535100  0.52790500  1
  Fe  Fe6  1  0.33303700  0.16862300  0.10893200  1
  Fe  Fe7  1  0.00143100  0.99856900  0.75000000  1
  Fe  Fe8  1  0.99856900  0.00143100  0.25000000  1
  Fe  Fe9  1  0.16999800  0.83000200  0.61032300  1
  Fe  Fe10  1  0.83000200  0.16999800  0.11032300  1
  Fe  Fe11  1  0.16862300  0.33303700  0.89106800  1
  Fe  Fe12  1  0.83137700  0.66696300  0.39106800  1
  Fe  Fe13  1  0.66464900  0.33535100  0.97209500  1
  Fe  Fe14  1  0.33303700  0.16862300  0.39106800  1
  Fe  Fe15  1  0.32980100  0.67019900  0.18974000  1
  Fe  Fe16  1  0.16862300  0.33303700  0.60893200  1
  Fe  Fe17  1  0.00000000  0.00000000  0.00000000  1
  Fe  Fe18  1  0.16999800  0.83000200  0.88967700  1
  Fe  Fe19  1  0.66696300  0.83137700  0.60893200  1
  Fe  Fe20  1  0.83137700  0.66696300  0.10893200  1
  Fe  Fe21  1  0.00000000  0.00000000  0.50000000  1
  Fe  Fe22  1  0.67019900  0.32980100  0.68974000  1
  Fe  Fe23  1  0.83000200  0.16999800  0.38967700  1
  Fe  Fe24  1  0.66696300  0.83137700  0.89106800  1
  Fe  Fe25  1  0.32980100  0.67019900  0.31026000  1
  O  O26  1  0.36226900  0.21342100  0.75000000  1
  O  O27  1  0.49537900  0.50462100  0.84715600  1
  O  O28  1  0.85174400  0.69383700  0.94520600  1
  O  O29  1  0.49061400  0.97504200  0.65705400  1
  O  O30  1  0.84615800  0.15384200  0.55582700  1
  O  O31  1  0.02495800  0.50938600  0.65705400  1
  O  O32  1  0.50462100  0.49537900  0.15284400  1
  O  O33  1  0.69383700  0.85174400  0.44520600  1
  O  O34  1  0.81586800  0.18413200  0.75000000  1
  O  O35  1  0.18413200  0.81586800  0.25000000  1
  O  O36  1  0.78657900  0.63773100  0.75000000  1
  O  O37  1  0.99872500  0.00127500  0.15492300  1
  O  O38  1  0.21342100  0.36226900  0.25000000  1
  O  O39  1  0.14825600  0.30616300  0.05479400  1
  O  O40  1  0.50938600  0.02495800  0.34294600  1
  O  O41  1  0.00127500  0.99872500  0.65492300  1
  O  O42  1  0.50462100  0.49537900  0.34715600  1
  O  O43  1  0.30616300  0.14825600  0.94520600  1
  O  O44  1  0.99872500  0.00127500  0.34507700  1
  O  O45  1  0.15384200  0.84615800  0.44417300  1
  O  O46  1  0.66461600  0.33538400  0.05872000  1
  O  O47  1  0.30616300  0.14825600  0.55479400  1
  O  O48  1  0.97504200  0.49061400  0.15705400  1
  O  O49  1  0.00127500  0.99872500  0.84507700  1
  O  O50  1  0.66461600  0.33538400  0.44128000  1
  O  O51  1  0.50938600  0.02495800  0.15705400  1
  O  O52  1  0.63773100  0.78657900  0.25000000  1
  O  O53  1  0.14825600  0.30616300  0.44520600  1
  O  O54  1  0.33538400  0.66461600  0.55872000  1
  O  O55  1  0.97504200  0.49061400  0.34294600  1
  O  O56  1  0.84615800  0.15384200  0.94417300  1
  O  O57  1  0.33538400  0.66461600  0.94128000  1
  O  O58  1  0.85174400  0.69383700  0.55479400  1
  O  O59  1  0.69383700  0.85174400  0.05479400  1
  O  O60  1  0.49061400  0.97504200  0.84294600  1
  O  O61  1  0.15384200  0.84615800  0.05582700  1
  O  O62  1  0.49537900  0.50462100  0.65284400  1
  O  O63  1  0.02495800  0.50938600  0.84294600  1
