# generated using pymatgen
data_YbGeBiO5
_symmetry_space_group_name_H-M   'P 1'
_cell_length_a   5.51329800
_cell_length_b   11.02685900
_cell_length_c   15.54683500
_cell_angle_alpha   90.00000000
_cell_angle_beta   90.00000000
_cell_angle_gamma   90.00000000
_symmetry_Int_Tables_number   1
_chemical_formula_structural   YbGeBiO5
_chemical_formula_sum   'Yb8 Ge8 Bi8 O40'
_cell_volume   945.15987874
_cell_formula_units_Z   8
loop_
 _symmetry_equiv_pos_site_id
 _symmetry_equiv_pos_as_xyz
  1  'x, y, z'
loop_
 _atom_site_type_symbol
 _atom_site_label
 _atom_site_symmetry_multiplicity
 _atom_site_fract_x
 _atom_site_fract_y
 _atom_site_fract_z
 _atom_site_occupancy
  Yb  Yb0  1  0.00963600  0.35987200  0.94750500  1
  Yb  Yb1  1  0.49036400  0.85987200  0.05249500  1
  Yb  Yb2  1  0.50963600  0.14012800  0.94750500  1
  Yb  Yb3  1  0.50963600  0.64012800  0.55249500  1
  Yb  Yb4  1  0.99036400  0.64012800  0.05249500  1
  Yb  Yb5  1  0.99036400  0.14012800  0.44750500  1
  Yb  Yb6  1  0.49036400  0.35987200  0.44750500  1
  Yb  Yb7  1  0.00963600  0.85987200  0.55249500  1
  Ge  Ge8  1  0.50182700  0.09995200  0.59412900  1
  Ge  Ge9  1  0.49817300  0.90004800  0.40587100  1
  Ge  Ge10  1  0.50182700  0.59995200  0.90587100  1
  Ge  Ge11  1  0.99817300  0.59995200  0.40587100  1
  Ge  Ge12  1  0.99817300  0.09995200  0.09412900  1
  Ge  Ge13  1  0.00182700  0.90004800  0.90587100  1
  Ge  Ge14  1  0.00182700  0.40004800  0.59412900  1
  Ge  Ge15  1  0.49817300  0.40004800  0.09412900  1
  Bi  Bi16  1  0.55084100  0.15122900  0.26544800  1
  Bi  Bi17  1  0.94915900  0.15122900  0.76544800  1
  Bi  Bi18  1  0.55084100  0.65122900  0.23455200  1
  Bi  Bi19  1  0.94915900  0.65122900  0.73455200  1
  Bi  Bi20  1  0.05084100  0.84877100  0.23455200  1
  Bi  Bi21  1  0.05084100  0.34877100  0.26544800  1
  Bi  Bi22  1  0.44915900  0.34877100  0.76544800  1
  Bi  Bi23  1  0.44915900  0.84877100  0.73455200  1
  O  O24  1  0.09126600  0.81736600  0.80970500  1
  O  O25  1  0.70170900  0.51406200  0.13774500  1
  O  O26  1  0.79829100  0.51406200  0.63774500  1
  O  O27  1  0.22574000  0.46379500  0.05637100  1
  O  O28  1  0.34231300  0.19261000  0.52308600  1
  O  O29  1  0.24538000  0.72783300  0.65509700  1
  O  O30  1  0.27426000  0.46379500  0.55637100  1
  O  O31  1  0.20170900  0.48593800  0.36225500  1
  O  O32  1  0.72574000  0.03620500  0.05637100  1
  O  O33  1  0.74538000  0.77216700  0.65509700  1
  O  O34  1  0.79829100  0.01406200  0.86225500  1
  O  O35  1  0.29829100  0.98593800  0.63774500  1
  O  O36  1  0.40873400  0.81736600  0.30970500  1
  O  O37  1  0.09126600  0.31736600  0.69029500  1
  O  O38  1  0.74538000  0.27216700  0.84490300  1
  O  O39  1  0.75462000  0.27216700  0.34490300  1
  O  O40  1  0.22574000  0.96379500  0.44362900  1
  O  O41  1  0.27426000  0.96379500  0.94362900  1
  O  O42  1  0.29829100  0.48593800  0.86225500  1
  O  O43  1  0.40873400  0.31736600  0.19029500  1
  O  O44  1  0.65768700  0.30739000  0.02308600  1
  O  O45  1  0.25462000  0.72783300  0.15509700  1
  O  O46  1  0.77426000  0.53620500  0.94362900  1
  O  O47  1  0.25462000  0.22783300  0.34490300  1
  O  O48  1  0.84231300  0.30739000  0.52308600  1
  O  O49  1  0.72574000  0.53620500  0.44362900  1
  O  O50  1  0.77426000  0.03620500  0.55637100  1
  O  O51  1  0.59126600  0.68263400  0.80970500  1
  O  O52  1  0.24538000  0.22783300  0.84490300  1
  O  O53  1  0.65768700  0.80739000  0.47691400  1
  O  O54  1  0.20170900  0.98593800  0.13774500  1
  O  O55  1  0.90873400  0.68263400  0.30970500  1
  O  O56  1  0.90873400  0.18263400  0.19029500  1
  O  O57  1  0.15768700  0.19261000  0.02308600  1
  O  O58  1  0.75462000  0.77216700  0.15509700  1
  O  O59  1  0.70170900  0.01406200  0.36225500  1
  O  O60  1  0.59126600  0.18263400  0.69029500  1
  O  O61  1  0.15768700  0.69261000  0.47691400  1
  O  O62  1  0.34231300  0.69261000  0.97691400  1
  O  O63  1  0.84231300  0.80739000  0.97691400  1
