# generated using pymatgen
data_Ga2Au7
_symmetry_space_group_name_H-M   'P 1'
_cell_length_a   7.84077942
_cell_length_b   7.84077942
_cell_length_c   9.02118400
_cell_angle_alpha   90.00000000
_cell_angle_beta   90.00000000
_cell_angle_gamma   119.99999514
_symmetry_Int_Tables_number   1
_chemical_formula_structural   Ga2Au7
_chemical_formula_sum   'Ga6 Au21'
_cell_volume   480.30008878
_cell_formula_units_Z   3
loop_
 _symmetry_equiv_pos_site_id
 _symmetry_equiv_pos_as_xyz
  1  'x, y, z'
loop_
 _atom_site_type_symbol
 _atom_site_label
 _atom_site_symmetry_multiplicity
 _atom_site_fract_x
 _atom_site_fract_y
 _atom_site_fract_z
 _atom_site_occupancy
  Ga  Ga0  1  0.33333300  0.66666700  0.17734400  1
  Ga  Ga1  1  0.00000000  0.00000000  0.68958000  1
  Ga  Ga2  1  0.33333300  0.66666700  0.82265600  1
  Ga  Ga3  1  0.66666700  0.33333300  0.82265600  1
  Ga  Ga4  1  0.66666700  0.33333300  0.17734400  1
  Ga  Ga5  1  0.00000000  0.00000000  0.31042000  1
  Au  Au6  1  0.00000000  0.36082000  0.33127600  1
  Au  Au7  1  0.68612400  0.00000000  0.83125800  1
  Au  Au8  1  0.00000000  0.72264000  0.50000000  1
  Au  Au9  1  0.00000000  0.68612400  0.83125800  1
  Au  Au10  1  0.31387600  0.31387600  0.16874200  1
  Au  Au11  1  0.27736000  0.27736000  0.50000000  1
  Au  Au12  1  0.00000000  0.68612400  0.16874200  1
  Au  Au13  1  0.72264000  0.00000000  0.50000000  1
  Au  Au14  1  0.36082000  0.00000000  0.33127600  1
  Au  Au15  1  0.63918000  0.63918000  0.66872400  1
  Au  Au16  1  0.36829200  0.00000000  0.00000000  1
  Au  Au17  1  0.66666700  0.33333300  0.50000000  1
  Au  Au18  1  0.36082000  0.00000000  0.66872400  1
  Au  Au19  1  0.00000000  0.00000000  0.00000000  1
  Au  Au20  1  0.31387600  0.31387600  0.83125800  1
  Au  Au21  1  0.63170800  0.63170800  0.00000000  1
  Au  Au22  1  0.68612400  0.00000000  0.16874200  1
  Au  Au23  1  0.63918000  0.63918000  0.33127600  1
  Au  Au24  1  0.00000000  0.36829200  0.00000000  1
  Au  Au25  1  0.33333300  0.66666700  0.50000000  1
  Au  Au26  1  0.00000000  0.36082000  0.66872400  1
