# generated using pymatgen
data_CdI2
_symmetry_space_group_name_H-M   'P 1'
_cell_length_a   4.33656436
_cell_length_b   4.33656436
_cell_length_c   122.10049300
_cell_angle_alpha   90.00000000
_cell_angle_beta   90.00000000
_cell_angle_gamma   120.00000543
_symmetry_Int_Tables_number   1
_chemical_formula_structural   CdI2
_chemical_formula_sum   'Cd16 I32'
_cell_volume   1988.56420228
_cell_formula_units_Z   16
loop_
 _symmetry_equiv_pos_site_id
 _symmetry_equiv_pos_as_xyz
  1  'x, y, z'
loop_
 _atom_site_type_symbol
 _atom_site_label
 _atom_site_symmetry_multiplicity
 _atom_site_fract_x
 _atom_site_fract_y
 _atom_site_fract_z
 _atom_site_occupancy
  Cd  Cd0  1  0.33333300  0.66666700  0.45314600  1
  Cd  Cd1  1  0.66666700  0.33333300  0.14058500  1
  Cd  Cd2  1  0.33333300  0.66666700  0.20314700  1
  Cd  Cd3  1  0.33333300  0.66666700  0.70314800  1
  Cd  Cd4  1  0.00000000  0.00000000  0.89065000  1
  Cd  Cd5  1  0.00000000  0.00000000  0.76565100  1
  Cd  Cd6  1  0.66666700  0.33333300  0.01560200  1
  Cd  Cd7  1  0.66666700  0.33333300  0.39059100  1
  Cd  Cd8  1  0.66666700  0.33333300  0.64059200  1
  Cd  Cd9  1  0.33333300  0.66666700  0.57814800  1
  Cd  Cd10  1  0.33333300  0.66666700  0.07814700  1
  Cd  Cd11  1  0.66666700  0.33333300  0.51559300  1
  Cd  Cd12  1  0.33333300  0.66666700  0.95314800  1
  Cd  Cd13  1  0.66666700  0.33333300  0.26558700  1
  Cd  Cd14  1  0.33333300  0.66666700  0.32814700  1
  Cd  Cd15  1  0.33333300  0.66666700  0.82814900  1
  I  I16  1  0.66666700  0.33333300  0.90473300  1
  I  I17  1  0.33333300  0.66666700  0.02968700  1
  I  I18  1  0.00000000  0.00000000  0.56405700  1
  I  I19  1  0.33333300  0.66666700  0.52967900  1
  I  I20  1  0.66666700  0.33333300  0.21724000  1
  I  I21  1  0.00000000  0.00000000  0.31405600  1
  I  I22  1  0.66666700  0.33333300  0.77973300  1
  I  I23  1  0.00000000  0.00000000  0.43905600  1
  I  I24  1  0.66666700  0.33333300  0.96724400  1
  I  I25  1  0.00000000  0.00000000  0.93905600  1
  I  I26  1  0.33333300  0.66666700  0.15467100  1
  I  I27  1  0.00000000  0.00000000  0.68905700  1
  I  I28  1  0.66666700  0.33333300  0.34224000  1
  I  I29  1  0.66666700  0.33333300  0.84224100  1
  I  I30  1  0.00000000  0.00000000  0.12649700  1
  I  I31  1  0.66666700  0.33333300  0.71724000  1
  I  I32  1  0.66666700  0.33333300  0.09224200  1
  I  I33  1  0.00000000  0.00000000  0.37650300  1
  I  I34  1  0.00000000  0.00000000  0.18905500  1
  I  I35  1  0.33333300  0.66666700  0.87656200  1
  I  I36  1  0.66666700  0.33333300  0.59224200  1
  I  I37  1  0.00000000  0.00000000  0.06405600  1
  I  I38  1  0.00000000  0.00000000  0.62650400  1
  I  I39  1  0.33333300  0.66666700  0.75156200  1
  I  I40  1  0.00000000  0.00000000  0.81405600  1
  I  I41  1  0.33333300  0.66666700  0.27967300  1
  I  I42  1  0.33333300  0.66666700  0.40467600  1
  I  I43  1  0.00000000  0.00000000  0.50150400  1
  I  I44  1  0.66666700  0.33333300  0.46723900  1
  I  I45  1  0.00000000  0.00000000  0.00151400  1
  I  I46  1  0.33333300  0.66666700  0.65467700  1
  I  I47  1  0.00000000  0.00000000  0.25149900  1
