# generated using pymatgen
data_Ga2RhC4Cl7O4
_symmetry_space_group_name_H-M   'P 1'
_cell_length_a   10.03503600
_cell_length_b   10.04579198
_cell_length_c   10.61042009
_cell_angle_alpha   76.40843371
_cell_angle_beta   76.82887702
_cell_angle_gamma   65.69231284
_symmetry_Int_Tables_number   1
_chemical_formula_structural   Ga2RhC4Cl7O4
_chemical_formula_sum   'Ga4 Rh2 C8 Cl14 O8'
_cell_volume   937.07262954
_cell_formula_units_Z   2
loop_
 _symmetry_equiv_pos_site_id
 _symmetry_equiv_pos_as_xyz
  1  'x, y, z'
loop_
 _atom_site_type_symbol
 _atom_site_label
 _atom_site_symmetry_multiplicity
 _atom_site_fract_x
 _atom_site_fract_y
 _atom_site_fract_z
 _atom_site_occupancy
  Ga  Ga0  1  0.80497600  0.16690900  0.17583100  1
  Ga  Ga1  1  0.56701500  0.70406300  0.57780100  1
  Ga  Ga2  1  0.19502400  0.83309100  0.82416900  1
  Ga  Ga3  1  0.43298500  0.29593700  0.42219900  1
  Rh  Rh4  1  0.00000000  0.50000000  0.50000000  1
  Rh  Rh5  1  0.50000000  0.00000000  0.00000000  1
  C  C6  1  0.00782000  0.69451900  0.48804300  1
  C  C7  1  0.97128000  0.47151800  0.69206600  1
  C  C8  1  0.36090000  0.20659200  0.98124700  1
  C  C9  1  0.64353900  0.05979000  0.86555400  1
  C  C10  1  0.02872000  0.52848200  0.30793400  1
  C  C11  1  0.99218000  0.30548100  0.51195700  1
  C  C12  1  0.35646100  0.94021000  0.13444600  1
  C  C13  1  0.63910000  0.79340800  0.01875300  1
  Cl  Cl14  1  0.65562400  0.80899700  0.67878100  1
  Cl  Cl15  1  0.34437600  0.19100300  0.32121900  1
  Cl  Cl16  1  0.38216200  0.52833400  0.34383600  1
  Cl  Cl17  1  0.63545200  0.74332300  0.36671800  1
  Cl  Cl18  1  0.88480900  0.93557300  0.15586300  1
  Cl  Cl19  1  0.36454800  0.25667700  0.63328200  1
  Cl  Cl20  1  0.31229000  0.82950900  0.60196000  1
  Cl  Cl21  1  0.68771000  0.17049100  0.39804000  1
  Cl  Cl22  1  0.02380500  0.75365200  0.82403600  1
  Cl  Cl23  1  0.11519100  0.06442700  0.84413700  1
  Cl  Cl24  1  0.35962500  0.68678500  0.94716500  1
  Cl  Cl25  1  0.64037500  0.31321500  0.05283500  1
  Cl  Cl26  1  0.97619500  0.24634800  0.17596400  1
  Cl  Cl27  1  0.61783800  0.47166600  0.65616400  1
  O  O28  1  0.98716800  0.19182700  0.52190000  1
  O  O29  1  0.28085500  0.32736900  0.96811200  1
  O  O30  1  0.72568900  0.09581900  0.78623500  1
  O  O31  1  0.27431100  0.90418100  0.21376500  1
  O  O32  1  0.01283200  0.80817300  0.47810000  1
  O  O33  1  0.71914500  0.67263100  0.03188800  1
  O  O34  1  0.95445300  0.45203100  0.80408400  1
  O  O35  1  0.04554700  0.54796900  0.19591600  1
