# generated using pymatgen
data_Cs2Ti(PO4)2
_symmetry_space_group_name_H-M   'P 1'
_cell_length_a   7.37921500
_cell_length_b   9.64708400
_cell_length_c   13.82044800
_cell_angle_alpha   90.00000000
_cell_angle_beta   90.00000000
_cell_angle_gamma   90.00000000
_symmetry_Int_Tables_number   1
_chemical_formula_structural   Cs2Ti(PO4)2
_chemical_formula_sum   'Cs8 Ti4 P8 O32'
_cell_volume   983.84876636
_cell_formula_units_Z   4
loop_
 _symmetry_equiv_pos_site_id
 _symmetry_equiv_pos_as_xyz
  1  'x, y, z'
loop_
 _atom_site_type_symbol
 _atom_site_label
 _atom_site_symmetry_multiplicity
 _atom_site_fract_x
 _atom_site_fract_y
 _atom_site_fract_z
 _atom_site_occupancy
  Cs  Cs0  1  0.75000000  0.09154500  0.60262600  1
  Cs  Cs1  1  0.25000000  0.12728900  0.08423200  1
  Cs  Cs2  1  0.75000000  0.87271100  0.91576800  1
  Cs  Cs3  1  0.75000000  0.40845500  0.10262600  1
  Cs  Cs4  1  0.75000000  0.62728900  0.41576800  1
  Cs  Cs5  1  0.25000000  0.59154500  0.89737400  1
  Cs  Cs6  1  0.25000000  0.37271100  0.58423200  1
  Cs  Cs7  1  0.25000000  0.90845500  0.39737400  1
  Ti  Ti8  1  0.75000000  0.51695100  0.70868500  1
  Ti  Ti9  1  0.75000000  0.98304900  0.20868500  1
  Ti  Ti10  1  0.25000000  0.48304900  0.29131500  1
  Ti  Ti11  1  0.25000000  0.01695100  0.79131500  1
  P  P12  1  0.04823900  0.72552200  0.15373100  1
  P  P13  1  0.45176100  0.72552200  0.15373100  1
  P  P14  1  0.54823900  0.22552200  0.34626900  1
  P  P15  1  0.95176100  0.27447800  0.84626900  1
  P  P16  1  0.54823900  0.27447800  0.84626900  1
  P  P17  1  0.45176100  0.77447800  0.65373100  1
  P  P18  1  0.04823900  0.77447800  0.65373100  1
  P  P19  1  0.95176100  0.22552200  0.34626900  1
  O  O20  1  0.06605700  0.90533000  0.71803000  1
  O  O21  1  0.75000000  0.44825500  0.59765300  1
  O  O22  1  0.56215300  0.66476300  0.70989500  1
  O  O23  1  0.48546300  0.30513000  0.94719400  1
  O  O24  1  0.25000000  0.94825500  0.90234700  1
  O  O25  1  0.56215300  0.83523700  0.20989500  1
  O  O26  1  0.75000000  0.29695500  0.34839000  1
  O  O27  1  0.43784700  0.33523700  0.29010500  1
  O  O28  1  0.93394300  0.40533000  0.78197000  1
  O  O29  1  0.51453700  0.80513000  0.55280600  1
  O  O30  1  0.56605700  0.40533000  0.78197000  1
  O  O31  1  0.48546300  0.19487000  0.44719400  1
  O  O32  1  0.25000000  0.79695500  0.15161000  1
  O  O33  1  0.56605700  0.09467000  0.28197000  1
  O  O34  1  0.06215300  0.16476300  0.79010500  1
  O  O35  1  0.93784700  0.66476300  0.70989500  1
  O  O36  1  0.75000000  0.05174500  0.09765300  1
  O  O37  1  0.01453700  0.30513000  0.94719400  1
  O  O38  1  0.06215300  0.33523700  0.29010500  1
  O  O39  1  0.98546300  0.69487000  0.05280600  1
  O  O40  1  0.98546300  0.80513000  0.55280600  1
  O  O41  1  0.51453700  0.69487000  0.05280600  1
  O  O42  1  0.43394300  0.59467000  0.21803000  1
  O  O43  1  0.25000000  0.70304500  0.65161000  1
  O  O44  1  0.43784700  0.16476300  0.79010500  1
  O  O45  1  0.93784700  0.83523700  0.20989500  1
  O  O46  1  0.75000000  0.20304500  0.84839000  1
  O  O47  1  0.93394300  0.09467000  0.28197000  1
  O  O48  1  0.25000000  0.55174500  0.40234700  1
  O  O49  1  0.06605700  0.59467000  0.21803000  1
  O  O50  1  0.01453700  0.19487000  0.44719400  1
  O  O51  1  0.43394300  0.90533000  0.71803000  1
