# generated using pymatgen
data_MgZn5
_symmetry_space_group_name_H-M   'P 1'
_cell_length_a   7.47090615
_cell_length_b   7.47090615
_cell_length_c   4.56867300
_cell_angle_alpha   90.00000000
_cell_angle_beta   90.00000000
_cell_angle_gamma   157.70940544
_symmetry_Int_Tables_number   1
_chemical_formula_structural   MgZn5
_chemical_formula_sum   'Mg1 Zn5'
_cell_volume   96.72180112
_cell_formula_units_Z   1
loop_
 _symmetry_equiv_pos_site_id
 _symmetry_equiv_pos_as_xyz
  1  'x, y, z'
loop_
 _atom_site_type_symbol
 _atom_site_label
 _atom_site_symmetry_multiplicity
 _atom_site_fract_x
 _atom_site_fract_y
 _atom_site_fract_z
 _atom_site_occupancy
  Mg  Mg0  1  0.77765600  0.22234400  0.50000000  1
  Zn  Zn1  1  0.00054700  0.99945300  0.00000000  1
  Zn  Zn2  1  0.33769500  0.66230500  0.00000000  1
  Zn  Zn3  1  0.66359400  0.33640600  0.00000000  1
  Zn  Zn4  1  0.10615500  0.89384500  0.50000000  1
  Zn  Zn5  1  0.44768500  0.55231500  0.50000000  1
