# generated using pymatgen
data_KFeC6(NO)3
_symmetry_space_group_name_H-M   'P 1'
_cell_length_a   13.13962696
_cell_length_b   13.13962696
_cell_length_c   13.13962763
_cell_angle_alpha   31.80935795
_cell_angle_beta   31.80935795
_cell_angle_gamma   31.80935887
_symmetry_Int_Tables_number   1
_chemical_formula_structural   KFeC6(NO)3
_chemical_formula_sum   'K2 Fe2 C12 N6 O6'
_cell_volume   559.82297021
_cell_formula_units_Z   2
loop_
 _symmetry_equiv_pos_site_id
 _symmetry_equiv_pos_as_xyz
  1  'x, y, z'
loop_
 _atom_site_type_symbol
 _atom_site_label
 _atom_site_symmetry_multiplicity
 _atom_site_fract_x
 _atom_site_fract_y
 _atom_site_fract_z
 _atom_site_occupancy
  K  K0  1  0.33300800  0.33300800  0.33300800  1
  K  K1  1  0.66699200  0.66699200  0.66699200  1
  Fe  Fe2  1  0.09462400  0.09462400  0.09462400  1
  Fe  Fe3  1  0.90537600  0.90537600  0.90537600  1
  C  C4  1  0.15244400  0.72300200  0.93499000  1
  C  C5  1  0.65859400  0.09807600  0.88620900  1
  C  C6  1  0.72300200  0.93499000  0.15244400  1
  C  C7  1  0.11379100  0.34140600  0.90192400  1
  C  C8  1  0.88620900  0.65859400  0.09807600  1
  C  C9  1  0.84755600  0.27699800  0.06501000  1
  C  C10  1  0.34140600  0.90192400  0.11379100  1
  C  C11  1  0.90192400  0.11379100  0.34140600  1
  C  C12  1  0.09807600  0.88620900  0.65859400  1
  C  C13  1  0.93499000  0.15244400  0.72300200  1
  C  C14  1  0.27699800  0.06501000  0.84755600  1
  C  C15  1  0.06501000  0.84755600  0.27699800  1
  N  N16  1  0.30112500  0.61218400  0.95381600  1
  N  N17  1  0.38781600  0.04618400  0.69887500  1
  N  N18  1  0.95381600  0.30112500  0.61218400  1
  N  N19  1  0.61218400  0.95381600  0.30112500  1
  N  N20  1  0.69887500  0.38781600  0.04618400  1
  N  N21  1  0.04618400  0.69887500  0.38781600  1
  O  O22  1  0.49963600  0.22374600  0.87766600  1
  O  O23  1  0.12233400  0.50036400  0.77625400  1
  O  O24  1  0.50036400  0.77625400  0.12233400  1
  O  O25  1  0.77625400  0.12233400  0.50036400  1
  O  O26  1  0.22374600  0.87766600  0.49963600  1
  O  O27  1  0.87766600  0.49963600  0.22374600  1
