# generated using pymatgen
data_MgTi2
_symmetry_space_group_name_H-M   'P 1'
_cell_length_a   8.09573670
_cell_length_b   8.09573670
_cell_length_c   4.79970200
_cell_angle_alpha   90.00000000
_cell_angle_beta   90.00000000
_cell_angle_gamma   158.99744954
_symmetry_Int_Tables_number   1
_chemical_formula_structural   MgTi2
_chemical_formula_sum   'Mg2 Ti4'
_cell_volume   112.74740224
_cell_formula_units_Z   2
loop_
 _symmetry_equiv_pos_site_id
 _symmetry_equiv_pos_as_xyz
  1  'x, y, z'
loop_
 _atom_site_type_symbol
 _atom_site_label
 _atom_site_symmetry_multiplicity
 _atom_site_fract_x
 _atom_site_fract_y
 _atom_site_fract_z
 _atom_site_occupancy
  Mg  Mg0  1  0.78231800  0.21768200  0.25000000  1
  Mg  Mg1  1  0.21768200  0.78231800  0.75000000  1
  Ti  Ti2  1  0.09964200  0.90035800  0.25000000  1
  Ti  Ti3  1  0.45006300  0.54993700  0.25000000  1
  Ti  Ti4  1  0.54993700  0.45006300  0.75000000  1
  Ti  Ti5  1  0.90035800  0.09964200  0.75000000  1
