# generated using pymatgen
data_Ba2ScCl7
_symmetry_space_group_name_H-M   'P 1'
_cell_length_a   13.60670100
_cell_length_b   7.02762000
_cell_length_c   12.36932991
_cell_angle_alpha   83.72966102
_cell_angle_beta   90.00000000
_cell_angle_gamma   90.00000000
_symmetry_Int_Tables_number   1
_chemical_formula_structural   Ba2ScCl7
_chemical_formula_sum   'Ba8 Sc4 Cl28'
_cell_volume   1175.71313933
_cell_formula_units_Z   4
loop_
 _symmetry_equiv_pos_site_id
 _symmetry_equiv_pos_as_xyz
  1  'x, y, z'
loop_
 _atom_site_type_symbol
 _atom_site_label
 _atom_site_symmetry_multiplicity
 _atom_site_fract_x
 _atom_site_fract_y
 _atom_site_fract_z
 _atom_site_occupancy
  Ba  Ba0  1  0.54657600  0.23782000  0.25597300  1
  Ba  Ba1  1  0.63679900  0.73803700  0.62190900  1
  Ba  Ba2  1  0.86812400  0.70607400  0.23343800  1
  Ba  Ba3  1  0.36812400  0.29392600  0.76656200  1
  Ba  Ba4  1  0.78455400  0.25062600  0.87722700  1
  Ba  Ba5  1  0.28455400  0.74937400  0.12277300  1
  Ba  Ba6  1  0.04657600  0.76218000  0.74402700  1
  Ba  Ba7  1  0.13679900  0.26196300  0.37809100  1
  Sc  Sc8  1  0.34439800  0.81181100  0.54671400  1
  Sc  Sc9  1  0.84439800  0.18818900  0.45328600  1
  Sc  Sc10  1  0.07708100  0.20576700  0.95580500  1
  Sc  Sc11  1  0.57708100  0.79423300  0.04419500  1
  Cl  Cl12  1  0.77597200  0.11802300  0.63710300  1
  Cl  Cl13  1  0.20275300  0.97298500  0.89283400  1
  Cl  Cl14  1  0.94888600  0.46623000  0.47725300  1
  Cl  Cl15  1  0.01695500  0.23637400  0.76320100  1
  Cl  Cl16  1  0.83538400  0.62311100  0.73248400  1
  Cl  Cl17  1  0.48547000  0.03919100  0.49912000  1
  Cl  Cl18  1  0.58666600  0.37080000  0.77007600  1
  Cl  Cl19  1  0.95854500  0.45226200  0.99361400  1
  Cl  Cl20  1  0.64496100  0.87464900  0.86193500  1
  Cl  Cl21  1  0.23364300  0.07369600  0.60396300  1
  Cl  Cl22  1  0.20881300  0.57246200  0.60242200  1
  Cl  Cl23  1  0.45854500  0.54773800  0.00638600  1
  Cl  Cl24  1  0.70114000  0.52767500  0.09115600  1
  Cl  Cl25  1  0.20114000  0.47232500  0.90884400  1
  Cl  Cl26  1  0.44888600  0.53377000  0.52274700  1
  Cl  Cl27  1  0.73364300  0.92630400  0.39603700  1
  Cl  Cl28  1  0.33538400  0.37688900  0.26751600  1
  Cl  Cl29  1  0.98547000  0.96080900  0.50088000  1
  Cl  Cl30  1  0.70275300  0.02701500  0.10716600  1
  Cl  Cl31  1  0.27597200  0.88197700  0.36289700  1
  Cl  Cl32  1  0.40851600  0.79004100  0.73694100  1
  Cl  Cl33  1  0.14496100  0.12535100  0.13806500  1
  Cl  Cl34  1  0.70881300  0.42753800  0.39757800  1
  Cl  Cl35  1  0.94811600  0.94579000  0.98354800  1
  Cl  Cl36  1  0.44811600  0.05421000  0.01645200  1
  Cl  Cl37  1  0.90851600  0.20995900  0.26305900  1
  Cl  Cl38  1  0.08666600  0.62920000  0.22992400  1
  Cl  Cl39  1  0.51695500  0.76362600  0.23679900  1
