data_image0
_chemical_formula_structural       BiCsF6
_chemical_formula_sum              "Bi1 Cs1 F6"
_cell_length_a       5.03711
_cell_length_b       5.03711
_cell_length_c       5.03711
_cell_angle_alpha    96.8142
_cell_angle_beta     96.8142
_cell_angle_gamma    96.8141

_space_group_name_H-M_alt    "P 1"
_space_group_IT_number       1

loop_
  _space_group_symop_operation_xyz
  'x, y, z'

loop_
  _atom_site_type_symbol
  _atom_site_label
  _atom_site_symmetry_multiplicity
  _atom_site_fract_x
  _atom_site_fract_y
  _atom_site_fract_z
  _atom_site_occupancy
  Bi  Bi1       1.0  0.00000  0.00000  0.00000  1.0000
  Cs  Cs1       1.0  0.50000  0.50000  0.50000  1.0000
  F   F1        1.0  0.79900  0.65100  0.07560  1.0000
  F   F2        1.0  0.34900  0.92400  0.20100  1.0000
  F   F3        1.0  0.92400  0.20100  0.34900  1.0000
  F   F4        1.0  0.07560  0.79900  0.65100  1.0000
  F   F5        1.0  0.65100  0.07560  0.79900  1.0000
  F   F6        1.0  0.20100  0.34900  0.92400  1.0000
