# generated using pymatgen
data_As3H9RhC3(ClO)3
_symmetry_space_group_name_H-M   'P 1'
_cell_length_a   9.12663000
_cell_length_b   9.19188900
_cell_length_c   17.15447728
_cell_angle_alpha   67.05301647
_cell_angle_beta   90.00000000
_cell_angle_gamma   90.00000000
_symmetry_Int_Tables_number   1
_chemical_formula_structural   As3H9RhC3(ClO)3
_chemical_formula_sum   'As12 H36 Rh4 C12 Cl12 O12'
_cell_volume   1325.22355430
_cell_formula_units_Z   4
loop_
 _symmetry_equiv_pos_site_id
 _symmetry_equiv_pos_as_xyz
  1  'x, y, z'
loop_
 _atom_site_type_symbol
 _atom_site_label
 _atom_site_symmetry_multiplicity
 _atom_site_fract_x
 _atom_site_fract_y
 _atom_site_fract_z
 _atom_site_occupancy
  As  As0  1  0.35966400  0.76699000  0.57818200  1
  As  As1  1  0.28200300  0.12170900  0.52474500  1
  As  As2  1  0.71799700  0.87829100  0.47525500  1
  As  As3  1  0.21799700  0.12170900  0.02474500  1
  As  As4  1  0.85966400  0.23301000  0.92181800  1
  As  As5  1  0.14033600  0.76699000  0.07818200  1
  As  As6  1  0.41654300  0.93332600  0.38512000  1
  As  As7  1  0.78200300  0.87829100  0.97525500  1
  As  As8  1  0.58345700  0.06667400  0.61488000  1
  As  As9  1  0.91654300  0.06667400  0.11488000  1
  As  As10  1  0.08345700  0.93332600  0.88512000  1
  As  As11  1  0.64033600  0.23301000  0.42181800  1
  H  H12  1  0.21948300  0.98689900  0.75132300  1
  H  H13  1  0.21357200  0.48633400  0.12164000  1
  H  H14  1  0.71357200  0.51366600  0.37836000  1
  H  H15  1  0.78642800  0.51366600  0.87836000  1
  H  H16  1  0.27297900  0.54693500  0.70938800  1
  H  H17  1  0.28490100  0.77754100  0.31613900  1
  H  H18  1  0.61287700  0.65359600  0.99861800  1
  H  H19  1  0.78490100  0.22245900  0.18386100  1
  H  H20  1  0.89978900  0.79779800  0.39041300  1
  H  H21  1  0.55424500  0.12662400  0.74335400  1
  H  H22  1  0.10021100  0.20220200  0.60958700  1
  H  H23  1  0.21509900  0.77754100  0.81613900  1
  H  H24  1  0.72702100  0.45306500  0.29061200  1
  H  H25  1  0.38712300  0.34640400  0.00138200  1
  H  H26  1  0.48695100  0.16405300  0.02457400  1
  H  H27  1  0.86715900  0.39295900  0.37142800  1
  H  H28  1  0.71509900  0.22245900  0.68386100  1
  H  H29  1  0.63284100  0.39295900  0.87142800  1
  H  H30  1  0.28051700  0.98689900  0.25132300  1
  H  H31  1  0.22702100  0.54693500  0.20938800  1
  H  H32  1  0.01304900  0.16405300  0.52457400  1
  H  H33  1  0.05424500  0.87337600  0.75664600  1
  H  H34  1  0.94575500  0.12662400  0.24335400  1
  H  H35  1  0.88712300  0.65359600  0.49861800  1
  H  H36  1  0.77297900  0.45306500  0.79061200  1
  H  H37  1  0.28642800  0.48633400  0.62164000  1
  H  H38  1  0.11287700  0.34640400  0.50138200  1
  H  H39  1  0.60021100  0.79779800  0.89041300  1
  H  H40  1  0.36715900  0.60704100  0.12857200  1
  H  H41  1  0.51304900  0.83594700  0.97542600  1
  H  H42  1  0.78051700  0.01310100  0.24867700  1
  H  H43  1  0.98695100  0.83594700  0.47542600  1
  H  H44  1  0.39978900  0.20220200  0.10958700  1
  H  H45  1  0.13284100  0.60704100  0.62857200  1
  H  H46  1  0.44575500  0.87337600  0.25664600  1
  H  H47  1  0.71948300  0.01310100  0.74867700  1
  Rh  Rh48  1  0.60531200  0.81235700  0.60961600  1
  Rh  Rh49  1  0.89468800  0.81235700  0.10961600  1
  Rh  Rh50  1  0.10531200  0.18764300  0.89038400  1
  Rh  Rh51  1  0.39468800  0.18764300  0.39038400  1
  C  C52  1  0.75089400  0.42102100  0.35784900  1
  C  C53  1  0.15156600  0.88721400  0.79063600  1
  C  C54  1  0.39479900  0.22084100  0.04249200  1
  C  C55  1  0.65156600  0.11278600  0.70936400  1
  C  C56  1  0.10520100  0.22084100  0.54249200  1
  C  C57  1  0.74910600  0.42102100  0.85784900  1
  C  C58  1  0.60520100  0.77915900  0.95750800  1
  C  C59  1  0.25089400  0.57897900  0.14215100  1
  C  C60  1  0.89479900  0.77915900  0.45750800  1
  C  C61  1  0.34843400  0.88721400  0.29063600  1
  C  C62  1  0.24910600  0.57897900  0.64215100  1
  C  C63  1  0.84843400  0.11278600  0.20936400  1
  Cl  Cl64  1  0.50903700  0.73213100  0.75145300  1
  Cl  Cl65  1  0.49096300  0.26786900  0.24854700  1
  Cl  Cl66  1  0.14484000  0.16604700  0.35028900  1
  Cl  Cl67  1  0.85516000  0.83395300  0.64971100  1
  Cl  Cl68  1  0.13566200  0.45216600  0.88462500  1
  Cl  Cl69  1  0.36433800  0.45216600  0.38462500  1
  Cl  Cl70  1  0.63566200  0.54783400  0.61537500  1
  Cl  Cl71  1  0.64484000  0.83395300  0.14971100  1
  Cl  Cl72  1  0.86433800  0.54783400  0.11537500  1
  Cl  Cl73  1  0.99096300  0.73213100  0.25145300  1
  Cl  Cl74  1  0.00903700  0.26786900  0.74854700  1
  Cl  Cl75  1  0.35516000  0.16604700  0.85028900  1
  O  O76  1  0.89777600  0.85682000  0.89445300  1
  O  O77  1  0.77098300  0.08362900  0.42199300  1
  O  O78  1  0.39777600  0.14318000  0.60554700  1
  O  O79  1  0.17079200  0.77464900  0.97213200  1
  O  O80  1  0.82920800  0.22535100  0.02786800  1
  O  O81  1  0.67079200  0.22535100  0.52786800  1
  O  O82  1  0.22901700  0.91637100  0.57800700  1
  O  O83  1  0.60222400  0.85682000  0.39445300  1
  O  O84  1  0.10222400  0.14318000  0.10554700  1
  O  O85  1  0.72901700  0.08362900  0.92199300  1
  O  O86  1  0.32920800  0.77464900  0.47213200  1
  O  O87  1  0.27098300  0.91637100  0.07800700  1
