# generated using pymatgen
data_Sm32O21
_symmetry_space_group_name_H-M   'P 1'
_cell_length_a   10.93444138
_cell_length_b   10.93444138
_cell_length_c   10.93444171
_cell_angle_alpha   90.23051732
_cell_angle_beta   90.23051732
_cell_angle_gamma   90.23052255
_symmetry_Int_Tables_number   1
_chemical_formula_structural   Sm32O21
_chemical_formula_sum   'Sm32 O21'
_cell_volume   1307.31198073
_cell_formula_units_Z   1
loop_
 _symmetry_equiv_pos_site_id
 _symmetry_equiv_pos_as_xyz
  1  'x, y, z'
loop_
 _atom_site_type_symbol
 _atom_site_label
 _atom_site_symmetry_multiplicity
 _atom_site_fract_x
 _atom_site_fract_y
 _atom_site_fract_z
 _atom_site_occupancy
  Sm  Sm0  1  0.75590000  0.25800500  0.49517000  1
  Sm  Sm1  1  0.98873800  0.50042100  0.50042100  1
  Sm  Sm2  1  0.50042100  0.50042100  0.98873800  1
  Sm  Sm3  1  0.49146700  0.49146700  0.49146700  1
  Sm  Sm4  1  0.98763300  0.75324200  0.75324200  1
  Sm  Sm5  1  0.74472600  0.00646700  0.25496100  1
  Sm  Sm6  1  0.00646700  0.74472600  0.25496100  1
  Sm  Sm7  1  0.99647400  0.99647400  0.99647400  1
  Sm  Sm8  1  0.75324200  0.98763300  0.75324200  1
  Sm  Sm9  1  0.25496100  0.00646700  0.74472600  1
  Sm  Sm10  1  0.74472600  0.25496100  0.00646700  1
  Sm  Sm11  1  0.49517000  0.75590000  0.25800500  1
  Sm  Sm12  1  0.99928900  0.49954000  0.99928900  1
  Sm  Sm13  1  0.50327000  0.25070400  0.25070400  1
  Sm  Sm14  1  0.99288600  0.24737500  0.24737500  1
  Sm  Sm15  1  0.25070400  0.50327000  0.25070400  1
  Sm  Sm16  1  0.49517000  0.25800500  0.75590000  1
  Sm  Sm17  1  0.24737500  0.24737500  0.99288600  1
  Sm  Sm18  1  0.75590000  0.49517000  0.25800500  1
  Sm  Sm19  1  0.25070400  0.25070400  0.50327000  1
  Sm  Sm20  1  0.25496100  0.74472600  0.00646700  1
  Sm  Sm21  1  0.00646700  0.25496100  0.74472600  1
  Sm  Sm22  1  0.50042100  0.98873800  0.50042100  1
  Sm  Sm23  1  0.75324200  0.75324200  0.98763300  1
  Sm  Sm24  1  0.24737500  0.99288600  0.24737500  1
  Sm  Sm25  1  0.25800500  0.75590000  0.49517000  1
  Sm  Sm26  1  0.75651100  0.49013600  0.75651100  1
  Sm  Sm27  1  0.25800500  0.49517000  0.75590000  1
  Sm  Sm28  1  0.75651100  0.75651100  0.49013600  1
  Sm  Sm29  1  0.49954000  0.99928900  0.99928900  1
  Sm  Sm30  1  0.49013600  0.75651100  0.75651100  1
  Sm  Sm31  1  0.99928900  0.99928900  0.49954000  1
  O  O32  1  0.87428700  0.12752800  0.37593000  1
  O  O33  1  0.87770200  0.62684100  0.37290100  1
  O  O34  1  0.87383200  0.87383200  0.62099800  1
  O  O35  1  0.62099800  0.87383200  0.87383200  1
  O  O36  1  0.87428700  0.37593000  0.12752800  1
  O  O37  1  0.62168000  0.12928100  0.12928100  1
  O  O38  1  0.12928100  0.62168000  0.12928100  1
  O  O39  1  0.37593000  0.12752800  0.87428700  1
  O  O40  1  0.12928100  0.12928100  0.62168000  1
  O  O41  1  0.87383200  0.62099800  0.87383200  1
  O  O42  1  0.37290100  0.87770200  0.62684100  1
  O  O43  1  0.87770200  0.37290100  0.62684100  1
  O  O44  1  0.37163000  0.37163000  0.62676800  1
  O  O45  1  0.37593000  0.87428700  0.12752800  1
  O  O46  1  0.37163000  0.62676800  0.37163000  1
  O  O47  1  0.12752800  0.37593000  0.87428700  1
  O  O48  1  0.12752800  0.87428700  0.37593000  1
  O  O49  1  0.62684100  0.87770200  0.37290100  1
  O  O50  1  0.37290100  0.62684100  0.87770200  1
  O  O51  1  0.62684100  0.37290100  0.87770200  1
  O  O52  1  0.62676800  0.37163000  0.37163000  1
