# generated using pymatgen
data_ZnS
_symmetry_space_group_name_H-M   'P 1'
_cell_length_a   37.83798865
_cell_length_b   37.83798863
_cell_length_c   37.83798932
_cell_angle_alpha   5.84502688
_cell_angle_beta   5.84502719
_cell_angle_gamma   5.84502626
_symmetry_Int_Tables_number   1
_chemical_formula_structural   ZnS
_chemical_formula_sum   'Zn12 S12'
_cell_volume   486.98086194
_cell_formula_units_Z   12
loop_
 _symmetry_equiv_pos_site_id
 _symmetry_equiv_pos_as_xyz
  1  'x, y, z'
loop_
 _atom_site_type_symbol
 _atom_site_label
 _atom_site_symmetry_multiplicity
 _atom_site_fract_x
 _atom_site_fract_y
 _atom_site_fract_z
 _atom_site_occupancy
  Zn  Zn0  1  0.08333572  0.08333572  0.08333572  1
  Zn  Zn1  1  0.52778632  0.52778632  0.52778632  1
  Zn  Zn2  1  0.16667369  0.16667369  0.16667369  1
  Zn  Zn3  1  0.38888658  0.38888658  0.38888658  1
  Zn  Zn4  1  0.91666951  0.91666951  0.91666951  1
  Zn  Zn5  1  0.44445867  0.44445867  0.44445867  1
  Zn  Zn6  1  0.27779267  0.27779267  0.27779267  1
  Zn  Zn7  1  0.80555012  0.80555012  0.80555012  1
  Zn  Zn8  1  0.00000393  0.00000393  0.00000393  1
  Zn  Zn9  1  0.63888768  0.63888768  0.63888768  1
  Zn  Zn10  1  0.22222869  0.22222869  0.22222869  1
  Zn  Zn11  1  0.69445985  0.69445985  0.69445985  1
  S  S12  1  0.29860634  0.29860634  0.29860634  1
  S  S13  1  0.54862232  0.54862232  0.54862232  1
  S  S14  1  0.24303453  0.24303453  0.24303453  1
  S  S15  1  0.93751150  0.93751150  0.93751150  1
  S  S16  1  0.65969974  0.65969974  0.65969974  1
  S  S17  1  0.02084464  0.02084464  0.02084464  1
  S  S18  1  0.82637882  0.82637882  0.82637882  1
  S  S19  1  0.10417808  0.10417808  0.10417808  1
  S  S20  1  0.40970004  0.40970004  0.40970004  1
  S  S21  1  0.18748351  0.18748351  0.18748351  1
  S  S22  1  0.46526932  0.46526932  0.46526932  1
  S  S23  1  0.71527374  0.71527374  0.71527374  1
