# generated using pymatgen
data_ZnS
_symmetry_space_group_name_H-M   'P 1'
_cell_length_a   37.82495548
_cell_length_b   37.82495546
_cell_length_c   37.82495607
_cell_angle_alpha   5.84754026
_cell_angle_beta   5.84754056
_cell_angle_gamma   5.84754019
_symmetry_Int_Tables_number   1
_chemical_formula_structural   ZnS
_chemical_formula_sum   'Zn12 S12'
_cell_volume   486.89521991
_cell_formula_units_Z   12
loop_
 _symmetry_equiv_pos_site_id
 _symmetry_equiv_pos_as_xyz
  1  'x, y, z'
loop_
 _atom_site_type_symbol
 _atom_site_label
 _atom_site_symmetry_multiplicity
 _atom_site_fract_x
 _atom_site_fract_y
 _atom_site_fract_z
 _atom_site_occupancy
  Zn  Zn0  1  0.08333944  0.08333944  0.08333944  1
  Zn  Zn1  1  0.52778634  0.52778634  0.52778634  1
  Zn  Zn2  1  0.61112046  0.61112046  0.61112046  1
  Zn  Zn3  1  0.16667296  0.16667296  0.16667296  1
  Zn  Zn4  1  0.36112578  0.36112578  0.36112578  1
  Zn  Zn5  1  0.80555324  0.80555324  0.80555324  1
  Zn  Zn6  1  0.88888288  0.88888288  0.88888288  1
  Zn  Zn7  1  0.72222188  0.72222188  0.72222188  1
  Zn  Zn8  1  0.00000226  0.00000226  0.00000226  1
  Zn  Zn9  1  0.30556377  0.30556377  0.30556377  1
  Zn  Zn10  1  0.44445385  0.44445385  0.44445385  1
  Zn  Zn11  1  0.25000551  0.25000551  0.25000551  1
  S  S12  1  0.10416421  0.10416421  0.10416421  1
  S  S13  1  0.90970939  0.90970939  0.90970939  1
  S  S14  1  0.27081533  0.27081533  0.27081533  1
  S  S15  1  0.38193911  0.38193911  0.38193911  1
  S  S16  1  0.46527180  0.46527180  0.46527180  1
  S  S17  1  0.82637960  0.82637960  0.82637960  1
  S  S18  1  0.74304772  0.74304772  0.74304772  1
  S  S19  1  0.54860438  0.54860438  0.54860438  1
  S  S20  1  0.18749738  0.18749738  0.18749738  1
  S  S21  1  0.02084407  0.02084407  0.02084407  1
  S  S22  1  0.63195685  0.63195685  0.63195685  1
  S  S23  1  0.32636778  0.32636778  0.32636778  1
