# generated using pymatgen
data_Na6Mo11O36
_symmetry_space_group_name_H-M   'P 1'
_cell_length_a   9.82751140
_cell_length_b   9.82751140
_cell_length_c   22.85616602
_cell_angle_alpha   89.91208759
_cell_angle_beta   89.91208759
_cell_angle_gamma   135.67002118
_symmetry_Int_Tables_number   1
_chemical_formula_structural   Na6Mo11O36
_chemical_formula_sum   'Na12 Mo22 O72'
_cell_volume   1542.52912781
_cell_formula_units_Z   2
loop_
 _symmetry_equiv_pos_site_id
 _symmetry_equiv_pos_as_xyz
  1  'x, y, z'
loop_
 _atom_site_type_symbol
 _atom_site_label
 _atom_site_symmetry_multiplicity
 _atom_site_fract_x
 _atom_site_fract_y
 _atom_site_fract_z
 _atom_site_occupancy
  Na  Na0  1  0.01374200  0.51946500  0.17037600  1
  Na  Na1  1  0.98357300  0.98671500  0.58850700  1
  Na  Na2  1  0.50000000  0.00000000  0.50000000  1
  Na  Na3  1  0.99665700  0.00334300  0.75000000  1
  Na  Na4  1  0.48053500  0.98625800  0.32962400  1
  Na  Na5  1  0.01642700  0.01328500  0.41149300  1
  Na  Na6  1  0.51946500  0.01374200  0.67037600  1
  Na  Na7  1  0.98625800  0.48053500  0.82962400  1
  Na  Na8  1  0.01328500  0.01642700  0.91149300  1
  Na  Na9  1  0.00000000  0.50000000  0.00000000  1
  Na  Na10  1  0.98671500  0.98357300  0.08850700  1
  Na  Na11  1  0.00334300  0.99665700  0.25000000  1
  Mo  Mo12  1  0.06052300  0.37330600  0.67662900  1
  Mo  Mo13  1  0.63335100  0.44285300  0.08511900  1
  Mo  Mo14  1  0.61563700  0.95225500  0.17071600  1
  Mo  Mo15  1  0.63917400  0.95107800  0.00178700  1
  Mo  Mo16  1  0.55714700  0.36664900  0.41488100  1
  Mo  Mo17  1  0.04892200  0.36082600  0.49821300  1
  Mo  Mo18  1  0.95107800  0.63917400  0.50178700  1
  Mo  Mo19  1  0.44285300  0.63335100  0.58511900  1
  Mo  Mo20  1  0.35960600  0.54197600  0.08354800  1
  Mo  Mo21  1  0.56918500  0.43081500  0.75000000  1
  Mo  Mo22  1  0.95225500  0.61563700  0.67071600  1
  Mo  Mo23  1  0.43081500  0.56918500  0.25000000  1
  Mo  Mo24  1  0.04774500  0.38436300  0.32928400  1
  Mo  Mo25  1  0.38436300  0.04774500  0.82928400  1
  Mo  Mo26  1  0.64039400  0.45802400  0.91645200  1
  Mo  Mo27  1  0.93947700  0.62669400  0.32337100  1
  Mo  Mo28  1  0.36082600  0.04892200  0.99821300  1
  Mo  Mo29  1  0.45802400  0.64039400  0.41645200  1
  Mo  Mo30  1  0.37330600  0.06052300  0.17662900  1
  Mo  Mo31  1  0.36664900  0.55714700  0.91488100  1
  Mo  Mo32  1  0.54197600  0.35960600  0.58354800  1
  Mo  Mo33  1  0.62669400  0.93947700  0.82337100  1
  O  O34  1  0.56181000  0.37114000  0.99832500  1
  O  O35  1  0.16540900  0.98450500  0.83448800  1
  O  O36  1  0.67189800  0.69382500  0.25674300  1
  O  O37  1  0.64606200  0.44085400  0.33887500  1
  O  O38  1  0.96318900  0.13281500  0.49721000  1
  O  O39  1  0.92778300  0.60281800  0.24773600  1
  O  O40  1  0.53736800  0.86548800  0.41804400  1
  O  O41  1  0.83471800  0.30815900  0.49890200  1
  O  O42  1  0.67012500  0.65040600  0.08397500  1
  O  O43  1  0.86210400  0.55976800  0.42327800  1
  O  O44  1  0.86548800  0.53736800  0.91804400  1
  O  O45  1  0.85014200  0.33144200  0.65733300  1
  O  O46  1  0.46120700  0.13677800  0.75409000  1
  O  O47  1  0.55341600  0.85800500  0.08240700  1
  O  O48  1  0.55976800  0.86210400  0.92327800  1
  O  O49  1  0.62090700  0.42712100  0.66505000  1
  O  O50  1  0.34959400  0.32987500  0.41602500  1
  O  O51  1  0.60281800  0.92778300  0.74773600  1
  O  O52  1  0.30617500  0.32810200  0.24325700  1
  O  O53  1  0.69520100  0.18207700  0.16969200  1
  O  O54  1  0.54060600  0.86719300  0.58096200  1
  O  O55  1  0.66855800  0.14985800  0.84266700  1
  O  O56  1  0.42712100  0.62090700  0.16505000  1
  O  O57  1  0.29597700  0.32247200  0.08218800  1
  O  O58  1  0.86718500  0.03681100  0.00279000  1
  O  O59  1  0.13280700  0.45939400  0.91903800  1
  O  O60  1  0.83459100  0.01549500  0.16551200  1
  O  O61  1  0.13677800  0.46120700  0.25409000  1
  O  O62  1  0.44658400  0.14199500  0.91759300  1
  O  O63  1  0.14503500  0.97539600  0.16569400  1
  O  O64  1  0.35393800  0.55914600  0.66112500  1
  O  O65  1  0.46263200  0.13451200  0.58195600  1
  O  O66  1  0.07221700  0.39718200  0.75226400  1
  O  O67  1  0.13451200  0.46263200  0.08195600  1
  O  O68  1  0.86719300  0.54060600  0.08096200  1
  O  O69  1  0.13281500  0.96318900  0.99721000  1
  O  O70  1  0.65040600  0.67012500  0.58397500  1
  O  O71  1  0.32810200  0.30617500  0.74325700  1
  O  O72  1  0.33144200  0.85014200  0.15733300  1
  O  O73  1  0.62886000  0.43819000  0.50167500  1
  O  O74  1  0.57287900  0.37909300  0.83495000  1
  O  O75  1  0.01549500  0.83459100  0.66551200  1
  O  O76  1  0.69382500  0.67189800  0.75674300  1
  O  O77  1  0.30815900  0.83471800  0.99890200  1
  O  O78  1  0.18207700  0.69520100  0.66969200  1
  O  O79  1  0.39718200  0.07221700  0.25226400  1
  O  O80  1  0.53879300  0.86322200  0.24591000  1
  O  O81  1  0.02460400  0.85496500  0.33430600  1
  O  O82  1  0.14199500  0.44658400  0.41759300  1
  O  O83  1  0.14985800  0.66855800  0.34266700  1
  O  O84  1  0.98450500  0.16540900  0.33448800  1
  O  O85  1  0.32987500  0.34959400  0.91602500  1
  O  O86  1  0.32247200  0.29597700  0.58218800  1
  O  O87  1  0.85800500  0.55341600  0.58240700  1
  O  O88  1  0.55914600  0.35393800  0.16112500  1
  O  O89  1  0.37114000  0.56181000  0.49832500  1
  O  O90  1  0.67752800  0.70402300  0.41781200  1
  O  O91  1  0.81792300  0.30479900  0.33030800  1
  O  O92  1  0.37909300  0.57287900  0.33495000  1
  O  O93  1  0.44085400  0.64606200  0.83887500  1
  O  O94  1  0.16528200  0.69184100  0.50109800  1
  O  O95  1  0.97539600  0.14503500  0.66569400  1
  O  O96  1  0.03681100  0.86718500  0.50279000  1
  O  O97  1  0.13789600  0.44023200  0.57672200  1
  O  O98  1  0.45939400  0.13280700  0.41903800  1
  O  O99  1  0.43819000  0.62886000  0.00167500  1
  O  O100  1  0.69184100  0.16528200  0.00109800  1
  O  O101  1  0.86322200  0.53879300  0.74591000  1
  O  O102  1  0.85496500  0.02460400  0.83430600  1
  O  O103  1  0.44023200  0.13789600  0.07672200  1
  O  O104  1  0.70402300  0.67752800  0.91781200  1
  O  O105  1  0.30479900  0.81792300  0.83030800  1
