# generated using pymatgen
data_Tl2V8O21
_symmetry_space_group_name_H-M   'P 1'
_cell_length_a   7.98061624
_cell_length_b   7.98061624
_cell_length_c   15.28381676
_cell_angle_alpha   89.91738275
_cell_angle_beta   89.91738275
_cell_angle_gamma   26.28175181
_symmetry_Int_Tables_number   1
_chemical_formula_structural   Tl2V8O21
_chemical_formula_sum   'Tl2 V8 O21'
_cell_volume   431.02030953
_cell_formula_units_Z   1
loop_
 _symmetry_equiv_pos_site_id
 _symmetry_equiv_pos_as_xyz
  1  'x, y, z'
loop_
 _atom_site_type_symbol
 _atom_site_label
 _atom_site_symmetry_multiplicity
 _atom_site_fract_x
 _atom_site_fract_y
 _atom_site_fract_z
 _atom_site_occupancy
  Tl  Tl0  1  0.47396700  0.47396700  0.31249700  1
  Tl  Tl1  1  0.52603300  0.52603300  0.68750300  1
  V  V2  1  0.17130200  0.17130200  0.47489700  1
  V  V3  1  0.09266800  0.09266800  0.07188100  1
  V  V4  1  0.31148300  0.31148300  0.07105600  1
  V  V5  1  0.19205400  0.19205400  0.26634800  1
  V  V6  1  0.90733200  0.90733200  0.92811900  1
  V  V7  1  0.80794600  0.80794600  0.73365200  1
  V  V8  1  0.82869800  0.82869800  0.52510300  1
  V  V9  1  0.68851700  0.68851700  0.92894400  1
  O  O10  1  0.90512400  0.90512400  0.45141800  1
  O  O11  1  0.33357500  0.33357500  0.74320800  1
  O  O12  1  0.19412000  0.19412000  0.96661300  1
  O  O13  1  0.38718200  0.38718200  0.14373200  1
  O  O14  1  0.66642500  0.66642500  0.25679200  1
  O  O15  1  0.38164800  0.38164800  0.95471000  1
  O  O16  1  0.80588000  0.80588000  0.03338700  1
  O  O17  1  0.71199700  0.71199700  0.69109800  1
  O  O18  1  0.71052800  0.71052800  0.47098300  1
  O  O19  1  0.11949200  0.11949200  0.37174700  1
  O  O20  1  0.09487600  0.09487600  0.54858200  1
  O  O21  1  0.00000000  0.00000000  0.00000000  1
  O  O22  1  0.21461700  0.21461700  0.13820200  1
  O  O23  1  0.61835200  0.61835200  0.04529000  1
  O  O24  1  0.95004500  0.95004500  0.82950700  1
  O  O25  1  0.88050800  0.88050800  0.62825300  1
  O  O26  1  0.28947200  0.28947200  0.52901700  1
  O  O27  1  0.78538300  0.78538300  0.86179800  1
  O  O28  1  0.61281800  0.61281800  0.85626800  1
  O  O29  1  0.04995500  0.04995500  0.17049300  1
  O  O30  1  0.28800300  0.28800300  0.30890200  1
