# generated using pymatgen
data_MgSiO3
_symmetry_space_group_name_H-M   'P 1'
_cell_length_a   5.24579400
_cell_length_b   8.94539600
_cell_length_c   18.44950300
_cell_angle_alpha   90.00000000
_cell_angle_beta   90.00000000
_cell_angle_gamma   90.00000000
_symmetry_Int_Tables_number   1
_chemical_formula_structural   MgSiO3
_chemical_formula_sum   'Mg16 Si16 O48'
_cell_volume   865.75592898
_cell_formula_units_Z   16
loop_
 _symmetry_equiv_pos_site_id
 _symmetry_equiv_pos_as_xyz
  1  'x, y, z'
loop_
 _atom_site_type_symbol
 _atom_site_label
 _atom_site_symmetry_multiplicity
 _atom_site_fract_x
 _atom_site_fract_y
 _atom_site_fract_z
 _atom_site_occupancy
  Mg  Mg0  1  0.13047400  0.34721800  0.37587900  1
  Mg  Mg1  1  0.63047400  0.65278200  0.12412100  1
  Mg  Mg2  1  0.36952600  0.84721800  0.62412100  1
  Mg  Mg3  1  0.86952600  0.15278200  0.87587900  1
  Mg  Mg4  1  0.86952600  0.65278200  0.62412100  1
  Mg  Mg5  1  0.36952600  0.34721800  0.87587900  1
  Mg  Mg6  1  0.63047400  0.15278200  0.37587900  1
  Mg  Mg7  1  0.13047400  0.84721800  0.12412100  1
  Mg  Mg8  1  0.63648100  0.51119000  0.37606600  1
  Mg  Mg9  1  0.13648100  0.48881000  0.12393400  1
  Mg  Mg10  1  0.86351900  0.01119000  0.62393400  1
  Mg  Mg11  1  0.36351900  0.98881000  0.87606600  1
  Mg  Mg12  1  0.36351900  0.48881000  0.62393400  1
  Mg  Mg13  1  0.86351900  0.51119000  0.87606600  1
  Mg  Mg14  1  0.13648100  0.98881000  0.37606600  1
  Mg  Mg15  1  0.63648100  0.01119000  0.12393400  1
  Si  Si16  1  0.94445600  0.65895700  0.27186600  1
  Si  Si17  1  0.44445600  0.34104300  0.22813400  1
  Si  Si18  1  0.55554400  0.15895700  0.72813400  1
  Si  Si19  1  0.05554400  0.84104300  0.77186600  1
  Si  Si20  1  0.05554400  0.34104300  0.72813400  1
  Si  Si21  1  0.55554400  0.65895700  0.77186600  1
  Si  Si22  1  0.44445600  0.84104300  0.27186600  1
  Si  Si23  1  0.94445600  0.15895700  0.22813400  1
  Si  Si24  1  0.20442300  0.66269200  0.47418200  1
  Si  Si25  1  0.70442300  0.33730800  0.02581800  1
  Si  Si26  1  0.29557700  0.16269200  0.52581800  1
  Si  Si27  1  0.79557700  0.83730800  0.97418200  1
  Si  Si28  1  0.79557700  0.33730800  0.52581800  1
  Si  Si29  1  0.29557700  0.66269200  0.97418200  1
  Si  Si30  1  0.70442300  0.83730800  0.47418200  1
  Si  Si31  1  0.20442300  0.16269200  0.02581800  1
  O  O32  1  0.40059400  0.30324600  0.05145800  1
  O  O33  1  0.90059400  0.69675400  0.44854200  1
  O  O34  1  0.09940600  0.80324600  0.94854200  1
  O  O35  1  0.59940600  0.19675400  0.55145800  1
  O  O36  1  0.59940600  0.69675400  0.94854200  1
  O  O37  1  0.09940600  0.30324600  0.55145800  1
  O  O38  1  0.90059400  0.19675400  0.05145800  1
  O  O39  1  0.40059400  0.80324600  0.44854200  1
  O  O40  1  0.30926200  0.01742000  0.06750900  1
  O  O41  1  0.80926200  0.98258000  0.43249100  1
  O  O42  1  0.19073800  0.51742000  0.93249100  1
  O  O43  1  0.69073800  0.48258000  0.56750900  1
  O  O44  1  0.69073800  0.98258000  0.93249100  1
  O  O45  1  0.19073800  0.01742000  0.56750900  1
  O  O46  1  0.80926200  0.48258000  0.06750900  1
  O  O47  1  0.30926200  0.51742000  0.43249100  1
  O  O48  1  0.20354600  0.15922700  0.93701200  1
  O  O49  1  0.70354600  0.84077300  0.56298800  1
  O  O50  1  0.29645400  0.65922700  0.06298800  1
  O  O51  1  0.95256000  0.99931800  0.18840400  1
  O  O52  1  0.79645400  0.34077300  0.43701200  1
  O  O53  1  0.29645400  0.15922700  0.43701200  1
  O  O54  1  0.70354600  0.34077300  0.93701200  1
  O  O55  1  0.20354600  0.65922700  0.56298800  1
  O  O56  1  0.16182400  0.27872100  0.19706500  1
  O  O57  1  0.66182400  0.72127900  0.30293500  1
  O  O58  1  0.33817600  0.77872100  0.80293500  1
  O  O59  1  0.83817600  0.22127900  0.69706500  1
  O  O60  1  0.83817600  0.72127900  0.80293500  1
  O  O61  1  0.33817600  0.27872100  0.69706500  1
  O  O62  1  0.66182400  0.22127900  0.19706500  1
  O  O63  1  0.16182400  0.77872100  0.30293500  1
  O  O64  1  0.96091800  0.66008000  0.18361600  1
  O  O65  1  0.46091800  0.33992000  0.31638400  1
  O  O66  1  0.53908200  0.16008000  0.81638400  1
  O  O67  1  0.03908200  0.83992000  0.68361600  1
  O  O68  1  0.03908200  0.33992000  0.81638400  1
  O  O69  1  0.53908200  0.66008000  0.68361600  1
  O  O70  1  0.46091800  0.83992000  0.18361600  1
  O  O71  1  0.96091800  0.16008000  0.31638400  1
  O  O72  1  0.95256000  0.49931800  0.31159600  1
  O  O73  1  0.45256000  0.50068200  0.18840400  1
  O  O74  1  0.54744000  0.99931800  0.68840400  1
  O  O75  1  0.04744000  0.00068200  0.81159600  1
  O  O76  1  0.04744000  0.50068200  0.68840400  1
  O  O77  1  0.54744000  0.49931800  0.81159600  1
  O  O78  1  0.45256000  0.00068200  0.31159600  1
  O  O79  1  0.79645400  0.84077300  0.06298800  1
