# generated using pymatgen
data_MgSb2
_symmetry_space_group_name_H-M   'P 1'
_cell_length_a   6.41872421
_cell_length_b   6.41872421
_cell_length_c   8.20253351
_cell_angle_alpha   72.67143402
_cell_angle_beta   72.67143402
_cell_angle_gamma   28.84018675
_symmetry_Int_Tables_number   1
_chemical_formula_structural   MgSb2
_chemical_formula_sum   'Mg2 Sb4'
_cell_volume   155.11328637
_cell_formula_units_Z   2
loop_
 _symmetry_equiv_pos_site_id
 _symmetry_equiv_pos_as_xyz
  1  'x, y, z'
loop_
 _atom_site_type_symbol
 _atom_site_label
 _atom_site_symmetry_multiplicity
 _atom_site_fract_x
 _atom_site_fract_y
 _atom_site_fract_z
 _atom_site_occupancy
  Mg  Mg0  1  0.53434400  0.53434400  0.69754000  1
  Mg  Mg1  1  0.46565600  0.46565600  0.30246000  1
  Sb  Sb2  1  0.82589000  0.82589000  0.61294400  1
  Sb  Sb3  1  0.12416700  0.12416700  0.99371200  1
  Sb  Sb4  1  0.87583300  0.87583300  0.00628800  1
  Sb  Sb5  1  0.17411000  0.17411000  0.38705600  1
