# generated using pymatgen
data_Mg3Sb
_symmetry_space_group_name_H-M   'P 1'
_cell_length_a   6.25865952
_cell_length_b   6.25865952
_cell_length_c   5.43952100
_cell_angle_alpha   90.00000000
_cell_angle_beta   90.00000000
_cell_angle_gamma   119.99999493
_symmetry_Int_Tables_number   1
_chemical_formula_structural   Mg3Sb
_chemical_formula_sum   'Mg6 Sb2'
_cell_volume   184.52446873
_cell_formula_units_Z   2
loop_
 _symmetry_equiv_pos_site_id
 _symmetry_equiv_pos_as_xyz
  1  'x, y, z'
loop_
 _atom_site_type_symbol
 _atom_site_label
 _atom_site_symmetry_multiplicity
 _atom_site_fract_x
 _atom_site_fract_y
 _atom_site_fract_z
 _atom_site_occupancy
  Mg  Mg0  1  0.32915900  0.16457900  0.25000000  1
  Mg  Mg1  1  0.83542100  0.16457900  0.25000000  1
  Mg  Mg2  1  0.83542100  0.67084100  0.25000000  1
  Mg  Mg3  1  0.67084100  0.83542100  0.75000000  1
  Mg  Mg4  1  0.16457900  0.32915900  0.75000000  1
  Mg  Mg5  1  0.16457900  0.83542100  0.75000000  1
  Sb  Sb6  1  0.33333300  0.66666700  0.25000000  1
  Sb  Sb7  1  0.66666700  0.33333300  0.75000000  1
