# generated using pymatgen
data_CsW3Br3Cl4
_symmetry_space_group_name_H-M   'P 1'
_cell_length_a   10.33226031
_cell_length_b   10.33226031
_cell_length_c   15.91975800
_cell_angle_alpha   90.00000000
_cell_angle_beta   90.00000000
_cell_angle_gamma   120.00000200
_symmetry_Int_Tables_number   1
_chemical_formula_structural   CsW3Br3Cl4
_chemical_formula_sum   'Cs4 W12 Br12 Cl16'
_cell_volume   1471.83038104
_cell_formula_units_Z   4
loop_
 _symmetry_equiv_pos_site_id
 _symmetry_equiv_pos_as_xyz
  1  'x, y, z'
loop_
 _atom_site_type_symbol
 _atom_site_label
 _atom_site_symmetry_multiplicity
 _atom_site_fract_x
 _atom_site_fract_y
 _atom_site_fract_z
 _atom_site_occupancy
  Cs  Cs0  1  0.00000000  0.00000000  0.51592300  1
  Cs  Cs1  1  0.00000000  0.00000000  0.01592300  1
  Cs  Cs2  1  0.33333300  0.66666700  0.24213600  1
  Cs  Cs3  1  0.66666700  0.33333300  0.74213600  1
  W  W4  1  0.18198000  0.52346100  0.67976700  1
  W  W5  1  0.65851900  0.47653900  0.17976700  1
  W  W6  1  0.52346100  0.18198000  0.17976700  1
  W  W7  1  0.32670400  0.51591600  0.81470300  1
  W  W8  1  0.47653900  0.65851900  0.67976700  1
  W  W9  1  0.18921100  0.67329600  0.81470300  1
  W  W10  1  0.81078900  0.48408400  0.31470300  1
  W  W11  1  0.34148100  0.81802000  0.67976700  1
  W  W12  1  0.67329600  0.18921100  0.31470300  1
  W  W13  1  0.81802000  0.34148100  0.17976700  1
  W  W14  1  0.48408400  0.81078900  0.81470300  1
  W  W15  1  0.51591600  0.32670400  0.31470300  1
  Br  Br16  1  0.02392100  0.69669300  0.40283200  1
  Br  Br17  1  0.69669300  0.02392100  0.90283200  1
  Br  Br18  1  0.32113200  0.95965800  0.09130000  1
  Br  Br19  1  0.04034200  0.36147400  0.09130000  1
  Br  Br20  1  0.97607900  0.67277200  0.90283200  1
  Br  Br21  1  0.67886800  0.63852600  0.59130000  1
  Br  Br22  1  0.95965800  0.32113200  0.59130000  1
  Br  Br23  1  0.32722800  0.30330700  0.90283200  1
  Br  Br24  1  0.67277200  0.97607900  0.40283200  1
  Br  Br25  1  0.30330700  0.32722800  0.40283200  1
  Br  Br26  1  0.36147400  0.04034200  0.59130000  1
  Br  Br27  1  0.63852600  0.67886800  0.09130000  1
  Cl  Cl28  1  0.60846100  0.65539100  0.81321000  1
  Cl  Cl29  1  0.66666700  0.33333300  0.43968000  1
  Cl  Cl30  1  0.33333300  0.66666700  0.93968000  1
  Cl  Cl31  1  0.34460900  0.95307000  0.81321000  1
  Cl  Cl32  1  0.68359100  0.06102700  0.18122900  1
  Cl  Cl33  1  0.95307000  0.34460900  0.31321000  1
  Cl  Cl34  1  0.04693000  0.39153900  0.81321000  1
  Cl  Cl35  1  0.06102700  0.68359100  0.68122900  1
  Cl  Cl36  1  0.39153900  0.04693000  0.31321000  1
  Cl  Cl37  1  0.37743600  0.31640900  0.18122900  1
  Cl  Cl38  1  0.93897300  0.62256400  0.18122900  1
  Cl  Cl39  1  0.66666700  0.33333300  0.05434000  1
  Cl  Cl40  1  0.31640900  0.37743600  0.68122900  1
  Cl  Cl41  1  0.65539100  0.60846100  0.31321000  1
  Cl  Cl42  1  0.33333300  0.66666700  0.55434000  1
  Cl  Cl43  1  0.62256400  0.93897300  0.68122900  1
