# generated using pymatgen
data_Cs3GeAsSe5
_symmetry_space_group_name_H-M   'P 1'
_cell_length_a   9.84601300
_cell_length_b   7.93550600
_cell_length_c   20.25663225
_cell_angle_alpha   77.08645000
_cell_angle_beta   90.00000000
_cell_angle_gamma   90.00000000
_symmetry_Int_Tables_number   1
_chemical_formula_structural   Cs3GeAsSe5
_chemical_formula_sum   'Cs12 Ge4 As4 Se20'
_cell_volume   1542.68397550
_cell_formula_units_Z   4
loop_
 _symmetry_equiv_pos_site_id
 _symmetry_equiv_pos_as_xyz
  1  'x, y, z'
loop_
 _atom_site_type_symbol
 _atom_site_label
 _atom_site_symmetry_multiplicity
 _atom_site_fract_x
 _atom_site_fract_y
 _atom_site_fract_z
 _atom_site_occupancy
  Cs  Cs0  1  0.43960600  0.15786600  0.76148200  1
  Cs  Cs1  1  0.69920100  0.91423400  0.45810300  1
  Cs  Cs2  1  0.93960600  0.84213400  0.73851800  1
  Cs  Cs3  1  0.78941500  0.38334700  0.58565700  1
  Cs  Cs4  1  0.06039400  0.15786600  0.26148200  1
  Cs  Cs5  1  0.21058500  0.61665300  0.41434300  1
  Cs  Cs6  1  0.80079900  0.91423400  0.95810300  1
  Cs  Cs7  1  0.28941500  0.61665300  0.91434300  1
  Cs  Cs8  1  0.71058500  0.38334700  0.08565700  1
  Cs  Cs9  1  0.56039400  0.84213400  0.23851800  1
  Cs  Cs10  1  0.30079900  0.08576600  0.54189700  1
  Cs  Cs11  1  0.19920100  0.08576600  0.04189700  1
  Ge  Ge12  1  0.79083800  0.42517000  0.37061200  1
  Ge  Ge13  1  0.20916200  0.57483000  0.62938800  1
  Ge  Ge14  1  0.29083800  0.57483000  0.12938800  1
  Ge  Ge15  1  0.70916200  0.42517000  0.87061200  1
  As  As16  1  0.04164200  0.32897000  0.79958800  1
  As  As17  1  0.95835800  0.67103000  0.20041200  1
  As  As18  1  0.54164200  0.67103000  0.70041200  1
  As  As19  1  0.45835800  0.32897000  0.29958800  1
  Se  Se20  1  0.09597800  0.51836200  0.07233000  1
  Se  Se21  1  0.70597800  0.29688300  0.27755600  1
  Se  Se22  1  0.40402200  0.51836200  0.57233000  1
  Se  Se23  1  0.45984700  0.75026800  0.06941600  1
  Se  Se24  1  0.88606800  0.71075800  0.31553300  1
  Se  Se25  1  0.04015300  0.75026800  0.56941600  1
  Se  Se26  1  0.20597800  0.70311700  0.22244400  1
  Se  Se27  1  0.88389800  0.93929600  0.13659300  1
  Se  Se28  1  0.61393200  0.71075800  0.81553300  1
  Se  Se29  1  0.11610200  0.06070400  0.86340700  1
  Se  Se30  1  0.95984700  0.24973200  0.43058400  1
  Se  Se31  1  0.54015300  0.24973200  0.93058400  1
  Se  Se32  1  0.79402200  0.29688300  0.77755600  1
  Se  Se33  1  0.38389800  0.06070400  0.36340700  1
  Se  Se34  1  0.59597800  0.48163800  0.42767000  1
  Se  Se35  1  0.90402200  0.48163800  0.92767000  1
  Se  Se36  1  0.61610200  0.93929600  0.63659300  1
  Se  Se37  1  0.38606800  0.28924200  0.18446700  1
  Se  Se38  1  0.11393200  0.28924200  0.68446700  1
  Se  Se39  1  0.29402200  0.70311700  0.72244400  1
