# generated using pymatgen
data_Sr21(Mn2Sb9)2
_symmetry_space_group_name_H-M   'P 1'
_cell_length_a   12.71075398
_cell_length_b   12.71075398
_cell_length_c   18.00054882
_cell_angle_alpha   88.63605540
_cell_angle_beta   88.63605540
_cell_angle_gamma   87.55856790
_symmetry_Int_Tables_number   1
_chemical_formula_structural   Sr21(Mn2Sb9)2
_chemical_formula_sum   'Sr42 Mn8 Sb36'
_cell_volume   2904.00820125
_cell_formula_units_Z   2
loop_
 _symmetry_equiv_pos_site_id
 _symmetry_equiv_pos_as_xyz
  1  'x, y, z'
loop_
 _atom_site_type_symbol
 _atom_site_label
 _atom_site_symmetry_multiplicity
 _atom_site_fract_x
 _atom_site_fract_y
 _atom_site_fract_z
 _atom_site_occupancy
  Sr  Sr0  1  0.90287100  0.24064800  0.65939300  1
  Sr  Sr1  1  0.00365500  0.67707600  0.93728300  1
  Sr  Sr2  1  0.49081300  0.72883700  0.92232500  1
  Sr  Sr3  1  0.50918700  0.27116300  0.07767500  1
  Sr  Sr4  1  0.57838900  0.25046800  0.64626100  1
  Sr  Sr5  1  0.09712900  0.75935200  0.34060700  1
  Sr  Sr6  1  0.43270300  0.07641900  0.25723600  1
  Sr  Sr7  1  0.75935200  0.09712900  0.34060700  1
  Sr  Sr8  1  0.90299000  0.90299000  0.75502400  1
  Sr  Sr9  1  0.92933300  0.17741200  0.88067900  1
  Sr  Sr10  1  0.74953200  0.42161100  0.35373900  1
  Sr  Sr11  1  0.82258800  0.07066700  0.11932100  1
  Sr  Sr12  1  0.99228900  0.24559500  0.44398800  1
  Sr  Sr13  1  0.09701000  0.09701000  0.24497600  1
  Sr  Sr14  1  0.07641900  0.43270300  0.25723600  1
  Sr  Sr15  1  0.23691400  0.23691400  0.59116400  1
  Sr  Sr16  1  0.07066700  0.82258800  0.11932100  1
  Sr  Sr17  1  0.72883700  0.49081300  0.92232500  1
  Sr  Sr18  1  0.32292400  0.99634500  0.06271700  1
  Sr  Sr19  1  0.76308600  0.76308600  0.40883600  1
  Sr  Sr20  1  0.24559500  0.99228900  0.44398800  1
  Sr  Sr21  1  0.42161100  0.74953200  0.35373900  1
  Sr  Sr22  1  0.17741200  0.92933300  0.88067900  1
  Sr  Sr23  1  0.56729700  0.92358100  0.74276400  1
  Sr  Sr24  1  0.50372200  0.76346700  0.55843300  1
  Sr  Sr25  1  0.42848400  0.73854500  0.15070400  1
  Sr  Sr26  1  0.73854500  0.42848400  0.15070400  1
  Sr  Sr27  1  0.57151600  0.26145500  0.84929600  1
  Sr  Sr28  1  0.76346700  0.50372200  0.55843300  1
  Sr  Sr29  1  0.24829700  0.24829700  0.91985900  1
  Sr  Sr30  1  0.24064800  0.90287100  0.65939300  1
  Sr  Sr31  1  0.67707600  0.00365500  0.93728300  1
  Sr  Sr32  1  0.26145500  0.57151600  0.84929600  1
  Sr  Sr33  1  0.00771100  0.75440500  0.55601200  1
  Sr  Sr34  1  0.27116300  0.50918700  0.07767500  1
  Sr  Sr35  1  0.92358100  0.56729700  0.74276400  1
  Sr  Sr36  1  0.99634500  0.32292400  0.06271700  1
  Sr  Sr37  1  0.25046800  0.57838900  0.64626100  1
  Sr  Sr38  1  0.23653300  0.49627800  0.44156700  1
  Sr  Sr39  1  0.49627800  0.23653300  0.44156700  1
  Sr  Sr40  1  0.75440500  0.00771100  0.55601200  1
  Sr  Sr41  1  0.75170300  0.75170300  0.08014100  1
  Mn  Mn42  1  0.65112900  0.87426500  0.25073800  1
  Mn  Mn43  1  0.34887100  0.12573500  0.74926200  1
  Mn  Mn44  1  0.49905900  0.49905900  0.70525300  1
  Mn  Mn45  1  0.65830600  0.65830600  0.74318200  1
  Mn  Mn46  1  0.34169400  0.34169400  0.25681800  1
  Mn  Mn47  1  0.12573500  0.34887100  0.74926200  1
  Mn  Mn48  1  0.87426500  0.65112900  0.25073800  1
  Mn  Mn49  1  0.50094100  0.50094100  0.29474700  1
  Sb  Sb50  1  0.26081200  0.89819100  0.24244100  1
  Sb  Sb51  1  0.95979000  0.57747900  0.11534500  1
  Sb  Sb52  1  0.43759000  0.70440100  0.73876800  1
  Sb  Sb53  1  0.87349900  0.87349900  0.24411400  1
  Sb  Sb54  1  0.56474900  0.95013600  0.39672400  1
  Sb  Sb55  1  0.65087100  0.65087100  0.25035000  1
  Sb  Sb56  1  0.24190900  0.24190900  0.37861900  1
  Sb  Sb57  1  0.74537300  0.25462700  0.00000000  1
  Sb  Sb58  1  0.44461100  0.44461100  0.56042700  1
  Sb  Sb59  1  0.04986400  0.43525100  0.60327600  1
  Sb  Sb60  1  0.45226200  0.45226200  0.93723900  1
  Sb  Sb61  1  0.57747900  0.95979000  0.11534500  1
  Sb  Sb62  1  0.55538900  0.55538900  0.43957300  1
  Sb  Sb63  1  0.89819100  0.26081200  0.24244100  1
  Sb  Sb64  1  0.95013600  0.56474900  0.39672400  1
  Sb  Sb65  1  0.56241000  0.29559900  0.26123200  1
  Sb  Sb66  1  0.29559900  0.56241000  0.26123200  1
  Sb  Sb67  1  0.07274400  0.07274400  0.03380900  1
  Sb  Sb68  1  0.96489400  0.96489400  0.42630100  1
  Sb  Sb69  1  0.10180900  0.73918800  0.75755900  1
  Sb  Sb70  1  0.43525100  0.04986400  0.60327600  1
  Sb  Sb71  1  0.25467500  0.74532500  0.50000000  1
  Sb  Sb72  1  0.75809100  0.75809100  0.62138100  1
  Sb  Sb73  1  0.34912900  0.34912900  0.74965000  1
  Sb  Sb74  1  0.25395700  0.25395700  0.12938500  1
  Sb  Sb75  1  0.25462700  0.74537300  0.00000000  1
  Sb  Sb76  1  0.70440100  0.43759000  0.73876800  1
  Sb  Sb77  1  0.04021000  0.42252100  0.88465500  1
  Sb  Sb78  1  0.73918800  0.10180900  0.75755900  1
  Sb  Sb79  1  0.54773800  0.54773800  0.06276100  1
  Sb  Sb80  1  0.42252100  0.04021000  0.88465500  1
  Sb  Sb81  1  0.03510600  0.03510600  0.57369900  1
  Sb  Sb82  1  0.74532500  0.25467500  0.50000000  1
  Sb  Sb83  1  0.12650100  0.12650100  0.75588600  1
  Sb  Sb84  1  0.74604300  0.74604300  0.87061500  1
  Sb  Sb85  1  0.92725600  0.92725600  0.96619100  1
