# generated using pymatgen
data_Nd13Cd58
_symmetry_space_group_name_H-M   'P 1'
_cell_length_a   15.97751324
_cell_length_b   15.97751366
_cell_length_c   15.66193780
_cell_angle_alpha   90.00000000
_cell_angle_beta   90.00000000
_cell_angle_gamma   119.99999913
_symmetry_Int_Tables_number   1
_chemical_formula_structural   Nd13Cd58
_chemical_formula_sum   'Nd26 Cd116'
_cell_volume   3462.53772642
_cell_formula_units_Z   2
loop_
 _symmetry_equiv_pos_site_id
 _symmetry_equiv_pos_as_xyz
  1  'x, y, z'
loop_
 _atom_site_type_symbol
 _atom_site_label
 _atom_site_symmetry_multiplicity
 _atom_site_fract_x
 _atom_site_fract_y
 _atom_site_fract_z
 _atom_site_occupancy
  Nd  Nd0  1  0.41093652  0.20546826  0.55238514  1
  Nd  Nd1  1  0.87173645  0.74347290  0.25000000  1
  Nd  Nd2  1  0.20546826  0.41093652  0.05238514  1
  Nd  Nd3  1  0.08634425  0.54317213  0.75000000  1
  Nd  Nd4  1  0.79453174  0.58906348  0.94761486  1
  Nd  Nd5  1  0.79453174  0.20546826  0.55238514  1
  Nd  Nd6  1  0.91365575  0.45682787  0.25000000  1
  Nd  Nd7  1  0.79453174  0.20546826  0.94761486  1
  Nd  Nd8  1  0.79453174  0.58906348  0.55238514  1
  Nd  Nd9  1  0.45682787  0.91365575  0.75000000  1
  Nd  Nd10  1  0.12826355  0.87173645  0.75000000  1
  Nd  Nd11  1  0.87173645  0.12826355  0.25000000  1
  Nd  Nd12  1  0.58906348  0.79453174  0.05238514  1
  Nd  Nd13  1  0.58906348  0.79453174  0.44761486  1
  Nd  Nd14  1  0.20546826  0.79453174  0.44761486  1
  Nd  Nd15  1  0.00000000  0.00000000  0.00000000  1
  Nd  Nd16  1  0.45682787  0.54317213  0.75000000  1
  Nd  Nd17  1  0.54317213  0.08634425  0.25000000  1
  Nd  Nd18  1  0.12826355  0.25652710  0.75000000  1
  Nd  Nd19  1  0.74347290  0.87173645  0.75000000  1
  Nd  Nd20  1  0.20546826  0.41093652  0.44761486  1
  Nd  Nd21  1  0.41093652  0.20546826  0.94761486  1
  Nd  Nd22  1  0.00000000  0.00000000  0.50000000  1
  Nd  Nd23  1  0.25652710  0.12826355  0.25000000  1
  Nd  Nd24  1  0.20546826  0.79453174  0.05238514  1
  Nd  Nd25  1  0.54317213  0.45682787  0.25000000  1
  Cd  Cd26  1  0.90746264  0.09253736  0.65569638  1
  Cd  Cd27  1  0.00000000  0.19899165  0.00000000  1
  Cd  Cd28  1  0.63496033  0.96393137  0.60252393  1
  Cd  Cd29  1  0.36503967  0.32897104  0.39747607  1
  Cd  Cd30  1  0.67102896  0.63496033  0.10252393  1
  Cd  Cd31  1  0.60031060  0.39968940  0.05192825  1
  Cd  Cd32  1  0.63496033  0.67102896  0.89747607  1
  Cd  Cd33  1  0.96393137  0.63496033  0.10252393  1
  Cd  Cd34  1  0.20062120  0.60031060  0.94807175  1
  Cd  Cd35  1  0.09253736  0.90746264  0.34430362  1
  Cd  Cd36  1  0.56126134  0.12252267  0.64543046  1
  Cd  Cd37  1  0.81492528  0.90746264  0.34430362  1
  Cd  Cd38  1  0.73265863  0.26734137  0.75000000  1
  Cd  Cd39  1  0.43873866  0.87747733  0.35456954  1
  Cd  Cd40  1  0.32897104  0.36503967  0.89747607  1
  Cd  Cd41  1  0.03606863  0.67102896  0.89747607  1
  Cd  Cd42  1  0.53025565  0.76512783  0.84157831  1
  Cd  Cd43  1  0.80100835  0.80100835  0.00000000  1
  Cd  Cd44  1  0.36503967  0.03606863  0.39747607  1
  Cd  Cd45  1  0.00000000  0.19899165  0.50000000  1
  Cd  Cd46  1  0.91820782  0.64166017  0.75000000  1
  Cd  Cd47  1  0.19899165  0.19899165  0.50000000  1
  Cd  Cd48  1  0.67102896  0.03606863  0.10252393  1
  Cd  Cd49  1  0.60031060  0.39968940  0.44807175  1
  Cd  Cd50  1  0.76512783  0.53025565  0.34157831  1
  Cd  Cd51  1  0.76512783  0.53025565  0.15842169  1
  Cd  Cd52  1  0.96393137  0.32897104  0.10252393  1
  Cd  Cd53  1  0.66666700  0.33333300  0.59538991  1
  Cd  Cd54  1  0.27654766  0.91820782  0.25000000  1
  Cd  Cd55  1  0.46974435  0.23487217  0.34157831  1
  Cd  Cd56  1  0.03606863  0.36503967  0.60252393  1
  Cd  Cd57  1  0.33333300  0.66666700  0.75000000  1
  Cd  Cd58  1  0.72345234  0.08179218  0.75000000  1
  Cd  Cd59  1  0.03606863  0.36503967  0.89747607  1
  Cd  Cd60  1  0.80100835  0.00000000  0.50000000  1
  Cd  Cd61  1  0.60031060  0.20062120  0.44807175  1
  Cd  Cd62  1  0.67102896  0.03606863  0.39747607  1
  Cd  Cd63  1  0.35833983  0.08179218  0.75000000  1
  Cd  Cd64  1  0.91820782  0.27654766  0.75000000  1
  Cd  Cd65  1  0.00000000  0.80100835  0.00000000  1
  Cd  Cd66  1  0.43873866  0.56126134  0.14543046  1
  Cd  Cd67  1  0.12252267  0.56126134  0.35456954  1
  Cd  Cd68  1  0.50000000  0.00000000  0.50000000  1
  Cd  Cd69  1  0.90746264  0.81492528  0.84430362  1
  Cd  Cd70  1  0.09253736  0.18507472  0.15569638  1
  Cd  Cd71  1  0.03606863  0.67102896  0.60252393  1
  Cd  Cd72  1  0.32897104  0.36503967  0.60252393  1
  Cd  Cd73  1  0.56126134  0.12252267  0.85456954  1
  Cd  Cd74  1  0.20062120  0.60031060  0.55192825  1
  Cd  Cd75  1  0.63496033  0.67102896  0.60252393  1
  Cd  Cd76  1  0.43873866  0.56126134  0.35456954  1
  Cd  Cd77  1  0.00000000  0.00000000  0.25000000  1
  Cd  Cd78  1  0.60031060  0.20062120  0.05192825  1
  Cd  Cd79  1  0.79937880  0.39968940  0.44807175  1
  Cd  Cd80  1  0.73265863  0.46531726  0.75000000  1
  Cd  Cd81  1  0.39968940  0.79937880  0.94807175  1
  Cd  Cd82  1  0.66666700  0.33333300  0.90461009  1
  Cd  Cd83  1  0.23487217  0.46974435  0.84157831  1
  Cd  Cd84  1  0.76512783  0.23487217  0.15842169  1
  Cd  Cd85  1  0.27654766  0.35833983  0.25000000  1
  Cd  Cd86  1  0.39968940  0.60031060  0.55192825  1
  Cd  Cd87  1  0.36503967  0.03606863  0.10252393  1
  Cd  Cd88  1  0.76512783  0.23487217  0.34157831  1
  Cd  Cd89  1  0.81492528  0.90746264  0.15569638  1
  Cd  Cd90  1  0.32897104  0.96393137  0.89747607  1
  Cd  Cd91  1  0.87747733  0.43873866  0.85456954  1
  Cd  Cd92  1  0.90746264  0.81492528  0.65569638  1
  Cd  Cd93  1  0.12252267  0.56126134  0.14543046  1
  Cd  Cd94  1  0.96393137  0.32897104  0.39747607  1
  Cd  Cd95  1  0.64166017  0.72345234  0.25000000  1
  Cd  Cd96  1  0.56126134  0.43873866  0.85456954  1
  Cd  Cd97  1  0.46974435  0.23487217  0.15842169  1
  Cd  Cd98  1  0.80100835  0.80100835  0.50000000  1
  Cd  Cd99  1  0.00000000  0.00000000  0.75000000  1
  Cd  Cd100  1  0.18507472  0.09253736  0.65569638  1
  Cd  Cd101  1  0.19899165  0.19899165  0.00000000  1
  Cd  Cd102  1  0.19899165  0.00000000  0.50000000  1
  Cd  Cd103  1  0.08179218  0.35833983  0.25000000  1
  Cd  Cd104  1  0.67102896  0.63496033  0.39747607  1
  Cd  Cd105  1  0.53025565  0.76512783  0.65842169  1
  Cd  Cd106  1  0.79937880  0.39968940  0.05192825  1
  Cd  Cd107  1  0.36503967  0.32897104  0.10252393  1
  Cd  Cd108  1  0.23487217  0.76512783  0.84157831  1
  Cd  Cd109  1  0.66666700  0.33333300  0.25000000  1
  Cd  Cd110  1  0.43873866  0.87747733  0.14543046  1
  Cd  Cd111  1  0.50000000  0.50000000  0.00000000  1
  Cd  Cd112  1  0.00000000  0.50000000  0.50000000  1
  Cd  Cd113  1  0.23487217  0.76512783  0.65842169  1
  Cd  Cd114  1  0.33333300  0.66666700  0.40461009  1
  Cd  Cd115  1  0.19899165  0.00000000  0.00000000  1
  Cd  Cd116  1  0.08179218  0.72345234  0.25000000  1
  Cd  Cd117  1  0.00000000  0.80100835  0.50000000  1
  Cd  Cd118  1  0.63496033  0.96393137  0.89747607  1
  Cd  Cd119  1  0.50000000  0.50000000  0.50000000  1
  Cd  Cd120  1  0.18507472  0.09253736  0.84430362  1
  Cd  Cd121  1  0.53468274  0.26734137  0.75000000  1
  Cd  Cd122  1  0.09253736  0.90746264  0.15569638  1
  Cd  Cd123  1  0.90746264  0.09253736  0.84430362  1
  Cd  Cd124  1  0.56126134  0.43873866  0.64543046  1
  Cd  Cd125  1  0.35833983  0.27654766  0.75000000  1
  Cd  Cd126  1  0.26734137  0.73265863  0.25000000  1
  Cd  Cd127  1  0.96393137  0.63496033  0.39747607  1
  Cd  Cd128  1  0.33333300  0.66666700  0.09538991  1
  Cd  Cd129  1  0.26734137  0.53468274  0.25000000  1
  Cd  Cd130  1  0.80100835  0.00000000  0.00000000  1
  Cd  Cd131  1  0.64166017  0.91820782  0.25000000  1
  Cd  Cd132  1  0.50000000  0.00000000  0.00000000  1
  Cd  Cd133  1  0.87747733  0.43873866  0.64543046  1
  Cd  Cd134  1  0.32897104  0.96393137  0.60252393  1
  Cd  Cd135  1  0.00000000  0.50000000  0.00000000  1
  Cd  Cd136  1  0.09253736  0.18507472  0.34430362  1
  Cd  Cd137  1  0.39968940  0.60031060  0.94807175  1
  Cd  Cd138  1  0.23487217  0.46974435  0.65842169  1
  Cd  Cd139  1  0.72345234  0.64166017  0.75000000  1
  Cd  Cd140  1  0.39968940  0.79937880  0.55192825  1
  Cd  Cd141  1  0.46531726  0.73265863  0.25000000  1
