# generated using pymatgen
data_CdI2
_symmetry_space_group_name_H-M   'P 1'
_cell_length_a   4.33697926
_cell_length_b   4.33697926
_cell_length_c   116.34162600
_cell_angle_alpha   90.00000000
_cell_angle_beta   90.00000000
_cell_angle_gamma   119.99998870
_symmetry_Int_Tables_number   1
_chemical_formula_structural   CdI2
_chemical_formula_sum   'Cd15 I30'
_cell_volume   1895.13652036
_cell_formula_units_Z   15
loop_
 _symmetry_equiv_pos_site_id
 _symmetry_equiv_pos_as_xyz
  1  'x, y, z'
loop_
 _atom_site_type_symbol
 _atom_site_label
 _atom_site_symmetry_multiplicity
 _atom_site_fract_x
 _atom_site_fract_y
 _atom_site_fract_z
 _atom_site_occupancy
  Cd  Cd0  1  0.00000000  0.00000000  0.01673900  1
  Cd  Cd1  1  0.33333300  0.66666700  0.48310800  1
  Cd  Cd2  1  0.33333300  0.66666700  0.95010400  1
  Cd  Cd3  1  0.00000000  0.00000000  0.61660400  1
  Cd  Cd4  1  0.33333300  0.66666700  0.81679700  1
  Cd  Cd5  1  0.33333300  0.66666700  0.35011500  1
  Cd  Cd6  1  0.00000000  0.00000000  0.28332000  1
  Cd  Cd7  1  0.33333300  0.66666700  0.68330200  1
  Cd  Cd8  1  0.33333300  0.66666700  0.21660000  1
  Cd  Cd9  1  0.00000000  0.00000000  0.55009100  1
  Cd  Cd10  1  0.00000000  0.00000000  0.14985300  1
  Cd  Cd11  1  0.33333300  0.66666700  0.08324000  1
  Cd  Cd12  1  0.33333300  0.66666700  0.88343200  1
  Cd  Cd13  1  0.00000000  0.00000000  0.41663400  1
  Cd  Cd14  1  0.00000000  0.00000000  0.75007000  1
  I  I15  1  0.33333300  0.66666700  0.73527000  1
  I  I16  1  0.66666700  0.33333300  0.56487300  1
  I  I17  1  0.33333300  0.66666700  0.40182700  1
  I  I18  1  0.66666700  0.33333300  0.43143000  1
  I  I19  1  0.00000000  0.00000000  0.33532500  1
  I  I20  1  0.66666700  0.33333300  0.36489800  1
  I  I21  1  0.66666700  0.33333300  0.89820800  1
  I  I22  1  0.66666700  0.33333300  0.96488400  1
  I  I23  1  0.66666700  0.33333300  0.23138600  1
  I  I24  1  0.33333300  0.66666700  0.53530600  1
  I  I25  1  0.00000000  0.00000000  0.80200900  1
  I  I26  1  0.66666700  0.33333300  0.69809000  1
  I  I27  1  0.33333300  0.66666700  0.60181500  1
  I  I28  1  0.00000000  0.00000000  0.86864900  1
  I  I29  1  0.66666700  0.33333300  0.76487500  1
  I  I30  1  0.00000000  0.00000000  0.46833300  1
  I  I31  1  0.66666700  0.33333300  0.63139200  1
  I  I32  1  0.00000000  0.00000000  0.20181700  1
  I  I33  1  0.66666700  0.33333300  0.09802800  1
  I  I34  1  0.33333300  0.66666700  0.00194900  1
  I  I35  1  0.33333300  0.66666700  0.13505800  1
  I  I36  1  0.00000000  0.00000000  0.06845800  1
  I  I37  1  0.66666700  0.33333300  0.03152300  1
  I  I38  1  0.33333300  0.66666700  0.26852900  1
  I  I39  1  0.66666700  0.33333300  0.29810600  1
  I  I40  1  0.00000000  0.00000000  0.93531200  1
  I  I41  1  0.66666700  0.33333300  0.83157500  1
  I  I42  1  0.00000000  0.00000000  0.66851900  1
  I  I43  1  0.66666700  0.33333300  0.16464200  1
  I  I44  1  0.66666700  0.33333300  0.49790300  1
