# generated using pymatgen
data_SiO2
_symmetry_space_group_name_H-M   'P 1'
_cell_length_a   7.19951709
_cell_length_b   7.19951709
_cell_length_c   17.60475900
_cell_angle_alpha   90.00000000
_cell_angle_beta   90.00000000
_cell_angle_gamma   103.75481467
_symmetry_Int_Tables_number   1
_chemical_formula_structural   SiO2
_chemical_formula_sum   'Si16 O32'
_cell_volume   886.33946009
_cell_formula_units_Z   16
loop_
 _symmetry_equiv_pos_site_id
 _symmetry_equiv_pos_as_xyz
  1  'x, y, z'
loop_
 _atom_site_type_symbol
 _atom_site_label
 _atom_site_symmetry_multiplicity
 _atom_site_fract_x
 _atom_site_fract_y
 _atom_site_fract_z
 _atom_site_occupancy
  Si  Si0  1  0.67207700  0.88011400  0.79105100  1
  Si  Si1  1  0.88011400  0.67207700  0.20894900  1
  Si  Si2  1  0.11988600  0.32792300  0.70894900  1
  Si  Si3  1  0.32792300  0.11988600  0.29105100  1
  Si  Si4  1  0.67098400  0.92328400  0.12492900  1
  Si  Si5  1  0.92328400  0.67098400  0.87507100  1
  Si  Si6  1  0.07671600  0.32901600  0.37507100  1
  Si  Si7  1  0.32901600  0.07671600  0.62492900  1
  Si  Si8  1  0.22933500  0.94491500  0.13892700  1
  Si  Si9  1  0.94491500  0.22933500  0.86107300  1
  Si  Si10  1  0.05508500  0.77066500  0.36107300  1
  Si  Si11  1  0.77066500  0.05508500  0.63892700  1
  Si  Si12  1  0.22891100  0.77108900  0.75000000  1
  Si  Si13  1  0.77108900  0.22891100  0.25000000  1
  Si  Si14  1  0.96860500  0.96860500  0.00000000  1
  Si  Si15  1  0.03139500  0.03139500  0.50000000  1
  O  O16  1  0.72438900  0.70722000  0.84007900  1
  O  O17  1  0.70722000  0.72438900  0.15992100  1
  O  O18  1  0.29278000  0.27561100  0.65992100  1
  O  O19  1  0.27561100  0.29278000  0.34007900  1
  O  O20  1  0.76496800  0.89456400  0.70543100  1
  O  O21  1  0.89456400  0.76496800  0.29456900  1
  O  O22  1  0.10543600  0.23503200  0.79456900  1
  O  O23  1  0.23503200  0.10543600  0.20543100  1
  O  O24  1  0.44293100  0.83162000  0.78339900  1
  O  O25  1  0.83162000  0.44293100  0.21660100  1
  O  O26  1  0.16838000  0.55706900  0.71660100  1
  O  O27  1  0.55706900  0.16838000  0.28339900  1
  O  O28  1  0.74335300  0.08744600  0.83358100  1
  O  O29  1  0.08744600  0.74335300  0.16641900  1
  O  O30  1  0.91255400  0.25664700  0.66641900  1
  O  O31  1  0.25664700  0.91255400  0.33358100  1
  O  O32  1  0.76104300  0.95970000  0.03955900  1
  O  O33  1  0.95970000  0.76104300  0.96044100  1
  O  O34  1  0.04030000  0.23895700  0.46044100  1
  O  O35  1  0.23895700  0.04030000  0.53955900  1
  O  O36  1  0.44347200  0.91618500  0.12254300  1
  O  O37  1  0.91618500  0.44347200  0.87745700  1
  O  O38  1  0.08381500  0.55652800  0.37745700  1
  O  O39  1  0.55652800  0.08381500  0.62254300  1
  O  O40  1  0.79185300  0.09165100  0.17927400  1
  O  O41  1  0.09165100  0.79185300  0.82072600  1
  O  O42  1  0.90834900  0.20814700  0.32072600  1
  O  O43  1  0.20814700  0.90834900  0.67927400  1
  O  O44  1  0.14141400  0.01500100  0.06196700  1
  O  O45  1  0.01500100  0.14141400  0.93803300  1
  O  O46  1  0.98499900  0.85858600  0.43803300  1
  O  O47  1  0.85858600  0.98499900  0.56196700  1
