# generated using pymatgen
data_Mn3(P3Pd10)2
_symmetry_space_group_name_H-M   'P 1'
_cell_length_a   8.55559183
_cell_length_b   8.55559183
_cell_length_c   8.55559183
_cell_angle_alpha   60.00000000
_cell_angle_beta   60.00000000
_cell_angle_gamma   60.00000000
_symmetry_Int_Tables_number   1
_chemical_formula_structural   Mn3(P3Pd10)2
_chemical_formula_sum   'Mn3 P6 Pd20'
_cell_volume   442.82810186
_cell_formula_units_Z   1
loop_
 _symmetry_equiv_pos_site_id
 _symmetry_equiv_pos_as_xyz
  1  'x, y, z'
loop_
 _atom_site_type_symbol
 _atom_site_label
 _atom_site_symmetry_multiplicity
 _atom_site_fract_x
 _atom_site_fract_y
 _atom_site_fract_z
 _atom_site_occupancy
  Mn  Mn0  1  0.25000000  0.25000000  0.25000000  1
  Mn  Mn1  1  0.75000000  0.75000000  0.75000000  1
  Mn  Mn2  1  0.00000000  0.00000000  0.00000000  1
  P  P3  1  0.73437200  0.73437200  0.26562800  1
  P  P4  1  0.26562800  0.26562800  0.73437200  1
  P  P5  1  0.26562800  0.73437200  0.73437200  1
  P  P6  1  0.73437200  0.26562800  0.73437200  1
  P  P7  1  0.26562800  0.73437200  0.26562800  1
  P  P8  1  0.73437200  0.26562800  0.26562800  1
  Pd  Pd9  1  0.61855100  0.61855100  0.61855100  1
  Pd  Pd10  1  0.38144900  0.85565200  0.38144900  1
  Pd  Pd11  1  0.65805100  0.34194900  0.00000000  1
  Pd  Pd12  1  0.00000000  0.34194900  0.65805100  1
  Pd  Pd13  1  0.65805100  0.00000000  0.00000000  1
  Pd  Pd14  1  0.61855100  0.61855100  0.14434800  1
  Pd  Pd15  1  0.00000000  0.00000000  0.65805100  1
  Pd  Pd16  1  0.00000000  0.34194900  0.00000000  1
  Pd  Pd17  1  0.65805100  0.00000000  0.34194900  1
  Pd  Pd18  1  0.34194900  0.00000000  0.00000000  1
  Pd  Pd19  1  0.00000000  0.65805100  0.00000000  1
  Pd  Pd20  1  0.34194900  0.00000000  0.65805100  1
  Pd  Pd21  1  0.00000000  0.65805100  0.34194900  1
  Pd  Pd22  1  0.34194900  0.65805100  0.00000000  1
  Pd  Pd23  1  0.14434800  0.61855100  0.61855100  1
  Pd  Pd24  1  0.38144900  0.38144900  0.38144900  1
  Pd  Pd25  1  0.85565200  0.38144900  0.38144900  1
  Pd  Pd26  1  0.38144900  0.38144900  0.85565200  1
  Pd  Pd27  1  0.61855100  0.14434800  0.61855100  1
  Pd  Pd28  1  0.00000000  0.00000000  0.34194900  1
