# generated using pymatgen
data_Cr(PO3)3
_symmetry_space_group_name_H-M   'P 1'
_cell_length_a   6.61072228
_cell_length_b   6.61069054
_cell_length_c   9.67211389
_cell_angle_alpha   90.16251924
_cell_angle_beta   90.16212703
_cell_angle_gamma   60.09514253
_symmetry_Int_Tables_number   1
_chemical_formula_structural   Cr(PO3)3
_chemical_formula_sum   'Cr2 P6 O18'
_cell_volume   366.40468367
_cell_formula_units_Z   2
loop_
 _symmetry_equiv_pos_site_id
 _symmetry_equiv_pos_as_xyz
  1  'x, y, z'
loop_
 _atom_site_type_symbol
 _atom_site_label
 _atom_site_symmetry_multiplicity
 _atom_site_fract_x
 _atom_site_fract_y
 _atom_site_fract_z
 _atom_site_occupancy
  Cr  Cr0  1  0.66410000  0.66738500  0.49993500  1
  Cr  Cr1  1  0.66738100  0.66406900  0.99993300  1
  P  P2  1  0.77662100  0.93534200  0.75202200  1
  P  P3  1  0.93533300  0.77662700  0.25196500  1
  P  P4  1  0.28456800  0.77814700  0.74785200  1
  P  P5  1  0.77814600  0.28456600  0.24781400  1
  P  P6  1  0.93454500  0.28584200  0.74996100  1
  P  P7  1  0.28584400  0.93454500  0.24991700  1
  O  O8  1  0.67445400  0.40675700  0.11364800  1
  O  O9  1  0.40678000  0.67450200  0.61371600  1
  O  O10  1  0.41625900  0.67328300  0.87921700  1
  O  O11  1  0.67334400  0.41627200  0.37915200  1
  O  O12  1  0.90843600  0.41471600  0.61775100  1
  O  O13  1  0.41472900  0.90847300  0.11767600  1
  O  O14  1  0.75565800  0.18680000  0.75015400  1
  O  O15  1  0.18679500  0.75565500  0.25009500  1
  O  O16  1  0.18579400  0.05584000  0.74793100  1
  O  O17  1  0.05582800  0.18579500  0.24787500  1
  O  O18  1  0.66985400  0.91143100  0.62032000  1
  O  O19  1  0.91143800  0.66980600  0.12024600  1
  O  O20  1  0.41138200  0.91489900  0.38312400  1
  O  O21  1  0.91493700  0.41137900  0.88319700  1
  O  O22  1  0.05403500  0.75714300  0.75154000  1
  O  O23  1  0.75713900  0.05403700  0.25148300  1
  O  O24  1  0.67490700  0.91318000  0.88585700  1
  O  O25  1  0.91315500  0.67496800  0.38577900  1
