# generated using pymatgen
data_SiO2
_symmetry_space_group_name_H-M   'P 1'
_cell_length_a   13.91305753
_cell_length_b   13.91305753
_cell_length_c   8.47679100
_cell_angle_alpha   90.00000000
_cell_angle_beta   90.00000000
_cell_angle_gamma   138.69034728
_symmetry_Int_Tables_number   1
_chemical_formula_structural   SiO2
_chemical_formula_sum   'Si20 O40'
_cell_volume   1083.19074342
_cell_formula_units_Z   20
loop_
 _symmetry_equiv_pos_site_id
 _symmetry_equiv_pos_as_xyz
  1  'x, y, z'
loop_
 _atom_site_type_symbol
 _atom_site_label
 _atom_site_symmetry_multiplicity
 _atom_site_fract_x
 _atom_site_fract_y
 _atom_site_fract_z
 _atom_site_occupancy
  Si  Si0  1  0.84726600  0.56611400  0.06188400  1
  Si  Si1  1  0.56611400  0.84726600  0.93811600  1
  Si  Si2  1  0.43388600  0.15273400  0.43811600  1
  Si  Si3  1  0.15273400  0.43388600  0.56188400  1
  Si  Si4  1  0.15273400  0.43388600  0.93811600  1
  Si  Si5  1  0.43388600  0.15273400  0.06188400  1
  Si  Si6  1  0.56611400  0.84726600  0.56188400  1
  Si  Si7  1  0.84726600  0.56611400  0.43811600  1
  Si  Si8  1  0.44124300  0.55875700  0.05919200  1
  Si  Si9  1  0.55875700  0.44124300  0.94080800  1
  Si  Si10  1  0.44124300  0.55875700  0.44080800  1
  Si  Si11  1  0.55875700  0.44124300  0.55919200  1
  Si  Si12  1  0.27749100  0.72250900  0.06578200  1
  Si  Si13  1  0.72250900  0.27749100  0.93421800  1
  Si  Si14  1  0.27749100  0.72250900  0.43421800  1
  Si  Si15  1  0.72250900  0.27749100  0.56578200  1
  Si  Si16  1  0.83574700  0.16425300  0.06377300  1
  Si  Si17  1  0.16425300  0.83574700  0.93622700  1
  Si  Si18  1  0.83574700  0.16425300  0.43622700  1
  Si  Si19  1  0.16425300  0.83574700  0.56377300  1
  O  O20  1  0.83507700  0.53750500  0.25000000  1
  O  O21  1  0.53750500  0.83507700  0.75000000  1
  O  O22  1  0.46249500  0.16492300  0.25000000  1
  O  O23  1  0.16492300  0.46249500  0.75000000  1
  O  O24  1  0.00583600  0.72842300  0.01890100  1
  O  O25  1  0.72842300  0.00583600  0.98109900  1
  O  O26  1  0.27157700  0.99416400  0.48109900  1
  O  O27  1  0.99416400  0.27157700  0.51890100  1
  O  O28  1  0.99416400  0.27157700  0.98109900  1
  O  O29  1  0.27157700  0.99416400  0.01890100  1
  O  O30  1  0.72842300  0.00583600  0.51890100  1
  O  O31  1  0.00583600  0.72842300  0.48109900  1
  O  O32  1  0.82472100  0.44738500  0.96969300  1
  O  O33  1  0.44738500  0.82472100  0.03030700  1
  O  O34  1  0.55261500  0.17527900  0.53030700  1
  O  O35  1  0.17527900  0.55261500  0.46969300  1
  O  O36  1  0.17527900  0.55261500  0.03030700  1
  O  O37  1  0.55261500  0.17527900  0.96969300  1
  O  O38  1  0.44738500  0.82472100  0.46969300  1
  O  O39  1  0.82472100  0.44738500  0.53030700  1
  O  O40  1  0.72326900  0.54980500  0.00843200  1
  O  O41  1  0.54980500  0.72326900  0.99156800  1
  O  O42  1  0.45019500  0.27673100  0.49156800  1
  O  O43  1  0.27673100  0.45019500  0.50843200  1
  O  O44  1  0.27673100  0.45019500  0.99156800  1
  O  O45  1  0.45019500  0.27673100  0.00843200  1
  O  O46  1  0.54980500  0.72326900  0.50843200  1
  O  O47  1  0.72326900  0.54980500  0.49156800  1
  O  O48  1  0.50000000  0.50000000  0.00000000  1
  O  O49  1  0.50000000  0.50000000  0.50000000  1
  O  O50  1  0.43846000  0.56154000  0.25000000  1
  O  O51  1  0.56154000  0.43846000  0.75000000  1
  O  O52  1  0.25995600  0.74004400  0.25000000  1
  O  O53  1  0.74004400  0.25995600  0.75000000  1
  O  O54  1  0.22640500  0.77359500  0.95689100  1
  O  O55  1  0.77359500  0.22640500  0.04310900  1
  O  O56  1  0.22640500  0.77359500  0.54310900  1
  O  O57  1  0.77359500  0.22640500  0.45689100  1
  O  O58  1  0.84927900  0.15072100  0.25000000  1
  O  O59  1  0.15072100  0.84927900  0.75000000  1
