# generated using pymatgen
data_SiO2
_symmetry_space_group_name_H-M   'P 1'
_cell_length_a   7.00704400
_cell_length_b   15.17347000
_cell_length_c   17.42414200
_cell_angle_alpha   90.00000000
_cell_angle_beta   90.00000000
_cell_angle_gamma   90.00000000
_symmetry_Int_Tables_number   1
_chemical_formula_structural   SiO2
_chemical_formula_sum   'Si32 O64'
_cell_volume   1852.55519719
_cell_formula_units_Z   32
loop_
 _symmetry_equiv_pos_site_id
 _symmetry_equiv_pos_as_xyz
  1  'x, y, z'
loop_
 _atom_site_type_symbol
 _atom_site_label
 _atom_site_symmetry_multiplicity
 _atom_site_fract_x
 _atom_site_fract_y
 _atom_site_fract_z
 _atom_site_occupancy
  Si  Si0  1  0.11524800  0.72670900  0.34126300  1
  Si  Si1  1  0.11524800  0.77329100  0.65873700  1
  Si  Si2  1  0.88475200  0.22670900  0.15873700  1
  Si  Si3  1  0.88475200  0.27329100  0.84126300  1
  Si  Si4  1  0.88475200  0.27329100  0.65873700  1
  Si  Si5  1  0.88475200  0.22670900  0.34126300  1
  Si  Si6  1  0.11524800  0.77329100  0.84126300  1
  Si  Si7  1  0.11524800  0.72670900  0.15873700  1
  Si  Si8  1  0.10803000  0.90291500  0.43120700  1
  Si  Si9  1  0.10803000  0.59708500  0.56879300  1
  Si  Si10  1  0.89197000  0.40291500  0.06879300  1
  Si  Si11  1  0.89197000  0.09708500  0.93120700  1
  Si  Si12  1  0.89197000  0.09708500  0.56879300  1
  Si  Si13  1  0.89197000  0.40291500  0.43120700  1
  Si  Si14  1  0.10803000  0.59708500  0.93120700  1
  Si  Si15  1  0.10803000  0.90291500  0.06879300  1
  Si  Si16  1  0.84292100  0.59959100  0.42557500  1
  Si  Si17  1  0.84292100  0.90040900  0.57442500  1
  Si  Si18  1  0.15707900  0.09959100  0.07442500  1
  Si  Si19  1  0.15707900  0.40040900  0.92557500  1
  Si  Si20  1  0.15707900  0.40040900  0.57442500  1
  Si  Si21  1  0.15707900  0.09959100  0.42557500  1
  Si  Si22  1  0.84292100  0.90040900  0.92557500  1
  Si  Si23  1  0.84292100  0.59959100  0.07442500  1
  Si  Si24  1  0.43049000  0.83940400  0.54133600  1
  Si  Si25  1  0.43049000  0.66059600  0.45866400  1
  Si  Si26  1  0.56951000  0.33940400  0.95866400  1
  Si  Si27  1  0.56951000  0.16059600  0.04133600  1
  Si  Si28  1  0.56951000  0.16059600  0.45866400  1
  Si  Si29  1  0.56951000  0.33940400  0.54133600  1
  Si  Si30  1  0.43049000  0.66059600  0.04133600  1
  Si  Si31  1  0.43049000  0.83940400  0.95866400  1
  O  O32  1  0.92143100  0.67492000  0.36712700  1
  O  O33  1  0.92143100  0.82508000  0.63287300  1
  O  O34  1  0.07856900  0.17492000  0.13287300  1
  O  O35  1  0.07856900  0.32508000  0.86712700  1
  O  O36  1  0.07856900  0.32508000  0.63287300  1
  O  O37  1  0.07856900  0.17492000  0.36712700  1
  O  O38  1  0.92143100  0.82508000  0.86712700  1
  O  O39  1  0.92143100  0.67492000  0.13287300  1
  O  O40  1  0.29808600  0.68385600  0.38483800  1
  O  O41  1  0.29808600  0.81614400  0.61516200  1
  O  O42  1  0.70191400  0.18385600  0.11516200  1
  O  O43  1  0.70191400  0.31614400  0.88483800  1
  O  O44  1  0.70191400  0.31614400  0.61516200  1
  O  O45  1  0.70191400  0.18385600  0.38483800  1
  O  O46  1  0.29808600  0.81614400  0.88483800  1
  O  O47  1  0.29808600  0.68385600  0.11516200  1
  O  O48  1  0.09934300  0.83128000  0.36212100  1
  O  O49  1  0.09934300  0.66872000  0.63787900  1
  O  O50  1  0.90065700  0.33128000  0.13787900  1
  O  O51  1  0.90065700  0.16872000  0.86212100  1
  O  O52  1  0.90065700  0.16872000  0.63787900  1
  O  O53  1  0.90065700  0.33128000  0.36212100  1
  O  O54  1  0.09934300  0.66872000  0.86212100  1
  O  O55  1  0.09934300  0.83128000  0.13787900  1
  O  O56  1  0.14479700  0.71616300  0.25000000  1
  O  O57  1  0.14479700  0.78383700  0.75000000  1
  O  O58  1  0.85520300  0.21616300  0.25000000  1
  O  O59  1  0.85520300  0.28383700  0.75000000  1
  O  O60  1  0.09442100  0.00180600  0.39509200  1
  O  O61  1  0.09442100  0.49819400  0.60490800  1
  O  O62  1  0.90557900  0.50180600  0.10490800  1
  O  O63  1  0.90557900  0.99819400  0.89509200  1
  O  O64  1  0.90557900  0.99819400  0.60490800  1
  O  O65  1  0.90557900  0.50180600  0.39509200  1
  O  O66  1  0.09442100  0.49819400  0.89509200  1
  O  O67  1  0.09442100  0.00180600  0.10490800  1
  O  O68  1  0.30753300  0.89660000  0.47949900  1
  O  O69  1  0.30753300  0.60340000  0.52050100  1
  O  O70  1  0.69246700  0.39660000  0.02050100  1
  O  O71  1  0.69246700  0.10340000  0.97949900  1
  O  O72  1  0.69246700  0.10340000  0.52050100  1
  O  O73  1  0.69246700  0.39660000  0.47949900  1
  O  O74  1  0.30753300  0.60340000  0.97949900  1
  O  O75  1  0.30753300  0.89660000  0.02050100  1
  O  O76  1  0.92845900  0.88372000  0.48842900  1
  O  O77  1  0.92845900  0.61628000  0.51157100  1
  O  O78  1  0.07154100  0.38372000  0.01157100  1
  O  O79  1  0.07154100  0.11628000  0.98842900  1
  O  O80  1  0.07154100  0.11628000  0.51157100  1
  O  O81  1  0.07154100  0.38372000  0.48842900  1
  O  O82  1  0.92845900  0.61628000  0.98842900  1
  O  O83  1  0.92845900  0.88372000  0.01157100  1
  O  O84  1  0.61190500  0.60423900  0.42922300  1
  O  O85  1  0.61190500  0.89576100  0.57077700  1
  O  O86  1  0.38809500  0.10423900  0.07077700  1
  O  O87  1  0.38809500  0.39576100  0.92922300  1
  O  O88  1  0.38809500  0.39576100  0.57077700  1
  O  O89  1  0.38809500  0.10423900  0.42922300  1
  O  O90  1  0.61190500  0.89576100  0.92922300  1
  O  O91  1  0.61190500  0.60423900  0.07077700  1
  O  O92  1  0.50812800  0.75000000  0.50000000  1
  O  O93  1  0.49187200  0.25000000  0.00000000  1
  O  O94  1  0.49187200  0.25000000  0.50000000  1
  O  O95  1  0.50812800  0.75000000  0.00000000  1
