# generated using pymatgen
data_CuH10C2(N2O5)2
_symmetry_space_group_name_H-M   'P 1'
_cell_length_a   7.29055600
_cell_length_b   7.99876200
_cell_length_c   17.73929700
_cell_angle_alpha   90.00000000
_cell_angle_beta   90.00000000
_cell_angle_gamma   90.00000000
_symmetry_Int_Tables_number   1
_chemical_formula_structural   CuH10C2(N2O5)2
_chemical_formula_sum   'Cu4 H40 C8 N16 O40'
_cell_volume   1034.47459571
_cell_formula_units_Z   4
loop_
 _symmetry_equiv_pos_site_id
 _symmetry_equiv_pos_as_xyz
  1  'x, y, z'
loop_
 _atom_site_type_symbol
 _atom_site_label
 _atom_site_symmetry_multiplicity
 _atom_site_fract_x
 _atom_site_fract_y
 _atom_site_fract_z
 _atom_site_occupancy
  Cu  Cu0  1  0.23883500  0.75312100  0.74998400  1
  Cu  Cu1  1  0.73883500  0.74687900  0.25001600  1
  Cu  Cu2  1  0.76116500  0.25312100  0.75001600  1
  Cu  Cu3  1  0.26116500  0.24687900  0.24998400  1
  H  H4  1  0.09163700  0.16830100  0.70393000  1
  H  H5  1  0.99350900  0.00376200  0.47924100  1
  H  H6  1  0.00649100  0.50376200  0.02075900  1
  H  H7  1  0.60728700  0.14465900  0.42664100  1
  H  H8  1  0.40836300  0.83169900  0.20393000  1
  H  H9  1  0.07513000  0.75361500  0.21867000  1
  H  H10  1  0.58477100  0.13130000  0.28536900  1
  H  H11  1  0.11096800  0.85499600  0.42356400  1
  H  H12  1  0.42487000  0.24638500  0.71867000  1
  H  H13  1  0.56181100  0.28012500  0.59995100  1
  H  H14  1  0.93906400  0.21852700  0.89728500  1
  H  H15  1  0.88903200  0.35499600  0.07643600  1
  H  H16  1  0.08477100  0.36870000  0.71463100  1
  H  H17  1  0.92487000  0.25361500  0.28133000  1
  H  H18  1  0.43906400  0.28147300  0.10271500  1
  H  H19  1  0.49350900  0.49623800  0.52075900  1
  H  H20  1  0.41522900  0.63130000  0.21463100  1
  H  H21  1  0.39271300  0.64465900  0.07335900  1
  H  H22  1  0.00513800  0.00700200  0.98215900  1
  H  H23  1  0.89271300  0.85534100  0.92664100  1
  H  H24  1  0.06181100  0.21987500  0.40004900  1
  H  H25  1  0.61096800  0.64500400  0.57643600  1
  H  H26  1  0.99486200  0.50700200  0.51784100  1
  H  H27  1  0.38903200  0.14500400  0.92356400  1
  H  H28  1  0.50513800  0.49299800  0.01784100  1
  H  H29  1  0.43818900  0.78012500  0.90004900  1
  H  H30  1  0.42272600  0.32700500  0.79877700  1
  H  H31  1  0.49486200  0.99299800  0.48215900  1
  H  H32  1  0.91522900  0.86870000  0.78536900  1
  H  H33  1  0.57727400  0.82700500  0.70122300  1
  H  H34  1  0.92272600  0.17299500  0.20122300  1
  H  H35  1  0.59163700  0.33169900  0.29607000  1
  H  H36  1  0.06093600  0.71852700  0.60271500  1
  H  H37  1  0.93818900  0.71987500  0.09995100  1
  H  H38  1  0.07727400  0.67299500  0.29877700  1
  H  H39  1  0.10728700  0.35534100  0.57335900  1
  H  H40  1  0.56093600  0.78147300  0.39728500  1
  H  H41  1  0.57513000  0.74638500  0.78133000  1
  H  H42  1  0.90836300  0.66830100  0.79607000  1
  H  H43  1  0.50649100  0.99623800  0.97924100  1
  C  C44  1  0.60485000  0.90853400  0.38402000  1
  C  C45  1  0.89515000  0.09146600  0.88402000  1
  C  C46  1  0.11424600  0.09546800  0.38497700  1
  C  C47  1  0.38575400  0.90453200  0.88497700  1
  C  C48  1  0.61424600  0.40453200  0.61502300  1
  C  C49  1  0.88575400  0.59546800  0.11502300  1
  C  C50  1  0.10485000  0.59146600  0.61598000  1
  C  C51  1  0.39515000  0.40853400  0.11598000  1
  N  N52  1  0.43063100  0.52339500  0.06485800  1
  N  N53  1  0.27959800  0.51792600  0.39573700  1
  N  N54  1  0.56936900  0.02339500  0.43514200  1
  N  N55  1  0.71856700  0.51136900  0.89545700  1
  N  N56  1  0.78143300  0.48863100  0.39545700  1
  N  N57  1  0.93063100  0.97660500  0.93514200  1
  N  N58  1  0.77959800  0.98207400  0.60426300  1
  N  N59  1  0.56900500  0.52445500  0.56781800  1
  N  N60  1  0.28143300  0.01136900  0.60454300  1
  N  N61  1  0.43099500  0.02445500  0.93218200  1
  N  N62  1  0.21856700  0.98863100  0.10454300  1
  N  N63  1  0.06936900  0.47660500  0.56485800  1
  N  N64  1  0.22040200  0.48207400  0.89573700  1
  N  N65  1  0.93099500  0.47554500  0.06781800  1
  N  N66  1  0.06900500  0.97554500  0.43218200  1
  N  N67  1  0.72040200  0.01792600  0.10426300  1
  O  O68  1  0.18935300  0.49149900  0.33433500  1
  O  O69  1  0.79037700  0.57137500  0.17389900  1
  O  O70  1  0.70962300  0.42862500  0.67389900  1
  O  O71  1  0.29037700  0.92862500  0.82610100  1
  O  O72  1  0.85650100  0.10282700  0.57148200  1
  O  O73  1  0.46627200  0.73887900  0.23309400  1
  O  O74  1  0.18762900  0.98562100  0.66495100  1
  O  O75  1  0.28836700  0.66391100  0.42196300  1
  O  O76  1  0.78836700  0.83608900  0.57803700  1
  O  O77  1  0.35650100  0.39717300  0.42851800  1
  O  O78  1  0.81625200  0.05892200  0.82148900  1
  O  O79  1  0.31625200  0.44107800  0.17851100  1
  O  O80  1  0.68762900  0.51437900  0.33504900  1
  O  O81  1  0.29540200  0.15893400  0.57961800  1
  O  O82  1  0.68374800  0.94107800  0.32148900  1
  O  O83  1  0.18374800  0.55892200  0.67851100  1
  O  O84  1  0.31064700  0.50850100  0.83433500  1
  O  O85  1  0.35754300  0.89086800  0.57177500  1
  O  O86  1  0.21163300  0.33608900  0.92196300  1
  O  O87  1  0.14349900  0.60282700  0.92851800  1
  O  O88  1  0.31237100  0.01437900  0.16495100  1
  O  O89  1  0.20962300  0.07137500  0.32610100  1
  O  O90  1  0.64245700  0.39086800  0.92822500  1
  O  O91  1  0.51263200  0.74140200  0.73284200  1
  O  O92  1  0.70459800  0.65893400  0.92038200  1
  O  O93  1  0.85754300  0.60913200  0.42822500  1
  O  O94  1  0.81237100  0.48562100  0.83504900  1
  O  O95  1  0.98736800  0.25859800  0.23284200  1
  O  O96  1  0.96627200  0.76112100  0.76690600  1
  O  O97  1  0.64349900  0.89717300  0.07148200  1
  O  O98  1  0.48736800  0.24140200  0.76715800  1
  O  O99  1  0.68935300  0.00850100  0.66566500  1
  O  O100  1  0.03372800  0.26112100  0.73309400  1
  O  O101  1  0.79540200  0.34106600  0.42038200  1
  O  O102  1  0.14245700  0.10913200  0.07177500  1
  O  O103  1  0.81064700  0.99149900  0.16566500  1
  O  O104  1  0.20459800  0.84106600  0.07961800  1
  O  O105  1  0.53372800  0.23887900  0.26690600  1
  O  O106  1  0.71163300  0.16391100  0.07803700  1
  O  O107  1  0.01263200  0.75859800  0.26715800  1
