# generated using pymatgen
data_Cs2Cr4Cu(HO4)4
_symmetry_space_group_name_H-M   'P 1'
_cell_length_a   7.74572000
_cell_length_b   7.85218009
_cell_length_c   7.96617285
_cell_angle_alpha   93.26895009
_cell_angle_beta   117.35409967
_cell_angle_gamma   98.99704793
_symmetry_Int_Tables_number   1
_chemical_formula_structural   Cs2Cr4Cu(HO4)4
_chemical_formula_sum   'Cs2 Cr4 Cu1 H4 O16'
_cell_volume   420.42645807
_cell_formula_units_Z   1
loop_
 _symmetry_equiv_pos_site_id
 _symmetry_equiv_pos_as_xyz
  1  'x, y, z'
loop_
 _atom_site_type_symbol
 _atom_site_label
 _atom_site_symmetry_multiplicity
 _atom_site_fract_x
 _atom_site_fract_y
 _atom_site_fract_z
 _atom_site_occupancy
  Cs  Cs0  1  0.74010100  0.83424400  0.26177400  1
  Cs  Cs1  1  0.25989900  0.16575600  0.73822600  1
  Cr  Cr2  1  0.70158200  0.84781600  0.75539000  1
  Cr  Cr3  1  0.29841800  0.15218400  0.24461000  1
  Cr  Cr4  1  0.24511200  0.66887500  0.46883300  1
  Cr  Cr5  1  0.75488800  0.33112500  0.53116700  1
  Cu  Cu6  1  0.00000000  0.50000000  0.00000000  1
  H  H7  1  0.21075800  0.79512100  0.99991800  1
  H  H8  1  0.68573800  0.36335700  0.98957400  1
  H  H9  1  0.78924200  0.20487900  0.00008200  1
  H  H10  1  0.31426200  0.63664300  0.01042600  1
  O  O11  1  0.81411200  0.33127500  0.05399800  1
  O  O12  1  0.33348300  0.00243300  0.11542800  1
  O  O13  1  0.08771400  0.64992100  0.23414200  1
  O  O14  1  0.91228600  0.35007900  0.76585800  1
  O  O15  1  0.88862900  0.92380200  0.72261900  1
  O  O16  1  0.26345600  0.32387700  0.13402200  1
  O  O17  1  0.51315000  0.21237000  0.47679300  1
  O  O18  1  0.73123000  0.51881400  0.46065900  1
  O  O19  1  0.26877000  0.48118600  0.53934100  1
  O  O20  1  0.11137100  0.07619800  0.27738100  1
  O  O21  1  0.66651700  0.99756700  0.88457200  1
  O  O22  1  0.48685000  0.78763000  0.52320700  1
  O  O23  1  0.73654400  0.67612300  0.86597800  1
  O  O24  1  0.18588800  0.66872500  0.94600200  1
  O  O25  1  0.16173200  0.77665000  0.58457300  1
  O  O26  1  0.83826800  0.22335000  0.41542700  1
