# generated using pymatgen
data_SrH6(CO3)2
_symmetry_space_group_name_H-M   'P 1'
_cell_length_a   6.79015400
_cell_length_b   8.40244300
_cell_length_c   12.75898800
_cell_angle_alpha   90.00000000
_cell_angle_beta   90.00000000
_cell_angle_gamma   90.00000000
_symmetry_Int_Tables_number   1
_chemical_formula_structural   SrH6(CO3)2
_chemical_formula_sum   'Sr4 H24 C8 O24'
_cell_volume   727.94979511
_cell_formula_units_Z   4
loop_
 _symmetry_equiv_pos_site_id
 _symmetry_equiv_pos_as_xyz
  1  'x, y, z'
loop_
 _atom_site_type_symbol
 _atom_site_label
 _atom_site_symmetry_multiplicity
 _atom_site_fract_x
 _atom_site_fract_y
 _atom_site_fract_z
 _atom_site_occupancy
  Sr  Sr0  1  0.19709900  0.33855400  0.60937500  1
  Sr  Sr1  1  0.80290100  0.83855400  0.89062500  1
  Sr  Sr2  1  0.30290100  0.66144600  0.10937500  1
  Sr  Sr3  1  0.69709900  0.16144600  0.39062500  1
  H  H4  1  0.48911700  0.39354800  0.04996400  1
  H  H5  1  0.41823200  0.86857500  0.61900500  1
  H  H6  1  0.60621000  0.11987300  0.17387200  1
  H  H7  1  0.22353500  0.37163000  0.34068700  1
  H  H8  1  0.01088300  0.60645200  0.54996400  1
  H  H9  1  0.98911700  0.10645200  0.95003600  1
  H  H10  1  0.68870000  0.51442200  0.78452000  1
  H  H11  1  0.55176400  0.76312200  0.33076600  1
  H  H12  1  0.18870000  0.98557800  0.21548000  1
  H  H13  1  0.39379000  0.61987300  0.32612800  1
  H  H14  1  0.89379000  0.88012700  0.67387200  1
  H  H15  1  0.31130000  0.01442200  0.71548000  1
  H  H16  1  0.94823600  0.23687800  0.83076600  1
  H  H17  1  0.81130000  0.48557800  0.28452000  1
  H  H18  1  0.51088300  0.89354800  0.45003600  1
  H  H19  1  0.05176400  0.73687800  0.66923400  1
  H  H20  1  0.10621000  0.38012700  0.82612800  1
  H  H21  1  0.27646500  0.62837000  0.84068700  1
  H  H22  1  0.77646500  0.87163000  0.15931300  1
  H  H23  1  0.44823600  0.26312200  0.16923400  1
  H  H24  1  0.58176800  0.36857500  0.88099500  1
  H  H25  1  0.08176800  0.13142500  0.11900500  1
  H  H26  1  0.72353500  0.12837000  0.65931300  1
  H  H27  1  0.91823200  0.63142500  0.38099500  1
  C  C28  1  0.35990800  0.12813700  0.93084300  1
  C  C29  1  0.64009200  0.62813700  0.56915700  1
  C  C30  1  0.85990800  0.37186300  0.06915700  1
  C  C31  1  0.94055900  0.55182100  0.31368800  1
  C  C32  1  0.14009200  0.87186300  0.43084300  1
  C  C33  1  0.44055900  0.94817900  0.68631200  1
  C  C34  1  0.55944100  0.44817900  0.81368800  1
  C  C35  1  0.05944100  0.05182100  0.18631200  1
  O  O36  1  0.29037200  0.68950000  0.90595100  1
  O  O37  1  0.13445300  0.97434900  0.48967100  1
  O  O38  1  0.00316700  0.34419400  0.43506500  1
  O  O39  1  0.09458600  0.55758800  0.26131500  1
  O  O40  1  0.59458600  0.94241200  0.73868500  1
  O  O41  1  0.11766700  0.61421400  0.60057100  1
  O  O42  1  0.20962800  0.31050000  0.40595100  1
  O  O43  1  0.63445300  0.52565100  0.51032800  1
  O  O44  1  0.79037200  0.81050000  0.09404900  1
  O  O45  1  0.70962800  0.18950000  0.59404900  1
  O  O46  1  0.00530500  0.33132400  0.78232600  1
  O  O47  1  0.99683300  0.84419400  0.06493500  1
  O  O48  1  0.36554700  0.02565100  0.98967200  1
  O  O49  1  0.61766700  0.88578600  0.39942900  1
  O  O50  1  0.99469500  0.83132400  0.71767400  1
  O  O51  1  0.50316700  0.15580600  0.56493500  1
  O  O52  1  0.49683300  0.65580600  0.93506500  1
  O  O53  1  0.90541400  0.05758800  0.23868500  1
  O  O54  1  0.50530500  0.16867600  0.21767400  1
  O  O55  1  0.38233300  0.38578600  0.10057100  1
  O  O56  1  0.88233300  0.11421400  0.89942900  1
  O  O57  1  0.86554700  0.47434900  0.01032900  1
  O  O58  1  0.40541400  0.44241200  0.76131500  1
  O  O59  1  0.49469500  0.66867600  0.28232600  1
