# generated using pymatgen
data_Cs2PtC2(OF)4
_symmetry_space_group_name_H-M   'P 1'
_cell_length_a   8.11804033
_cell_length_b   8.11804033
_cell_length_c   9.91670305
_cell_angle_alpha   89.69599511
_cell_angle_beta   89.69599511
_cell_angle_gamma   46.25109912
_symmetry_Int_Tables_number   1
_chemical_formula_structural   Cs2PtC2(OF)4
_chemical_formula_sum   'Cs4 Pt2 C4 O8 F8'
_cell_volume   472.09188628
_cell_formula_units_Z   2
loop_
 _symmetry_equiv_pos_site_id
 _symmetry_equiv_pos_as_xyz
  1  'x, y, z'
loop_
 _atom_site_type_symbol
 _atom_site_label
 _atom_site_symmetry_multiplicity
 _atom_site_fract_x
 _atom_site_fract_y
 _atom_site_fract_z
 _atom_site_occupancy
  Cs  Cs0  1  0.27331200  0.27331200  0.33515100  1
  Cs  Cs1  1  0.04436300  0.04436300  0.71094800  1
  Cs  Cs2  1  0.72668800  0.72668800  0.66484900  1
  Cs  Cs3  1  0.95563700  0.95563700  0.28905200  1
  Pt  Pt4  1  0.61630900  0.61630900  0.30877800  1
  Pt  Pt5  1  0.38369100  0.38369100  0.69122200  1
  C  C6  1  0.76018000  0.51447700  0.03868000  1
  C  C7  1  0.51447700  0.76018000  0.03868000  1
  C  C8  1  0.48552300  0.23982000  0.96132000  1
  C  C9  1  0.23982000  0.48552300  0.96132000  1
  O  O10  1  0.41792600  0.83779200  0.15874500  1
  O  O11  1  0.13099900  0.57920900  0.06464100  1
  O  O12  1  0.58207400  0.16220800  0.84125500  1
  O  O13  1  0.16220800  0.58207400  0.84125500  1
  O  O14  1  0.57920900  0.13099900  0.06464100  1
  O  O15  1  0.86900100  0.42079100  0.93535900  1
  O  O16  1  0.83779200  0.41792600  0.15874500  1
  O  O17  1  0.42079100  0.86900100  0.93535900  1
  F  F18  1  0.38546900  0.82945200  0.45120400  1
  F  F19  1  0.25056100  0.25056100  0.66391300  1
  F  F20  1  0.17054800  0.61453100  0.54879600  1
  F  F21  1  0.61453100  0.17054800  0.54879600  1
  F  F22  1  0.48531300  0.48531300  0.28341600  1
  F  F23  1  0.74943900  0.74943900  0.33608700  1
  F  F24  1  0.51468700  0.51468700  0.71658400  1
  F  F25  1  0.82945200  0.38546900  0.45120400  1
