# generated using pymatgen
data_FeBiSbS4
_symmetry_space_group_name_H-M   'P 1'
_cell_length_a   3.65269500
_cell_length_b   11.58765600
_cell_length_c   13.84275800
_cell_angle_alpha   90.00000000
_cell_angle_beta   90.00000000
_cell_angle_gamma   90.00000000
_symmetry_Int_Tables_number   1
_chemical_formula_structural   FeBiSbS4
_chemical_formula_sum   'Fe4 Bi4 Sb4 S16'
_cell_volume   585.91097175
_cell_formula_units_Z   4
loop_
 _symmetry_equiv_pos_site_id
 _symmetry_equiv_pos_as_xyz
  1  'x, y, z'
loop_
 _atom_site_type_symbol
 _atom_site_label
 _atom_site_symmetry_multiplicity
 _atom_site_fract_x
 _atom_site_fract_y
 _atom_site_fract_z
 _atom_site_occupancy
  Fe  Fe0  1  0.25000000  0.83002200  0.83598000  1
  Fe  Fe1  1  0.75000000  0.16997800  0.16402000  1
  Fe  Fe2  1  0.25000000  0.33002200  0.66402000  1
  Fe  Fe3  1  0.75000000  0.66997800  0.33598000  1
  Bi  Bi4  1  0.75000000  0.03496000  0.61099000  1
  Bi  Bi5  1  0.25000000  0.46504000  0.11099000  1
  Bi  Bi6  1  0.25000000  0.96504000  0.38901000  1
  Bi  Bi7  1  0.75000000  0.53496000  0.88901000  1
  Sb  Sb8  1  0.25000000  0.14751200  0.93044300  1
  Sb  Sb9  1  0.75000000  0.85248800  0.06955700  1
  Sb  Sb10  1  0.25000000  0.64751200  0.56955700  1
  Sb  Sb11  1  0.75000000  0.35248800  0.43044300  1
  S  S12  1  0.75000000  0.43755400  0.60341900  1
  S  S13  1  0.25000000  0.56244600  0.39658100  1
  S  S14  1  0.25000000  0.73710600  0.98038900  1
  S  S15  1  0.25000000  0.06244600  0.10341900  1
  S  S16  1  0.75000000  0.22085800  0.71970600  1
  S  S17  1  0.75000000  0.10129600  0.31171000  1
  S  S18  1  0.75000000  0.26289400  0.01961100  1
  S  S19  1  0.75000000  0.60129600  0.18829000  1
  S  S20  1  0.25000000  0.23710600  0.51961100  1
  S  S21  1  0.75000000  0.76289400  0.48038900  1
  S  S22  1  0.25000000  0.77914200  0.28029400  1
  S  S23  1  0.25000000  0.89870400  0.68829000  1
  S  S24  1  0.75000000  0.72085800  0.78029400  1
  S  S25  1  0.75000000  0.93755400  0.89658100  1
  S  S26  1  0.25000000  0.39870400  0.81171000  1
  S  S27  1  0.25000000  0.27914200  0.21970600  1
