# generated using pymatgen
data_H12W3C4S2Cl9O2
_symmetry_space_group_name_H-M   'P 1'
_cell_length_a   10.11547000
_cell_length_b   11.18108300
_cell_length_c   25.18947763
_cell_angle_alpha   64.26455807
_cell_angle_beta   90.00000000
_cell_angle_gamma   90.00000000
_symmetry_Int_Tables_number   1
_chemical_formula_structural   H12W3C4S2Cl9O2
_chemical_formula_sum   'H48 W12 C16 S8 Cl36 O8'
_cell_volume   2566.38389556
_cell_formula_units_Z   4
loop_
 _symmetry_equiv_pos_site_id
 _symmetry_equiv_pos_as_xyz
  1  'x, y, z'
loop_
 _atom_site_type_symbol
 _atom_site_label
 _atom_site_symmetry_multiplicity
 _atom_site_fract_x
 _atom_site_fract_y
 _atom_site_fract_z
 _atom_site_occupancy
  H  H0  1  0.47081000  0.43410800  0.22807600  1
  H  H1  1  0.90855500  0.05104700  0.31804700  1
  H  H2  1  0.46251300  0.72866100  0.34988800  1
  H  H3  1  0.93961100  0.59451000  0.84897000  1
  H  H4  1  0.62318500  0.50658900  0.19017400  1
  H  H5  1  0.97081000  0.56589200  0.27192400  1
  H  H6  1  0.37681500  0.49341100  0.80982600  1
  H  H7  1  0.03748700  0.72866100  0.84988800  1
  H  H8  1  0.44736000  0.03921200  0.77963700  1
  H  H9  1  0.89259700  0.06385400  0.24454400  1
  H  H10  1  0.43961100  0.40549000  0.65103000  1
  H  H11  1  0.81382000  0.38996100  0.58320900  1
  H  H12  1  0.55264000  0.96078800  0.22036300  1
  H  H13  1  0.39259700  0.93614600  0.25545600  1
  H  H14  1  0.12318500  0.49341100  0.30982600  1
  H  H15  1  0.46431900  0.56386000  0.15465200  1
  H  H16  1  0.37007700  0.24286400  0.67762900  1
  H  H17  1  0.02919000  0.43410800  0.72807600  1
  H  H18  1  0.36486300  0.45245900  0.91989300  1
  H  H19  1  0.13513700  0.45245900  0.41989300  1
  H  H20  1  0.05264000  0.03921200  0.27963700  1
  H  H21  1  0.10740300  0.93614600  0.75545600  1
  H  H22  1  0.12992300  0.24286400  0.17762900  1
  H  H23  1  0.96431900  0.43614000  0.34534800  1
  H  H24  1  0.46929200  0.53958300  0.94899300  1
  H  H25  1  0.53070800  0.46041700  0.05100700  1
  H  H26  1  0.94736000  0.96078800  0.72036300  1
  H  H27  1  0.62992300  0.75713600  0.32237100  1
  H  H28  1  0.63513700  0.54754100  0.08010700  1
  H  H29  1  0.03070800  0.53958300  0.44899300  1
  H  H30  1  0.87007700  0.75713600  0.82237100  1
  H  H31  1  0.03568100  0.56386000  0.65465200  1
  H  H32  1  0.06038900  0.40549000  0.15103000  1
  H  H33  1  0.86486300  0.54754100  0.58010700  1
  H  H34  1  0.31382000  0.61003900  0.91679100  1
  H  H35  1  0.56038900  0.59451000  0.34897000  1
  H  H36  1  0.18618000  0.61003900  0.41679100  1
  H  H37  1  0.59144500  0.05104700  0.81804700  1
  H  H38  1  0.60740300  0.06385400  0.74454400  1
  H  H39  1  0.96251300  0.27133900  0.15011200  1
  H  H40  1  0.40855500  0.94895300  0.18195300  1
  H  H41  1  0.96929200  0.46041700  0.55100700  1
  H  H42  1  0.53568100  0.43614000  0.84534800  1
  H  H43  1  0.53748700  0.27133900  0.65011200  1
  H  H44  1  0.52919000  0.56589200  0.77192400  1
  H  H45  1  0.09144500  0.94895300  0.68195300  1
  H  H46  1  0.68618000  0.38996100  0.08320900  1
  H  H47  1  0.87681500  0.50658900  0.69017400  1
  W  W48  1  0.86980500  0.21731300  0.97242800  1
  W  W49  1  0.09393800  0.09344200  0.88983500  1
  W  W50  1  0.59393800  0.90655800  0.61016500  1
  W  W51  1  0.40606200  0.09344200  0.38983500  1
  W  W52  1  0.63019500  0.21731300  0.47242800  1
  W  W53  1  0.70403900  0.89961200  0.46954400  1
  W  W54  1  0.20403900  0.10038800  0.03045600  1
  W  W55  1  0.79596100  0.89961200  0.96954400  1
  W  W56  1  0.36980500  0.78268700  0.52757200  1
  W  W57  1  0.29596100  0.10038800  0.53045600  1
  W  W58  1  0.13019500  0.78268700  0.02757200  1
  W  W59  1  0.90606200  0.90655800  0.11016500  1
  C  C60  1  0.03889500  0.29904900  0.17356100  1
  C  C61  1  0.96110500  0.70095100  0.82643900  1
  C  C62  1  0.95538100  0.08545000  0.27472000  1
  C  C63  1  0.89743000  0.45008800  0.58508000  1
  C  C64  1  0.04461900  0.91455000  0.72528000  1
  C  C65  1  0.60257000  0.45008800  0.08508000  1
  C  C66  1  0.45538100  0.91455000  0.22528000  1
  C  C67  1  0.53889500  0.70095100  0.32643900  1
  C  C68  1  0.47852900  0.52098900  0.81452900  1
  C  C69  1  0.39743000  0.54991200  0.91492000  1
  C  C70  1  0.46110500  0.29904900  0.67356100  1
  C  C71  1  0.54461900  0.08545000  0.77472000  1
  C  C72  1  0.97852900  0.47901100  0.68547100  1
  C  C73  1  0.52147100  0.47901100  0.18547100  1
  C  C74  1  0.02147100  0.52098900  0.31452900  1
  C  C75  1  0.10257000  0.54991200  0.41492000  1
  S  S76  1  0.98112400  0.26166500  0.24655000  1
  S  S77  1  0.02382300  0.64148900  0.34409300  1
  S  S78  1  0.01887600  0.73833500  0.75345000  1
  S  S79  1  0.48112400  0.73833500  0.25345000  1
  S  S80  1  0.51887600  0.26166500  0.74655000  1
  S  S81  1  0.97617700  0.35851100  0.65590700  1
  S  S82  1  0.47617700  0.64148900  0.84409300  1
  S  S83  1  0.52382300  0.35851100  0.15590700  1
  Cl  Cl84  1  0.17878600  0.88586800  0.55544800  1
  Cl  Cl85  1  0.06913900  0.30658400  0.00245700  1
  Cl  Cl86  1  0.31941500  0.17561900  0.29144800  1
  Cl  Cl87  1  0.21278600  0.87665700  0.92358600  1
  Cl  Cl88  1  0.68058500  0.82438100  0.70855200  1
  Cl  Cl89  1  0.71657300  0.81681500  0.07397800  1
  Cl  Cl90  1  0.89180100  0.99323400  0.86753800  1
  Cl  Cl91  1  0.67878600  0.11413200  0.94455200  1
  Cl  Cl92  1  0.75020100  0.42077800  0.94605500  1
  Cl  Cl93  1  0.46209200  0.70196700  0.62986300  1
  Cl  Cl94  1  0.24979900  0.57922200  0.05394500  1
  Cl  Cl95  1  0.60819900  0.99323400  0.36753800  1
  Cl  Cl96  1  0.18058500  0.17561900  0.79144800  1
  Cl  Cl97  1  0.38941600  0.19271200  0.05847300  1
  Cl  Cl98  1  0.56913900  0.69341600  0.49754300  1
  Cl  Cl99  1  0.10819900  0.00676600  0.13246200  1
  Cl  Cl100  1  0.32121400  0.88586800  0.05544800  1
  Cl  Cl101  1  0.74979900  0.42077800  0.44605500  1
  Cl  Cl102  1  0.61058400  0.80728800  0.94152700  1
  Cl  Cl103  1  0.21657300  0.18318500  0.42602200  1
  Cl  Cl104  1  0.71278600  0.12334300  0.57641400  1
  Cl  Cl105  1  0.28721400  0.87665700  0.42358600  1
  Cl  Cl106  1  0.25020100  0.57922200  0.55394500  1
  Cl  Cl107  1  0.53790800  0.29803300  0.37013700  1
  Cl  Cl108  1  0.28342700  0.18318500  0.92602200  1
  Cl  Cl109  1  0.39180100  0.00676600  0.63246200  1
  Cl  Cl110  1  0.78721400  0.12334300  0.07641400  1
  Cl  Cl111  1  0.43086100  0.30658400  0.50245700  1
  Cl  Cl112  1  0.82121400  0.11413200  0.44455200  1
  Cl  Cl113  1  0.81941500  0.82438100  0.20855200  1
  Cl  Cl114  1  0.78342700  0.81681500  0.57397800  1
  Cl  Cl115  1  0.93086100  0.69341600  0.99754300  1
  Cl  Cl116  1  0.03790800  0.70196700  0.12986300  1
  Cl  Cl117  1  0.96209200  0.29803300  0.87013700  1
  Cl  Cl118  1  0.88941600  0.80728800  0.44152700  1
  Cl  Cl119  1  0.11058400  0.19271200  0.55847300  1
  O  O120  1  0.61318500  0.24552600  0.19306400  1
  O  O121  1  0.38681500  0.75447400  0.80693600  1
  O  O122  1  0.11318500  0.75447400  0.30693600  1
  O  O123  1  0.88681500  0.24552600  0.69306400  1
  O  O124  1  0.14959400  0.66983600  0.75844000  1
  O  O125  1  0.85040600  0.33016400  0.24156000  1
  O  O126  1  0.35040600  0.66983600  0.25844000  1
  O  O127  1  0.64959400  0.33016400  0.74156000  1
