# generated using pymatgen
data_ZrH36C16(NO4)4
_symmetry_space_group_name_H-M   'P 1'
_cell_length_a   10.17987500
_cell_length_b   12.00689700
_cell_length_c   12.49314039
_cell_angle_alpha   68.88072730
_cell_angle_beta   90.00000000
_cell_angle_gamma   90.00000000
_symmetry_Int_Tables_number   1
_chemical_formula_structural   ZrH36C16(NO4)4
_chemical_formula_sum   'Zr2 H72 C32 N8 O32'
_cell_volume   1424.45412668
_cell_formula_units_Z   2
loop_
 _symmetry_equiv_pos_site_id
 _symmetry_equiv_pos_as_xyz
  1  'x, y, z'
loop_
 _atom_site_type_symbol
 _atom_site_label
 _atom_site_symmetry_multiplicity
 _atom_site_fract_x
 _atom_site_fract_y
 _atom_site_fract_z
 _atom_site_occupancy
  Zr  Zr0  1  0.20001700  0.94074800  0.26686500  1
  Zr  Zr1  1  0.70001700  0.05925200  0.73313500  1
  H  H2  1  0.07442800  0.58131300  0.43700200  1
  H  H3  1  0.27520200  0.64326500  0.07980400  1
  H  H4  1  0.24801300  0.58344900  0.42489200  1
  H  H5  1  0.59586400  0.43615400  0.06808200  1
  H  H6  1  0.51461100  0.65611300  0.13694900  1
  H  H7  1  0.83577600  0.62231300  0.62664600  1
  H  H8  1  0.65109600  0.27252800  0.99648300  1
  H  H9  1  0.74801300  0.41655100  0.57510800  1
  H  H10  1  0.42581100  0.54731600  0.20838600  1
  H  H11  1  0.74111600  0.71139700  0.06864800  1
  H  H12  1  0.99305100  0.56922700  0.10704900  1
  H  H13  1  0.40509900  0.48778400  0.38963000  1
  H  H14  1  0.15109600  0.72747200  0.00351700  1
  H  H15  1  0.75774800  0.37512200  0.10599500  1
  H  H16  1  0.57607200  0.89819600  0.02039200  1
  H  H17  1  0.15839200  0.27612400  0.48230800  1
  H  H18  1  0.73447300  0.71774700  0.19239500  1
  H  H19  1  0.28925400  0.50447700  0.69633000  1
  H  H20  1  0.96036300  0.97383800  0.50299700  1
  H  H21  1  0.07834200  0.63509500  0.19437500  1
  H  H22  1  0.46036300  0.02616200  0.49700300  1
  H  H23  1  0.08877500  0.61279000  0.61020300  1
  H  H24  1  0.09586400  0.56384600  0.93191800  1
  H  H25  1  0.81402300  0.89187500  0.55441800  1
  H  H26  1  0.51057900  0.78867200  0.93588500  1
  H  H27  1  0.01461100  0.34388700  0.86305100  1
  H  H28  1  0.58877500  0.38721000  0.38979700  1
  H  H29  1  0.23447300  0.28225300  0.80760500  1
  H  H30  1  0.07607200  0.10180400  0.97960800  1
  H  H31  1  0.62699300  0.50863700  0.80534300  1
  H  H32  1  0.65839200  0.72387600  0.51769200  1
  H  H33  1  0.57442800  0.41868700  0.56299800  1
  H  H34  1  0.36648000  0.83538100  0.85318400  1
  H  H35  1  0.23616800  0.48582900  0.00934200  1
  H  H36  1  0.17842000  0.71955800  0.51533000  1
  H  H37  1  0.14015700  0.28509600  0.35324800  1
  H  H38  1  0.93029200  0.01935700  0.98360900  1
  H  H39  1  0.79931100  0.34163200  0.31460000  1
  H  H40  1  0.81221100  0.93705500  0.14126300  1
  H  H41  1  0.57834200  0.36490500  0.80562500  1
  H  H42  1  0.25774800  0.62487800  0.89400500  1
  H  H43  1  0.05290000  0.00517800  0.75986800  1
  H  H44  1  0.35872300  0.21779900  0.28393600  1
  H  H45  1  0.12699300  0.49136300  0.19465700  1
  H  H46  1  0.43029200  0.98064300  0.01639100  1
  H  H47  1  0.85872300  0.78220100  0.71606400  1
  H  H48  1  0.86648000  0.16461900  0.14681600  1
  H  H49  1  0.16896100  0.46226900  0.53702800  1
  H  H50  1  0.01267300  0.81427700  0.76370700  1
  H  H51  1  0.38138100  0.61175200  0.58345100  1
  H  H52  1  0.33577600  0.37768700  0.37335400  1
  H  H53  1  0.77520200  0.35673500  0.92019600  1
  H  H54  1  0.90509900  0.51221600  0.61037000  1
  H  H55  1  0.88138100  0.38824800  0.41654900  1
  H  H56  1  0.24111600  0.28860300  0.93135200  1
  H  H57  1  0.01057900  0.21132800  0.06411500  1
  H  H58  1  0.83673900  0.97748500  0.26311200  1
  H  H59  1  0.29931100  0.65836800  0.68540000  1
  H  H60  1  0.58668100  0.96273400  0.38732500  1
  H  H61  1  0.33673900  0.02251500  0.73688800  1
  H  H62  1  0.66896100  0.53773100  0.46297200  1
  H  H63  1  0.73616800  0.51417100  0.99065800  1
  H  H64  1  0.31402300  0.10812500  0.44558200  1
  H  H65  1  0.55290000  0.99482200  0.24013200  1
  H  H66  1  0.64015700  0.71490400  0.64675200  1
  H  H67  1  0.92581100  0.45268400  0.79161400  1
  H  H68  1  0.31221100  0.06294500  0.85873700  1
  H  H69  1  0.67842000  0.28044200  0.48467000  1
  H  H70  1  0.78925400  0.49552300  0.30367000  1
  H  H71  1  0.08668100  0.03726600  0.61267500  1
  H  H72  1  0.49305100  0.43077300  0.89295100  1
  H  H73  1  0.51267300  0.18572300  0.23629300  1
  C  C74  1  0.84533600  0.82241500  0.86733100  1
  C  C75  1  0.58873800  0.42069900  0.85767300  1
  C  C76  1  0.78300500  0.07768500  0.48162300  1
  C  C77  1  0.02150700  0.02074100  0.03034900  1
  C  C78  1  0.51023600  0.95839600  0.32693700  1
  C  C79  1  0.08873800  0.57930100  0.14232700  1
  C  C80  1  0.97244500  0.17066400  0.65308200  1
  C  C81  1  0.36884300  0.02775300  0.44949300  1
  C  C82  1  0.47244500  0.82933600  0.34691800  1
  C  C83  1  0.52150700  0.97925900  0.96965100  1
  C  C84  1  0.86884300  0.97224700  0.55050700  1
  C  C85  1  0.01023600  0.04160400  0.67306300  1
  C  C86  1  0.90918200  0.84227700  0.75114200  1
  C  C87  1  0.29403900  0.59762100  0.63801800  1
  C  C88  1  0.43092000  0.18376200  0.72140900  1
  C  C89  1  0.93092000  0.81623800  0.27859100  1
  C  C90  1  0.16613400  0.55781800  0.48565900  1
  C  C91  1  0.88589600  0.94156900  0.20387200  1
  C  C92  1  0.04034900  0.16941200  0.24258900  1
  C  C93  1  0.79403900  0.40237900  0.36198200  1
  C  C94  1  0.40918200  0.15772300  0.24885800  1
  C  C95  1  0.38589600  0.05843100  0.79612800  1
  C  C96  1  0.47193600  0.85395000  0.85592400  1
  C  C97  1  0.97193600  0.14605000  0.14407600  1
  C  C98  1  0.28300500  0.92231500  0.51837700  1
  C  C99  1  0.69306300  0.42593500  0.03520300  1
  C  C100  1  0.54034900  0.83058800  0.75741100  1
  C  C101  1  0.19306300  0.57406500  0.96479700  1
  C  C102  1  0.60844300  0.08413700  0.96445500  1
  C  C103  1  0.34533600  0.17758500  0.13266900  1
  C  C104  1  0.66613400  0.44218200  0.51434100  1
  C  C105  1  0.10844300  0.91586300  0.03554500  1
  N  N106  1  0.89471700  0.96690900  0.66925500  1
  N  N107  1  0.18092000  0.63829900  0.04619400  1
  N  N108  1  0.68092000  0.36170100  0.95380600  1
  N  N109  1  0.49555500  0.97668800  0.85371300  1
  N  N110  1  0.67574900  0.37279000  0.43716800  1
  N  N111  1  0.99555500  0.02331200  0.14628700  1
  N  N112  1  0.17574900  0.62721000  0.56283200  1
  N  N113  1  0.39471700  0.03309100  0.33074500  1
  O  O114  1  0.17981200  0.29467600  0.86789600  1
  O  O115  1  0.52994100  0.73136200  0.74784500  1
  O  O116  1  0.91622800  0.56858400  0.64959800  1
  O  O117  1  0.04410200  0.25624100  0.59799500  1
  O  O118  1  0.36130600  0.27287500  0.70775300  1
  O  O119  1  0.10947700  0.87993600  0.95264900  1
  O  O120  1  0.60947700  0.12006400  0.04735100  1
  O  O121  1  0.04274200  0.81276500  0.33071900  1
  O  O122  1  0.92943800  0.38371200  0.86440300  1
  O  O123  1  0.77375500  0.10770400  0.37604600  1
  O  O124  1  0.68075500  0.12963400  0.87393000  1
  O  O125  1  0.77982900  0.91283600  0.87501700  1
  O  O126  1  0.86130600  0.72712500  0.29224700  1
  O  O127  1  0.20608200  0.29461000  0.40866200  1
  O  O128  1  0.67981200  0.70532400  0.13210400  1
  O  O129  1  0.11175700  0.08238700  0.31053800  1
  O  O130  1  0.35246000  0.27665900  0.05401100  1
  O  O131  1  0.21794000  0.87103400  0.45784200  1
  O  O132  1  0.02994100  0.26863800  0.25215500  1
  O  O133  1  0.86305300  0.18184700  0.70245900  1
  O  O134  1  0.27375500  0.89229600  0.62395400  1
  O  O135  1  0.41622800  0.43141600  0.35040200  1
  O  O136  1  0.54410200  0.74375900  0.40200500  1
  O  O137  1  0.36305300  0.81815300  0.29754100  1
  O  O138  1  0.85246000  0.72334100  0.94598900  1
  O  O139  1  0.27982900  0.08716400  0.12498300  1
  O  O140  1  0.54274200  0.18723500  0.66928100  1
  O  O141  1  0.42943800  0.61628800  0.13559700  1
  O  O142  1  0.70608200  0.70539000  0.59133800  1
  O  O143  1  0.61175700  0.91761300  0.68946200  1
  O  O144  1  0.71794000  0.12896600  0.54215800  1
  O  O145  1  0.18075500  0.87036600  0.12607000  1
