# generated using pymatgen
data_SbH12C4NF4
_symmetry_space_group_name_H-M   'P 1'
_cell_length_a   10.02364800
_cell_length_b   5.47046100
_cell_length_c   18.47447363
_cell_angle_alpha   87.95766144
_cell_angle_beta   90.00000000
_cell_angle_gamma   90.00000000
_symmetry_Int_Tables_number   1
_chemical_formula_structural   SbH12C4NF4
_chemical_formula_sum   'Sb4 H48 C16 N4 F16'
_cell_volume   1012.38532245
_cell_formula_units_Z   4
loop_
 _symmetry_equiv_pos_site_id
 _symmetry_equiv_pos_as_xyz
  1  'x, y, z'
loop_
 _atom_site_type_symbol
 _atom_site_label
 _atom_site_symmetry_multiplicity
 _atom_site_fract_x
 _atom_site_fract_y
 _atom_site_fract_z
 _atom_site_occupancy
  Sb  Sb0  1  0.35126500  0.48188100  0.92267500  1
  Sb  Sb1  1  0.14873500  0.48188100  0.42267500  1
  Sb  Sb2  1  0.85126500  0.51811900  0.57732500  1
  Sb  Sb3  1  0.64873500  0.51811900  0.07732500  1
  H  H4  1  0.57626300  0.72043400  0.41082900  1
  H  H5  1  0.25639500  0.27582700  0.20910600  1
  H  H6  1  0.13772000  0.04695200  0.67314200  1
  H  H7  1  0.02200500  0.18705700  0.92532200  1
  H  H8  1  0.36228000  0.04695200  0.17314200  1
  H  H9  1  0.39181100  0.92073100  0.45559100  1
  H  H10  1  0.28418200  0.26504300  0.11284300  1
  H  H11  1  0.39348100  0.95444800  0.76512800  1
  H  H12  1  0.10818900  0.92073100  0.95559100  1
  H  H13  1  0.96003700  0.27436000  0.79210900  1
  H  H14  1  0.85126400  0.93650400  0.12978500  1
  H  H15  1  0.65773600  0.36172700  0.85282500  1
  H  H16  1  0.60818900  0.07926900  0.54440900  1
  H  H17  1  0.21210500  0.72275100  0.23130500  1
  H  H18  1  0.71581800  0.73495700  0.88715700  1
  H  H19  1  0.99757600  0.23700400  0.17451400  1
  H  H20  1  0.50242400  0.23700400  0.67451400  1
  H  H21  1  0.63772000  0.95304800  0.82685800  1
  H  H22  1  0.97799500  0.81294300  0.07467800  1
  H  H23  1  0.52200500  0.81294300  0.57467800  1
  H  H24  1  0.47799500  0.18705700  0.42532200  1
  H  H25  1  0.89348100  0.04555200  0.73487200  1
  H  H26  1  0.86228000  0.95304800  0.32685800  1
  H  H27  1  0.00242400  0.76299600  0.82548600  1
  H  H28  1  0.60651900  0.04555200  0.23487200  1
  H  H29  1  0.53996300  0.27436000  0.29210900  1
  H  H30  1  0.34226400  0.63827300  0.14717500  1
  H  H31  1  0.07626300  0.27956600  0.08917100  1
  H  H32  1  0.92373700  0.72043400  0.91082900  1
  H  H33  1  0.75639500  0.72417300  0.29089400  1
  H  H34  1  0.03996300  0.72564000  0.20789100  1
  H  H35  1  0.71210500  0.27724900  0.26869500  1
  H  H36  1  0.35126400  0.06349600  0.37021500  1
  H  H37  1  0.21581800  0.26504300  0.61284300  1
  H  H38  1  0.10651900  0.95444800  0.26512800  1
  H  H39  1  0.14873600  0.06349600  0.87021500  1
  H  H40  1  0.24360500  0.27582700  0.70910600  1
  H  H41  1  0.78789500  0.27724900  0.76869500  1
  H  H42  1  0.15773600  0.63827300  0.64717500  1
  H  H43  1  0.78418200  0.73495700  0.38715700  1
  H  H44  1  0.28789500  0.72275100  0.73130500  1
  H  H45  1  0.64873600  0.93650400  0.62978500  1
  H  H46  1  0.49757600  0.76299600  0.32548600  1
  H  H47  1  0.89181100  0.07926900  0.04440900  1
  H  H48  1  0.42373700  0.27956600  0.58917100  1
  H  H49  1  0.74360500  0.72417300  0.79089400  1
  H  H50  1  0.84226400  0.36172700  0.35282500  1
  H  H51  1  0.46003700  0.72564000  0.70789100  1
  C  C52  1  0.45961000  0.13880400  0.62808800  1
  C  C53  1  0.56687400  0.98334300  0.59280500  1
  C  C54  1  0.12708000  0.84235800  0.21702500  1
  C  C55  1  0.06687400  0.01665700  0.90719500  1
  C  C56  1  0.37292000  0.84235800  0.71702500  1
  C  C57  1  0.27053100  0.15376800  0.16289400  1
  C  C58  1  0.87292000  0.15764200  0.78297500  1
  C  C59  1  0.77053100  0.84623200  0.33710600  1
  C  C60  1  0.95961000  0.86119600  0.87191200  1
  C  C61  1  0.72946900  0.84623200  0.83710600  1
  C  C62  1  0.62708000  0.15764200  0.28297500  1
  C  C63  1  0.54039000  0.86119600  0.37191200  1
  C  C64  1  0.93312600  0.98334300  0.09280500  1
  C  C65  1  0.43312600  0.01665700  0.40719500  1
  C  C66  1  0.04039000  0.13880400  0.12808800  1
  C  C67  1  0.22946900  0.15376800  0.66289400  1
  N  N68  1  0.84310400  0.00725800  0.84783500  1
  N  N69  1  0.34310400  0.99274200  0.65216500  1
  N  N70  1  0.65689600  0.00725800  0.34783500  1
  N  N71  1  0.15689600  0.99274200  0.15216500  1
  F  F72  1  0.43207700  0.62309500  0.16263200  1
  F  F73  1  0.24136900  0.45905600  0.83762500  1
  F  F74  1  0.06792300  0.62309500  0.66263200  1
  F  F75  1  0.20478700  0.47629000  0.99093800  1
  F  F76  1  0.12276400  0.13086700  0.43413600  1
  F  F77  1  0.74136900  0.54094400  0.66237500  1
  F  F78  1  0.29521300  0.47629000  0.49093800  1
  F  F79  1  0.79521300  0.52371000  0.00906200  1
  F  F80  1  0.87723600  0.86913300  0.56586400  1
  F  F81  1  0.70478700  0.52371000  0.50906200  1
  F  F82  1  0.37723600  0.13086700  0.93413600  1
  F  F83  1  0.25863100  0.45905600  0.33762500  1
  F  F84  1  0.56792300  0.37690500  0.83736800  1
  F  F85  1  0.75863100  0.54094400  0.16237500  1
  F  F86  1  0.62276400  0.86913300  0.06586400  1
  F  F87  1  0.93207700  0.37690500  0.33736800  1
