# generated using pymatgen
data_GaH12C4NCl3
_symmetry_space_group_name_H-M   'P 1'
_cell_length_a   13.04707100
_cell_length_b   13.04707100
_cell_length_c   13.04707100
_cell_angle_alpha   90.00000000
_cell_angle_beta   90.00000000
_cell_angle_gamma   90.00000000
_symmetry_Int_Tables_number   1
_chemical_formula_structural   GaH12C4NCl3
_chemical_formula_sum   'Ga8 H96 C32 N8 Cl24'
_cell_volume   2220.95151278
_cell_formula_units_Z   8
loop_
 _symmetry_equiv_pos_site_id
 _symmetry_equiv_pos_as_xyz
  1  'x, y, z'
loop_
 _atom_site_type_symbol
 _atom_site_label
 _atom_site_symmetry_multiplicity
 _atom_site_fract_x
 _atom_site_fract_y
 _atom_site_fract_z
 _atom_site_occupancy
  Ga  Ga0  1  0.05399400  0.05399400  0.05399400  1
  Ga  Ga1  1  0.05399400  0.44600600  0.55399400  1
  Ga  Ga2  1  0.44600600  0.94600600  0.55399400  1
  Ga  Ga3  1  0.94600600  0.94600600  0.94600600  1
  Ga  Ga4  1  0.55399400  0.05399400  0.44600600  1
  Ga  Ga5  1  0.55399400  0.44600600  0.94600600  1
  Ga  Ga6  1  0.94600600  0.55399400  0.44600600  1
  Ga  Ga7  1  0.44600600  0.55399400  0.05399400  1
  H  H8  1  0.92464600  0.23604200  0.28317900  1
  H  H9  1  0.63601400  0.73101900  0.57767100  1
  H  H10  1  0.36398600  0.26898100  0.42232900  1
  H  H11  1  0.07535400  0.73604200  0.21682100  1
  H  H12  1  0.75829600  0.86406900  0.77988400  1
  H  H13  1  0.07535400  0.76395800  0.71682100  1
  H  H14  1  0.63593100  0.22011600  0.25829600  1
  H  H15  1  0.86398600  0.26898100  0.07767100  1
  H  H16  1  0.13593100  0.27988400  0.74170400  1
  H  H17  1  0.14092700  0.66185500  0.65053000  1
  H  H18  1  0.23101900  0.92232900  0.36398600  1
  H  H19  1  0.76395800  0.71682100  0.07535400  1
  H  H20  1  0.34947000  0.64092700  0.83814500  1
  H  H21  1  0.85907300  0.33814500  0.34947000  1
  H  H22  1  0.07767100  0.63601400  0.76898100  1
  H  H23  1  0.27988400  0.74170400  0.13593100  1
  H  H24  1  0.25829600  0.63593100  0.22011600  1
  H  H25  1  0.84947000  0.85907300  0.16185500  1
  H  H26  1  0.86406900  0.72011600  0.25829600  1
  H  H27  1  0.66185500  0.84947000  0.64092700  1
  H  H28  1  0.24170400  0.36406900  0.72011600  1
  H  H29  1  0.28317900  0.92464600  0.23604200  1
  H  H30  1  0.57535400  0.73604200  0.28317900  1
  H  H31  1  0.74170400  0.13593100  0.27988400  1
  H  H32  1  0.72011600  0.25829600  0.86406900  1
  H  H33  1  0.86398600  0.23101900  0.57767100  1
  H  H34  1  0.71682100  0.42464600  0.26395800  1
  H  H35  1  0.23101900  0.57767100  0.86398600  1
  H  H36  1  0.65053000  0.35907300  0.16185500  1
  H  H37  1  0.73101900  0.92232900  0.13601400  1
  H  H38  1  0.42232900  0.13601400  0.76898100  1
  H  H39  1  0.57535400  0.76395800  0.78317900  1
  H  H40  1  0.92232900  0.13601400  0.73101900  1
  H  H41  1  0.77988400  0.74170400  0.36406900  1
  H  H42  1  0.57767100  0.63601400  0.73101900  1
  H  H43  1  0.42464600  0.26395800  0.71682100  1
  H  H44  1  0.26395800  0.78317900  0.92464600  1
  H  H45  1  0.78317900  0.57535400  0.76395800  1
  H  H46  1  0.42232900  0.36398600  0.26898100  1
  H  H47  1  0.34947000  0.85907300  0.33814500  1
  H  H48  1  0.83814500  0.34947000  0.64092700  1
  H  H49  1  0.73101900  0.57767100  0.63601400  1
  H  H50  1  0.24170400  0.13593100  0.22011600  1
  H  H51  1  0.13593100  0.22011600  0.24170400  1
  H  H52  1  0.57767100  0.86398600  0.23101900  1
  H  H53  1  0.36406900  0.77988400  0.74170400  1
  H  H54  1  0.36406900  0.72011600  0.24170400  1
  H  H55  1  0.92464600  0.26395800  0.78317900  1
  H  H56  1  0.71682100  0.07535400  0.76395800  1
  H  H57  1  0.66185500  0.65053000  0.14092700  1
  H  H58  1  0.78317900  0.92464600  0.26395800  1
  H  H59  1  0.33814500  0.15053000  0.35907300  1
  H  H60  1  0.77988400  0.75829600  0.86406900  1
  H  H61  1  0.22011600  0.24170400  0.13593100  1
  H  H62  1  0.21682100  0.07535400  0.73604200  1
  H  H63  1  0.16185500  0.84947000  0.85907300  1
  H  H64  1  0.65053000  0.14092700  0.66185500  1
  H  H65  1  0.75829600  0.63593100  0.27988400  1
  H  H66  1  0.73604200  0.21682100  0.07535400  1
  H  H67  1  0.22011600  0.25829600  0.63593100  1
  H  H68  1  0.21682100  0.42464600  0.23604200  1
  H  H69  1  0.76898100  0.07767100  0.63601400  1
  H  H70  1  0.35907300  0.16185500  0.65053000  1
  H  H71  1  0.73604200  0.28317900  0.57535400  1
  H  H72  1  0.83814500  0.15053000  0.14092700  1
  H  H73  1  0.63601400  0.76898100  0.07767100  1
  H  H74  1  0.14092700  0.83814500  0.15053000  1
  H  H75  1  0.76898100  0.42232900  0.13601400  1
  H  H76  1  0.16185500  0.65053000  0.35907300  1
  H  H77  1  0.26898100  0.07767100  0.86398600  1
  H  H78  1  0.23604200  0.28317900  0.92464600  1
  H  H79  1  0.15053000  0.35907300  0.33814500  1
  H  H80  1  0.42464600  0.23604200  0.21682100  1
  H  H81  1  0.33814500  0.34947000  0.85907300  1
  H  H82  1  0.76395800  0.78317900  0.57535400  1
  H  H83  1  0.84947000  0.64092700  0.66185500  1
  H  H84  1  0.23604200  0.21682100  0.42464600  1
  H  H85  1  0.36398600  0.23101900  0.92232900  1
  H  H86  1  0.25829600  0.86406900  0.72011600  1
  H  H87  1  0.74170400  0.36406900  0.77988400  1
  H  H88  1  0.86406900  0.77988400  0.75829600  1
  H  H89  1  0.13601400  0.73101900  0.92232900  1
  H  H90  1  0.64092700  0.83814500  0.34947000  1
  H  H91  1  0.13601400  0.76898100  0.42232900  1
  H  H92  1  0.07767100  0.86398600  0.26898100  1
  H  H93  1  0.28317900  0.57535400  0.73604200  1
  H  H94  1  0.63593100  0.27988400  0.75829600  1
  H  H95  1  0.27988400  0.75829600  0.63593100  1
  H  H96  1  0.64092700  0.66185500  0.84947000  1
  H  H97  1  0.92232900  0.36398600  0.23101900  1
  H  H98  1  0.26898100  0.42232900  0.36398600  1
  H  H99  1  0.85907300  0.16185500  0.84947000  1
  H  H100  1  0.15053000  0.14092700  0.83814500  1
  H  H101  1  0.26395800  0.71682100  0.42464600  1
  H  H102  1  0.72011600  0.24170400  0.36406900  1
  H  H103  1  0.35907300  0.33814500  0.15053000  1
  C  C104  1  0.71542200  0.28457800  0.78457800  1
  C  C105  1  0.19370000  0.77468700  0.87931000  1
  C  C106  1  0.77468700  0.62069000  0.69370000  1
  C  C107  1  0.22531300  0.12069000  0.80630000  1
  C  C108  1  0.30630000  0.22531300  0.37931000  1
  C  C109  1  0.87931000  0.30630000  0.27468700  1
  C  C110  1  0.22531300  0.37931000  0.30630000  1
  C  C111  1  0.71542200  0.21542200  0.28457800  1
  C  C112  1  0.69370000  0.77468700  0.62069000  1
  C  C113  1  0.69370000  0.72531300  0.12069000  1
  C  C114  1  0.21542200  0.28457800  0.71542200  1
  C  C115  1  0.27468700  0.62069000  0.80630000  1
  C  C116  1  0.78457800  0.71542200  0.28457800  1
  C  C117  1  0.37931000  0.19370000  0.72531300  1
  C  C118  1  0.72531300  0.37931000  0.19370000  1
  C  C119  1  0.12069000  0.80630000  0.22531300  1
  C  C120  1  0.62069000  0.69370000  0.77468700  1
  C  C121  1  0.19370000  0.72531300  0.37931000  1
  C  C122  1  0.30630000  0.27468700  0.87931000  1
  C  C123  1  0.28457800  0.71542200  0.21542200  1
  C  C124  1  0.78457800  0.78457800  0.78457800  1
  C  C125  1  0.28457800  0.78457800  0.71542200  1
  C  C126  1  0.37931000  0.30630000  0.22531300  1
  C  C127  1  0.77468700  0.87931000  0.19370000  1
  C  C128  1  0.27468700  0.87931000  0.30630000  1
  C  C129  1  0.87931000  0.19370000  0.77468700  1
  C  C130  1  0.80630000  0.27468700  0.62069000  1
  C  C131  1  0.80630000  0.22531300  0.12069000  1
  C  C132  1  0.72531300  0.12069000  0.69370000  1
  C  C133  1  0.12069000  0.69370000  0.72531300  1
  C  C134  1  0.21542200  0.21542200  0.21542200  1
  C  C135  1  0.62069000  0.80630000  0.27468700  1
  N  N136  1  0.21808800  0.71808800  0.78191200  1
  N  N137  1  0.28191200  0.28191200  0.28191200  1
  N  N138  1  0.71808800  0.78191200  0.21808800  1
  N  N139  1  0.28191200  0.21808800  0.78191200  1
  N  N140  1  0.71808800  0.71808800  0.71808800  1
  N  N141  1  0.78191200  0.28191200  0.21808800  1
  N  N142  1  0.78191200  0.21808800  0.71808800  1
  N  N143  1  0.21808800  0.78191200  0.28191200  1
  Cl  Cl144  1  0.77762900  0.99249500  0.94702200  1
  Cl  Cl145  1  0.50750500  0.05297800  0.27762900  1
  Cl  Cl146  1  0.99249500  0.94702200  0.77762900  1
  Cl  Cl147  1  0.49249500  0.94702200  0.72237100  1
  Cl  Cl148  1  0.22237100  0.49249500  0.55297800  1
  Cl  Cl149  1  0.77762900  0.50750500  0.44702200  1
  Cl  Cl150  1  0.50750500  0.44702200  0.77762900  1
  Cl  Cl151  1  0.55297800  0.27762900  0.99249500  1
  Cl  Cl152  1  0.94702200  0.72237100  0.49249500  1
  Cl  Cl153  1  0.44702200  0.72237100  0.00750500  1
  Cl  Cl154  1  0.00750500  0.44702200  0.72237100  1
  Cl  Cl155  1  0.99249500  0.55297800  0.27762900  1
  Cl  Cl156  1  0.27762900  0.50750500  0.05297800  1
  Cl  Cl157  1  0.72237100  0.00750500  0.44702200  1
  Cl  Cl158  1  0.49249500  0.55297800  0.22237100  1
  Cl  Cl159  1  0.94702200  0.77762900  0.99249500  1
  Cl  Cl160  1  0.55297800  0.22237100  0.49249500  1
  Cl  Cl161  1  0.00750500  0.05297800  0.22237100  1
  Cl  Cl162  1  0.22237100  0.00750500  0.05297800  1
  Cl  Cl163  1  0.72237100  0.49249500  0.94702200  1
  Cl  Cl164  1  0.05297800  0.22237100  0.00750500  1
  Cl  Cl165  1  0.05297800  0.27762900  0.50750500  1
  Cl  Cl166  1  0.27762900  0.99249500  0.55297800  1
  Cl  Cl167  1  0.44702200  0.77762900  0.50750500  1
