# generated using pymatgen
data_Fe(SbO2)2
_symmetry_space_group_name_H-M   'P 1'
_cell_length_a   8.57217300
_cell_length_b   8.57217300
_cell_length_c   6.61358100
_cell_angle_alpha   90.00000000
_cell_angle_beta   90.00000000
_cell_angle_gamma   90.00000000
_symmetry_Int_Tables_number   1
_chemical_formula_structural   Fe(SbO2)2
_chemical_formula_sum   'Fe4 Sb8 O16'
_cell_volume   485.98015070
_cell_formula_units_Z   4
loop_
 _symmetry_equiv_pos_site_id
 _symmetry_equiv_pos_as_xyz
  1  'x, y, z'
loop_
 _atom_site_type_symbol
 _atom_site_label
 _atom_site_symmetry_multiplicity
 _atom_site_fract_x
 _atom_site_fract_y
 _atom_site_fract_z
 _atom_site_occupancy
  Fe  Fe0  1  0.50000000  0.00000000  0.76066900  1
  Fe  Fe1  1  0.00000000  0.50000000  0.73933100  1
  Fe  Fe2  1  0.50000000  0.00000000  0.23933100  1
  Fe  Fe3  1  0.00000000  0.50000000  0.26066900  1
  Sb  Sb4  1  0.30801000  0.43881000  0.00000000  1
  Sb  Sb5  1  0.17962800  0.79642700  0.00000000  1
  Sb  Sb6  1  0.20357300  0.17962800  0.50000000  1
  Sb  Sb7  1  0.82037200  0.20357300  0.00000000  1
  Sb  Sb8  1  0.56119000  0.30801000  0.50000000  1
  Sb  Sb9  1  0.43881000  0.69199000  0.50000000  1
  Sb  Sb10  1  0.69199000  0.56119000  0.00000000  1
  Sb  Sb11  1  0.79642700  0.82037200  0.50000000  1
  O  O12  1  0.10588500  0.38397900  0.50000000  1
  O  O13  1  0.90695900  0.63375900  0.00000000  1
  O  O14  1  0.38397900  0.89411500  0.00000000  1
  O  O15  1  0.62341300  0.76520000  0.70130500  1
  O  O16  1  0.62341300  0.76520000  0.29869500  1
  O  O17  1  0.09304100  0.36624100  0.00000000  1
  O  O18  1  0.36624100  0.90695900  0.50000000  1
  O  O19  1  0.37658700  0.23480000  0.29869500  1
  O  O20  1  0.37658700  0.23480000  0.70130500  1
  O  O21  1  0.76520000  0.37658700  0.20130500  1
  O  O22  1  0.89411500  0.61602100  0.50000000  1
  O  O23  1  0.23480000  0.62341300  0.20130500  1
  O  O24  1  0.76520000  0.37658700  0.79869500  1
  O  O25  1  0.63375900  0.09304100  0.50000000  1
  O  O26  1  0.61602100  0.10588500  0.00000000  1
  O  O27  1  0.23480000  0.62341300  0.79869500  1
