# generated using pymatgen
data_H8C3SeN2
_symmetry_space_group_name_H-M   'P 1'
_cell_length_a   6.35070400
_cell_length_b   12.09054600
_cell_length_c   15.33659200
_cell_angle_alpha   90.00000000
_cell_angle_beta   90.00000000
_cell_angle_gamma   90.00000000
_symmetry_Int_Tables_number   1
_chemical_formula_structural   H8C3SeN2
_chemical_formula_sum   'H64 C24 Se8 N16'
_cell_volume   1177.59688738
_cell_formula_units_Z   8
loop_
 _symmetry_equiv_pos_site_id
 _symmetry_equiv_pos_as_xyz
  1  'x, y, z'
loop_
 _atom_site_type_symbol
 _atom_site_label
 _atom_site_symmetry_multiplicity
 _atom_site_fract_x
 _atom_site_fract_y
 _atom_site_fract_z
 _atom_site_occupancy
  H  H0  1  0.20025300  0.55433700  0.89056300  1
  H  H1  1  0.77835100  0.47387600  0.70075000  1
  H  H2  1  0.27835100  0.47387600  0.79925000  1
  H  H3  1  0.57696600  0.57395400  0.71387100  1
  H  H4  1  0.13290300  0.11639100  0.59108300  1
  H  H5  1  0.92499400  0.25550800  0.84587000  1
  H  H6  1  0.65188500  0.56511400  0.96585100  1
  H  H7  1  0.80355500  0.71226000  0.13743000  1
  H  H8  1  0.92120100  0.80891500  0.74326600  1
  H  H9  1  0.77835100  0.02612400  0.20075000  1
  H  H10  1  0.42303400  0.07395400  0.78612900  1
  H  H11  1  0.79974700  0.05433700  0.60943700  1
  H  H12  1  0.57500600  0.75550800  0.84587000  1
  H  H13  1  0.36709700  0.61639100  0.59108300  1
  H  H14  1  0.57879900  0.30891500  0.74326600  1
  H  H15  1  0.29974700  0.44566300  0.39056300  1
  H  H16  1  0.15188500  0.56511400  0.53414900  1
  H  H17  1  0.79974700  0.44566300  0.10943700  1
  H  H18  1  0.22164900  0.97387600  0.79925000  1
  H  H19  1  0.42120100  0.80891500  0.75673400  1
  H  H20  1  0.92303400  0.07395400  0.71387100  1
  H  H21  1  0.63290300  0.38360900  0.40891700  1
  H  H22  1  0.72164900  0.97387600  0.70075000  1
  H  H23  1  0.69644500  0.28774000  0.63743000  1
  H  H24  1  0.92303400  0.42604600  0.21387100  1
  H  H25  1  0.86709700  0.61639100  0.90891700  1
  H  H26  1  0.13290300  0.38360900  0.09108300  1
  H  H27  1  0.34811500  0.43488600  0.03414900  1
  H  H28  1  0.07500600  0.75550800  0.65413000  1
  H  H29  1  0.07879900  0.30891500  0.75673400  1
  H  H30  1  0.42499400  0.25550800  0.65413000  1
  H  H31  1  0.42499400  0.24449200  0.15413000  1
  H  H32  1  0.42120100  0.69108500  0.25673400  1
  H  H33  1  0.86709700  0.88360900  0.40891700  1
  H  H34  1  0.07696600  0.92604600  0.28612900  1
  H  H35  1  0.27835100  0.02612400  0.29925000  1
  H  H36  1  0.92120100  0.69108500  0.24326600  1
  H  H37  1  0.20025300  0.94566300  0.39056300  1
  H  H38  1  0.84811500  0.06511400  0.96585100  1
  H  H39  1  0.30355500  0.78774000  0.86257000  1
  H  H40  1  0.57879900  0.19108500  0.24326600  1
  H  H41  1  0.57500600  0.74449200  0.34587000  1
  H  H42  1  0.65188500  0.93488600  0.46585100  1
  H  H43  1  0.70025300  0.94566300  0.10943700  1
  H  H44  1  0.57696600  0.92604600  0.21387100  1
  H  H45  1  0.69644500  0.21226000  0.13743000  1
  H  H46  1  0.22164900  0.52612400  0.29925000  1
  H  H47  1  0.19644500  0.28774000  0.86257000  1
  H  H48  1  0.29974700  0.05433700  0.89056300  1
  H  H49  1  0.72164900  0.52612400  0.20075000  1
  H  H50  1  0.07500600  0.74449200  0.15413000  1
  H  H51  1  0.07879900  0.19108500  0.25673400  1
  H  H52  1  0.19644500  0.21226000  0.36257000  1
  H  H53  1  0.07696600  0.57395400  0.78612900  1
  H  H54  1  0.70025300  0.55433700  0.60943700  1
  H  H55  1  0.42303400  0.42604600  0.28612900  1
  H  H56  1  0.92499400  0.24449200  0.34587000  1
  H  H57  1  0.63290300  0.11639100  0.90891700  1
  H  H58  1  0.15188500  0.93488600  0.03414900  1
  H  H59  1  0.84811500  0.43488600  0.46585100  1
  H  H60  1  0.36709700  0.88360900  0.09108300  1
  H  H61  1  0.34811500  0.06511400  0.53414900  1
  H  H62  1  0.80355500  0.78774000  0.63743000  1
  H  H63  1  0.30355500  0.71226000  0.36257000  1
  C  C64  1  0.64296300  0.98779900  0.16858600  1
  C  C65  1  0.82065700  0.05485900  0.40241200  1
  C  C66  1  0.44792600  0.68774900  0.32772900  1
  C  C67  1  0.67934300  0.94514100  0.90241200  1
  C  C68  1  0.14296300  0.51220100  0.83141400  1
  C  C69  1  0.85703700  0.01220100  0.66858600  1
  C  C70  1  0.32065700  0.05485900  0.09758800  1
  C  C71  1  0.35703700  0.01220100  0.83141400  1
  C  C72  1  0.64296300  0.51220100  0.66858600  1
  C  C73  1  0.85703700  0.48779900  0.16858600  1
  C  C74  1  0.55207400  0.31225100  0.67227100  1
  C  C75  1  0.67934300  0.55485900  0.40241200  1
  C  C76  1  0.94792600  0.68774900  0.17227100  1
  C  C77  1  0.44792600  0.81225100  0.82772900  1
  C  C78  1  0.17934300  0.55485900  0.09758800  1
  C  C79  1  0.35703700  0.48779900  0.33141400  1
  C  C80  1  0.05207400  0.18774900  0.32772900  1
  C  C81  1  0.55207400  0.18774900  0.17227100  1
  C  C82  1  0.32065700  0.44514100  0.59758800  1
  C  C83  1  0.17934300  0.94514100  0.59758800  1
  C  C84  1  0.14296300  0.98779900  0.33141400  1
  C  C85  1  0.94792600  0.81225100  0.67227100  1
  C  C86  1  0.05207400  0.31225100  0.82772900  1
  C  C87  1  0.82065700  0.44514100  0.90241200  1
  Se  Se88  1  0.36760700  0.83632000  0.55619200  1
  Se  Se89  1  0.63239300  0.16368000  0.44380800  1
  Se  Se90  1  0.13239300  0.33632000  0.55619200  1
  Se  Se91  1  0.86760700  0.83632000  0.94380800  1
  Se  Se92  1  0.63239300  0.33632000  0.94380800  1
  Se  Se93  1  0.13239300  0.16368000  0.05619200  1
  Se  Se94  1  0.86760700  0.66368000  0.44380800  1
  Se  Se95  1  0.36760700  0.66368000  0.05619200  1
  N  N96  1  0.77711700  0.95020700  0.42487100  1
  N  N97  1  0.00794400  0.57559800  0.14704800  1
  N  N98  1  0.49205600  0.42440200  0.64704800  1
  N  N99  1  0.99205600  0.42440200  0.85295200  1
  N  N100  1  0.27711700  0.95020700  0.07512900  1
  N  N101  1  0.99205600  0.07559800  0.35295200  1
  N  N102  1  0.00794400  0.92440200  0.64704800  1
  N  N103  1  0.27711700  0.54979300  0.57512900  1
  N  N104  1  0.50794400  0.92440200  0.85295200  1
  N  N105  1  0.72288300  0.04979300  0.92487100  1
  N  N106  1  0.72288300  0.45020700  0.42487100  1
  N  N107  1  0.50794400  0.57559800  0.35295200  1
  N  N108  1  0.22288300  0.45020700  0.07512900  1
  N  N109  1  0.77711700  0.54979300  0.92487100  1
  N  N110  1  0.49205600  0.07559800  0.14704800  1
  N  N111  1  0.22288300  0.04979300  0.57512900  1
