# generated using pymatgen
data_CoH14C3NCl3O2
_symmetry_space_group_name_H-M   'P 1'
_cell_length_a   7.28117100
_cell_length_b   8.24599200
_cell_length_c   16.87670800
_cell_angle_alpha   90.00000000
_cell_angle_beta   90.00000000
_cell_angle_gamma   90.00000000
_symmetry_Int_Tables_number   1
_chemical_formula_structural   CoH14C3NCl3O2
_chemical_formula_sum   'Co4 H56 C12 N4 Cl12 O8'
_cell_volume   1013.28561229
_cell_formula_units_Z   4
loop_
 _symmetry_equiv_pos_site_id
 _symmetry_equiv_pos_as_xyz
  1  'x, y, z'
loop_
 _atom_site_type_symbol
 _atom_site_label
 _atom_site_symmetry_multiplicity
 _atom_site_fract_x
 _atom_site_fract_y
 _atom_site_fract_z
 _atom_site_occupancy
  Co  Co0  1  0.50000000  0.00000000  0.00000000  1
  Co  Co1  1  0.00000000  0.00000000  0.00000000  1
  Co  Co2  1  0.50000000  0.50000000  0.50000000  1
  Co  Co3  1  0.00000000  0.50000000  0.50000000  1
  H  H4  1  0.07407500  0.68877200  0.96117600  1
  H  H5  1  0.57391300  0.69412400  0.71546900  1
  H  H6  1  0.46191200  0.78850200  0.31060700  1
  H  H7  1  0.75000000  0.74453400  0.37121400  1
  H  H8  1  0.75000000  0.75546600  0.87121400  1
  H  H9  1  0.46191200  0.71149800  0.81060700  1
  H  H10  1  0.92592500  0.31122800  0.03882400  1
  H  H11  1  0.87385900  0.49109500  0.86595400  1
  H  H12  1  0.92608700  0.80587600  0.21546900  1
  H  H13  1  0.53808800  0.28850200  0.18939300  1
  H  H14  1  0.25000000  0.54377700  0.22496200  1
  H  H15  1  0.12614100  0.99109500  0.63404600  1
  H  H16  1  0.03808800  0.71149800  0.81060700  1
  H  H17  1  0.07972700  0.11728500  0.23036300  1
  H  H18  1  0.37385900  0.99109500  0.63404600  1
  H  H19  1  0.57407500  0.18877200  0.53882400  1
  H  H20  1  0.96191200  0.28850200  0.18939300  1
  H  H21  1  0.42592500  0.81122800  0.46117600  1
  H  H22  1  0.57407500  0.31122800  0.03882400  1
  H  H23  1  0.07391300  0.30587600  0.28453100  1
  H  H24  1  0.03808800  0.78850200  0.31060700  1
  H  H25  1  0.10055700  0.31410700  0.98377200  1
  H  H26  1  0.92027300  0.61728500  0.26963700  1
  H  H27  1  0.62614100  0.00890500  0.36595400  1
  H  H28  1  0.75000000  0.45622300  0.77503800  1
  H  H29  1  0.96191200  0.21149800  0.68939300  1
  H  H30  1  0.75000000  0.04377700  0.27503800  1
  H  H31  1  0.53808800  0.21149800  0.68939300  1
  H  H32  1  0.25000000  0.25546600  0.62878600  1
  H  H33  1  0.57972700  0.88271500  0.76963700  1
  H  H34  1  0.07972700  0.38271500  0.73036300  1
  H  H35  1  0.57972700  0.61728500  0.26963700  1
  H  H36  1  0.62614100  0.49109500  0.86595400  1
  H  H37  1  0.92592500  0.18877200  0.53882400  1
  H  H38  1  0.07407500  0.81122800  0.46117600  1
  H  H39  1  0.92608700  0.69412400  0.71546900  1
  H  H40  1  0.42592500  0.68877200  0.96117600  1
  H  H41  1  0.07391300  0.19412400  0.78453100  1
  H  H42  1  0.25000000  0.95622300  0.72496200  1
  H  H43  1  0.89944300  0.81410700  0.51622800  1
  H  H44  1  0.42027300  0.11728500  0.23036300  1
  H  H45  1  0.10055700  0.18589300  0.48377200  1
  H  H46  1  0.60055700  0.81410700  0.51622800  1
  H  H47  1  0.92027300  0.88271500  0.76963700  1
  H  H48  1  0.25000000  0.24453400  0.12878600  1
  H  H49  1  0.87385900  0.00890500  0.36595400  1
  H  H50  1  0.60055700  0.68589300  0.01622800  1
  H  H51  1  0.42608700  0.19412400  0.78453100  1
  H  H52  1  0.39944300  0.18589300  0.48377200  1
  H  H53  1  0.89944300  0.68589300  0.01622800  1
  H  H54  1  0.12614100  0.50890500  0.13404600  1
  H  H55  1  0.37385900  0.50890500  0.13404600  1
  H  H56  1  0.57391300  0.80587600  0.21546900  1
  H  H57  1  0.42608700  0.30587600  0.28453100  1
  H  H58  1  0.42027300  0.38271500  0.73036300  1
  H  H59  1  0.39944300  0.31410700  0.98377200  1
  C  C60  1  0.42146500  0.25050200  0.72556500  1
  C  C61  1  0.92146500  0.74949800  0.27443500  1
  C  C62  1  0.75000000  0.52041400  0.83195800  1
  C  C63  1  0.92146500  0.75050200  0.77443500  1
  C  C64  1  0.25000000  0.02041400  0.66804200  1
  C  C65  1  0.25000000  0.47958600  0.16804200  1
  C  C66  1  0.42146500  0.24949800  0.22556500  1
  C  C67  1  0.57853500  0.74949800  0.27443500  1
  C  C68  1  0.75000000  0.97958600  0.33195800  1
  C  C69  1  0.57853500  0.75050200  0.77443500  1
  C  C70  1  0.07853500  0.25050200  0.72556500  1
  C  C71  1  0.07853500  0.24949800  0.22556500  1
  N  N72  1  0.25000000  0.19863200  0.68387300  1
  N  N73  1  0.75000000  0.80136800  0.31612700  1
  N  N74  1  0.75000000  0.69863200  0.81612700  1
  N  N75  1  0.25000000  0.30136800  0.18387300  1
  Cl  Cl76  1  0.25000000  0.00204100  0.41816200  1
  Cl  Cl77  1  0.75000000  0.50204100  0.08183800  1
  Cl  Cl78  1  0.75000000  0.43528500  0.40482000  1
  Cl  Cl79  1  0.75000000  0.06471500  0.90482000  1
  Cl  Cl80  1  0.25000000  0.49439100  0.40308000  1
  Cl  Cl81  1  0.25000000  0.93528500  0.09518000  1
  Cl  Cl82  1  0.25000000  0.56471500  0.59518000  1
  Cl  Cl83  1  0.75000000  0.50560900  0.59692000  1
  Cl  Cl84  1  0.25000000  0.00560900  0.90308000  1
  Cl  Cl85  1  0.75000000  0.99439100  0.09692000  1
  Cl  Cl86  1  0.75000000  0.99795900  0.58183800  1
  Cl  Cl87  1  0.25000000  0.49795900  0.91816200  1
  O  O88  1  0.53765200  0.74849800  0.47507200  1
  O  O89  1  0.96234800  0.75150200  0.97507200  1
  O  O90  1  0.03765200  0.24849800  0.02492800  1
  O  O91  1  0.03765200  0.25150200  0.52492800  1
  O  O92  1  0.53765200  0.75150200  0.97507200  1
  O  O93  1  0.46234800  0.24849800  0.02492800  1
  O  O94  1  0.96234800  0.74849800  0.47507200  1
  O  O95  1  0.46234800  0.25150200  0.52492800  1
