# generated using pymatgen
data_LuH24C4N4Cl7
_symmetry_space_group_name_H-M   'P 1'
_cell_length_a   7.72655200
_cell_length_b   9.92435900
_cell_length_c   13.22024781
_cell_angle_alpha   89.13034826
_cell_angle_beta   90.00000000
_cell_angle_gamma   90.00000000
_symmetry_Int_Tables_number   1
_chemical_formula_structural   LuH24C4N4Cl7
_chemical_formula_sum   'Lu2 H48 C8 N8 Cl14'
_cell_volume   1013.62605476
_cell_formula_units_Z   2
loop_
 _symmetry_equiv_pos_site_id
 _symmetry_equiv_pos_as_xyz
  1  'x, y, z'
loop_
 _atom_site_type_symbol
 _atom_site_label
 _atom_site_symmetry_multiplicity
 _atom_site_fract_x
 _atom_site_fract_y
 _atom_site_fract_z
 _atom_site_occupancy
  Lu  Lu0  1  0.99990900  0.50000000  0.50000000  1
  Lu  Lu1  1  0.00953300  0.00000000  0.00000000  1
  H  H2  1  0.50837600  0.89408300  0.05429000  1
  H  H3  1  0.13978200  0.09923600  0.72021400  1
  H  H4  1  0.11810600  0.67882700  0.87433600  1
  H  H5  1  0.11810600  0.32117300  0.12566400  1
  H  H6  1  0.12752700  0.49667000  0.88726000  1
  H  H7  1  0.65174300  0.26899200  0.29996000  1
  H  H8  1  0.37372100  0.30650400  0.45323100  1
  H  H9  1  0.82107000  0.93885900  0.40583000  1
  H  H10  1  0.55614900  0.78435300  0.53071500  1
  H  H11  1  0.13054100  0.84190700  0.40857500  1
  H  H12  1  0.12752700  0.50333000  0.11274000  1
  H  H13  1  0.40304600  0.75073600  0.03879800  1
  H  H14  1  0.51404300  0.66167200  0.20022500  1
  H  H15  1  0.63595300  0.81490800  0.21042400  1
  H  H16  1  0.82907700  0.57348100  0.91811700  1
  H  H17  1  0.83981200  0.49112300  0.80984900  1
  H  H18  1  0.13054100  0.15809300  0.59142500  1
  H  H19  1  0.51404300  0.33832800  0.79977500  1
  H  H20  1  0.50837600  0.10591700  0.94571000  1
  H  H21  1  0.86038000  0.18724400  0.67344100  1
  H  H22  1  0.85795100  0.97311200  0.28268600  1
  H  H23  1  0.55614900  0.21564700  0.46928500  1
  H  H24  1  0.44523100  0.65136900  0.72327000  1
  H  H25  1  0.61634500  0.25066600  0.96345900  1
  H  H26  1  0.44523100  0.34863100  0.27673000  1
  H  H27  1  0.85795100  0.02688800  0.71731400  1
  H  H28  1  0.83981200  0.50887700  0.19015100  1
  H  H29  1  0.86038000  0.81275600  0.32655900  1
  H  H30  1  0.82107000  0.06114100  0.59417000  1
  H  H31  1  0.11693600  0.57494800  0.76452100  1
  H  H32  1  0.11693600  0.42505200  0.23547900  1
  H  H33  1  0.63595300  0.18509200  0.78957600  1
  H  H34  1  0.13978200  0.90076400  0.27978600  1
  H  H35  1  0.45860300  0.17110400  0.30368300  1
  H  H36  1  0.83255900  0.65921700  0.80979000  1
  H  H37  1  0.40304600  0.24926400  0.96120200  1
  H  H38  1  0.56428400  0.38378400  0.44802900  1
  H  H39  1  0.82907700  0.42651900  0.08188300  1
  H  H40  1  0.83255900  0.34078300  0.19021000  1
  H  H41  1  0.40490700  0.18109600  0.78313000  1
  H  H42  1  0.37372100  0.69349600  0.54676900  1
  H  H43  1  0.61634500  0.74933400  0.03654100  1
  H  H44  1  0.40490700  0.81890400  0.21687000  1
  H  H45  1  0.65174300  0.73100800  0.70004000  1
  H  H46  1  0.12102400  0.97918100  0.62078000  1
  H  H47  1  0.56428400  0.61621600  0.55197100  1
  H  H48  1  0.45860300  0.82889600  0.69631700  1
  H  H49  1  0.12102400  0.02081900  0.37922000  1
  C  C50  1  0.08643000  0.91931500  0.35490500  1
  C  C51  1  0.51383900  0.26970300  0.31927000  1
  C  C52  1  0.07669600  0.58225000  0.84337200  1
  C  C53  1  0.07669600  0.41775000  0.15662800  1
  C  C54  1  0.08643000  0.08068500  0.64509500  1
  C  C55  1  0.51580300  0.22979000  0.81680200  1
  C  C56  1  0.51580300  0.77021000  0.18319800  1
  C  C57  1  0.51383900  0.73029700  0.68073000  1
  N  N58  1  0.50025500  0.70383800  0.57094400  1
  N  N59  1  0.89544100  0.08899300  0.65716900  1
  N  N60  1  0.50025500  0.29616200  0.42905600  1
  N  N61  1  0.51102600  0.20732500  0.92862700  1
  N  N62  1  0.89544100  0.91100700  0.34283100  1
  N  N63  1  0.88405800  0.57592800  0.84590300  1
  N  N64  1  0.88405800  0.42407200  0.15409700  1
  N  N65  1  0.51102600  0.79267500  0.07137300  1
  Cl  Cl66  1  0.75140100  0.41709900  0.62467200  1
  Cl  Cl67  1  0.61329100  0.00000000  0.50000000  1
  Cl  Cl68  1  0.97868300  0.77032400  0.09455500  1
  Cl  Cl69  1  0.23987600  0.58754900  0.38278300  1
  Cl  Cl70  1  0.97868300  0.22967600  0.90544500  1
  Cl  Cl71  1  0.23987600  0.41245100  0.61721700  1
  Cl  Cl72  1  0.99498100  0.27213200  0.40801500  1
  Cl  Cl73  1  0.25570200  0.08305100  0.11526900  1
  Cl  Cl74  1  0.25570200  0.91694900  0.88473100  1
  Cl  Cl75  1  0.58796700  0.50000000  0.00000000  1
  Cl  Cl76  1  0.75140100  0.58290100  0.37532800  1
  Cl  Cl77  1  0.99498100  0.72786800  0.59198500  1
  Cl  Cl78  1  0.77206400  0.91255400  0.87182300  1
  Cl  Cl79  1  0.77206400  0.08744600  0.12817700  1
