# generated using pymatgen
data_SiO2
_symmetry_space_group_name_H-M   'P 1'
_cell_length_a   8.65590992
_cell_length_b   8.65590992
_cell_length_c   28.31547500
_cell_angle_alpha   90.00000000
_cell_angle_beta   90.00000000
_cell_angle_gamma   109.77177240
_symmetry_Int_Tables_number   1
_chemical_formula_structural   SiO2
_chemical_formula_sum   'Si32 O64'
_cell_volume   1996.46118667
_cell_formula_units_Z   32
loop_
 _symmetry_equiv_pos_site_id
 _symmetry_equiv_pos_as_xyz
  1  'x, y, z'
loop_
 _atom_site_type_symbol
 _atom_site_label
 _atom_site_symmetry_multiplicity
 _atom_site_fract_x
 _atom_site_fract_y
 _atom_site_fract_z
 _atom_site_occupancy
  Si  Si0  1  0.97595600  0.71088000  0.63383800  1
  Si  Si1  1  0.71088000  0.97595600  0.36616200  1
  Si  Si2  1  0.28912000  0.02404400  0.86616200  1
  Si  Si3  1  0.02404400  0.28912000  0.13383800  1
  Si  Si4  1  0.02404400  0.28912000  0.36616200  1
  Si  Si5  1  0.28912000  0.02404400  0.63383800  1
  Si  Si6  1  0.71088000  0.97595600  0.13383800  1
  Si  Si7  1  0.97595600  0.71088000  0.86616200  1
  Si  Si8  1  0.34836300  0.33875000  0.69530200  1
  Si  Si9  1  0.33875000  0.34836300  0.30469800  1
  Si  Si10  1  0.66125000  0.65163700  0.80469800  1
  Si  Si11  1  0.65163700  0.66125000  0.19530200  1
  Si  Si12  1  0.65163700  0.66125000  0.30469800  1
  Si  Si13  1  0.66125000  0.65163700  0.69530200  1
  Si  Si14  1  0.33875000  0.34836300  0.19530200  1
  Si  Si15  1  0.34836300  0.33875000  0.80469800  1
  Si  Si16  1  0.13510900  0.17869000  0.55403200  1
  Si  Si17  1  0.17869000  0.13510900  0.44596800  1
  Si  Si18  1  0.82131000  0.86489100  0.94596800  1
  Si  Si19  1  0.86489100  0.82131000  0.05403200  1
  Si  Si20  1  0.86489100  0.82131000  0.44596800  1
  Si  Si21  1  0.82131000  0.86489100  0.55403200  1
  Si  Si22  1  0.17869000  0.13510900  0.05403200  1
  Si  Si23  1  0.13510900  0.17869000  0.94596800  1
  Si  Si24  1  0.50749900  0.80661800  0.61603200  1
  Si  Si25  1  0.80661800  0.50749900  0.38396800  1
  Si  Si26  1  0.19338200  0.49250100  0.88396800  1
  Si  Si27  1  0.49250100  0.19338200  0.11603200  1
  Si  Si28  1  0.49250100  0.19338200  0.38396800  1
  Si  Si29  1  0.19338200  0.49250100  0.61603200  1
  Si  Si30  1  0.80661800  0.50749900  0.11603200  1
  Si  Si31  1  0.50749900  0.80661800  0.88396800  1
  O  O32  1  0.89453300  0.74791500  0.58530200  1
  O  O33  1  0.74791500  0.89453300  0.41469800  1
  O  O34  1  0.25208500  0.10546700  0.91469800  1
  O  O35  1  0.10546700  0.25208500  0.08530200  1
  O  O36  1  0.10546700  0.25208500  0.41469800  1
  O  O37  1  0.25208500  0.10546700  0.58530200  1
  O  O38  1  0.74791500  0.89453300  0.08530200  1
  O  O39  1  0.89453300  0.74791500  0.91469800  1
  O  O40  1  0.04191300  0.55915500  0.62478700  1
  O  O41  1  0.55915500  0.04191300  0.37521300  1
  O  O42  1  0.44084500  0.95808700  0.87521300  1
  O  O43  1  0.95808700  0.44084500  0.12478700  1
  O  O44  1  0.95808700  0.44084500  0.37521300  1
  O  O45  1  0.44084500  0.95808700  0.62478700  1
  O  O46  1  0.55915500  0.04191300  0.12478700  1
  O  O47  1  0.04191300  0.55915500  0.87521300  1
  O  O48  1  0.12683900  0.87316100  0.65020500  1
  O  O49  1  0.87316100  0.12683900  0.34979500  1
  O  O50  1  0.12683900  0.87316100  0.84979500  1
  O  O51  1  0.87316100  0.12683900  0.15020500  1
  O  O52  1  0.84007600  0.66136300  0.67568500  1
  O  O53  1  0.66136300  0.84007600  0.32431500  1
  O  O54  1  0.33863700  0.15992400  0.82431500  1
  O  O55  1  0.15992400  0.33863700  0.17568500  1
  O  O56  1  0.15992400  0.33863700  0.32431500  1
  O  O57  1  0.33863700  0.15992400  0.67568500  1
  O  O58  1  0.66136300  0.84007600  0.17568500  1
  O  O59  1  0.84007600  0.66136300  0.82431500  1
  O  O60  1  0.22851800  0.41012600  0.66481200  1
  O  O61  1  0.41012600  0.22851800  0.33518800  1
  O  O62  1  0.58987400  0.77148200  0.83518800  1
  O  O63  1  0.77148200  0.58987400  0.16481200  1
  O  O64  1  0.77148200  0.58987400  0.33518800  1
  O  O65  1  0.58987400  0.77148200  0.66481200  1
  O  O66  1  0.41012600  0.22851800  0.16481200  1
  O  O67  1  0.22851800  0.41012600  0.83518800  1
  O  O68  1  0.28841900  0.32213400  0.75000000  1
  O  O69  1  0.32213400  0.28841900  0.25000000  1
  O  O70  1  0.67786600  0.71158100  0.75000000  1
  O  O71  1  0.71158100  0.67786600  0.25000000  1
  O  O72  1  0.53762100  0.46237900  0.69137100  1
  O  O73  1  0.46237900  0.53762100  0.30862900  1
  O  O74  1  0.53762100  0.46237900  0.80862900  1
  O  O75  1  0.46237900  0.53762100  0.19137100  1
  O  O76  1  0.94557400  0.05442600  0.55601000  1
  O  O77  1  0.05442600  0.94557400  0.44399000  1
  O  O78  1  0.94557400  0.05442600  0.94399000  1
  O  O79  1  0.05442600  0.94557400  0.05601000  1
  O  O80  1  0.14331300  0.35646700  0.57429800  1
  O  O81  1  0.35646700  0.14331300  0.42570200  1
  O  O82  1  0.64353300  0.85668700  0.92570200  1
  O  O83  1  0.85668700  0.64353300  0.07429800  1
  O  O84  1  0.85668700  0.64353300  0.42570200  1
  O  O85  1  0.64353300  0.85668700  0.57429800  1
  O  O86  1  0.35646700  0.14331300  0.07429800  1
  O  O87  1  0.14331300  0.35646700  0.92570200  1
  O  O88  1  0.20083100  0.20083100  0.50000000  1
  O  O89  1  0.79916900  0.79916900  0.00000000  1
  O  O90  1  0.79916900  0.79916900  0.50000000  1
  O  O91  1  0.20083100  0.20083100  0.00000000  1
  O  O92  1  0.35697300  0.64302700  0.60009000  1
  O  O93  1  0.64302700  0.35697300  0.39991000  1
  O  O94  1  0.35697300  0.64302700  0.89991000  1
  O  O95  1  0.64302700  0.35697300  0.10009000  1
