# generated using pymatgen
data_Hg2H12C4I5N
_symmetry_space_group_name_H-M   'P 1'
_cell_length_a   14.26063300
_cell_length_b   14.78457100
_cell_length_c   18.57608100
_cell_angle_alpha   90.00000000
_cell_angle_beta   90.00000000
_cell_angle_gamma   90.00000000
_symmetry_Int_Tables_number   1
_chemical_formula_structural   Hg2H12C4I5N
_chemical_formula_sum   'Hg16 H96 C32 I40 N8'
_cell_volume   3916.53152598
_cell_formula_units_Z   8
loop_
 _symmetry_equiv_pos_site_id
 _symmetry_equiv_pos_as_xyz
  1  'x, y, z'
loop_
 _atom_site_type_symbol
 _atom_site_label
 _atom_site_symmetry_multiplicity
 _atom_site_fract_x
 _atom_site_fract_y
 _atom_site_fract_z
 _atom_site_occupancy
  Hg  Hg0  1  0.21920800  0.71152400  0.88508100  1
  Hg  Hg1  1  0.21920800  0.21152400  0.61491900  1
  Hg  Hg2  1  0.71920800  0.78847600  0.88508100  1
  Hg  Hg3  1  0.92411500  0.09993600  0.54627200  1
  Hg  Hg4  1  0.71920800  0.28847600  0.61491900  1
  Hg  Hg5  1  0.28079200  0.71152400  0.38508100  1
  Hg  Hg6  1  0.92411500  0.59993600  0.95372800  1
  Hg  Hg7  1  0.57588500  0.09993600  0.04627200  1
  Hg  Hg8  1  0.28079200  0.21152400  0.11491900  1
  Hg  Hg9  1  0.42411500  0.40006400  0.54627200  1
  Hg  Hg10  1  0.78079200  0.28847600  0.11491900  1
  Hg  Hg11  1  0.57588500  0.59993600  0.45372800  1
  Hg  Hg12  1  0.42411500  0.90006400  0.95372800  1
  Hg  Hg13  1  0.07588500  0.90006400  0.45372800  1
  Hg  Hg14  1  0.78079200  0.78847600  0.38508100  1
  Hg  Hg15  1  0.07588500  0.40006400  0.04627200  1
  H  H16  1  0.45563300  0.04218700  0.29926500  1
  H  H17  1  0.20427400  0.35377700  0.39013000  1
  H  H18  1  0.55928800  0.05894600  0.24592900  1
  H  H19  1  0.45563300  0.54218700  0.20073500  1
  H  H20  1  0.00984000  0.07650900  0.95250500  1
  H  H21  1  0.19889900  0.88023200  0.20425900  1
  H  H22  1  0.04345300  0.78430800  0.19833900  1
  H  H23  1  0.70427400  0.64622300  0.10987000  1
  H  H24  1  0.94700800  0.46489000  0.69343900  1
  H  H25  1  0.80110100  0.61976800  0.70425900  1
  H  H26  1  0.95563300  0.95781300  0.20073500  1
  H  H27  1  0.05071400  0.52375900  0.42234000  1
  H  H28  1  0.99016000  0.42349100  0.45250500  1
  H  H29  1  0.56787400  0.72787400  0.10397500  1
  H  H30  1  0.29572600  0.85377700  0.60987000  1
  H  H31  1  0.06787400  0.27212600  0.39602500  1
  H  H32  1  0.30110100  0.88023200  0.70425900  1
  H  H33  1  0.56787400  0.22787400  0.39602500  1
  H  H34  1  0.94928600  0.47624100  0.57766000  1
  H  H35  1  0.20803800  0.46951000  0.36110000  1
  H  H36  1  0.05928800  0.44105400  0.24592900  1
  H  H37  1  0.70427400  0.14622300  0.39013000  1
  H  H38  1  0.94071200  0.05894600  0.74592900  1
  H  H39  1  0.95748300  0.31816000  0.36697400  1
  H  H40  1  0.54436700  0.95781300  0.70073500  1
  H  H41  1  0.54251700  0.31816000  0.86697400  1
  H  H42  1  0.54436700  0.45781300  0.79926500  1
  H  H43  1  0.44071200  0.94105400  0.75407100  1
  H  H44  1  0.44700800  0.03511000  0.69343900  1
  H  H45  1  0.20427400  0.85377700  0.10987000  1
  H  H46  1  0.69889900  0.11976800  0.29574100  1
  H  H47  1  0.50984000  0.92349100  0.54749500  1
  H  H48  1  0.79572600  0.14622300  0.89013000  1
  H  H49  1  0.80110100  0.11976800  0.79574100  1
  H  H50  1  0.45654700  0.28430800  0.80166100  1
  H  H51  1  0.43212600  0.27212600  0.89602500  1
  H  H52  1  0.45748300  0.18184000  0.36697400  1
  H  H53  1  0.45748300  0.68184000  0.13302600  1
  H  H54  1  0.45654700  0.78430800  0.69833900  1
  H  H55  1  0.69889900  0.61976800  0.20425900  1
  H  H56  1  0.94700800  0.96489000  0.80656100  1
  H  H57  1  0.49016000  0.07650900  0.45250500  1
  H  H58  1  0.30110100  0.38023200  0.79574100  1
  H  H59  1  0.29572600  0.35377700  0.89013000  1
  H  H60  1  0.04345300  0.28430800  0.30166100  1
  H  H61  1  0.44928600  0.02375900  0.57766000  1
  H  H62  1  0.61423700  0.06514200  0.46550400  1
  H  H63  1  0.19889900  0.38023200  0.29574100  1
  H  H64  1  0.55071400  0.47624100  0.07766000  1
  H  H65  1  0.95563300  0.45781300  0.29926500  1
  H  H66  1  0.43212600  0.77212600  0.60397500  1
  H  H67  1  0.11423700  0.93485800  0.03449600  1
  H  H68  1  0.94071200  0.55894600  0.75407100  1
  H  H69  1  0.05071400  0.02375900  0.07766000  1
  H  H70  1  0.49016000  0.57650900  0.04749500  1
  H  H71  1  0.79196200  0.03049000  0.86110000  1
  H  H72  1  0.95654700  0.71569200  0.69833900  1
  H  H73  1  0.44071200  0.44105400  0.74592900  1
  H  H74  1  0.04436700  0.54218700  0.70073500  1
  H  H75  1  0.04436700  0.04218700  0.79926500  1
  H  H76  1  0.38576300  0.43485800  0.96550400  1
  H  H77  1  0.61423700  0.56514200  0.03449600  1
  H  H78  1  0.54251700  0.81816000  0.63302600  1
  H  H79  1  0.29196200  0.46951000  0.86110000  1
  H  H80  1  0.05928800  0.94105400  0.25407100  1
  H  H81  1  0.55928800  0.55894600  0.25407100  1
  H  H82  1  0.55299200  0.46489000  0.19343900  1
  H  H83  1  0.93212600  0.72787400  0.60397500  1
  H  H84  1  0.11423700  0.43485800  0.46550400  1
  H  H85  1  0.54345300  0.21569200  0.30166100  1
  H  H86  1  0.79196200  0.53049000  0.63890000  1
  H  H87  1  0.50984000  0.42349100  0.95250500  1
  H  H88  1  0.99016000  0.92349100  0.04749500  1
  H  H89  1  0.04251700  0.18184000  0.86697400  1
  H  H90  1  0.70803800  0.53049000  0.13890000  1
  H  H91  1  0.94928600  0.97624100  0.92234000  1
  H  H92  1  0.05299200  0.03511000  0.19343900  1
  H  H93  1  0.79572600  0.64622300  0.60987000  1
  H  H94  1  0.29196200  0.96951000  0.63890000  1
  H  H95  1  0.20803800  0.96951000  0.13890000  1
  H  H96  1  0.06787400  0.77212600  0.10397500  1
  H  H97  1  0.38576300  0.93485800  0.53449600  1
  H  H98  1  0.55071400  0.97624100  0.42234000  1
  H  H99  1  0.95654700  0.21569200  0.80166100  1
  H  H100  1  0.44700800  0.53511000  0.80656100  1
  H  H101  1  0.00984000  0.57650900  0.54749500  1
  H  H102  1  0.54345300  0.71569200  0.19833900  1
  H  H103  1  0.05299200  0.53511000  0.30656100  1
  H  H104  1  0.70803800  0.03049000  0.36110000  1
  H  H105  1  0.88576300  0.56514200  0.53449600  1
  H  H106  1  0.95748300  0.81816000  0.13302600  1
  H  H107  1  0.04251700  0.68184000  0.63302600  1
  H  H108  1  0.44928600  0.52375900  0.92234000  1
  H  H109  1  0.55299200  0.96489000  0.30656100  1
  H  H110  1  0.93212600  0.22787400  0.89602500  1
  H  H111  1  0.88576300  0.06514200  0.96550400  1
  C  C112  1  0.05528500  0.95055700  0.07022500  1
  C  C113  1  0.17930000  0.40239600  0.35005000  1
  C  C114  1  0.67930000  0.59760400  0.14995000  1
  C  C115  1  0.05528500  0.45055700  0.42977500  1
  C  C116  1  0.53216300  0.53553500  0.20179100  1
  C  C117  1  0.96742700  0.18642200  0.85522800  1
  C  C118  1  0.46742700  0.81357800  0.64477200  1
  C  C119  1  0.32070000  0.90239600  0.64995000  1
  C  C120  1  0.53257300  0.18642200  0.35522800  1
  C  C121  1  0.53216300  0.03553500  0.29820900  1
  C  C122  1  0.82070000  0.09760400  0.85005000  1
  C  C123  1  0.55528500  0.04944300  0.42977500  1
  C  C124  1  0.53257300  0.68642200  0.14477200  1
  C  C125  1  0.44471500  0.95055700  0.57022500  1
  C  C126  1  0.03216300  0.96446500  0.20179100  1
  C  C127  1  0.55528500  0.54944300  0.07022500  1
  C  C128  1  0.46783700  0.46446500  0.79820900  1
  C  C129  1  0.03257300  0.31357800  0.35522800  1
  C  C130  1  0.17930000  0.90239600  0.14995000  1
  C  C131  1  0.94471500  0.04944300  0.92977500  1
  C  C132  1  0.67930000  0.09760400  0.35005000  1
  C  C133  1  0.96783700  0.53553500  0.70179100  1
  C  C134  1  0.46742700  0.31357800  0.85522800  1
  C  C135  1  0.94471500  0.54944300  0.57022500  1
  C  C136  1  0.82070000  0.59760400  0.64995000  1
  C  C137  1  0.03216300  0.46446500  0.29820900  1
  C  C138  1  0.96742700  0.68642200  0.64477200  1
  C  C139  1  0.96783700  0.03553500  0.79820900  1
  C  C140  1  0.44471500  0.45055700  0.92977500  1
  C  C141  1  0.46783700  0.96446500  0.70179100  1
  C  C142  1  0.32070000  0.40239600  0.85005000  1
  C  C143  1  0.03257300  0.81357800  0.14477200  1
  I  I144  1  0.74850900  0.08273100  0.61592400  1
  I  I145  1  0.25631900  0.17014600  0.47482000  1
  I  I146  1  0.25445500  0.14906800  0.25098700  1
  I  I147  1  0.50460500  0.74454000  0.88999000  1
  I  I148  1  0.24554500  0.64906800  0.74901300  1
  I  I149  1  0.25631900  0.67014600  0.02518000  1
  I  I150  1  0.25149100  0.91726900  0.38407600  1
  I  I151  1  0.74368100  0.32985400  0.97482000  1
  I  I152  1  0.75149100  0.08273100  0.11592400  1
  I  I153  1  0.55083300  0.55483500  0.59956200  1
  I  I154  1  0.24554500  0.14906800  0.75098700  1
  I  I155  1  0.25445500  0.64906800  0.24901300  1
  I  I156  1  0.00460500  0.75546000  0.88999000  1
  I  I157  1  0.50460500  0.24454000  0.61001000  1
  I  I158  1  0.05083300  0.94516500  0.59956200  1
  I  I159  1  0.94916700  0.55483500  0.09956200  1
  I  I160  1  0.44916700  0.94516500  0.09956200  1
  I  I161  1  0.94916700  0.05483500  0.40043800  1
  I  I162  1  0.25149100  0.41726900  0.11592400  1
  I  I163  1  0.55083300  0.05483500  0.90043800  1
  I  I164  1  0.44916700  0.44516500  0.40043800  1
  I  I165  1  0.99539500  0.24454000  0.11001000  1
  I  I166  1  0.75631900  0.82985400  0.02518000  1
  I  I167  1  0.99539500  0.74454000  0.38999000  1
  I  I168  1  0.24368100  0.17014600  0.97482000  1
  I  I169  1  0.74554500  0.35093200  0.75098700  1
  I  I170  1  0.05083300  0.44516500  0.90043800  1
  I  I171  1  0.24368100  0.67014600  0.52518000  1
  I  I172  1  0.75445500  0.85093200  0.24901300  1
  I  I173  1  0.24850900  0.91726900  0.88407600  1
  I  I174  1  0.49539500  0.75546000  0.38999000  1
  I  I175  1  0.24850900  0.41726900  0.61592400  1
  I  I176  1  0.75445500  0.35093200  0.25098700  1
  I  I177  1  0.74368100  0.82985400  0.52518000  1
  I  I178  1  0.49539500  0.25546000  0.11001000  1
  I  I179  1  0.00460500  0.25546000  0.61001000  1
  I  I180  1  0.74850900  0.58273100  0.88407600  1
  I  I181  1  0.75631900  0.32985400  0.47482000  1
  I  I182  1  0.75149100  0.58273100  0.38407600  1
  I  I183  1  0.74554500  0.85093200  0.74901300  1
  N  N184  1  0.57416500  0.59271300  0.14265100  1
  N  N185  1  0.07416500  0.40728700  0.35734900  1
  N  N186  1  0.42583500  0.40728700  0.85734900  1
  N  N187  1  0.92583500  0.09271300  0.85734900  1
  N  N188  1  0.92583500  0.59271300  0.64265100  1
  N  N189  1  0.57416500  0.09271300  0.35734900  1
  N  N190  1  0.42583500  0.90728700  0.64265100  1
  N  N191  1  0.07416500  0.90728700  0.14265100  1
