# generated using pymatgen
data_NaAgH16C4S4(NO5)2
_symmetry_space_group_name_H-M   'P 1'
_cell_length_a   11.25226200
_cell_length_b   11.32360900
_cell_length_c   14.22147200
_cell_angle_alpha   90.00000000
_cell_angle_beta   90.00000000
_cell_angle_gamma   90.00000000
_symmetry_Int_Tables_number   1
_chemical_formula_structural   NaAgH16C4S4(NO5)2
_chemical_formula_sum   'Na4 Ag4 H64 C16 S16 N8 O40'
_cell_volume   1812.04613757
_cell_formula_units_Z   4
loop_
 _symmetry_equiv_pos_site_id
 _symmetry_equiv_pos_as_xyz
  1  'x, y, z'
loop_
 _atom_site_type_symbol
 _atom_site_label
 _atom_site_symmetry_multiplicity
 _atom_site_fract_x
 _atom_site_fract_y
 _atom_site_fract_z
 _atom_site_occupancy
  Na  Na0  1  0.27614900  0.75000000  0.00000000  1
  Na  Na1  1  0.72385100  0.25000000  0.00000000  1
  Na  Na2  1  0.77614900  0.25000000  0.50000000  1
  Na  Na3  1  0.22385100  0.75000000  0.50000000  1
  Ag  Ag4  1  0.75000000  0.23539600  0.75000000  1
  Ag  Ag5  1  0.75000000  0.26460400  0.25000000  1
  Ag  Ag6  1  0.25000000  0.73539600  0.75000000  1
  Ag  Ag7  1  0.25000000  0.76460400  0.25000000  1
  H  H8  1  0.79299900  0.44563400  0.63693700  1
  H  H9  1  0.94944200  0.87695400  0.70181700  1
  H  H10  1  0.34225300  0.90848900  0.62391000  1
  H  H11  1  0.79299900  0.05436600  0.36306300  1
  H  H12  1  0.92591400  0.74062100  0.11245400  1
  H  H13  1  0.42591400  0.25937900  0.61245400  1
  H  H14  1  0.66301700  0.64712300  0.66933200  1
  H  H15  1  0.70700100  0.44563400  0.86306300  1
  H  H16  1  0.66301700  0.85287700  0.33066800  1
  H  H17  1  0.03605200  0.39603700  0.57610800  1
  H  H18  1  0.29299900  0.55436600  0.13693700  1
  H  H19  1  0.37108500  0.13453800  0.54559300  1
  H  H20  1  0.55055800  0.87695400  0.79818300  1
  H  H21  1  0.20700100  0.94563400  0.63693700  1
  H  H22  1  0.20700100  0.55436600  0.36306300  1
  H  H23  1  0.82742900  0.93711600  0.63421100  1
  H  H24  1  0.84225300  0.09151100  0.12391000  1
  H  H25  1  0.83698300  0.64712300  0.83066800  1
  H  H26  1  0.67257100  0.56288400  0.13421100  1
  H  H27  1  0.15774700  0.90848900  0.87609000  1
  H  H28  1  0.92591400  0.75937900  0.88754600  1
  H  H29  1  0.65774700  0.09151100  0.37609000  1
  H  H30  1  0.70700100  0.05436600  0.13693700  1
  H  H31  1  0.42591400  0.24062100  0.38754600  1
  H  H32  1  0.46394800  0.39603700  0.92389200  1
  H  H33  1  0.16301700  0.14712300  0.83066800  1
  H  H34  1  0.46394800  0.10396300  0.07610800  1
  H  H35  1  0.12891500  0.13453800  0.95440700  1
  H  H36  1  0.37108500  0.36546200  0.45440700  1
  H  H37  1  0.15774700  0.59151100  0.12391000  1
  H  H38  1  0.84225300  0.40848900  0.87609000  1
  H  H39  1  0.17257100  0.06288400  0.36578900  1
  H  H40  1  0.16301700  0.35287700  0.16933200  1
  H  H41  1  0.83698300  0.85287700  0.16933200  1
  H  H42  1  0.96394800  0.60396300  0.42389200  1
  H  H43  1  0.53605200  0.60396300  0.07610800  1
  H  H44  1  0.33698300  0.35287700  0.33066800  1
  H  H45  1  0.34225300  0.59151100  0.37609000  1
  H  H46  1  0.44944200  0.37695400  0.79818300  1
  H  H47  1  0.29299900  0.94563400  0.86306300  1
  H  H48  1  0.55055800  0.62304600  0.20181700  1
  H  H49  1  0.05055800  0.37695400  0.70181700  1
  H  H50  1  0.96394800  0.89603700  0.57610800  1
  H  H51  1  0.57408600  0.75937900  0.61245400  1
  H  H52  1  0.03605200  0.10396300  0.42389200  1
  H  H53  1  0.87108500  0.63453800  0.95440700  1
  H  H54  1  0.32742900  0.06288400  0.13421100  1
  H  H55  1  0.05055800  0.12304600  0.29818300  1
  H  H56  1  0.53605200  0.89603700  0.92389200  1
  H  H57  1  0.07408600  0.24062100  0.11245400  1
  H  H58  1  0.44944200  0.12304600  0.20181700  1
  H  H59  1  0.82742900  0.56288400  0.36578900  1
  H  H60  1  0.57408600  0.74062100  0.38754600  1
  H  H61  1  0.12891500  0.36546200  0.04559300  1
  H  H62  1  0.33698300  0.14712300  0.66933200  1
  H  H63  1  0.32742900  0.43711600  0.86578900  1
  H  H64  1  0.62891500  0.63453800  0.54559300  1
  H  H65  1  0.94944200  0.62304600  0.29818300  1
  H  H66  1  0.07408600  0.25937900  0.88754600  1
  H  H67  1  0.67257100  0.93711600  0.86578900  1
  H  H68  1  0.65774700  0.40848900  0.62391000  1
  H  H69  1  0.87108500  0.86546200  0.04559300  1
  H  H70  1  0.62891500  0.86546200  0.45440700  1
  H  H71  1  0.17257100  0.43711600  0.63421100  1
  C  C72  1  0.09721800  0.16528600  0.88562800  1
  C  C73  1  0.92431500  0.93085700  0.64100000  1
  C  C74  1  0.57568500  0.93085700  0.85900000  1
  C  C75  1  0.42431500  0.43085700  0.85900000  1
  C  C76  1  0.90278200  0.66528600  0.88562800  1
  C  C77  1  0.90278200  0.83471400  0.11437200  1
  C  C78  1  0.59721800  0.66528600  0.61437200  1
  C  C79  1  0.59721800  0.83471400  0.38562800  1
  C  C80  1  0.40278200  0.16528600  0.61437200  1
  C  C81  1  0.57568500  0.56914300  0.14100000  1
  C  C82  1  0.92431500  0.56914300  0.35900000  1
  C  C83  1  0.07568500  0.43085700  0.64100000  1
  C  C84  1  0.42431500  0.06914300  0.14100000  1
  C  C85  1  0.09721800  0.33471400  0.11437200  1
  C  C86  1  0.07568500  0.06914300  0.35900000  1
  C  C87  1  0.40278200  0.33471400  0.38562800  1
  S  S88  1  0.46602000  0.58390400  0.64143200  1
  S  S89  1  0.98083200  0.42362700  0.34101400  1
  S  S90  1  0.53398000  0.41609600  0.35856800  1
  S  S91  1  0.96602000  0.08390400  0.85856800  1
  S  S92  1  0.53398000  0.08390400  0.64143200  1
  S  S93  1  0.03398000  0.58390400  0.85856800  1
  S  S94  1  0.96602000  0.41609600  0.14143200  1
  S  S95  1  0.51916800  0.42362700  0.15898600  1
  S  S96  1  0.51916800  0.07637300  0.84101400  1
  S  S97  1  0.48083200  0.92362700  0.15898600  1
  S  S98  1  0.46602000  0.91609600  0.35856800  1
  S  S99  1  0.48083200  0.57637300  0.84101400  1
  S  S100  1  0.01916800  0.57637300  0.65898600  1
  S  S101  1  0.98083200  0.07637300  0.65898600  1
  S  S102  1  0.01916800  0.92362700  0.34101400  1
  S  S103  1  0.03398000  0.91609600  0.14143200  1
  N  N104  1  0.07742000  0.62693100  0.75510800  1
  N  N105  1  0.92258000  0.37306900  0.24489200  1
  N  N106  1  0.57742000  0.12693100  0.74489200  1
  N  N107  1  0.42258000  0.87306900  0.25510800  1
  N  N108  1  0.57742000  0.37306900  0.25510800  1
  N  N109  1  0.42258000  0.62693100  0.74489200  1
  N  N110  1  0.92258000  0.12693100  0.75510800  1
  N  N111  1  0.07742000  0.87306900  0.24489200  1
  O  O112  1  0.26010300  0.87828000  0.62344500  1
  O  O113  1  0.06395500  0.84954500  0.41712800  1
  O  O114  1  0.23989700  0.62172000  0.12344500  1
  O  O115  1  0.43604500  0.84954500  0.08287200  1
  O  O116  1  0.26010300  0.62172000  0.37655500  1
  O  O117  1  0.88948000  0.56803600  0.66606600  1
  O  O118  1  0.76010300  0.37828000  0.87655500  1
  O  O119  1  0.62666300  0.12034300  0.57628000  1
  O  O120  1  0.87333700  0.37965700  0.07628000  1
  O  O121  1  0.50255900  0.54198400  0.36058800  1
  O  O122  1  0.11052000  0.43196400  0.33393400  1
  O  O123  1  0.49744100  0.04198400  0.36058800  1
  O  O124  1  0.37333700  0.87965700  0.42372000  1
  O  O125  1  0.56395500  0.15045500  0.91712800  1
  O  O126  1  0.11052000  0.06803600  0.66606600  1
  O  O127  1  0.61052000  0.93196400  0.16606600  1
  O  O128  1  0.93604500  0.15045500  0.58287200  1
  O  O129  1  0.88948000  0.93196400  0.33393400  1
  O  O130  1  0.12666300  0.87965700  0.07628000  1
  O  O131  1  0.87333700  0.12034300  0.92372000  1
  O  O132  1  0.73989700  0.12172000  0.37655500  1
  O  O133  1  0.50255900  0.95801600  0.63941200  1
  O  O134  1  0.43604500  0.65045500  0.91712800  1
  O  O135  1  0.00255900  0.45801600  0.86058800  1
  O  O136  1  0.99744100  0.95801600  0.86058800  1
  O  O137  1  0.76010300  0.12172000  0.12344500  1
  O  O138  1  0.38948000  0.43196400  0.16606600  1
  O  O139  1  0.23989700  0.87828000  0.87655500  1
  O  O140  1  0.49744100  0.45801600  0.63941200  1
  O  O141  1  0.37333700  0.62034300  0.57628000  1
  O  O142  1  0.06395500  0.65045500  0.58287200  1
  O  O143  1  0.38948000  0.06803600  0.83393400  1
  O  O144  1  0.93604500  0.34954500  0.41712800  1
  O  O145  1  0.99744100  0.54198400  0.13941200  1
  O  O146  1  0.73989700  0.37828000  0.62344500  1
  O  O147  1  0.62666300  0.37965700  0.42372000  1
  O  O148  1  0.61052000  0.56803600  0.83393400  1
  O  O149  1  0.56395500  0.34954500  0.08287200  1
  O  O150  1  0.00255900  0.04198400  0.13941200  1
  O  O151  1  0.12666300  0.62034300  0.92372000  1
