# generated using pymatgen
data_K2Hg(CN)4
_symmetry_space_group_name_H-M   'P 1'
_cell_length_a   9.21104870
_cell_length_b   9.21104870
_cell_length_c   9.21104870
_cell_angle_alpha   60.00000000
_cell_angle_beta   60.00000000
_cell_angle_gamma   60.00000000
_symmetry_Int_Tables_number   1
_chemical_formula_structural   K2Hg(CN)4
_chemical_formula_sum   'K4 Hg2 C8 N8'
_cell_volume   552.60172731
_cell_formula_units_Z   2
loop_
 _symmetry_equiv_pos_site_id
 _symmetry_equiv_pos_as_xyz
  1  'x, y, z'
loop_
 _atom_site_type_symbol
 _atom_site_label
 _atom_site_symmetry_multiplicity
 _atom_site_fract_x
 _atom_site_fract_y
 _atom_site_fract_z
 _atom_site_occupancy
  K  K0  1  0.12500000  0.12500000  0.12500000  1
  K  K1  1  0.62500000  0.12500000  0.12500000  1
  K  K2  1  0.12500000  0.12500000  0.62500000  1
  K  K3  1  0.12500000  0.62500000  0.12500000  1
  Hg  Hg4  1  0.50000000  0.50000000  0.50000000  1
  Hg  Hg5  1  0.75000000  0.75000000  0.75000000  1
  C  C6  1  0.84785800  0.84785800  0.45642500  1
  C  C7  1  0.40214200  0.40214200  0.40214200  1
  C  C8  1  0.45642500  0.84785800  0.84785800  1
  C  C9  1  0.84785800  0.45642500  0.84785800  1
  C  C10  1  0.40214200  0.40214200  0.79357500  1
  C  C11  1  0.40214200  0.79357500  0.40214200  1
  C  C12  1  0.84785800  0.84785800  0.84785800  1
  C  C13  1  0.79357500  0.40214200  0.40214200  1
  N  N14  1  0.35012100  0.94963600  0.35012100  1
  N  N15  1  0.35012100  0.35012100  0.94963600  1
  N  N16  1  0.89987900  0.30036400  0.89987900  1
  N  N17  1  0.35012100  0.35012100  0.35012100  1
  N  N18  1  0.89987900  0.89987900  0.30036400  1
  N  N19  1  0.30036400  0.89987900  0.89987900  1
  N  N20  1  0.89987900  0.89987900  0.89987900  1
  N  N21  1  0.94963600  0.35012100  0.35012100  1
