# generated using pymatgen
data_K4CO4
_symmetry_space_group_name_H-M   'P 1'
_cell_length_a   5.67711224
_cell_length_b   5.67711224
_cell_length_c   6.09502534
_cell_angle_alpha   65.55605826
_cell_angle_beta   65.55605826
_cell_angle_gamma   91.40343982
_symmetry_Int_Tables_number   1
_chemical_formula_structural   K4CO4
_chemical_formula_sum   'K4 C1 O4'
_cell_volume   158.19807760
_cell_formula_units_Z   1
loop_
 _symmetry_equiv_pos_site_id
 _symmetry_equiv_pos_as_xyz
  1  'x, y, z'
loop_
 _atom_site_type_symbol
 _atom_site_label
 _atom_site_symmetry_multiplicity
 _atom_site_fract_x
 _atom_site_fract_y
 _atom_site_fract_z
 _atom_site_occupancy
  K  K0  1  0.61392800  0.02130000  0.32183000  1
  K  K1  1  0.29757500  0.29757500  0.88504900  1
  K  K2  1  0.69959900  0.69959900  0.91264700  1
  K  K3  1  0.02130000  0.61392800  0.32183000  1
  C  C4  1  0.12549400  0.12549400  0.60001200  1
  O  O5  1  0.19263900  0.90507400  0.77418900  1
  O  O6  1  0.90507400  0.19263900  0.77418900  1
  O  O7  1  0.35385700  0.35385700  0.42204300  1
  O  O8  1  0.05507400  0.05507400  0.43124000  1
