# generated using pymatgen
data_La2Ga12Ni
_symmetry_space_group_name_H-M   'P 1'
_cell_length_a   6.12305400
_cell_length_b   6.12305400
_cell_length_c   15.80341000
_cell_angle_alpha   90.00000000
_cell_angle_beta   90.00000000
_cell_angle_gamma   90.00000000
_symmetry_Int_Tables_number   1
_chemical_formula_structural   La2Ga12Ni
_chemical_formula_sum   'La4 Ga24 Ni2'
_cell_volume   592.49813354
_cell_formula_units_Z   2
loop_
 _symmetry_equiv_pos_site_id
 _symmetry_equiv_pos_as_xyz
  1  'x, y, z'
loop_
 _atom_site_type_symbol
 _atom_site_label
 _atom_site_symmetry_multiplicity
 _atom_site_fract_x
 _atom_site_fract_y
 _atom_site_fract_z
 _atom_site_occupancy
  La  La0  1  0.50000000  0.00000000  0.24425200  1
  La  La1  1  0.00000000  0.50000000  0.24425200  1
  La  La2  1  0.00000000  0.50000000  0.75574800  1
  La  La3  1  0.50000000  0.00000000  0.75574800  1
  Ga  Ga4  1  0.50000000  0.50000000  0.81923400  1
  Ga  Ga5  1  0.00000000  0.00000000  0.81923400  1
  Ga  Ga6  1  0.75038300  0.74961700  0.91710500  1
  Ga  Ga7  1  0.25038300  0.75038300  0.91710500  1
  Ga  Ga8  1  0.00000000  0.00000000  0.33878200  1
  Ga  Ga9  1  0.24961700  0.74961700  0.08289500  1
  Ga  Ga10  1  0.81744700  0.31744700  0.57245500  1
  Ga  Ga11  1  0.50000000  0.50000000  0.33878200  1
  Ga  Ga12  1  0.24961700  0.25038300  0.91710500  1
  Ga  Ga13  1  0.74961700  0.75038300  0.08289500  1
  Ga  Ga14  1  0.31744700  0.18255300  0.57245500  1
  Ga  Ga15  1  0.68255300  0.18255300  0.42754500  1
  Ga  Ga16  1  0.00000000  0.00000000  0.66121800  1
  Ga  Ga17  1  0.18255300  0.31744700  0.42754500  1
  Ga  Ga18  1  0.25038300  0.24961700  0.08289500  1
  Ga  Ga19  1  0.81744700  0.68255300  0.42754500  1
  Ga  Ga20  1  0.68255300  0.81744700  0.57245500  1
  Ga  Ga21  1  0.00000000  0.00000000  0.18076600  1
  Ga  Ga22  1  0.18255300  0.68255300  0.57245500  1
  Ga  Ga23  1  0.50000000  0.50000000  0.66121800  1
  Ga  Ga24  1  0.74961700  0.24961700  0.91710500  1
  Ga  Ga25  1  0.50000000  0.50000000  0.18076600  1
  Ga  Ga26  1  0.31744700  0.81744700  0.42754500  1
  Ga  Ga27  1  0.75038300  0.25038300  0.08289500  1
  Ni  Ni28  1  0.50000000  0.00000000  0.00000000  1
  Ni  Ni29  1  0.00000000  0.50000000  0.00000000  1
