# generated using pymatgen
data_Mn2Ga5
_symmetry_space_group_name_H-M   'P 1'
_cell_length_a   8.84707400
_cell_length_b   8.84707400
_cell_length_c   2.70190800
_cell_angle_alpha   90.00000000
_cell_angle_beta   90.00000000
_cell_angle_gamma   90.00000000
_symmetry_Int_Tables_number   1
_chemical_formula_structural   Mn2Ga5
_chemical_formula_sum   'Mn4 Ga10'
_cell_volume   211.48028011
_cell_formula_units_Z   2
loop_
 _symmetry_equiv_pos_site_id
 _symmetry_equiv_pos_as_xyz
  1  'x, y, z'
loop_
 _atom_site_type_symbol
 _atom_site_label
 _atom_site_symmetry_multiplicity
 _atom_site_fract_x
 _atom_site_fract_y
 _atom_site_fract_z
 _atom_site_occupancy
  Mn  Mn0  1  0.67865100  0.17865100  0.50000000  1
  Mn  Mn1  1  0.32134900  0.82134900  0.50000000  1
  Mn  Mn2  1  0.17865100  0.32134900  0.50000000  1
  Mn  Mn3  1  0.82134900  0.67865100  0.50000000  1
  Ga  Ga4  1  0.50000000  0.00000000  0.00000000  1
  Ga  Ga5  1  0.00000000  0.50000000  0.00000000  1
  Ga  Ga6  1  0.56478500  0.70687000  0.00000000  1
  Ga  Ga7  1  0.43521500  0.29313000  0.00000000  1
  Ga  Ga8  1  0.06478500  0.79313000  0.00000000  1
  Ga  Ga9  1  0.93521500  0.20687000  0.00000000  1
  Ga  Ga10  1  0.29313000  0.56478500  0.00000000  1
  Ga  Ga11  1  0.70687000  0.43521500  0.00000000  1
  Ga  Ga12  1  0.20687000  0.06478500  0.00000000  1
  Ga  Ga13  1  0.79313000  0.93521500  0.00000000  1
