# generated using pymatgen
data_MnHO2
_symmetry_space_group_name_H-M   'P 1'
_cell_length_a   6.07632008
_cell_length_b   6.10186773
_cell_length_c   9.00165216
_cell_angle_alpha   89.97086393
_cell_angle_beta   90.07363990
_cell_angle_gamma   90.05863157
_symmetry_Int_Tables_number   1
_chemical_formula_structural   MnHO2
_chemical_formula_sum   'Mn8 H8 O16'
_cell_volume   333.75287670
_cell_formula_units_Z   8
loop_
 _symmetry_equiv_pos_site_id
 _symmetry_equiv_pos_as_xyz
  1  'x, y, z'
loop_
 _atom_site_type_symbol
 _atom_site_label
 _atom_site_symmetry_multiplicity
 _atom_site_fract_x
 _atom_site_fract_y
 _atom_site_fract_z
 _atom_site_occupancy
  Mn  Mn0  1  0.21846900  0.74988600  0.75066000  1
  Mn  Mn1  1  0.78064700  0.24993300  0.24926300  1
  Mn  Mn2  1  0.71834600  0.74942400  0.74959300  1
  Mn  Mn3  1  0.28065400  0.24837400  0.25070200  1
  Mn  Mn4  1  0.99940900  0.52854300  0.50045300  1
  Mn  Mn5  1  0.49910300  0.97067200  0.99931500  1
  Mn  Mn6  1  0.00054100  0.02855400  0.49976300  1
  Mn  Mn7  1  0.49885700  0.47049500  0.00053500  1
  H  H8  1  0.04406500  0.66976300  0.23918900  1
  H  H9  1  0.45446600  0.33036100  0.73838400  1
  H  H10  1  0.57376300  0.78424700  0.48959100  1
  H  H11  1  0.92391900  0.22726900  0.98755600  1
  H  H12  1  0.97013100  0.16982600  0.76263000  1
  H  H13  1  0.54271000  0.82744100  0.26003100  1
  H  H14  1  0.42790900  0.27591500  0.51036800  1
  H  H15  1  0.07265000  0.72524000  0.01147900  1
  O  O16  1  0.97034100  0.55315600  0.72134900  1
  O  O17  1  0.52852000  0.97636200  0.22046600  1
  O  O18  1  0.97424900  0.02172600  0.72115100  1
  O  O19  1  0.52829700  0.44545800  0.22166000  1
  O  O20  1  0.19547200  0.77626500  0.52869500  1
  O  O21  1  0.77419100  0.22700100  0.02772200  1
  O  O22  1  0.72413600  0.77546300  0.52842300  1
  O  O23  1  0.30315000  0.22229600  0.02894100  1
  O  O24  1  0.02832500  0.05296100  0.27855300  1
  O  O25  1  0.46925400  0.47816400  0.77936200  1
  O  O26  1  0.02870700  0.52155700  0.27958100  1
  O  O27  1  0.47064200  0.94613300  0.77831000  1
  O  O28  1  0.27687100  0.27237100  0.47219900  1
  O  O29  1  0.69478800  0.72265700  0.97095600  1
  O  O30  1  0.80435000  0.27628800  0.47088900  1
  O  O31  1  0.22313800  0.72621100  0.97252900  1
