# generated using pymatgen
data_Yb3Si2ClO8
_symmetry_space_group_name_H-M   'P 1'
_cell_length_a   6.32344900
_cell_length_b   6.95484300
_cell_length_c   18.05788200
_cell_angle_alpha   90.00000000
_cell_angle_beta   90.00000000
_cell_angle_gamma   90.00000000
_symmetry_Int_Tables_number   1
_chemical_formula_structural   Yb3Si2ClO8
_chemical_formula_sum   'Yb12 Si8 Cl4 O32'
_cell_volume   794.16027928
_cell_formula_units_Z   4
loop_
 _symmetry_equiv_pos_site_id
 _symmetry_equiv_pos_as_xyz
  1  'x, y, z'
loop_
 _atom_site_type_symbol
 _atom_site_label
 _atom_site_symmetry_multiplicity
 _atom_site_fract_x
 _atom_site_fract_y
 _atom_site_fract_z
 _atom_site_occupancy
  Yb  Yb0  1  0.12532400  0.01533600  0.09284800  1
  Yb  Yb1  1  0.62532400  0.48466400  0.90715200  1
  Yb  Yb2  1  0.37467600  0.51533600  0.40715200  1
  Yb  Yb3  1  0.88707400  0.28783800  0.25000000  1
  Yb  Yb4  1  0.11292600  0.71216200  0.75000000  1
  Yb  Yb5  1  0.61292600  0.78783800  0.25000000  1
  Yb  Yb6  1  0.87467600  0.98466400  0.90715200  1
  Yb  Yb7  1  0.38707400  0.21216200  0.75000000  1
  Yb  Yb8  1  0.37467600  0.51533600  0.09284800  1
  Yb  Yb9  1  0.12532400  0.01533600  0.40715200  1
  Yb  Yb10  1  0.62532400  0.48466400  0.59284800  1
  Yb  Yb11  1  0.87467600  0.98466400  0.59284800  1
  Si  Si12  1  0.62549300  0.01844800  0.39886400  1
  Si  Si13  1  0.62549300  0.01844800  0.10113600  1
  Si  Si14  1  0.37450700  0.98155200  0.89886400  1
  Si  Si15  1  0.37450700  0.98155200  0.60113600  1
  Si  Si16  1  0.12549300  0.48155200  0.60113600  1
  Si  Si17  1  0.87450700  0.51844800  0.10113600  1
  Si  Si18  1  0.87450700  0.51844800  0.39886400  1
  Si  Si19  1  0.12549300  0.48155200  0.89886400  1
  Cl  Cl20  1  0.25986600  0.53668100  0.25000000  1
  Cl  Cl21  1  0.75986600  0.96331900  0.75000000  1
  Cl  Cl22  1  0.24013400  0.03668100  0.25000000  1
  Cl  Cl23  1  0.74013400  0.46331900  0.75000000  1
  O  O24  1  0.27844500  0.46222800  0.82579900  1
  O  O25  1  0.02538900  0.32992200  0.11645300  1
  O  O26  1  0.02538900  0.32992200  0.38354700  1
  O  O27  1  0.71648600  0.50637600  0.47005200  1
  O  O28  1  0.54546300  0.80589000  0.90719900  1
  O  O29  1  0.78351400  0.00637600  0.02994800  1
  O  O30  1  0.77844500  0.03777200  0.32579900  1
  O  O31  1  0.04546300  0.69411000  0.40719900  1
  O  O32  1  0.97461100  0.67007800  0.61645300  1
  O  O33  1  0.52538900  0.17007800  0.61645300  1
  O  O34  1  0.95453700  0.30589000  0.90719900  1
  O  O35  1  0.27844500  0.46222800  0.67420100  1
  O  O36  1  0.28351400  0.49362400  0.52994800  1
  O  O37  1  0.47461100  0.82992200  0.11645300  1
  O  O38  1  0.21648600  0.99362400  0.52994800  1
  O  O39  1  0.22155500  0.96222800  0.67420100  1
  O  O40  1  0.78351400  0.00637600  0.47005200  1
  O  O41  1  0.21648600  0.99362400  0.97005200  1
  O  O42  1  0.04546300  0.69411000  0.09280100  1
  O  O43  1  0.77844500  0.03777200  0.17420100  1
  O  O44  1  0.52538900  0.17007800  0.88354700  1
  O  O45  1  0.95453700  0.30589000  0.59280100  1
  O  O46  1  0.71648600  0.50637600  0.02994800  1
  O  O47  1  0.28351400  0.49362400  0.97005200  1
  O  O48  1  0.22155500  0.96222800  0.82579900  1
  O  O49  1  0.97461100  0.67007800  0.88354700  1
  O  O50  1  0.45453700  0.19411000  0.40719900  1
  O  O51  1  0.54546300  0.80589000  0.59280100  1
  O  O52  1  0.45453700  0.19411000  0.09280100  1
  O  O53  1  0.72155500  0.53777200  0.32579900  1
  O  O54  1  0.47461100  0.82992200  0.38354700  1
  O  O55  1  0.72155500  0.53777200  0.17420100  1
