# generated using pymatgen
data_Al3(PO4)4
_symmetry_space_group_name_H-M   'P 1'
_cell_length_a   13.16754570
_cell_length_b   13.16754570
_cell_length_c   18.37037900
_cell_angle_alpha   90.00000000
_cell_angle_beta   90.00000000
_cell_angle_gamma   119.99999851
_symmetry_Int_Tables_number   1
_chemical_formula_structural   Al3(PO4)4
_chemical_formula_sum   'Al12 P16 O64'
_cell_volume   2758.40749037
_cell_formula_units_Z   4
loop_
 _symmetry_equiv_pos_site_id
 _symmetry_equiv_pos_as_xyz
  1  'x, y, z'
loop_
 _atom_site_type_symbol
 _atom_site_label
 _atom_site_symmetry_multiplicity
 _atom_site_fract_x
 _atom_site_fract_y
 _atom_site_fract_z
 _atom_site_occupancy
  Al  Al0  1  0.14500900  0.67016700  0.49044900  1
  Al  Al1  1  0.52515800  0.85499100  0.49044900  1
  Al  Al2  1  0.47484200  0.14500900  0.50955100  1
  Al  Al3  1  0.52515800  0.67016700  0.99044900  1
  Al  Al4  1  0.67016700  0.52515800  0.50955100  1
  Al  Al5  1  0.32983300  0.47484200  0.49044900  1
  Al  Al6  1  0.14500900  0.47484200  0.99044900  1
  Al  Al7  1  0.67016700  0.14500900  0.00955100  1
  Al  Al8  1  0.32983300  0.85499100  0.99044900  1
  Al  Al9  1  0.85499100  0.52515800  0.00955100  1
  Al  Al10  1  0.85499100  0.32983300  0.50955100  1
  Al  Al11  1  0.47484200  0.32983300  0.00955100  1
  P  P12  1  0.57208900  0.90600700  0.92600900  1
  P  P13  1  0.09399300  0.66608200  0.92600900  1
  P  P14  1  0.66608200  0.57208900  0.07399100  1
  P  P15  1  0.66666700  0.33333300  0.40410800  1
  P  P16  1  0.33333300  0.66666700  0.59589200  1
  P  P17  1  0.57208900  0.66608200  0.42600900  1
  P  P18  1  0.66666700  0.33333300  0.90410800  1
  P  P19  1  0.09399300  0.42791100  0.42600900  1
  P  P20  1  0.33333300  0.66666700  0.09589200  1
  P  P21  1  0.66608200  0.09399300  0.57399100  1
  P  P22  1  0.33391800  0.42791100  0.92600900  1
  P  P23  1  0.42791100  0.33391800  0.57399100  1
  P  P24  1  0.90600700  0.33391800  0.07399100  1
  P  P25  1  0.33391800  0.90600700  0.42600900  1
  P  P26  1  0.42791100  0.09399300  0.07399100  1
  P  P27  1  0.90600700  0.57208900  0.57399100  1
  O  O28  1  0.32279800  0.77158100  0.06695800  1
  O  O29  1  0.80526200  0.21003800  0.05489000  1
  O  O30  1  0.38187000  0.33448400  0.65057100  1
  O  O31  1  0.66666700  0.33333300  0.82107700  1
  O  O32  1  0.57744900  0.43853800  0.06845900  1
  O  O33  1  0.04738700  0.38187000  0.34942900  1
  O  O34  1  0.44878200  0.67720200  0.06695800  1
  O  O35  1  0.99538300  0.36242700  0.48282300  1
  O  O36  1  0.42255100  0.56146200  0.93154100  1
  O  O37  1  0.86108900  0.43853800  0.56845900  1
  O  O38  1  0.33448400  0.38187000  0.84942900  1
  O  O39  1  0.57744900  0.13891100  0.56845900  1
  O  O40  1  0.61813000  0.66551600  0.34942900  1
  O  O41  1  0.78996200  0.59522300  0.05489000  1
  O  O42  1  0.36242700  0.36704400  0.51717700  1
  O  O43  1  0.86108900  0.42255100  0.06845900  1
  O  O44  1  0.13891100  0.56146200  0.43154100  1
  O  O45  1  0.63757300  0.00461700  0.98282300  1
  O  O46  1  0.63757300  0.63295600  0.48282300  1
  O  O47  1  0.56146200  0.13891100  0.06845900  1
  O  O48  1  0.32279800  0.55121800  0.56695800  1
  O  O49  1  0.43853800  0.57744900  0.43154100  1
  O  O50  1  0.21003800  0.40477700  0.94511000  1
  O  O51  1  0.77158100  0.32279800  0.43304200  1
  O  O52  1  0.99538300  0.63295600  0.98282300  1
  O  O53  1  0.42255100  0.86108900  0.43154100  1
  O  O54  1  0.43853800  0.86108900  0.93154100  1
  O  O55  1  0.21003800  0.80526200  0.44511000  1
  O  O56  1  0.78996200  0.19473800  0.55489000  1
  O  O57  1  0.00461700  0.63757300  0.51717700  1
  O  O58  1  0.19473800  0.40477700  0.44511000  1
  O  O59  1  0.36704400  0.36242700  0.98282300  1
  O  O60  1  0.36242700  0.99538300  0.01717700  1
  O  O61  1  0.63295600  0.63757300  0.01717700  1
  O  O62  1  0.19473800  0.78996200  0.94511000  1
  O  O63  1  0.40477700  0.19473800  0.05489000  1
  O  O64  1  0.56146200  0.42255100  0.56845900  1
  O  O65  1  0.67720200  0.44878200  0.43304200  1
  O  O66  1  0.33333300  0.66666700  0.67892300  1
  O  O67  1  0.44878200  0.77158100  0.56695800  1
  O  O68  1  0.59522300  0.78996200  0.44511000  1
  O  O69  1  0.66666700  0.33333300  0.32107700  1
  O  O70  1  0.55121800  0.22841900  0.43304200  1
  O  O71  1  0.67720200  0.22841900  0.93304200  1
  O  O72  1  0.33333300  0.66666700  0.17892300  1
  O  O73  1  0.66551600  0.04738700  0.65057100  1
  O  O74  1  0.38187000  0.04738700  0.15057100  1
  O  O75  1  0.22841900  0.67720200  0.56695800  1
  O  O76  1  0.55121800  0.32279800  0.93304200  1
  O  O77  1  0.40477700  0.21003800  0.55489000  1
  O  O78  1  0.22841900  0.55121800  0.06695800  1
  O  O79  1  0.80526200  0.59522300  0.55489000  1
  O  O80  1  0.63295600  0.99538300  0.51717700  1
  O  O81  1  0.13891100  0.57744900  0.93154100  1
  O  O82  1  0.66551600  0.61813000  0.15057100  1
  O  O83  1  0.59522300  0.80526200  0.94511000  1
  O  O84  1  0.77158100  0.44878200  0.93304200  1
  O  O85  1  0.04738700  0.66551600  0.84942900  1
  O  O86  1  0.61813000  0.95261300  0.84942900  1
  O  O87  1  0.95261300  0.61813000  0.65057100  1
  O  O88  1  0.00461700  0.36704400  0.01717700  1
  O  O89  1  0.33448400  0.95261300  0.34942900  1
  O  O90  1  0.36704400  0.00461700  0.48282300  1
  O  O91  1  0.95261300  0.33448400  0.15057100  1
