# generated using pymatgen
data_MgGa5
_symmetry_space_group_name_H-M   'P 1'
_cell_length_a   5.69645826
_cell_length_b   5.69645826
_cell_length_c   5.69645735
_cell_angle_alpha   53.92686301
_cell_angle_beta   53.92686301
_cell_angle_gamma   53.92686384
_symmetry_Int_Tables_number   1
_chemical_formula_structural   MgGa5
_chemical_formula_sum   'Mg1 Ga5'
_cell_volume   112.16100350
_cell_formula_units_Z   1
loop_
 _symmetry_equiv_pos_site_id
 _symmetry_equiv_pos_as_xyz
  1  'x, y, z'
loop_
 _atom_site_type_symbol
 _atom_site_label
 _atom_site_symmetry_multiplicity
 _atom_site_fract_x
 _atom_site_fract_y
 _atom_site_fract_z
 _atom_site_occupancy
  Mg  Mg0  1  0.50000000  0.50000000  0.50000000  1
  Ga  Ga1  1  0.33184100  0.00000000  0.66815900  1
  Ga  Ga2  1  0.16577300  0.16577300  0.16577300  1
  Ga  Ga3  1  0.66815900  0.33184100  0.00000000  1
  Ga  Ga4  1  0.00000000  0.66815900  0.33184100  1
  Ga  Ga5  1  0.83422700  0.83422700  0.83422700  1
