# generated using pymatgen
data_Cd27Pd8
_symmetry_space_group_name_H-M   'P 1'
_cell_length_a   8.53792588
_cell_length_b   8.53792605
_cell_length_c   39.20180013
_cell_angle_alpha   90.00000000
_cell_angle_beta   90.00000000
_cell_angle_gamma   109.81987173
_symmetry_Int_Tables_number   1
_chemical_formula_structural   Cd27Pd8
_chemical_formula_sum   'Cd54 Pd16'
_cell_volume   2688.38283052
_cell_formula_units_Z   2
loop_
 _symmetry_equiv_pos_site_id
 _symmetry_equiv_pos_as_xyz
  1  'x, y, z'
loop_
 _atom_site_type_symbol
 _atom_site_label
 _atom_site_symmetry_multiplicity
 _atom_site_fract_x
 _atom_site_fract_y
 _atom_site_fract_z
 _atom_site_occupancy
  Cd  Cd0  1  0.79974254  0.45463286  0.02230836  1
  Cd  Cd1  1  0.06039400  0.69625906  0.15923043  1
  Cd  Cd2  1  0.13014578  0.38331779  0.59340735  1
  Cd  Cd3  1  0.28432353  0.92571088  0.21346400  1
  Cd  Cd4  1  0.57969669  0.23365497  0.08469831  1
  Cd  Cd5  1  0.93960600  0.30374094  0.65923043  1
  Cd  Cd6  1  0.46015328  0.46015328  0.03014068  1
  Cd  Cd7  1  0.53984672  0.53984672  0.53014068  1
  Cd  Cd8  1  0.38331779  0.13014578  0.59340735  1
  Cd  Cd9  1  0.60443591  0.86022636  0.22268446  1
  Cd  Cd10  1  0.52241882  0.52241882  0.19511656  1
  Cd  Cd11  1  0.77302258  0.42707191  0.72642947  1
  Cd  Cd12  1  0.22697742  0.57292809  0.22642947  1
  Cd  Cd13  1  0.66699683  0.92498534  0.52852454  1
  Cd  Cd14  1  0.58535442  0.81641510  0.65415206  1
  Cd  Cd15  1  0.04682181  0.04682181  0.15316552  1
  Cd  Cd16  1  0.03523700  0.03523700  0.73191652  1
  Cd  Cd17  1  0.27041264  0.92208473  0.10127996  1
  Cd  Cd18  1  0.81641510  0.58535442  0.65415206  1
  Cd  Cd19  1  0.96476300  0.96476300  0.23191652  1
  Cd  Cd20  1  0.47758118  0.47758118  0.69511656  1
  Cd  Cd21  1  0.42030331  0.76634503  0.58469831  1
  Cd  Cd22  1  0.39556409  0.13977364  0.72268446  1
  Cd  Cd23  1  0.45463286  0.79974254  0.02230836  1
  Cd  Cd24  1  0.86022636  0.60443591  0.22268446  1
  Cd  Cd25  1  0.07428912  0.71567647  0.71346400  1
  Cd  Cd26  1  0.86985422  0.61668221  0.09340735  1
  Cd  Cd27  1  0.20025746  0.54536714  0.52230836  1
  Cd  Cd28  1  0.95317819  0.95317819  0.65316552  1
  Cd  Cd29  1  0.07501466  0.33300317  0.02852454  1
  Cd  Cd30  1  0.92571088  0.28432353  0.21346400  1
  Cd  Cd31  1  0.92498534  0.66699683  0.52852454  1
  Cd  Cd32  1  0.57292809  0.22697742  0.22642947  1
  Cd  Cd33  1  0.13977364  0.39556409  0.72268446  1
  Cd  Cd34  1  0.47951717  0.47951717  0.61686258  1
  Cd  Cd35  1  0.61668221  0.86985422  0.09340735  1
  Cd  Cd36  1  0.41464558  0.18358490  0.15415206  1
  Cd  Cd37  1  0.07791527  0.72958736  0.60127996  1
  Cd  Cd38  1  0.03286134  0.03286134  0.57299722  1
  Cd  Cd39  1  0.69625906  0.06039400  0.15923043  1
  Cd  Cd40  1  0.33300317  0.07501466  0.02852454  1
  Cd  Cd41  1  0.30374094  0.93960600  0.65923043  1
  Cd  Cd42  1  0.96713866  0.96713866  0.07299722  1
  Cd  Cd43  1  0.54536714  0.20025746  0.52230836  1
  Cd  Cd44  1  0.42707191  0.77302258  0.72642947  1
  Cd  Cd45  1  0.23365497  0.57969669  0.08469831  1
  Cd  Cd46  1  0.76634503  0.42030331  0.58469831  1
  Cd  Cd47  1  0.92208473  0.27041264  0.10127996  1
  Cd  Cd48  1  0.52048283  0.52048283  0.11686258  1
  Cd  Cd49  1  0.71567647  0.07428912  0.71346400  1
  Cd  Cd50  1  0.97850289  0.97850289  0.99799371  1
  Cd  Cd51  1  0.18358490  0.41464558  0.15415206  1
  Cd  Cd52  1  0.72958736  0.07791527  0.60127996  1
  Cd  Cd53  1  0.02149711  0.02149711  0.49799371  1
  Pd  Pd54  1  0.25792972  0.25792972  0.98048576  1
  Pd  Pd55  1  0.76268446  0.76268446  0.15307388  1
  Pd  Pd56  1  0.74459326  0.09199593  0.03893250  1
  Pd  Pd57  1  0.23729429  0.59594859  0.65214223  1
  Pd  Pd58  1  0.24922298  0.24922298  0.09166296  1
  Pd  Pd59  1  0.75731182  0.75731182  0.71237725  1
  Pd  Pd60  1  0.90800407  0.25540674  0.53893250  1
  Pd  Pd61  1  0.40405141  0.76270571  0.15214223  1
  Pd  Pd62  1  0.09199593  0.74459326  0.03893250  1
  Pd  Pd63  1  0.76270571  0.40405141  0.15214223  1
  Pd  Pd64  1  0.75077702  0.75077702  0.59166296  1
  Pd  Pd65  1  0.59594859  0.23729429  0.65214223  1
  Pd  Pd66  1  0.25540674  0.90800407  0.53893250  1
  Pd  Pd67  1  0.24268818  0.24268818  0.21237725  1
  Pd  Pd68  1  0.74207028  0.74207028  0.48048576  1
  Pd  Pd69  1  0.23731554  0.23731554  0.65307388  1
