# generated using pymatgen
data_S
_symmetry_space_group_name_H-M   'P 1'
_cell_length_a   15.49898770
_cell_length_b   15.49898770
_cell_length_c   5.31359100
_cell_angle_alpha   90.00000000
_cell_angle_beta   90.00000000
_cell_angle_gamma   119.99999874
_symmetry_Int_Tables_number   1
_chemical_formula_structural   S
_chemical_formula_sum   S18
_cell_volume   1105.41518807
_cell_formula_units_Z   18
loop_
 _symmetry_equiv_pos_site_id
 _symmetry_equiv_pos_as_xyz
  1  'x, y, z'
loop_
 _atom_site_type_symbol
 _atom_site_label
 _atom_site_symmetry_multiplicity
 _atom_site_fract_x
 _atom_site_fract_y
 _atom_site_fract_z
 _atom_site_occupancy
  S  S0  1  0.30035000  0.72196100  0.75598900  1
  S  S1  1  0.21468300  0.33383400  0.36301200  1
  S  S2  1  0.11915100  0.78531700  0.36301200  1
  S  S3  1  0.66616600  0.88084900  0.36301200  1
  S  S4  1  0.13636500  0.38740500  0.23891300  1
  S  S5  1  0.27803900  0.57838900  0.75598900  1
  S  S6  1  0.58249200  0.06330300  0.31774400  1
  S  S7  1  0.42161100  0.69965000  0.75598900  1
  S  S8  1  0.55533000  0.49026300  0.02525300  1
  S  S9  1  0.93669700  0.51918900  0.31774400  1
  S  S10  1  0.25103900  0.86363500  0.23891300  1
  S  S11  1  0.50973700  0.06506700  0.02525300  1
  S  S12  1  0.48081100  0.41750800  0.31774400  1
  S  S13  1  0.93493300  0.44467000  0.02525300  1
  S  S14  1  0.61259500  0.74896100  0.23891300  1
  S  S15  1  0.85789500  0.58330600  0.31308900  1
  S  S16  1  0.41669400  0.27458800  0.31308900  1
  S  S17  1  0.72541200  0.14210500  0.31308900  1
