# generated using pymatgen
data_NaMnO2
_symmetry_space_group_name_H-M   'P 1'
_cell_length_a   2.88643700
_cell_length_b   5.82077000
_cell_length_c   11.48347535
_cell_angle_alpha   86.01453324
_cell_angle_beta   90.00000000
_cell_angle_gamma   90.00000000
_symmetry_Int_Tables_number   1
_chemical_formula_structural   NaMnO2
_chemical_formula_sum   'Na4 Mn4 O8'
_cell_volume   192.47057485
_cell_formula_units_Z   4
loop_
 _symmetry_equiv_pos_site_id
 _symmetry_equiv_pos_as_xyz
  1  'x, y, z'
loop_
 _atom_site_type_symbol
 _atom_site_label
 _atom_site_symmetry_multiplicity
 _atom_site_fract_x
 _atom_site_fract_y
 _atom_site_fract_z
 _atom_site_occupancy
  Na  Na0  1  0.00000000  0.45824300  0.49142200  1
  Na  Na1  1  0.50000000  0.50291700  0.99911200  1
  Na  Na2  1  0.50000000  0.09243800  0.24931300  1
  Na  Na3  1  0.50000000  0.92747800  0.76524500  1
  Mn  Mn4  1  0.00000000  0.60265900  0.25701100  1
  Mn  Mn5  1  0.00000000  0.42892100  0.73221900  1
  Mn  Mn6  1  0.50000000  0.00147300  0.00734500  1
  Mn  Mn7  1  0.50000000  0.94961000  0.51322700  1
  O  O8  1  0.50000000  0.42891200  0.33584700  1
  O  O9  1  0.50000000  0.30404700  0.82649400  1
  O  O10  1  0.00000000  0.18005300  0.07521600  1
  O  O11  1  0.00000000  0.08586300  0.60156900  1
  O  O12  1  0.50000000  0.74012400  0.16422700  1
  O  O13  1  0.50000000  0.59296100  0.64274400  1
  O  O14  1  0.00000000  0.86717700  0.40893000  1
  O  O15  1  0.00000000  0.83712900  0.93006500  1
