data_image0
_chemical_formula_structural       Au3K3Sb2
_chemical_formula_sum              "Au3 K3 Sb2"
_cell_length_a       6.35251
_cell_length_b       6.35251
_cell_length_c       8.13003
_cell_angle_alpha    67.003
_cell_angle_beta     112.997
_cell_angle_gamma    120

_space_group_name_H-M_alt    "P 1"
_space_group_IT_number       1

loop_
  _space_group_symop_operation_xyz
  'x, y, z'

loop_
  _atom_site_type_symbol
  _atom_site_label
  _atom_site_symmetry_multiplicity
  _atom_site_fract_x
  _atom_site_fract_y
  _atom_site_fract_z
  _atom_site_occupancy
  Au  Au1       1.0  0.50000  0.00000  0.00000  1.0000
  Au  Au2       1.0  0.50000  0.50000  0.00000  1.0000
  Au  Au3       1.0  0.00000  0.50000  0.00000  1.0000
  K   K1        1.0  0.08080  0.91900  0.24300  1.0000
  K   K2        1.0  0.50000  0.50000  0.50000  1.0000
  K   K3        1.0  0.91900  0.08080  0.75800  1.0000
  Sb  Sb1       1.0  0.75800  0.24200  0.27500  1.0000
  Sb  Sb2       1.0  0.24200  0.75800  0.72500  1.0000
