# generated using pymatgen
data_VS2
_symmetry_space_group_name_H-M   'P 1'
_cell_length_a   2.55302400
_cell_length_b   2.58187667
_cell_length_c   23.57599704
_cell_angle_alpha   86.93111550
_cell_angle_beta   87.06042534
_cell_angle_gamma   60.91683643
_symmetry_Int_Tables_number   1
_chemical_formula_structural   VS2
_chemical_formula_sum   'V1 S2'
_cell_volume   135.55776969
_cell_formula_units_Z   1
loop_
 _symmetry_equiv_pos_site_id
 _symmetry_equiv_pos_as_xyz
  1  'x, y, z'
loop_
 _atom_site_type_symbol
 _atom_site_label
 _atom_site_symmetry_multiplicity
 _atom_site_fract_x
 _atom_site_fract_y
 _atom_site_fract_z
 _atom_site_occupancy
  V  V0  1  0.49202800  0.49280900  0.50023100  1
  S  S1  1  0.94397900  0.46661800  0.18934200  1
  S  S2  1  0.07368800  0.57398200  0.80835000  1
