# generated using pymatgen
data_MgGa2
_symmetry_space_group_name_H-M   'P 1'
_cell_length_a   7.50684131
_cell_length_b   7.50684131
_cell_length_c   4.87167400
_cell_angle_alpha   90.00000000
_cell_angle_beta   90.00000000
_cell_angle_gamma   154.98680083
_symmetry_Int_Tables_number   1
_chemical_formula_structural   MgGa2
_chemical_formula_sum   'Mg2 Ga4'
_cell_volume   116.07947569
_cell_formula_units_Z   2
loop_
 _symmetry_equiv_pos_site_id
 _symmetry_equiv_pos_as_xyz
  1  'x, y, z'
loop_
 _atom_site_type_symbol
 _atom_site_label
 _atom_site_symmetry_multiplicity
 _atom_site_fract_x
 _atom_site_fract_y
 _atom_site_fract_z
 _atom_site_occupancy
  Mg  Mg0  1  0.10721400  0.89278600  0.50000000  1
  Mg  Mg1  1  0.78561600  0.21438400  0.50000000  1
  Ga  Ga2  1  0.99252000  0.00748000  0.00000000  1
  Ga  Ga3  1  0.33433500  0.66566500  0.00000000  1
  Ga  Ga4  1  0.66815100  0.33184900  0.00000000  1
  Ga  Ga5  1  0.44549900  0.55450100  0.50000000  1
