# generated using pymatgen
data_Ba2PrCu3O8
_symmetry_space_group_name_H-M   'P 1'
_cell_length_a   3.97595500
_cell_length_b   3.97595500
_cell_length_c   11.72950400
_cell_angle_alpha   90.00000000
_cell_angle_beta   90.00000000
_cell_angle_gamma   90.00000000
_symmetry_Int_Tables_number   1
_chemical_formula_structural   Ba2PrCu3O8
_chemical_formula_sum   'Ba2 Pr1 Cu3 O8'
_cell_volume   185.42255816
_cell_formula_units_Z   1
loop_
 _symmetry_equiv_pos_site_id
 _symmetry_equiv_pos_as_xyz
  1  'x, y, z'
loop_
 _atom_site_type_symbol
 _atom_site_label
 _atom_site_symmetry_multiplicity
 _atom_site_fract_x
 _atom_site_fract_y
 _atom_site_fract_z
 _atom_site_occupancy
  Ba  Ba0  1  0.00000000  0.00000000  0.83245400  1
  Ba  Ba1  1  0.00000000  0.00000000  0.16754600  1
  Pr  Pr2  1  0.00000000  0.00000000  0.50000000  1
  Cu  Cu3  1  0.50000000  0.50000000  0.33981200  1
  Cu  Cu4  1  0.50000000  0.50000000  0.66018800  1
  Cu  Cu5  1  0.50000000  0.50000000  0.00000000  1
  O  O6  1  0.50000000  0.00000000  0.62930500  1
  O  O7  1  0.00000000  0.50000000  0.37069500  1
  O  O8  1  0.50000000  0.00000000  0.00000000  1
  O  O9  1  0.00000000  0.50000000  0.62930500  1
  O  O10  1  0.50000000  0.50000000  0.17092600  1
  O  O11  1  0.50000000  0.50000000  0.82907400  1
  O  O12  1  0.50000000  0.00000000  0.37069500  1
  O  O13  1  0.00000000  0.50000000  0.00000000  1
