# generated using pymatgen
data_MgGa2
_symmetry_space_group_name_H-M   'P 1'
_cell_length_a   5.49842000
_cell_length_b   5.49842000
_cell_length_c   5.12268200
_cell_angle_alpha   90.00000000
_cell_angle_beta   90.00000000
_cell_angle_gamma   90.00000000
_symmetry_Int_Tables_number   1
_chemical_formula_structural   MgGa2
_chemical_formula_sum   'Mg2 Ga4'
_cell_volume   154.87211108
_cell_formula_units_Z   2
loop_
 _symmetry_equiv_pos_site_id
 _symmetry_equiv_pos_as_xyz
  1  'x, y, z'
loop_
 _atom_site_type_symbol
 _atom_site_label
 _atom_site_symmetry_multiplicity
 _atom_site_fract_x
 _atom_site_fract_y
 _atom_site_fract_z
 _atom_site_occupancy
  Mg  Mg0  1  0.00000000  0.00000000  0.00000000  1
  Mg  Mg1  1  0.50000000  0.50000000  0.50000000  1
  Ga  Ga2  1  0.33983200  0.33983200  0.00000000  1
  Ga  Ga3  1  0.66016800  0.66016800  0.00000000  1
  Ga  Ga4  1  0.16016800  0.83983200  0.50000000  1
  Ga  Ga5  1  0.83983200  0.16016800  0.50000000  1
