# generated using pymatgen
data_Ca2FeWO6
_symmetry_space_group_name_H-M   'P 1'
_cell_length_a   5.60640916
_cell_length_b   5.60640916
_cell_length_c   5.60640917
_cell_angle_alpha   60.13687652
_cell_angle_beta   60.13687652
_cell_angle_gamma   60.13687424
_symmetry_Int_Tables_number   1
_chemical_formula_structural   Ca2FeWO6
_chemical_formula_sum   'Ca2 Fe1 W1 O6'
_cell_volume   124.99247687
_cell_formula_units_Z   1
loop_
 _symmetry_equiv_pos_site_id
 _symmetry_equiv_pos_as_xyz
  1  'x, y, z'
loop_
 _atom_site_type_symbol
 _atom_site_label
 _atom_site_symmetry_multiplicity
 _atom_site_fract_x
 _atom_site_fract_y
 _atom_site_fract_z
 _atom_site_occupancy
  Ca  Ca0  1  0.25764900  0.25764900  0.25764900  1
  Ca  Ca1  1  0.74235100  0.74235100  0.74235100  1
  Fe  Fe2  1  0.50000000  0.50000000  0.50000000  1
  W  W3  1  0.00000000  0.00000000  0.00000000  1
  O  O4  1  0.75372900  0.24890600  0.75372900  1
  O  O5  1  0.75109400  0.24627100  0.24627100  1
  O  O6  1  0.24890600  0.75372900  0.75372900  1
  O  O7  1  0.24627100  0.24627100  0.75109400  1
  O  O8  1  0.24627100  0.75109400  0.24627100  1
  O  O9  1  0.75372900  0.75372900  0.24890600  1
