# generated using pymatgen
data_Al2Fe3(SiO4)3
_symmetry_space_group_name_H-M   'P 1'
_cell_length_a   10.10306275
_cell_length_b   10.10306275
_cell_length_c   10.10306275
_cell_angle_alpha   109.47122063
_cell_angle_beta   109.47122063
_cell_angle_gamma   109.47122063
_symmetry_Int_Tables_number   1
_chemical_formula_structural   Al2Fe3(SiO4)3
_chemical_formula_sum   'Al8 Fe12 Si12 O48'
_cell_volume   793.84782787
_cell_formula_units_Z   4
loop_
 _symmetry_equiv_pos_site_id
 _symmetry_equiv_pos_as_xyz
  1  'x, y, z'
loop_
 _atom_site_type_symbol
 _atom_site_label
 _atom_site_symmetry_multiplicity
 _atom_site_fract_x
 _atom_site_fract_y
 _atom_site_fract_z
 _atom_site_occupancy
  Al  Al0  1  0.00000000  0.00000000  0.00000000  1
  Al  Al1  1  0.50000000  0.00000000  0.00000000  1
  Al  Al2  1  0.50000000  0.50000000  0.00000000  1
  Al  Al3  1  0.00000000  0.50000000  0.50000000  1
  Al  Al4  1  0.00000000  0.00000000  0.50000000  1
  Al  Al5  1  0.50000000  0.50000000  0.50000000  1
  Al  Al6  1  0.00000000  0.50000000  0.00000000  1
  Al  Al7  1  0.50000000  0.00000000  0.50000000  1
  Fe  Fe8  1  0.75000000  0.62500000  0.87500000  1
  Fe  Fe9  1  0.25000000  0.87500000  0.62500000  1
  Fe  Fe10  1  0.62500000  0.25000000  0.87500000  1
  Fe  Fe11  1  0.87500000  0.75000000  0.62500000  1
  Fe  Fe12  1  0.87500000  0.62500000  0.25000000  1
  Fe  Fe13  1  0.62500000  0.87500000  0.75000000  1
  Fe  Fe14  1  0.25000000  0.37500000  0.12500000  1
  Fe  Fe15  1  0.75000000  0.12500000  0.37500000  1
  Fe  Fe16  1  0.37500000  0.75000000  0.12500000  1
  Fe  Fe17  1  0.12500000  0.25000000  0.37500000  1
  Fe  Fe18  1  0.12500000  0.37500000  0.75000000  1
  Fe  Fe19  1  0.37500000  0.12500000  0.25000000  1
  Si  Si20  1  0.12500000  0.75000000  0.87500000  1
  Si  Si21  1  0.75000000  0.87500000  0.12500000  1
  Si  Si22  1  0.25000000  0.62500000  0.37500000  1
  Si  Si23  1  0.62500000  0.75000000  0.37500000  1
  Si  Si24  1  0.87500000  0.12500000  0.75000000  1
  Si  Si25  1  0.37500000  0.25000000  0.62500000  1
  Si  Si26  1  0.37500000  0.62500000  0.75000000  1
  Si  Si27  1  0.25000000  0.12500000  0.87500000  1
  Si  Si28  1  0.62500000  0.37500000  0.25000000  1
  Si  Si29  1  0.12500000  0.87500000  0.25000000  1
  Si  Si30  1  0.75000000  0.37500000  0.62500000  1
  Si  Si31  1  0.87500000  0.25000000  0.12500000  1
  O  O32  1  0.58174000  0.89530100  0.38131900  1
  O  O33  1  0.38131900  0.58174000  0.89530100  1
  O  O34  1  0.29957900  0.31356100  0.91826000  1
  O  O35  1  0.48601800  0.60469900  0.18643900  1
  O  O36  1  0.31356100  0.89530100  0.01398200  1
  O  O37  1  0.11868100  0.01398200  0.20042100  1
  O  O38  1  0.38131900  0.29957900  0.48601800  1
  O  O39  1  0.89530100  0.38131900  0.58174000  1
  O  O40  1  0.18643900  0.20042100  0.58174000  1
  O  O41  1  0.48601800  0.38131900  0.29957900  1
  O  O42  1  0.89530100  0.01398200  0.31356100  1
  O  O43  1  0.60469900  0.91826000  0.11868100  1
  O  O44  1  0.91826000  0.11868100  0.60469900  1
  O  O45  1  0.29957900  0.48601800  0.38131900  1
  O  O46  1  0.58174000  0.18643900  0.20042100  1
  O  O47  1  0.20042100  0.58174000  0.18643900  1
  O  O48  1  0.01398200  0.31356100  0.89530100  1
  O  O49  1  0.91826000  0.29957900  0.31356100  1
  O  O50  1  0.01398200  0.20042100  0.11868100  1
  O  O51  1  0.81356100  0.79957900  0.41826000  1
  O  O52  1  0.18643900  0.48601800  0.60469900  1
  O  O53  1  0.60469900  0.18643900  0.48601800  1
  O  O54  1  0.20042100  0.11868100  0.01398200  1
  O  O55  1  0.11868100  0.60469900  0.91826000  1
  O  O56  1  0.41826000  0.10469900  0.61868100  1
  O  O57  1  0.61868100  0.41826000  0.10469900  1
  O  O58  1  0.70042100  0.68643900  0.08174000  1
  O  O59  1  0.51398200  0.39530100  0.81356100  1
  O  O60  1  0.68643900  0.10469900  0.98601800  1
  O  O61  1  0.88131900  0.98601800  0.79957900  1
  O  O62  1  0.61868100  0.70042100  0.51398200  1
  O  O63  1  0.10469900  0.61868100  0.41826000  1
  O  O64  1  0.88131900  0.39530100  0.08174000  1
  O  O65  1  0.79957900  0.88131900  0.98601800  1
  O  O66  1  0.39530100  0.81356100  0.51398200  1
  O  O67  1  0.68643900  0.08174000  0.70042100  1
  O  O68  1  0.81356100  0.51398200  0.39530100  1
  O  O69  1  0.98601800  0.79957900  0.88131900  1
  O  O70  1  0.08174000  0.70042100  0.68643900  1
  O  O71  1  0.98601800  0.68643900  0.10469900  1
  O  O72  1  0.79957900  0.41826000  0.81356100  1
  O  O73  1  0.41826000  0.81356100  0.79957900  1
  O  O74  1  0.70042100  0.51398200  0.61868100  1
  O  O75  1  0.08174000  0.88131900  0.39530100  1
  O  O76  1  0.39530100  0.08174000  0.88131900  1
  O  O77  1  0.10469900  0.98601800  0.68643900  1
  O  O78  1  0.51398200  0.61868100  0.70042100  1
  O  O79  1  0.31356100  0.91826000  0.29957900  1
