# generated using pymatgen
data_Rb2Hg(CN)4
_symmetry_space_group_name_H-M   'P 1'
_cell_length_a   16.74094099
_cell_length_b   16.74094099
_cell_length_c   16.74094107
_cell_angle_alpha   31.78691520
_cell_angle_beta   31.78691520
_cell_angle_gamma   31.78691782
_symmetry_Int_Tables_number   1
_chemical_formula_structural   Rb2Hg(CN)4
_chemical_formula_sum   'Rb8 Hg4 C16 N16'
_cell_volume   1156.31770794
_cell_formula_units_Z   4
loop_
 _symmetry_equiv_pos_site_id
 _symmetry_equiv_pos_as_xyz
  1  'x, y, z'
loop_
 _atom_site_type_symbol
 _atom_site_label
 _atom_site_symmetry_multiplicity
 _atom_site_fract_x
 _atom_site_fract_y
 _atom_site_fract_z
 _atom_site_occupancy
  Rb  Rb0  1  0.68628400  0.81371600  0.25000000  1
  Rb  Rb1  1  0.75000000  0.31371600  0.18628400  1
  Rb  Rb2  1  0.18628400  0.75000000  0.31371600  1
  Rb  Rb3  1  0.50000000  0.50000000  0.50000000  1
  Rb  Rb4  1  0.81371600  0.25000000  0.68628400  1
  Rb  Rb5  1  0.31371600  0.18628400  0.75000000  1
  Rb  Rb6  1  0.00000000  0.00000000  0.00000000  1
  Rb  Rb7  1  0.25000000  0.68628400  0.81371600  1
  Hg  Hg8  1  0.81223100  0.81223100  0.81223100  1
  Hg  Hg9  1  0.31223100  0.31223100  0.31223100  1
  Hg  Hg10  1  0.68776900  0.68776900  0.68776900  1
  Hg  Hg11  1  0.18776900  0.18776900  0.18776900  1
  C  C12  1  0.85840300  0.85840300  0.85840300  1
  C  C13  1  0.14159700  0.14159700  0.14159700  1
  C  C14  1  0.71162300  0.05335800  0.62623700  1
  C  C15  1  0.37376300  0.28837700  0.94664200  1
  C  C16  1  0.44664200  0.78837700  0.87376300  1
  C  C17  1  0.64159700  0.64159700  0.64159700  1
  C  C18  1  0.21162300  0.12623700  0.55335800  1
  C  C19  1  0.12623700  0.55335800  0.21162300  1
  C  C20  1  0.55335800  0.21162300  0.12623700  1
  C  C21  1  0.62623700  0.71162300  0.05335800  1
  C  C22  1  0.87376300  0.44664200  0.78837700  1
  C  C23  1  0.78837700  0.87376300  0.44664200  1
  C  C24  1  0.35840300  0.35840300  0.35840300  1
  C  C25  1  0.94664200  0.37376300  0.28837700  1
  C  C26  1  0.28837700  0.94664200  0.37376300  1
  C  C27  1  0.05335800  0.62623700  0.71162300  1
  N  N28  1  0.65036200  0.18208600  0.53318300  1
  N  N29  1  0.18208600  0.53318300  0.65036200  1
  N  N30  1  0.03318300  0.68208600  0.15036200  1
  N  N31  1  0.84963800  0.96681700  0.31791400  1
  N  N32  1  0.11692800  0.11692800  0.11692800  1
  N  N33  1  0.61692800  0.61692800  0.61692800  1
  N  N34  1  0.96681700  0.31791400  0.84963800  1
  N  N35  1  0.53318300  0.65036200  0.18208600  1
  N  N36  1  0.46681700  0.34963800  0.81791400  1
  N  N37  1  0.38307200  0.38307200  0.38307200  1
  N  N38  1  0.15036200  0.03318300  0.68208600  1
  N  N39  1  0.31791400  0.84963800  0.96681700  1
  N  N40  1  0.68208600  0.15036200  0.03318300  1
  N  N41  1  0.34963800  0.81791400  0.46681700  1
  N  N42  1  0.81791400  0.46681700  0.34963800  1
  N  N43  1  0.88307200  0.88307200  0.88307200  1
