# generated using pymatgen
data_Sr4MoN4O
_symmetry_space_group_name_H-M   'P 1'
_cell_length_a   14.90337800
_cell_length_b   9.02475300
_cell_length_c   10.80328427
_cell_angle_alpha   77.83660109
_cell_angle_beta   90.00000000
_cell_angle_gamma   90.00000000
_symmetry_Int_Tables_number   1
_chemical_formula_structural   Sr4MoN4O
_chemical_formula_sum   'Sr32 Mo8 N32 O8'
_cell_volume   1420.41461461
_cell_formula_units_Z   8
loop_
 _symmetry_equiv_pos_site_id
 _symmetry_equiv_pos_as_xyz
  1  'x, y, z'
loop_
 _atom_site_type_symbol
 _atom_site_label
 _atom_site_symmetry_multiplicity
 _atom_site_fract_x
 _atom_site_fract_y
 _atom_site_fract_z
 _atom_site_occupancy
  Sr  Sr0  1  0.63967600  0.26311100  0.60882400  1
  Sr  Sr1  1  0.13967600  0.73688900  0.39117600  1
  Sr  Sr2  1  0.36032400  0.73688900  0.39117600  1
  Sr  Sr3  1  0.86032400  0.26311100  0.60882400  1
  Sr  Sr4  1  0.37257100  0.90460800  0.77635900  1
  Sr  Sr5  1  0.87257100  0.09539200  0.22364100  1
  Sr  Sr6  1  0.62742900  0.09539200  0.22364100  1
  Sr  Sr7  1  0.12742900  0.90460800  0.77635900  1
  Sr  Sr8  1  0.36930500  0.51537700  0.01677800  1
  Sr  Sr9  1  0.86930500  0.48462300  0.98322200  1
  Sr  Sr10  1  0.63069500  0.48462300  0.98322200  1
  Sr  Sr11  1  0.13069500  0.51537700  0.01677800  1
  Sr  Sr12  1  0.50000000  0.00000000  0.50000000  1
  Sr  Sr13  1  0.00000000  0.00000000  0.50000000  1
  Sr  Sr14  1  0.49978500  0.79806700  0.10649500  1
  Sr  Sr15  1  0.99978500  0.20193300  0.89350500  1
  Sr  Sr16  1  0.50021500  0.20193300  0.89350500  1
  Sr  Sr17  1  0.00021500  0.79806700  0.10649500  1
  Sr  Sr18  1  0.75000000  0.76017600  0.12613500  1
  Sr  Sr19  1  0.25000000  0.23982400  0.87386500  1
  Sr  Sr20  1  0.75000000  0.59799100  0.69463600  1
  Sr  Sr21  1  0.89628200  0.67260300  0.43473600  1
  Sr  Sr22  1  0.60371800  0.67260300  0.43473600  1
  Sr  Sr23  1  0.10371800  0.32739700  0.56526400  1
  Sr  Sr24  1  0.62625400  0.88730300  0.80224100  1
  Sr  Sr25  1  0.12625400  0.11269700  0.19775900  1
  Sr  Sr26  1  0.37374600  0.11269700  0.19775900  1
  Sr  Sr27  1  0.87374600  0.88730300  0.80224100  1
  Sr  Sr28  1  0.25000000  0.59207200  0.68419700  1
  Sr  Sr29  1  0.75000000  0.40792800  0.31580300  1
  Sr  Sr30  1  0.25000000  0.40200900  0.30536400  1
  Sr  Sr31  1  0.39628200  0.32739700  0.56526400  1
  Mo  Mo32  1  0.75000000  0.93456400  0.48258600  1
  Mo  Mo33  1  0.25000000  0.06543600  0.51741400  1
  Mo  Mo34  1  0.51681700  0.42986100  0.25253300  1
  Mo  Mo35  1  0.01681700  0.57013900  0.74746700  1
  Mo  Mo36  1  0.48318300  0.57013900  0.74746700  1
  Mo  Mo37  1  0.98318300  0.42986100  0.25253300  1
  Mo  Mo38  1  0.25000000  0.89639300  0.03724200  1
  Mo  Mo39  1  0.75000000  0.10360700  0.96275800  1
  N  N40  1  0.85484700  0.98572800  0.01912300  1
  N  N41  1  0.75000000  0.85495300  0.33441600  1
  N  N42  1  0.75000000  0.13111400  0.78668600  1
  N  N43  1  0.25000000  0.86888600  0.21331400  1
  N  N44  1  0.08757600  0.54784800  0.24863300  1
  N  N45  1  0.58757600  0.45215200  0.75136700  1
  N  N46  1  0.91242400  0.45215200  0.75136700  1
  N  N47  1  0.41242400  0.54784800  0.24863300  1
  N  N48  1  0.25000000  0.85342900  0.56822600  1
  N  N49  1  0.75000000  0.14657100  0.43177400  1
  N  N50  1  0.35101600  0.14561200  0.42322500  1
  N  N51  1  0.85101600  0.85438800  0.57677500  1
  N  N52  1  0.64898400  0.85438800  0.57677500  1
  N  N53  1  0.14898400  0.14561200  0.42322500  1
  N  N54  1  0.25000000  0.73493900  0.94764300  1
  N  N55  1  0.75000000  0.26506100  0.05235700  1
  N  N56  1  0.64515300  0.98572800  0.01912300  1
  N  N57  1  0.14515300  0.01427200  0.98087700  1
  N  N58  1  0.35484700  0.01427200  0.98087700  1
  N  N59  1  0.00684500  0.68693400  0.87588700  1
  N  N60  1  0.38773200  0.42699700  0.80042200  1
  N  N61  1  0.88773200  0.57300300  0.19957800  1
  N  N62  1  0.61226800  0.57300300  0.19957800  1
  N  N63  1  0.11226800  0.42699700  0.80042200  1
  N  N64  1  0.54367500  0.31325100  0.41167300  1
  N  N65  1  0.04367500  0.68674900  0.58832700  1
  N  N66  1  0.45632500  0.68674900  0.58832700  1
  N  N67  1  0.95632500  0.31325100  0.41167300  1
  N  N68  1  0.49315500  0.68693400  0.87588700  1
  N  N69  1  0.99315500  0.31306600  0.12411300  1
  N  N70  1  0.50684500  0.31306600  0.12411300  1
  N  N71  1  0.25000000  0.14504700  0.66558400  1
  O  O72  1  0.99745500  0.08799000  0.70766700  1
  O  O73  1  0.49745500  0.91201000  0.29233300  1
  O  O74  1  0.00254500  0.91201000  0.29233300  1
  O  O75  1  0.50254500  0.08799000  0.70766700  1
  O  O76  1  0.75000000  0.48333000  0.51304700  1
  O  O77  1  0.25000000  0.51667000  0.48695300  1
  O  O78  1  0.25000000  0.31843700  0.09730900  1
  O  O79  1  0.75000000  0.68156300  0.90269100  1
