# generated using pymatgen
data_Ba5Fe4S11
_symmetry_space_group_name_H-M   'P 1'
_cell_length_a   7.30486300
_cell_length_b   8.79706200
_cell_length_c   15.96531000
_cell_angle_alpha   90.00000000
_cell_angle_beta   90.00000000
_cell_angle_gamma   90.00000000
_symmetry_Int_Tables_number   1
_chemical_formula_structural   Ba5Fe4S11
_chemical_formula_sum   'Ba10 Fe8 S22'
_cell_volume   1025.95209777
_cell_formula_units_Z   2
loop_
 _symmetry_equiv_pos_site_id
 _symmetry_equiv_pos_as_xyz
  1  'x, y, z'
loop_
 _atom_site_type_symbol
 _atom_site_label
 _atom_site_symmetry_multiplicity
 _atom_site_fract_x
 _atom_site_fract_y
 _atom_site_fract_z
 _atom_site_occupancy
  Ba  Ba0  1  0.02538900  0.25152300  0.50000000  1
  Ba  Ba1  1  0.02149000  0.37024600  0.80319400  1
  Ba  Ba2  1  0.97851000  0.87024600  0.69680600  1
  Ba  Ba3  1  0.02149000  0.37024600  0.19680600  1
  Ba  Ba4  1  0.53115700  0.49044100  0.67262700  1
  Ba  Ba5  1  0.97461100  0.75152300  0.00000000  1
  Ba  Ba6  1  0.53115700  0.49044100  0.32737300  1
  Ba  Ba7  1  0.97851000  0.87024600  0.30319400  1
  Ba  Ba8  1  0.46884300  0.99044100  0.17262700  1
  Ba  Ba9  1  0.46884300  0.99044100  0.82737300  1
  Fe  Fe10  1  0.05416300  0.63724500  0.50000000  1
  Fe  Fe11  1  0.94583700  0.13724500  0.00000000  1
  Fe  Fe12  1  0.48212600  0.59618700  0.11202900  1
  Fe  Fe13  1  0.51787400  0.09618700  0.38797100  1
  Fe  Fe14  1  0.51787400  0.09618700  0.61202900  1
  Fe  Fe15  1  0.62294100  0.30318000  0.00000000  1
  Fe  Fe16  1  0.37705900  0.80318000  0.50000000  1
  Fe  Fe17  1  0.48212600  0.59618700  0.88797100  1
  S  S18  1  0.74341200  0.16681900  0.69649800  1
  S  S19  1  0.05891400  0.04153800  0.11839200  1
  S  S20  1  0.58224300  0.23966300  0.50000000  1
  S  S21  1  0.74341200  0.16681900  0.30350200  1
  S  S22  1  0.74217500  0.67671600  0.17083600  1
  S  S23  1  0.25658800  0.66681900  0.80350200  1
  S  S24  1  0.08976500  0.89162500  0.50000000  1
  S  S25  1  0.46848500  0.34146500  0.11822200  1
  S  S26  1  0.65487000  0.05684100  0.00000000  1
  S  S27  1  0.53151500  0.84146500  0.61822200  1
  S  S28  1  0.94108600  0.54153800  0.38160800  1
  S  S29  1  0.25782500  0.17671600  0.32916400  1
  S  S30  1  0.25782500  0.17671600  0.67083600  1
  S  S31  1  0.34513000  0.55684100  0.50000000  1
  S  S32  1  0.91023500  0.39162500  0.00000000  1
  S  S33  1  0.25658800  0.66681900  0.19649800  1
  S  S34  1  0.74217500  0.67671600  0.82916400  1
  S  S35  1  0.94108600  0.54153800  0.61839200  1
  S  S36  1  0.05891400  0.04153800  0.88160800  1
  S  S37  1  0.53151500  0.84146500  0.38177800  1
  S  S38  1  0.41775700  0.73966300  0.00000000  1
  S  S39  1  0.46848500  0.34146500  0.88177800  1
