# generated using pymatgen
data_Ce5NiGe2
_symmetry_space_group_name_H-M   'P 1'
_cell_length_a   11.44441900
_cell_length_b   11.44441900
_cell_length_c   6.11573100
_cell_angle_alpha   90.00000000
_cell_angle_beta   90.00000000
_cell_angle_gamma   90.00000000
_symmetry_Int_Tables_number   1
_chemical_formula_structural   Ce5NiGe2
_chemical_formula_sum   'Ce20 Ni4 Ge8'
_cell_volume   801.00619353
_cell_formula_units_Z   4
loop_
 _symmetry_equiv_pos_site_id
 _symmetry_equiv_pos_as_xyz
  1  'x, y, z'
loop_
 _atom_site_type_symbol
 _atom_site_label
 _atom_site_symmetry_multiplicity
 _atom_site_fract_x
 _atom_site_fract_y
 _atom_site_fract_z
 _atom_site_occupancy
  Ce  Ce0  1  0.57956800  0.21164400  0.17035800  1
  Ce  Ce1  1  0.28835600  0.07956800  0.17035800  1
  Ce  Ce2  1  0.57956800  0.78835600  0.67035800  1
  Ce  Ce3  1  0.42043200  0.78835600  0.17035800  1
  Ce  Ce4  1  0.92043200  0.28835600  0.82964200  1
  Ce  Ce5  1  0.21164400  0.42043200  0.82964200  1
  Ce  Ce6  1  0.07956800  0.71164400  0.82964200  1
  Ce  Ce7  1  0.21164400  0.57956800  0.32964200  1
  Ce  Ce8  1  0.00000000  0.00000000  0.50000000  1
  Ce  Ce9  1  0.71164400  0.07956800  0.67035800  1
  Ce  Ce10  1  0.50000000  0.50000000  0.50000000  1
  Ce  Ce11  1  0.71164400  0.92043200  0.17035800  1
  Ce  Ce12  1  0.28835600  0.92043200  0.67035800  1
  Ce  Ce13  1  0.07956800  0.28835600  0.32964200  1
  Ce  Ce14  1  0.78835600  0.42043200  0.32964200  1
  Ce  Ce15  1  0.78835600  0.57956800  0.82964200  1
  Ce  Ce16  1  0.42043200  0.21164400  0.67035800  1
  Ce  Ce17  1  0.50000000  0.50000000  0.00000000  1
  Ce  Ce18  1  0.92043200  0.71164400  0.32964200  1
  Ce  Ce19  1  0.00000000  0.00000000  0.00000000  1
  Ni  Ni20  1  0.50000000  0.00000000  0.92954700  1
  Ni  Ni21  1  0.00000000  0.50000000  0.57045300  1
  Ni  Ni22  1  0.50000000  0.00000000  0.42954700  1
  Ni  Ni23  1  0.00000000  0.50000000  0.07045300  1
  Ge  Ge24  1  0.16311200  0.83688800  0.25000000  1
  Ge  Ge25  1  0.16311200  0.16311200  0.75000000  1
  Ge  Ge26  1  0.33688800  0.66311200  0.75000000  1
  Ge  Ge27  1  0.33688800  0.33688800  0.25000000  1
  Ge  Ge28  1  0.66311200  0.33688800  0.75000000  1
  Ge  Ge29  1  0.83688800  0.83688800  0.75000000  1
  Ge  Ge30  1  0.83688800  0.16311200  0.25000000  1
  Ge  Ge31  1  0.66311200  0.66311200  0.25000000  1
