# generated using pymatgen
data_C2SN2
_symmetry_space_group_name_H-M   'P 1'
_cell_length_a   6.87893200
_cell_length_b   8.56379200
_cell_length_c   12.86157700
_cell_angle_alpha   90.00000000
_cell_angle_beta   90.00000000
_cell_angle_gamma   90.00000000
_symmetry_Int_Tables_number   1
_chemical_formula_structural   C2SN2
_chemical_formula_sum   'C16 S8 N16'
_cell_volume   757.67219346
_cell_formula_units_Z   8
loop_
 _symmetry_equiv_pos_site_id
 _symmetry_equiv_pos_as_xyz
  1  'x, y, z'
loop_
 _atom_site_type_symbol
 _atom_site_label
 _atom_site_symmetry_multiplicity
 _atom_site_fract_x
 _atom_site_fract_y
 _atom_site_fract_z
 _atom_site_occupancy
  C  C0  1  0.61709300  0.59853300  0.39056800  1
  C  C1  1  0.88290700  0.59853300  0.89056800  1
  C  C2  1  0.61709300  0.09853300  0.10943200  1
  C  C3  1  0.74171200  0.82522500  0.13644700  1
  C  C4  1  0.25828800  0.17477500  0.86355300  1
  C  C5  1  0.25828800  0.67477500  0.63644700  1
  C  C6  1  0.38290700  0.40146700  0.60943200  1
  C  C7  1  0.24171200  0.17477500  0.36355300  1
  C  C8  1  0.75828800  0.32522500  0.86355300  1
  C  C9  1  0.24171200  0.67477500  0.13644700  1
  C  C10  1  0.38290700  0.90146700  0.89056800  1
  C  C11  1  0.88290700  0.09853300  0.60943200  1
  C  C12  1  0.74171200  0.32522500  0.36355300  1
  C  C13  1  0.11709300  0.40146700  0.10943200  1
  C  C14  1  0.11709300  0.90146700  0.39056800  1
  C  C15  1  0.75828800  0.82522500  0.63644700  1
  S  S16  1  0.16486600  0.99246800  0.87783100  1
  S  S17  1  0.66486600  0.50753200  0.87783100  1
  S  S18  1  0.16486600  0.49246800  0.62216900  1
  S  S19  1  0.33513400  0.99246800  0.37783100  1
  S  S20  1  0.83513400  0.00753200  0.12216900  1
  S  S21  1  0.83513400  0.50753200  0.37783100  1
  S  S22  1  0.33513400  0.49246800  0.12216900  1
  S  S23  1  0.66486600  0.00753200  0.62216900  1
  N  N24  1  0.32078800  0.80181200  0.64289600  1
  N  N25  1  0.47177000  0.66845400  0.39781600  1
  N  N26  1  0.17921200  0.80181200  0.14289600  1
  N  N27  1  0.67921200  0.69818800  0.14289600  1
  N  N28  1  0.47177000  0.16845400  0.10218400  1
  N  N29  1  0.52823000  0.83154600  0.89781600  1
  N  N30  1  0.82078800  0.19818800  0.85710400  1
  N  N31  1  0.82078800  0.69818800  0.64289600  1
  N  N32  1  0.02823000  0.16845400  0.60218400  1
  N  N33  1  0.97177000  0.83154600  0.39781600  1
  N  N34  1  0.97177000  0.33154600  0.10218400  1
  N  N35  1  0.52823000  0.33154600  0.60218400  1
  N  N36  1  0.02823000  0.66845400  0.89781600  1
  N  N37  1  0.67921200  0.19818800  0.35710400  1
  N  N38  1  0.32078800  0.30181200  0.85710400  1
  N  N39  1  0.17921200  0.30181200  0.35710400  1
