# generated using pymatgen
data_Mg2Ga
_symmetry_space_group_name_H-M   'P 1'
_cell_length_a   7.98406677
_cell_length_b   7.98406677
_cell_length_c   4.76013100
_cell_angle_alpha   90.00000000
_cell_angle_beta   90.00000000
_cell_angle_gamma   155.90431978
_symmetry_Int_Tables_number   1
_chemical_formula_structural   Mg2Ga
_chemical_formula_sum   'Mg4 Ga2'
_cell_volume   123.88131229
_cell_formula_units_Z   2
loop_
 _symmetry_equiv_pos_site_id
 _symmetry_equiv_pos_as_xyz
  1  'x, y, z'
loop_
 _atom_site_type_symbol
 _atom_site_label
 _atom_site_symmetry_multiplicity
 _atom_site_fract_x
 _atom_site_fract_y
 _atom_site_fract_z
 _atom_site_occupancy
  Mg  Mg0  1  0.00165800  0.99834100  0.00000000  1
  Mg  Mg1  1  0.32809300  0.67190700  0.00000000  1
  Mg  Mg2  1  0.66436100  0.33563900  0.00000000  1
  Mg  Mg3  1  0.44718100  0.55281900  0.50000000  1
  Ga  Ga4  1  0.11455600  0.88544400  0.50000000  1
  Ga  Ga5  1  0.77748300  0.22251700  0.50000000  1
