# generated using pymatgen
data_CaMn3O6
_symmetry_space_group_name_H-M   'P 1'
_cell_length_a   7.14075331
_cell_length_b   7.14075331
_cell_length_c   5.72914296
_cell_angle_alpha   88.41002853
_cell_angle_beta   88.41002853
_cell_angle_gamma   23.94008685
_symmetry_Int_Tables_number   1
_chemical_formula_structural   CaMn3O6
_chemical_formula_sum   'Ca1 Mn3 O6'
_cell_volume   118.49357959
_cell_formula_units_Z   1
loop_
 _symmetry_equiv_pos_site_id
 _symmetry_equiv_pos_as_xyz
  1  'x, y, z'
loop_
 _atom_site_type_symbol
 _atom_site_label
 _atom_site_symmetry_multiplicity
 _atom_site_fract_x
 _atom_site_fract_y
 _atom_site_fract_z
 _atom_site_occupancy
  Ca  Ca0  1  0.79883400  0.79883400  0.91760800  1
  Mn  Mn1  1  0.01938000  0.01938000  0.05588600  1
  Mn  Mn2  1  0.33929600  0.33929600  0.42480600  1
  Mn  Mn3  1  0.64238900  0.64238900  0.53623200  1
  O  O4  1  0.58749300  0.58749300  0.90516900  1
  O  O5  1  0.41904700  0.41904700  0.12189300  1
  O  O6  1  0.08339800  0.08339800  0.38146300  1
  O  O7  1  0.89641000  0.89641000  0.58465200  1
  O  O8  1  0.23180400  0.23180400  0.66576500  1
  O  O9  1  0.76726300  0.76726300  0.29286700  1
