# generated using pymatgen
data_MgGa2
_symmetry_space_group_name_H-M   'P 1'
_cell_length_a   5.60221129
_cell_length_b   5.60221129
_cell_length_c   7.10415043
_cell_angle_alpha   72.85676146
_cell_angle_beta   72.85676146
_cell_angle_gamma   33.30612565
_symmetry_Int_Tables_number   1
_chemical_formula_structural   MgGa2
_chemical_formula_sum   'Mg2 Ga4'
_cell_volume   116.49263476
_cell_formula_units_Z   2
loop_
 _symmetry_equiv_pos_site_id
 _symmetry_equiv_pos_as_xyz
  1  'x, y, z'
loop_
 _atom_site_type_symbol
 _atom_site_label
 _atom_site_symmetry_multiplicity
 _atom_site_fract_x
 _atom_site_fract_y
 _atom_site_fract_z
 _atom_site_occupancy
  Mg  Mg0  1  0.52679400  0.52679400  0.20744700  1
  Mg  Mg1  1  0.47320600  0.47320600  0.79255300  1
  Ga  Ga2  1  0.80720000  0.80720000  0.14135900  1
  Ga  Ga3  1  0.14569400  0.14569400  0.46713000  1
  Ga  Ga4  1  0.85430600  0.85430600  0.53287000  1
  Ga  Ga5  1  0.19280000  0.19280000  0.85864100  1
