# generated using pymatgen
data_BiOs2(CO)6
_symmetry_space_group_name_H-M   'P 1'
_cell_length_a   9.33283725
_cell_length_b   9.33283725
_cell_length_c   12.51701440
_cell_angle_alpha   86.40526850
_cell_angle_beta   86.40526850
_cell_angle_gamma   86.62827801
_symmetry_Int_Tables_number   1
_chemical_formula_structural   BiOs2(CO)6
_chemical_formula_sum   'Bi4 Os8 C24 O24'
_cell_volume   1084.31947861
_cell_formula_units_Z   4
loop_
 _symmetry_equiv_pos_site_id
 _symmetry_equiv_pos_as_xyz
  1  'x, y, z'
loop_
 _atom_site_type_symbol
 _atom_site_label
 _atom_site_symmetry_multiplicity
 _atom_site_fract_x
 _atom_site_fract_y
 _atom_site_fract_z
 _atom_site_occupancy
  Bi  Bi0  1  0.79732800  0.98252300  0.28951900  1
  Bi  Bi1  1  0.98252300  0.79732800  0.78951900  1
  Bi  Bi2  1  0.20267200  0.01747700  0.71048100  1
  Bi  Bi3  1  0.01747700  0.20267200  0.21048100  1
  Os  Os4  1  0.76380900  0.17046500  0.08981300  1
  Os  Os5  1  0.57685300  0.21077500  0.28243800  1
  Os  Os6  1  0.78922500  0.42314700  0.21756200  1
  Os  Os7  1  0.23619100  0.82953500  0.91018700  1
  Os  Os8  1  0.17046500  0.76380900  0.58981300  1
  Os  Os9  1  0.21077500  0.57685300  0.78243800  1
  Os  Os10  1  0.42314700  0.78922500  0.71756200  1
  Os  Os11  1  0.82953500  0.23619100  0.41018700  1
  C  C12  1  0.56284900  0.64274000  0.76068100  1
  C  C13  1  0.98939800  0.71835800  0.54612500  1
  C  C14  1  0.60952800  0.27792100  0.02298200  1
  C  C15  1  0.81153000  0.50549900  0.07541600  1
  C  C16  1  0.50549900  0.81153000  0.57541600  1
  C  C17  1  0.64274000  0.56284900  0.26068100  1
  C  C18  1  0.47426800  0.06284900  0.22978600  1
  C  C19  1  0.52573200  0.93715100  0.77021400  1
  C  C20  1  0.72207900  0.39047200  0.47701800  1
  C  C21  1  0.43715000  0.35726000  0.23931900  1
  C  C22  1  0.18847000  0.49450100  0.92458400  1
  C  C23  1  0.27792100  0.60952800  0.52298200  1
  C  C24  1  0.39047200  0.72207900  0.97701800  1
  C  C25  1  0.28164200  0.01060200  0.95387500  1
  C  C26  1  0.06284900  0.47426800  0.72978600  1
  C  C27  1  0.71835800  0.98939800  0.04612500  1
  C  C28  1  0.19806500  0.89726900  0.47098800  1
  C  C29  1  0.89726900  0.19806500  0.97098800  1
  C  C30  1  0.49450100  0.18847000  0.42458400  1
  C  C31  1  0.80193500  0.10273100  0.52901200  1
  C  C32  1  0.10273100  0.80193500  0.02901200  1
  C  C33  1  0.93715100  0.52573200  0.27021400  1
  C  C34  1  0.01060200  0.28164200  0.45387500  1
  C  C35  1  0.35726000  0.43715100  0.73931900  1
  O  O36  1  0.40993300  0.97355700  0.19697900  1
  O  O37  1  0.02644300  0.59006700  0.30302100  1
  O  O38  1  0.83237600  0.56036200  0.98996900  1
  O  O39  1  0.59006700  0.02644300  0.80302100  1
  O  O40  1  0.34180900  0.51992500  0.47676500  1
  O  O41  1  0.43963800  0.16762400  0.51003100  1
  O  O42  1  0.56036200  0.83237600  0.48996900  1
  O  O43  1  0.69029400  0.87829100  0.01808500  1
  O  O44  1  0.97355700  0.40993300  0.69697900  1
  O  O45  1  0.30970600  0.12170900  0.98191500  1
  O  O46  1  0.16762400  0.43963800  0.01003100  1
  O  O47  1  0.34203100  0.43748700  0.21668400  1
  O  O48  1  0.02534300  0.78478600  0.10526300  1
  O  O49  1  0.97465700  0.21521400  0.89473700  1
  O  O50  1  0.21521400  0.97465700  0.39473700  1
  O  O51  1  0.87829100  0.69029400  0.51808500  1
  O  O52  1  0.65796900  0.56251300  0.78331600  1
  O  O53  1  0.78478600  0.02534300  0.60526300  1
  O  O54  1  0.65819100  0.48007500  0.52323500  1
  O  O55  1  0.56251300  0.65796900  0.28331600  1
  O  O56  1  0.12170900  0.30970600  0.48191500  1
  O  O57  1  0.48007500  0.65819100  0.02323500  1
  O  O58  1  0.51992500  0.34180900  0.97676500  1
  O  O59  1  0.43748700  0.34203100  0.71668400  1
