# generated using pymatgen
data_K2Zn(CN)4
_symmetry_space_group_name_H-M   'P 1'
_cell_length_a   15.37969310
_cell_length_b   15.37969310
_cell_length_c   15.37969347
_cell_angle_alpha   32.44401191
_cell_angle_beta   32.44401191
_cell_angle_gamma   32.44401421
_symmetry_Int_Tables_number   1
_chemical_formula_structural   K2Zn(CN)4
_chemical_formula_sum   'K8 Zn4 C16 N16'
_cell_volume   930.89838015
_cell_formula_units_Z   4
loop_
 _symmetry_equiv_pos_site_id
 _symmetry_equiv_pos_as_xyz
  1  'x, y, z'
loop_
 _atom_site_type_symbol
 _atom_site_label
 _atom_site_symmetry_multiplicity
 _atom_site_fract_x
 _atom_site_fract_y
 _atom_site_fract_z
 _atom_site_occupancy
  K  K0  1  0.75000000  0.33237900  0.16762100  1
  K  K1  1  0.83237900  0.25000000  0.66762100  1
  K  K2  1  0.50000000  0.50000000  0.50000000  1
  K  K3  1  0.66762100  0.83237900  0.25000000  1
  K  K4  1  0.33237900  0.16762100  0.75000000  1
  K  K5  1  0.00000000  0.00000000  0.00000000  1
  K  K6  1  0.25000000  0.66762100  0.83237900  1
  K  K7  1  0.16762100  0.75000000  0.33237900  1
  Zn  Zn8  1  0.18509900  0.18509900  0.18509900  1
  Zn  Zn9  1  0.68509900  0.68509900  0.68509900  1
  Zn  Zn10  1  0.31490100  0.31490100  0.31490100  1
  Zn  Zn11  1  0.81490100  0.81490100  0.81490100  1
  C  C12  1  0.54711700  0.22607700  0.12327700  1
  C  C13  1  0.22607700  0.12327700  0.54711700  1
  C  C14  1  0.13898800  0.13898800  0.13898800  1
  C  C15  1  0.27392300  0.95288300  0.37672300  1
  C  C16  1  0.87672300  0.45288300  0.77392300  1
  C  C17  1  0.63898800  0.63898800  0.63898800  1
  C  C18  1  0.12327700  0.54711700  0.22607700  1
  C  C19  1  0.95288300  0.37672300  0.27392300  1
  C  C20  1  0.36101200  0.36101200  0.36101200  1
  C  C21  1  0.45288300  0.77392300  0.87672300  1
  C  C22  1  0.37672300  0.27392300  0.95288300  1
  C  C23  1  0.04711700  0.62327700  0.72607700  1
  C  C24  1  0.77392300  0.87672300  0.45288300  1
  C  C25  1  0.86101200  0.86101200  0.86101200  1
  C  C26  1  0.72607700  0.04711700  0.62327700  1
  C  C27  1  0.62327700  0.72607700  0.04711700  1
  N  N28  1  0.31646900  0.82973100  0.98438100  1
  N  N29  1  0.17026900  0.01561900  0.68353100  1
  N  N30  1  0.67026900  0.18353100  0.51561900  1
  N  N31  1  0.32973100  0.81646900  0.48438100  1
  N  N32  1  0.01561900  0.68353100  0.17026900  1
  N  N33  1  0.88782200  0.88782200  0.88782200  1
  N  N34  1  0.82973100  0.98438100  0.31646900  1
  N  N35  1  0.38782200  0.38782200  0.38782200  1
  N  N36  1  0.61217800  0.61217800  0.61217800  1
  N  N37  1  0.51561900  0.67026900  0.18353100  1
  N  N38  1  0.68353100  0.17026900  0.01561900  1
  N  N39  1  0.48438100  0.32973100  0.81646900  1
  N  N40  1  0.98438100  0.31646900  0.82973100  1
  N  N41  1  0.81646900  0.48438100  0.32973100  1
  N  N42  1  0.11217800  0.11217800  0.11217800  1
  N  N43  1  0.18353100  0.51561900  0.67026900  1
