# generated using pymatgen
data_FeSNO
_symmetry_space_group_name_H-M   'P 1'
_cell_length_a   10.43503900
_cell_length_b   11.21700400
_cell_length_c   15.29255335
_cell_angle_alpha   58.19865375
_cell_angle_beta   90.00000000
_cell_angle_gamma   90.00000000
_symmetry_Int_Tables_number   1
_chemical_formula_structural   FeSNO
_chemical_formula_sum   'Fe16 S16 N16 O16'
_cell_volume   1521.27848704
_cell_formula_units_Z   16
loop_
 _symmetry_equiv_pos_site_id
 _symmetry_equiv_pos_as_xyz
  1  'x, y, z'
loop_
 _atom_site_type_symbol
 _atom_site_label
 _atom_site_symmetry_multiplicity
 _atom_site_fract_x
 _atom_site_fract_y
 _atom_site_fract_z
 _atom_site_occupancy
  Fe  Fe0  1  0.08605400  0.21605500  0.54418600  1
  Fe  Fe1  1  0.65096700  0.75266200  0.38578200  1
  Fe  Fe2  1  0.81983700  0.72877100  0.09154800  1
  Fe  Fe3  1  0.68016300  0.72877100  0.59154800  1
  Fe  Fe4  1  0.91394600  0.78394500  0.45581400  1
  Fe  Fe5  1  0.21244400  0.98961500  0.10650600  1
  Fe  Fe6  1  0.84903300  0.75266200  0.88578200  1
  Fe  Fe7  1  0.58605400  0.78394500  0.95581400  1
  Fe  Fe8  1  0.41394600  0.21605500  0.04418600  1
  Fe  Fe9  1  0.71244400  0.01038500  0.39349400  1
  Fe  Fe10  1  0.15096700  0.24733800  0.11421800  1
  Fe  Fe11  1  0.18016300  0.27122900  0.90845200  1
  Fe  Fe12  1  0.34903300  0.24733800  0.61421800  1
  Fe  Fe13  1  0.31983700  0.27122900  0.40845200  1
  Fe  Fe14  1  0.78755600  0.01038500  0.89349400  1
  Fe  Fe15  1  0.28755600  0.98961500  0.60650600  1
  S  S16  1  0.22841500  0.41160700  0.46704600  1
  S  S17  1  0.30956600  0.07336200  0.20567300  1
  S  S18  1  0.65484500  0.89782200  0.04243300  1
  S  S19  1  0.27158500  0.41160700  0.96704600  1
  S  S20  1  0.15484500  0.10217800  0.45756700  1
  S  S21  1  0.03040500  0.13897300  0.04285300  1
  S  S22  1  0.72841500  0.58839300  0.03295400  1
  S  S23  1  0.96959500  0.86102700  0.95714700  1
  S  S24  1  0.80956600  0.92663800  0.29432700  1
  S  S25  1  0.77158500  0.58839300  0.53295400  1
  S  S26  1  0.69043400  0.92663800  0.79432700  1
  S  S27  1  0.34515500  0.10217800  0.95756700  1
  S  S28  1  0.84515500  0.89782200  0.54243300  1
  S  S29  1  0.19043400  0.07336200  0.70567300  1
  S  S30  1  0.53040500  0.86102700  0.45714700  1
  S  S31  1  0.46959500  0.13897300  0.54285300  1
  N  N32  1  0.41730300  0.75605000  0.95552600  1
  N  N33  1  0.69797600  0.19643800  0.33380000  1
  N  N34  1  0.62703800  0.63377500  0.72231500  1
  N  N35  1  0.87296200  0.63377500  0.22231500  1
  N  N36  1  0.56078100  0.68223200  0.32371500  1
  N  N37  1  0.93921900  0.68223200  0.82371500  1
  N  N38  1  0.30202400  0.80356200  0.66620000  1
  N  N39  1  0.19797600  0.80356200  0.16620000  1
  N  N40  1  0.80202400  0.19643800  0.83380000  1
  N  N41  1  0.91730300  0.24395000  0.54447400  1
  N  N42  1  0.43921900  0.31776800  0.67628500  1
  N  N43  1  0.12703800  0.36622500  0.77768500  1
  N  N44  1  0.08269700  0.75605000  0.45552600  1
  N  N45  1  0.06078100  0.31776800  0.17628500  1
  N  N46  1  0.58269700  0.24395000  0.04447400  1
  N  N47  1  0.37296200  0.36622500  0.27768500  1
  O  O48  1  0.19403200  0.68182800  0.19971700  1
  O  O49  1  0.90771700  0.56845200  0.30883100  1
  O  O50  1  0.99840800  0.63160900  0.78571900  1
  O  O51  1  0.69403200  0.31817200  0.30028300  1
  O  O52  1  0.50159200  0.63160900  0.28571900  1
  O  O53  1  0.69458400  0.25846400  0.04498900  1
  O  O54  1  0.30596800  0.68182800  0.69971700  1
  O  O55  1  0.80596800  0.31817200  0.80028300  1
  O  O56  1  0.40771700  0.43154800  0.19116900  1
  O  O57  1  0.59228300  0.56845200  0.80883100  1
  O  O58  1  0.19458400  0.74153600  0.45501100  1
  O  O59  1  0.30541600  0.74153600  0.95501100  1
  O  O60  1  0.80541600  0.25846400  0.54498900  1
  O  O61  1  0.49840800  0.36839100  0.71428100  1
  O  O62  1  0.00159200  0.36839100  0.21428100  1
  O  O63  1  0.09228300  0.43154800  0.69116900  1
