# generated using pymatgen
data_CdI2
_symmetry_space_group_name_H-M   'P 1'
_cell_length_a   4.34502249
_cell_length_b   4.34502249
_cell_length_c   73.61374600
_cell_angle_alpha   90.00000000
_cell_angle_beta   90.00000000
_cell_angle_gamma   120.00000749
_symmetry_Int_Tables_number   1
_chemical_formula_structural   CdI2
_chemical_formula_sum   'Cd10 I20'
_cell_volume   1203.57615518
_cell_formula_units_Z   10
loop_
 _symmetry_equiv_pos_site_id
 _symmetry_equiv_pos_as_xyz
  1  'x, y, z'
loop_
 _atom_site_type_symbol
 _atom_site_label
 _atom_site_symmetry_multiplicity
 _atom_site_fract_x
 _atom_site_fract_y
 _atom_site_fract_z
 _atom_site_occupancy
  Cd  Cd0  1  0.33333300  0.66666700  0.62498700  1
  Cd  Cd1  1  0.66666700  0.33333300  0.22499800  1
  Cd  Cd2  1  0.00000000  0.00000000  0.92498700  1
  Cd  Cd3  1  0.00000000  0.00000000  0.82500100  1
  Cd  Cd4  1  0.66666700  0.33333300  0.72500000  1
  Cd  Cd5  1  0.66666700  0.33333300  0.02499600  1
  Cd  Cd6  1  0.00000000  0.00000000  0.32499900  1
  Cd  Cd7  1  0.00000000  0.00000000  0.12499300  1
  Cd  Cd8  1  0.66666700  0.33333300  0.42500400  1
  Cd  Cd9  1  0.33333300  0.66666700  0.52500200  1
  I  I10  1  0.66666700  0.33333300  0.64850000  1
  I  I11  1  0.33333300  0.66666700  0.44853000  1
  I  I12  1  0.33333300  0.66666700  0.94850800  1
  I  I13  1  0.66666700  0.33333300  0.10147000  1
  I  I14  1  0.66666700  0.33333300  0.90146200  1
  I  I15  1  0.33333300  0.66666700  0.34852500  1
  I  I16  1  0.00000000  0.00000000  0.60147300  1
  I  I17  1  0.00000000  0.00000000  0.20149300  1
  I  I18  1  0.00000000  0.00000000  0.40149000  1
  I  I19  1  0.66666700  0.33333300  0.80147700  1
  I  I20  1  0.33333300  0.66666700  0.04852300  1
  I  I21  1  0.66666700  0.33333300  0.30147900  1
  I  I22  1  0.33333300  0.66666700  0.14852100  1
  I  I23  1  0.33333300  0.66666700  0.24852500  1
  I  I24  1  0.00000000  0.00000000  0.00149000  1
  I  I25  1  0.00000000  0.00000000  0.70149600  1
  I  I26  1  0.33333300  0.66666700  0.84852600  1
  I  I27  1  0.66666700  0.33333300  0.54852600  1
  I  I28  1  0.33333300  0.66666700  0.74852500  1
  I  I29  1  0.00000000  0.00000000  0.50149300  1
