# generated using pymatgen
data_Ge3Rh5
_symmetry_space_group_name_H-M   'P 1'
_cell_length_a   4.04134500
_cell_length_b   5.49922200
_cell_length_c   10.49367700
_cell_angle_alpha   90.00000000
_cell_angle_beta   90.00000000
_cell_angle_gamma   90.00000000
_symmetry_Int_Tables_number   1
_chemical_formula_structural   Ge3Rh5
_chemical_formula_sum   'Ge6 Rh10'
_cell_volume   233.21413605
_cell_formula_units_Z   2
loop_
 _symmetry_equiv_pos_site_id
 _symmetry_equiv_pos_as_xyz
  1  'x, y, z'
loop_
 _atom_site_type_symbol
 _atom_site_label
 _atom_site_symmetry_multiplicity
 _atom_site_fract_x
 _atom_site_fract_y
 _atom_site_fract_z
 _atom_site_occupancy
  Ge  Ge0  1  0.50000000  0.89200800  0.34862700  1
  Ge  Ge1  1  0.00000000  0.50000000  0.50000000  1
  Ge  Ge2  1  0.50000000  0.39200800  0.15137300  1
  Ge  Ge3  1  0.50000000  0.10799200  0.65137300  1
  Ge  Ge4  1  0.50000000  0.60799200  0.84862700  1
  Ge  Ge5  1  0.00000000  0.00000000  0.00000000  1
  Rh  Rh6  1  0.00000000  0.34980600  0.71779100  1
  Rh  Rh7  1  0.00000000  0.15019400  0.21779100  1
  Rh  Rh8  1  0.00000000  0.84980600  0.78220900  1
  Rh  Rh9  1  0.50000000  0.82881000  0.10670100  1
  Rh  Rh10  1  0.50000000  0.17119000  0.89329900  1
  Rh  Rh11  1  0.50000000  0.67119000  0.60670100  1
  Rh  Rh12  1  0.00000000  0.00000000  0.50000000  1
  Rh  Rh13  1  0.50000000  0.32881000  0.39329900  1
  Rh  Rh14  1  0.00000000  0.50000000  0.00000000  1
  Rh  Rh15  1  0.00000000  0.65019400  0.28220900  1
