# generated using pymatgen
data_V3O7
_symmetry_space_group_name_H-M   'P 1'
_cell_length_a   11.41840058
_cell_length_b   11.41840058
_cell_length_c   18.66971198
_cell_angle_alpha   84.84451408
_cell_angle_beta   84.84451408
_cell_angle_gamma   18.58328010
_symmetry_Int_Tables_number   1
_chemical_formula_structural   V3O7
_chemical_formula_sum   'V18 O42'
_cell_volume   772.50067368
_cell_formula_units_Z   6
loop_
 _symmetry_equiv_pos_site_id
 _symmetry_equiv_pos_as_xyz
  1  'x, y, z'
loop_
 _atom_site_type_symbol
 _atom_site_label
 _atom_site_symmetry_multiplicity
 _atom_site_fract_x
 _atom_site_fract_y
 _atom_site_fract_z
 _atom_site_occupancy
  V  V0  1  0.22081000  0.71738900  0.44497100  1
  V  V1  1  0.77919000  0.28261100  0.55502900  1
  V  V2  1  0.98672700  0.40255900  0.55957300  1
  V  V3  1  0.28261100  0.77919000  0.05502900  1
  V  V4  1  0.91007300  0.41231100  0.74611800  1
  V  V5  1  0.41231100  0.91007300  0.24611800  1
  V  V6  1  0.78547100  0.21452900  0.75000000  1
  V  V7  1  0.92314000  0.41884900  0.37469400  1
  V  V8  1  0.40255900  0.98672700  0.05957300  1
  V  V9  1  0.58768900  0.08992700  0.75388200  1
  V  V10  1  0.41884900  0.92314000  0.87469400  1
  V  V11  1  0.71738900  0.22081000  0.94497100  1
  V  V12  1  0.08992700  0.58768900  0.25388200  1
  V  V13  1  0.01327300  0.59744100  0.44042700  1
  V  V14  1  0.59744100  0.01327300  0.94042700  1
  V  V15  1  0.07686000  0.58115100  0.62530600  1
  V  V16  1  0.21452900  0.78547100  0.25000000  1
  V  V17  1  0.58115100  0.07686000  0.12530600  1
  O  O18  1  0.14005200  0.64884900  0.43804800  1
  O  O19  1  0.25019900  0.75416000  0.35949100  1
  O  O20  1  0.07663900  0.57650400  0.73216300  1
  O  O21  1  0.96259900  0.46458000  0.45092500  1
  O  O22  1  0.45143400  0.95389900  0.16515400  1
  O  O23  1  0.43654200  0.93222300  0.34506600  1
  O  O24  1  0.03740100  0.53542000  0.54907500  1
  O  O25  1  0.06777700  0.56345800  0.15493400  1
  O  O26  1  0.16240900  0.65874400  0.26595900  1
  O  O27  1  0.04610100  0.54856600  0.33484600  1
  O  O28  1  0.74090600  0.25909400  0.25000000  1
  O  O29  1  0.07377400  0.53645200  0.94136800  1
  O  O30  1  0.42349600  0.92336100  0.76783700  1
  O  O31  1  0.85994800  0.35115100  0.56195200  1
  O  O32  1  0.64884900  0.14005200  0.93804800  1
  O  O33  1  0.14652000  0.64801200  0.59420600  1
  O  O34  1  0.85348000  0.35198800  0.40579400  1
  O  O35  1  0.46354800  0.92622600  0.55863200  1
  O  O36  1  0.65874400  0.16240900  0.76595900  1
  O  O37  1  0.57650400  0.07663900  0.23216300  1
  O  O38  1  0.25909400  0.74090600  0.75000000  1
  O  O39  1  0.75416000  0.25019900  0.85949100  1
  O  O40  1  0.27351900  0.77124700  0.52524600  1
  O  O41  1  0.74980100  0.24584000  0.64050900  1
  O  O42  1  0.93222300  0.43654200  0.84506600  1
  O  O43  1  0.46458000  0.96259900  0.95092500  1
  O  O44  1  0.54856600  0.04610100  0.83484600  1
  O  O45  1  0.56345800  0.06777700  0.65493400  1
  O  O46  1  0.34125600  0.83759100  0.23404100  1
  O  O47  1  0.35198800  0.85348000  0.90579400  1
  O  O48  1  0.77124700  0.27351900  0.02524600  1
  O  O49  1  0.92336100  0.42349600  0.26783700  1
  O  O50  1  0.53542000  0.03740100  0.04907500  1
  O  O51  1  0.53645200  0.07377400  0.44136800  1
  O  O52  1  0.72648100  0.22875300  0.47475400  1
  O  O53  1  0.35115100  0.85994800  0.06195200  1
  O  O54  1  0.22875300  0.72648100  0.97475400  1
  O  O55  1  0.92622600  0.46354800  0.05863200  1
  O  O56  1  0.24584000  0.74980100  0.14050900  1
  O  O57  1  0.64801200  0.14652000  0.09420600  1
  O  O58  1  0.95389900  0.45143400  0.66515400  1
  O  O59  1  0.83759100  0.34125600  0.73404100  1
