# generated using pymatgen
data_Re3(TeBr)7
_symmetry_space_group_name_H-M   'P 1'
_cell_length_a   13.32806873
_cell_length_b   13.32806873
_cell_length_c   13.32806866
_cell_angle_alpha   46.94157305
_cell_angle_beta   46.94157305
_cell_angle_gamma   46.94156992
_symmetry_Int_Tables_number   1
_chemical_formula_structural   Re3(TeBr)7
_chemical_formula_sum   'Re6 Te14 Br14'
_cell_volume   1155.23971748
_cell_formula_units_Z   2
loop_
 _symmetry_equiv_pos_site_id
 _symmetry_equiv_pos_as_xyz
  1  'x, y, z'
loop_
 _atom_site_type_symbol
 _atom_site_label
 _atom_site_symmetry_multiplicity
 _atom_site_fract_x
 _atom_site_fract_y
 _atom_site_fract_z
 _atom_site_occupancy
  Re  Re0  1  0.87269500  0.16551600  0.05651800  1
  Re  Re1  1  0.83448400  0.94348200  0.12730500  1
  Re  Re2  1  0.12730500  0.83448400  0.94348200  1
  Re  Re3  1  0.16551600  0.05651800  0.87269500  1
  Re  Re4  1  0.94348200  0.12730500  0.83448400  1
  Re  Re5  1  0.05651800  0.87269500  0.16551600  1
  Te  Te6  1  0.34837200  0.76278000  0.98196500  1
  Te  Te7  1  0.68859200  0.40014600  0.13299400  1
  Te  Te8  1  0.23722000  0.01803500  0.65162800  1
  Te  Te9  1  0.13299400  0.68859200  0.40014600  1
  Te  Te10  1  0.98196500  0.34837200  0.76278000  1
  Te  Te11  1  0.31140800  0.59985400  0.86700600  1
  Te  Te12  1  0.86700600  0.31140800  0.59985400  1
  Te  Te13  1  0.90638900  0.90638900  0.90638900  1
  Te  Te14  1  0.59985400  0.86700600  0.31140800  1
  Te  Te15  1  0.65162800  0.23722000  0.01803500  1
  Te  Te16  1  0.40014600  0.13299400  0.68859200  1
  Te  Te17  1  0.01803500  0.65162800  0.23722000  1
  Te  Te18  1  0.09361100  0.09361100  0.09361100  1
  Te  Te19  1  0.76278000  0.98196500  0.34837200  1
  Br  Br20  1  0.63226600  0.29306600  0.69825900  1
  Br  Br21  1  0.36773400  0.70693400  0.30174100  1
  Br  Br22  1  0.54951300  0.96410200  0.84942500  1
  Br  Br23  1  0.63698800  0.63698800  0.63698800  1
  Br  Br24  1  0.84942500  0.54951300  0.96410200  1
  Br  Br25  1  0.15057500  0.45048700  0.03589800  1
  Br  Br26  1  0.36301200  0.36301200  0.36301200  1
  Br  Br27  1  0.96410200  0.84942500  0.54951300  1
  Br  Br28  1  0.03589800  0.15057500  0.45048700  1
  Br  Br29  1  0.69825900  0.63226600  0.29306600  1
  Br  Br30  1  0.30174100  0.36773400  0.70693400  1
  Br  Br31  1  0.70693400  0.30174100  0.36773400  1
  Br  Br32  1  0.29306600  0.69825900  0.63226600  1
  Br  Br33  1  0.45048700  0.03589800  0.15057500  1
