# generated using pymatgen
data_MgMn4O8
_symmetry_space_group_name_H-M   'P 1'
_cell_length_a   6.03853600
_cell_length_b   9.41733700
_cell_length_c   13.98965432
_cell_angle_alpha   49.35715357
_cell_angle_beta   90.00000000
_cell_angle_gamma   90.00000000
_symmetry_Int_Tables_number   1
_chemical_formula_structural   MgMn4O8
_chemical_formula_sum   'Mg4 Mn16 O32'
_cell_volume   603.64995245
_cell_formula_units_Z   4
loop_
 _symmetry_equiv_pos_site_id
 _symmetry_equiv_pos_as_xyz
  1  'x, y, z'
loop_
 _atom_site_type_symbol
 _atom_site_label
 _atom_site_symmetry_multiplicity
 _atom_site_fract_x
 _atom_site_fract_y
 _atom_site_fract_z
 _atom_site_occupancy
  Mg  Mg0  1  0.63119300  0.17660700  0.08947600  1
  Mg  Mg1  1  0.86880700  0.17660700  0.58947600  1
  Mg  Mg2  1  0.13119300  0.82339300  0.41052400  1
  Mg  Mg3  1  0.36880700  0.82339300  0.91052400  1
  Mn  Mn4  1  0.63445000  0.47248500  0.10626600  1
  Mn  Mn5  1  0.13411500  0.45297200  0.11291400  1
  Mn  Mn6  1  0.61711200  0.81485200  0.59077100  1
  Mn  Mn7  1  0.11275000  0.81992500  0.60334800  1
  Mn  Mn8  1  0.11711200  0.18514800  0.90922900  1
  Mn  Mn9  1  0.61275000  0.18007500  0.89665200  1
  Mn  Mn10  1  0.13445000  0.52751500  0.39373400  1
  Mn  Mn11  1  0.63411500  0.54702800  0.38708600  1
  Mn  Mn12  1  0.86555000  0.47248500  0.60626600  1
  Mn  Mn13  1  0.36588500  0.45297200  0.61291400  1
  Mn  Mn14  1  0.88288800  0.81485200  0.09077100  1
  Mn  Mn15  1  0.38725000  0.81992500  0.10334800  1
  Mn  Mn16  1  0.88725000  0.18007500  0.39665200  1
  Mn  Mn17  1  0.38288800  0.18514800  0.40922900  1
  Mn  Mn18  1  0.86588500  0.54702800  0.88708600  1
  Mn  Mn19  1  0.36555000  0.52751500  0.89373400  1
  O  O20  1  0.89321900  0.39414700  0.39092600  1
  O  O21  1  0.38336400  0.40826100  0.38936800  1
  O  O22  1  0.85371200  0.26615800  0.78213500  1
  O  O23  1  0.36234200  0.25317700  0.79189400  1
  O  O24  1  0.86234200  0.74682300  0.70810600  1
  O  O25  1  0.35371200  0.73384200  0.71786500  1
  O  O26  1  0.88336400  0.59173900  0.11063200  1
  O  O27  1  0.39321900  0.60585300  0.10907400  1
  O  O28  1  0.11663600  0.40826100  0.88936800  1
  O  O29  1  0.60678100  0.39414700  0.89092600  1
  O  O30  1  0.13765800  0.25317700  0.29189400  1
  O  O31  1  0.64628800  0.26615800  0.28213500  1
  O  O32  1  0.63765800  0.74682300  0.20810600  1
  O  O33  1  0.14628800  0.73384200  0.21786500  1
  O  O34  1  0.61663600  0.59173900  0.61063200  1
  O  O35  1  0.10678100  0.60585300  0.60907400  1
  O  O36  1  0.65019500  0.35489800  0.57460700  1
  O  O37  1  0.10071600  0.34408100  0.58729100  1
  O  O38  1  0.14531800  0.92111400  0.97429700  1
  O  O39  1  0.59501400  0.92743500  0.95796700  1
  O  O40  1  0.15019500  0.64510200  0.92539300  1
  O  O41  1  0.60071600  0.65591900  0.91270900  1
  O  O42  1  0.64531800  0.07888600  0.52570300  1
  O  O43  1  0.09501400  0.07256500  0.54203300  1
  O  O44  1  0.84980500  0.35489800  0.07460700  1
  O  O45  1  0.39928400  0.34408100  0.08729100  1
  O  O46  1  0.90498600  0.92743500  0.45796700  1
  O  O47  1  0.35468200  0.92111400  0.47429700  1
  O  O48  1  0.89928400  0.65591900  0.41270900  1
  O  O49  1  0.34980500  0.64510200  0.42539300  1
  O  O50  1  0.85468200  0.07888600  0.02570300  1
  O  O51  1  0.40498600  0.07256500  0.04203300  1
