# generated using pymatgen
data_Al(HO)3
_symmetry_space_group_name_H-M   'P 1'
_cell_length_a   5.13598800
_cell_length_b   8.86436612
_cell_length_c   9.55577980
_cell_angle_alpha   83.05847352
_cell_angle_beta   89.07863180
_cell_angle_gamma   89.31791822
_symmetry_Int_Tables_number   1
_chemical_formula_structural   Al(HO)3
_chemical_formula_sum   'Al8 H24 O24'
_cell_volume   431.78215813
_cell_formula_units_Z   8
loop_
 _symmetry_equiv_pos_site_id
 _symmetry_equiv_pos_as_xyz
  1  'x, y, z'
loop_
 _atom_site_type_symbol
 _atom_site_label
 _atom_site_symmetry_multiplicity
 _atom_site_fract_x
 _atom_site_fract_y
 _atom_site_fract_z
 _atom_site_occupancy
  Al  Al0  1  0.99823300  0.33677700  0.49925100  1
  Al  Al1  1  0.00186100  0.66833600  0.49870900  1
  Al  Al2  1  0.50201400  0.83600900  0.49942000  1
  Al  Al3  1  0.49934100  0.17385200  0.50287100  1
  Al  Al4  1  0.98254100  0.83064100  0.99480800  1
  Al  Al5  1  0.97731400  0.16640600  0.99814000  1
  Al  Al6  1  0.47629700  0.33268300  0.99685500  1
  Al  Al7  1  0.48936300  0.66487400  0.99873300  1
  H  H8  1  0.82592100  0.01110800  0.39436500  1
  H  H9  1  0.36468900  0.97083200  0.70439800  1
  H  H10  1  0.67590500  0.48877700  0.60607700  1
  H  H11  1  0.32777000  0.51437300  0.38624300  1
  H  H12  1  0.15289900  0.12447400  0.33698300  1
  H  H13  1  0.91444400  0.89779300  0.61725900  1
  H  H14  1  0.35186000  0.60195200  0.68680200  1
  H  H15  1  0.66105300  0.37861100  0.29993500  1
  H  H16  1  0.24151100  0.79431300  0.29599300  1
  H  H17  1  0.76275300  0.22280100  0.70561000  1
  H  H18  1  0.28629300  0.27458000  0.70834100  1
  H  H19  1  0.69578000  0.72591600  0.29038400  1
  H  H20  1  0.07363200  0.96040200  0.20345000  1
  H  H21  1  0.86373100  0.03159200  0.78853100  1
  H  H22  1  0.16578400  0.52460000  0.88779500  1
  H  H23  1  0.80626500  0.47507100  0.10062500  1
  H  H24  1  0.13305800  0.60780200  0.19208300  1
  H  H25  1  0.84274300  0.40286800  0.81538400  1
  H  H26  1  0.39395100  0.10248400  0.89049000  1
  H  H27  1  0.57409300  0.89606300  0.11214500  1
  H  H28  1  0.26426000  0.78092600  0.79481600  1
  H  H29  1  0.63396500  0.13100300  0.20008800  1
  H  H30  1  0.16137700  0.30658100  0.19954900  1
  H  H31  1  0.79534200  0.72139000  0.79032900  1
  O  O32  1  0.63689600  0.01972200  0.38997700  1
  O  O33  1  0.36122900  0.98982900  0.60170700  1
  O  O34  1  0.86586300  0.49167200  0.61036100  1
  O  O35  1  0.13704700  0.51751900  0.38650100  1
  O  O36  1  0.20286700  0.20914300  0.38559400  1
  O  O37  1  0.81569900  0.80579100  0.60945200  1
  O  O38  1  0.30673300  0.67980400  0.60853700  1
  O  O39  1  0.69353300  0.33025700  0.39589800  1
  O  O40  1  0.19388100  0.83248500  0.38527500  1
  O  O41  1  0.80229000  0.18012500  0.61658700  1
  O  O42  1  0.30495200  0.30789100  0.60507500  1
  O  O43  1  0.69144600  0.70162900  0.39426300  1
  O  O44  1  0.10659800  0.98577100  0.10290800  1
  O  O45  1  0.85663700  0.01057200  0.89093800  1
  O  O46  1  0.35582300  0.51540300  0.88372100  1
  O  O47  1  0.61612300  0.48345000  0.10735600  1
  O  O48  1  0.17779200  0.67782000  0.10771300  1
  O  O49  1  0.78324500  0.31786600  0.88265000  1
  O  O50  1  0.29345300  0.19721600  0.88736500  1
  O  O51  1  0.66827200  0.80006200  0.10848100  1
  O  O52  1  0.29859900  0.82282000  0.88297000  1
  O  O53  1  0.66226000  0.17269200  0.10132300  1
  O  O54  1  0.15460100  0.31331700  0.09643400  1
  O  O55  1  0.80774000  0.68946900  0.89287700  1
