# generated using pymatgen
data_Sr(H8O5)2
_symmetry_space_group_name_H-M   'P 1'
_cell_length_a   6.44184753
_cell_length_b   6.44184753
_cell_length_c   11.47879074
_cell_angle_alpha   89.71842262
_cell_angle_beta   89.71842262
_cell_angle_gamma   93.40440593
_symmetry_Int_Tables_number   1
_chemical_formula_structural   Sr(H8O5)2
_chemical_formula_sum   'Sr2 H32 O20'
_cell_volume   475.48714219
_cell_formula_units_Z   2
loop_
 _symmetry_equiv_pos_site_id
 _symmetry_equiv_pos_as_xyz
  1  'x, y, z'
loop_
 _atom_site_type_symbol
 _atom_site_label
 _atom_site_symmetry_multiplicity
 _atom_site_fract_x
 _atom_site_fract_y
 _atom_site_fract_z
 _atom_site_occupancy
  Sr  Sr0  1  0.00154900  0.99997000  0.24133500  1
  Sr  Sr1  1  0.99997000  0.00154900  0.74133500  1
  H  H2  1  0.72878700  0.38752700  0.35289900  1
  H  H3  1  0.85822100  0.30832200  0.46001900  1
  H  H4  1  0.28223500  0.61153900  0.35414700  1
  H  H5  1  0.04367500  0.56308800  0.36950300  1
  H  H6  1  0.36948200  0.02170800  0.39214000  1
  H  H7  1  0.38897500  0.27248700  0.35738200  1
  H  H8  1  0.61006800  0.96070000  0.34258100  1
  H  H9  1  0.60847600  0.70935700  0.35170900  1
  H  H10  1  0.27248700  0.38897500  0.85738200  1
  H  H11  1  0.02170800  0.36948200  0.89214000  1
  H  H12  1  0.96070000  0.61006800  0.84258100  1
  H  H13  1  0.70935700  0.60847600  0.85170900  1
  H  H14  1  0.56308800  0.04367500  0.86950300  1
  H  H15  1  0.61153900  0.28223500  0.85414700  1
  H  H16  1  0.38752700  0.72878700  0.85289900  1
  H  H17  1  0.30832200  0.85822100  0.96001900  1
  H  H18  1  0.14362600  0.68849700  0.54882200  1
  H  H19  1  0.27506600  0.60428800  0.65499200  1
  H  H20  1  0.71736400  0.37059600  0.64097300  1
  H  H21  1  0.95334900  0.44751000  0.62475300  1
  H  H22  1  0.61776400  0.71729800  0.64675900  1
  H  H23  1  0.68909400  0.86002100  0.53867000  1
  H  H24  1  0.37901800  0.28080700  0.65026500  1
  H  H25  1  0.29465300  0.15690500  0.53953600  1
  H  H26  1  0.71729800  0.61776400  0.14675900  1
  H  H27  1  0.86002100  0.68909400  0.03867000  1
  H  H28  1  0.28080700  0.37901800  0.15026500  1
  H  H29  1  0.15690500  0.29465300  0.03953600  1
  H  H30  1  0.44751000  0.95334900  0.12475300  1
  H  H31  1  0.37059600  0.71736400  0.14097300  1
  H  H32  1  0.68849700  0.14362600  0.04882200  1
  H  H33  1  0.60428800  0.27506600  0.15499200  1
  O  O34  1  0.50191600  0.48958100  0.32012200  1
  O  O35  1  0.48958100  0.50191600  0.82012200  1
  O  O36  1  0.48779300  0.50199600  0.68954500  1
  O  O37  1  0.50199600  0.48779300  0.18954500  1
  O  O38  1  0.86379200  0.32357500  0.37352000  1
  O  O39  1  0.15049700  0.67975400  0.37770400  1
  O  O40  1  0.29174700  0.14554900  0.38185500  1
  O  O41  1  0.68385800  0.84819600  0.37763100  1
  O  O42  1  0.14554900  0.29174700  0.88185500  1
  O  O43  1  0.84819600  0.68385800  0.87763100  1
  O  O44  1  0.67975400  0.15049700  0.87770400  1
  O  O45  1  0.32357500  0.86379200  0.87352000  1
  O  O46  1  0.13379900  0.66041100  0.63367000  1
  O  O47  1  0.85601200  0.32062100  0.61831100  1
  O  O48  1  0.70706100  0.84511700  0.62355600  1
  O  O49  1  0.30247800  0.14628500  0.62518200  1
  O  O50  1  0.84511700  0.70706100  0.12355600  1
  O  O51  1  0.14628500  0.30247800  0.12518200  1
  O  O52  1  0.32062100  0.85601200  0.11831100  1
  O  O53  1  0.66041100  0.13379900  0.13367000  1
