# generated using pymatgen
data_YbHO2
_symmetry_space_group_name_H-M   'P 1'
_cell_length_a   5.42459800
_cell_length_b   5.42459800
_cell_length_c   5.77551400
_cell_angle_alpha   90.00000000
_cell_angle_beta   90.00000000
_cell_angle_gamma   90.00000000
_symmetry_Int_Tables_number   1
_chemical_formula_structural   YbHO2
_chemical_formula_sum   'Yb4 H4 O8'
_cell_volume   169.95179659
_cell_formula_units_Z   4
loop_
 _symmetry_equiv_pos_site_id
 _symmetry_equiv_pos_as_xyz
  1  'x, y, z'
loop_
 _atom_site_type_symbol
 _atom_site_label
 _atom_site_symmetry_multiplicity
 _atom_site_fract_x
 _atom_site_fract_y
 _atom_site_fract_z
 _atom_site_occupancy
  Yb  Yb0  1  0.28825600  0.78825600  0.73475500  1
  Yb  Yb1  1  0.21174400  0.28825600  0.26524500  1
  Yb  Yb2  1  0.71174400  0.21174400  0.73475500  1
  Yb  Yb3  1  0.78825600  0.71174400  0.26524500  1
  H  H4  1  0.29481000  0.79481000  0.21489100  1
  H  H5  1  0.20519000  0.29481000  0.78510900  1
  H  H6  1  0.70519000  0.20519000  0.21489100  1
  H  H7  1  0.79481000  0.70519000  0.78510900  1
  O  O8  1  0.00000000  0.50000000  0.57113200  1
  O  O9  1  0.50000000  0.00000000  0.42886800  1
  O  O10  1  0.00000000  0.00000000  0.50000000  1
  O  O11  1  0.50000000  0.50000000  0.50000000  1
  O  O12  1  0.19090900  0.69090900  0.11577000  1
  O  O13  1  0.30909100  0.19090900  0.88423000  1
  O  O14  1  0.80909100  0.30909100  0.11577000  1
  O  O15  1  0.69090900  0.80909100  0.88423000  1
