# generated using pymatgen
data_MgCd2
_symmetry_space_group_name_H-M   'P 1'
_cell_length_a   5.45800940
_cell_length_b   5.45800940
_cell_length_c   6.29212054
_cell_angle_alpha   61.18015018
_cell_angle_beta   61.18015018
_cell_angle_gamma   57.53555922
_symmetry_Int_Tables_number   1
_chemical_formula_structural   MgCd2
_chemical_formula_sum   'Mg2 Cd4'
_cell_volume   132.08760488
_cell_formula_units_Z   2
loop_
 _symmetry_equiv_pos_site_id
 _symmetry_equiv_pos_as_xyz
  1  'x, y, z'
loop_
 _atom_site_type_symbol
 _atom_site_label
 _atom_site_symmetry_multiplicity
 _atom_site_fract_x
 _atom_site_fract_y
 _atom_site_fract_z
 _atom_site_occupancy
  Mg  Mg0  1  0.08379000  0.91621000  0.25000000  1
  Mg  Mg1  1  0.91621000  0.08379000  0.75000000  1
  Cd  Cd2  1  0.24768300  0.41989100  0.74368600  1
  Cd  Cd3  1  0.58010900  0.75231700  0.75631400  1
  Cd  Cd4  1  0.41989100  0.24768300  0.24368600  1
  Cd  Cd5  1  0.75231700  0.58010900  0.25631400  1
