# generated using pymatgen
data_Al(HO)3
_symmetry_space_group_name_H-M   'P 1'
_cell_length_a   8.79621800
_cell_length_b   5.20362900
_cell_length_c   9.33846881
_cell_angle_alpha   89.09115950
_cell_angle_beta   90.00000000
_cell_angle_gamma   90.00000000
_symmetry_Int_Tables_number   1
_chemical_formula_structural   Al(HO)3
_chemical_formula_sum   'Al8 H24 O24'
_cell_volume   427.38900268
_cell_formula_units_Z   8
loop_
 _symmetry_equiv_pos_site_id
 _symmetry_equiv_pos_as_xyz
  1  'x, y, z'
loop_
 _atom_site_type_symbol
 _atom_site_label
 _atom_site_symmetry_multiplicity
 _atom_site_fract_x
 _atom_site_fract_y
 _atom_site_fract_z
 _atom_site_occupancy
  Al  Al0  1  0.66873400  0.98365500  0.50635200  1
  Al  Al1  1  0.33126600  0.01634500  0.49364800  1
  Al  Al2  1  0.16873400  0.51634500  0.49364800  1
  Al  Al3  1  0.83126600  0.48365500  0.50635200  1
  Al  Al4  1  0.16882600  0.97638500  0.99323700  1
  Al  Al5  1  0.83117400  0.02361500  0.00676300  1
  Al  Al6  1  0.66882600  0.52361500  0.00676300  1
  Al  Al7  1  0.33117400  0.47638500  0.99323700  1
  H  H8  1  0.98837000  0.80506500  0.37841900  1
  H  H9  1  0.01163000  0.19493500  0.62158100  1
  H  H10  1  0.48837000  0.69493500  0.62158100  1
  H  H11  1  0.51163000  0.30506500  0.37841900  1
  H  H12  1  0.86242900  0.14946200  0.31002100  1
  H  H13  1  0.13757100  0.85053800  0.68997900  1
  H  H14  1  0.36242900  0.35053800  0.68997900  1
  H  H15  1  0.63757100  0.64946200  0.31002100  1
  H  H16  1  0.13361800  0.17121100  0.30248100  1
  H  H17  1  0.86638200  0.82878900  0.69751900  1
  H  H18  1  0.63361800  0.32878900  0.69751900  1
  H  H19  1  0.36638200  0.67121100  0.30248100  1
  H  H20  1  0.01741400  0.30400400  0.11230200  1
  H  H21  1  0.98258600  0.69599600  0.88769800  1
  H  H22  1  0.51741400  0.19599600  0.88769800  1
  H  H23  1  0.48258600  0.80400400  0.11230200  1
  H  H24  1  0.34276300  0.14206900  0.19667500  1
  H  H25  1  0.65723700  0.85793100  0.80332500  1
  H  H26  1  0.84276300  0.35793100  0.80332500  1
  H  H27  1  0.15723700  0.64206900  0.19667500  1
  H  H28  1  0.13933900  0.32900800  0.79886400  1
  H  H29  1  0.86066100  0.67099200  0.20113600  1
  H  H30  1  0.63933900  0.17099200  0.20113600  1
  H  H31  1  0.36066100  0.82900800  0.79886400  1
  O  O32  1  0.99055500  0.61710400  0.38157000  1
  O  O33  1  0.00944500  0.38289600  0.61843000  1
  O  O34  1  0.49055500  0.88289600  0.61843000  1
  O  O35  1  0.50944500  0.11710400  0.38157000  1
  O  O36  1  0.82456800  0.16963900  0.40771200  1
  O  O37  1  0.17543200  0.83036100  0.59228800  1
  O  O38  1  0.32456800  0.33036100  0.59228800  1
  O  O39  1  0.67543200  0.66963900  0.40771200  1
  O  O40  1  0.19753700  0.22386000  0.38140200  1
  O  O41  1  0.80246300  0.77614000  0.61859800  1
  O  O42  1  0.69753700  0.27614000  0.61859800  1
  O  O43  1  0.30246300  0.72386000  0.38140200  1
  O  O44  1  0.00931300  0.11639500  0.11878000  1
  O  O45  1  0.99068700  0.88360500  0.88122000  1
  O  O46  1  0.50931300  0.38360500  0.88122000  1
  O  O47  1  0.49068700  0.61639500  0.11878000  1
  O  O48  1  0.32604000  0.15366100  0.09399700  1
  O  O49  1  0.67396000  0.84633900  0.90600300  1
  O  O50  1  0.82604000  0.34633900  0.90600300  1
  O  O51  1  0.17396000  0.65366100  0.09399700  1
  O  O52  1  0.19566900  0.27749500  0.88405200  1
  O  O53  1  0.80433100  0.72250500  0.11594800  1
  O  O54  1  0.69566900  0.22250500  0.11594800  1
  O  O55  1  0.30433100  0.77749500  0.88405200  1
