# generated using pymatgen
data_H9BrO4
_symmetry_space_group_name_H-M   'P 1'
_cell_length_a   12.05327800
_cell_length_b   6.88955500
_cell_length_c   7.48493153
_cell_angle_alpha   70.50071044
_cell_angle_beta   90.00000000
_cell_angle_gamma   90.00000000
_symmetry_Int_Tables_number   1
_chemical_formula_structural   H9BrO4
_chemical_formula_sum   'H36 Br4 O16'
_cell_volume   585.91232729
_cell_formula_units_Z   4
loop_
 _symmetry_equiv_pos_site_id
 _symmetry_equiv_pos_as_xyz
  1  'x, y, z'
loop_
 _atom_site_type_symbol
 _atom_site_label
 _atom_site_symmetry_multiplicity
 _atom_site_fract_x
 _atom_site_fract_y
 _atom_site_fract_z
 _atom_site_occupancy
  H  H0  1  0.67178600  0.67478500  0.99807500  1
  H  H1  1  0.74242400  0.88620700  0.02281100  1
  H  H2  1  0.24242400  0.11379300  0.97718900  1
  H  H3  1  0.17178600  0.32521500  0.00192500  1
  H  H4  1  0.82449700  0.02382500  0.14973700  1
  H  H5  1  0.74627400  0.17287500  0.98713200  1
  H  H6  1  0.32449700  0.97617500  0.85026300  1
  H  H7  1  0.24627400  0.82712500  0.01286800  1
  H  H8  1  0.81680100  0.46337900  0.80672500  1
  H  H9  1  0.74879000  0.35674800  0.68838800  1
  H  H10  1  0.31680100  0.53662100  0.19327500  1
  H  H11  1  0.24879000  0.64325200  0.31161200  1
  H  H12  1  0.69056900  0.29894600  0.37615500  1
  H  H13  1  0.81234800  0.38524200  0.35785800  1
  H  H14  1  0.19056900  0.70105400  0.62384500  1
  H  H15  1  0.31234800  0.61475800  0.64214200  1
  H  H16  1  0.81819800  0.96361300  0.54642300  1
  H  H17  1  0.71285900  0.82188600  0.55132800  1
  H  H18  1  0.75800700  0.79973700  0.82015300  1
  H  H19  1  0.31819800  0.03638700  0.45357700  1
  H  H20  1  0.21285900  0.17811400  0.44867200  1
  H  H21  1  0.25800700  0.20026300  0.17984700  1
  H  H22  1  0.55789500  0.80346500  0.35262400  1
  H  H23  1  0.64330100  0.60747400  0.42214200  1
  H  H24  1  0.14330100  0.39252600  0.57785800  1
  H  H25  1  0.05789500  0.19653500  0.64737600  1
  H  H26  1  0.49559400  0.49109600  0.84993500  1
  H  H27  1  0.47707400  0.34684800  0.71475200  1
  H  H28  1  0.53077500  0.59173700  0.60933500  1
  H  H29  1  0.99559400  0.50890400  0.15006500  1
  H  H30  1  0.97707400  0.65315200  0.28524800  1
  H  H31  1  0.03077500  0.40826300  0.39066500  1
  H  H32  1  0.49413800  0.95240700  0.07244500  1
  H  H33  1  0.50635100  0.10459400  0.18571500  1
  H  H34  1  0.99413800  0.04759300  0.92755500  1
  H  H35  1  0.00635100  0.89540600  0.81428500  1
  Br  Br36  1  0.49309100  0.04884600  0.72338400  1
  Br  Br37  1  0.99309100  0.95115400  0.27661600  1
  Br  Br38  1  0.52910200  0.46255500  0.13062900  1
  Br  Br39  1  0.02910200  0.53744500  0.86937100  1
  O  O40  1  0.74312200  0.75240800  0.96768500  1
  O  O41  1  0.24312200  0.24759200  0.03231500  1
  O  O42  1  0.74794500  0.03617000  0.09610300  1
  O  O43  1  0.24794500  0.96383000  0.90389700  1
  O  O44  1  0.74872200  0.38446500  0.80940700  1
  O  O45  1  0.24872200  0.61553500  0.19059300  1
  O  O46  1  0.74940700  0.34227800  0.44472900  1
  O  O47  1  0.24940700  0.65772200  0.55527100  1
  O  O48  1  0.78034900  0.83775300  0.62062600  1
  O  O49  1  0.28034900  0.16224700  0.37937400  1
  O  O50  1  0.60117600  0.70426600  0.46689800  1
  O  O51  1  0.10117600  0.29573400  0.53310200  1
  O  O52  1  0.47232500  0.49686100  0.71631500  1
  O  O53  1  0.97232500  0.50313900  0.28368500  1
  O  O54  1  0.48756400  0.95996100  0.20099900  1
  O  O55  1  0.98756400  0.04003900  0.79900100  1
