# generated using pymatgen
data_FeHO2
_symmetry_space_group_name_H-M   'P 1'
_cell_length_a   2.98130300
_cell_length_b   5.20295000
_cell_length_c   14.23256000
_cell_angle_alpha   90.00000000
_cell_angle_beta   90.00000000
_cell_angle_gamma   90.00000000
_symmetry_Int_Tables_number   1
_chemical_formula_structural   FeHO2
_chemical_formula_sum   'Fe4 H4 O8'
_cell_volume   220.76935704
_cell_formula_units_Z   4
loop_
 _symmetry_equiv_pos_site_id
 _symmetry_equiv_pos_as_xyz
  1  'x, y, z'
loop_
 _atom_site_type_symbol
 _atom_site_label
 _atom_site_symmetry_multiplicity
 _atom_site_fract_x
 _atom_site_fract_y
 _atom_site_fract_z
 _atom_site_occupancy
  Fe  Fe0  1  0.25000000  0.49768400  0.68481300  1
  Fe  Fe1  1  0.25000000  0.00231600  0.18481300  1
  Fe  Fe2  1  0.75000000  0.50231600  0.31518700  1
  Fe  Fe3  1  0.75000000  0.99768400  0.81518700  1
  H  H4  1  0.25000000  0.44135100  0.46040900  1
  H  H5  1  0.25000000  0.05864900  0.96040900  1
  H  H6  1  0.75000000  0.55864900  0.53959100  1
  H  H7  1  0.75000000  0.94135100  0.03959100  1
  O  O8  1  0.25000000  0.30256000  0.26079300  1
  O  O9  1  0.25000000  0.19744000  0.76079300  1
  O  O10  1  0.75000000  0.69744000  0.73920700  1
  O  O11  1  0.75000000  0.80256000  0.23920700  1
  O  O12  1  0.25000000  0.57571400  0.41231900  1
  O  O13  1  0.25000000  0.92428600  0.91231900  1
  O  O14  1  0.75000000  0.42428600  0.58768100  1
  O  O15  1  0.75000000  0.07571400  0.08768100  1
