# generated using pymatgen
data_Al(HO)3
_symmetry_space_group_name_H-M   'P 1'
_cell_length_a   5.12133900
_cell_length_b   8.82421002
_cell_length_c   9.47645866
_cell_angle_alpha   92.21994645
_cell_angle_beta   91.91975955
_cell_angle_gamma   93.10507327
_symmetry_Int_Tables_number   1
_chemical_formula_structural   Al(HO)3
_chemical_formula_sum   'Al8 H24 O24'
_cell_volume   427.03623597
_cell_formula_units_Z   8
loop_
 _symmetry_equiv_pos_site_id
 _symmetry_equiv_pos_as_xyz
  1  'x, y, z'
loop_
 _atom_site_type_symbol
 _atom_site_label
 _atom_site_symmetry_multiplicity
 _atom_site_fract_x
 _atom_site_fract_y
 _atom_site_fract_z
 _atom_site_occupancy
  Al  Al0  1  0.04084300  0.35065400  0.49652000  1
  Al  Al1  1  0.96748100  0.67885700  0.49244600  1
  Al  Al2  1  0.50444500  0.83362800  0.48947200  1
  Al  Al3  1  0.52357100  0.17897600  0.49501300  1
  Al  Al4  1  0.99196100  0.80785300  0.00006400  1
  Al  Al5  1  0.93503300  0.16901500  0.99013300  1
  Al  Al6  1  0.45971200  0.32051700  0.99136600  1
  Al  Al7  1  0.48091900  0.65306800  0.99181500  1
  H  H8  1  0.52490900  0.01412200  0.68952000  1
  H  H9  1  0.74147700  0.00659700  0.31117200  1
  H  H10  1  0.33090300  0.55767900  0.38835600  1
  H  H11  1  0.69850200  0.47439200  0.61288400  1
  H  H12  1  0.93034100  0.10662300  0.61830000  1
  H  H13  1  0.09327100  0.93173500  0.42944700  1
  H  H14  1  0.36317800  0.36183200  0.70414800  1
  H  H15  1  0.80714100  0.81468700  0.70605200  1
  H  H16  1  0.20120600  0.21494100  0.28989700  1
  H  H17  1  0.64198900  0.42126200  0.37795600  1
  H  H18  1  0.36346100  0.61640600  0.64115000  1
  H  H19  1  0.64634800  0.95264100  0.91929300  1
  H  H20  1  0.19248800  0.92721100  0.22983200  1
  H  H21  1  0.35365700  0.01520800  0.11381700  1
  H  H22  1  0.64046700  0.51357600  0.19263400  1
  H  H23  1  0.14589200  0.47323400  0.86319200  1
  H  H24  1  0.82507400  0.60488500  0.80400100  1
  H  H25  1  0.08212400  0.39909400  0.13417200  1
  H  H26  1  0.67738200  0.22635200  0.20396500  1
  H  H27  1  0.28113900  0.78524900  0.78875600  1
  H  H28  1  0.69737600  0.75806900  0.21099500  1
  H  H29  1  0.26511000  0.10659900  0.80824200  1
  H  H30  1  0.77132600  0.27218600  0.77546100  1
  H  H31  1  0.15884900  0.64491600  0.19594000  1
  O  O32  1  0.39796900  0.02099300  0.61133800  1
  O  O33  1  0.62769100  0.00733300  0.39046900  1
  O  O34  1  0.14231500  0.52328500  0.38768500  1
  O  O35  1  0.88472200  0.50744100  0.61075500  1
  O  O36  1  0.84935400  0.20378100  0.60827200  1
  O  O37  1  0.16453100  0.83859500  0.39102300  1
  O  O38  1  0.65315800  0.67736400  0.38654100  1
  O  O39  1  0.36725400  0.34545000  0.60083100  1
  O  O40  1  0.81518300  0.83316200  0.60498300  1
  O  O41  1  0.20255900  0.19804900  0.39195900  1
  O  O42  1  0.71618500  0.32129300  0.38236000  1
  O  O43  1  0.29386400  0.71178700  0.61324200  1
  O  O44  1  0.83494100  0.97840500  0.91515700  1
  O  O45  1  0.17591700  0.97290200  0.13405200  1
  O  O46  1  0.60947500  0.49038400  0.09212000  1
  O  O47  1  0.33623200  0.47736700  0.87414400  1
  O  O48  1  0.77357600  0.68029400  0.87451600  1
  O  O49  1  0.15313800  0.30230700  0.10632800  1
  O  O50  1  0.64464500  0.18079700  0.10732000  1
  O  O51  1  0.29648600  0.80447600  0.89319400  1
  O  O52  1  0.69397800  0.79355200  0.11190700  1
  O  O53  1  0.24812400  0.16326200  0.89723700  1
  O  O54  1  0.75519400  0.29485300  0.87837300  1
  O  O55  1  0.17337100  0.66209000  0.09558000  1
