# generated using pymatgen
data_Ba(H2O3)2
_symmetry_space_group_name_H-M   'P 1'
_cell_length_a   5.29410918
_cell_length_b   5.29410918
_cell_length_c   8.54712343
_cell_angle_alpha   84.21227132
_cell_angle_beta   84.21227132
_cell_angle_gamma   73.84371346
_symmetry_Int_Tables_number   1
_chemical_formula_structural   Ba(H2O3)2
_chemical_formula_sum   'Ba2 H8 O12'
_cell_volume   228.25646775
_cell_formula_units_Z   2
loop_
 _symmetry_equiv_pos_site_id
 _symmetry_equiv_pos_as_xyz
  1  'x, y, z'
loop_
 _atom_site_type_symbol
 _atom_site_label
 _atom_site_symmetry_multiplicity
 _atom_site_fract_x
 _atom_site_fract_y
 _atom_site_fract_z
 _atom_site_occupancy
  Ba  Ba0  1  0.20277700  0.80702400  0.76944100  1
  Ba  Ba1  1  0.80702400  0.20277700  0.26944100  1
  H  H2  1  0.72843600  0.68266600  0.56716500  1
  H  H3  1  0.31777500  0.28215400  0.96922600  1
  H  H4  1  0.28215400  0.31777500  0.46922600  1
  H  H5  1  0.68266600  0.72843600  0.06716500  1
  H  H6  1  0.63293700  0.19645600  0.64194800  1
  H  H7  1  0.19645600  0.63293700  0.14194800  1
  H  H8  1  0.80190500  0.37552900  0.89324700  1
  H  H9  1  0.37552900  0.80190500  0.39324700  1
  O  O10  1  0.81404500  0.84241600  0.56338900  1
  O  O11  1  0.15274000  0.19945700  0.97630500  1
  O  O12  1  0.19945700  0.15274000  0.47630500  1
  O  O13  1  0.84241600  0.81404500  0.06338900  1
  O  O14  1  0.66224600  0.99692900  0.69420800  1
  O  O15  1  0.99972400  0.35068100  0.84445700  1
  O  O16  1  0.35068100  0.99972400  0.34445700  1
  O  O17  1  0.99692900  0.66224600  0.19420800  1
  O  O18  1  0.60389800  0.46190200  0.57561300  1
  O  O19  1  0.52880400  0.40437600  0.95540100  1
  O  O20  1  0.40437600  0.52880400  0.45540100  1
  O  O21  1  0.46190200  0.60389800  0.07561300  1
