# generated using pymatgen
data_FeHO2
_symmetry_space_group_name_H-M   'P 1'
_cell_length_a   10.54668578
_cell_length_b   6.18258886
_cell_length_c   10.71790257
_cell_angle_alpha   90.07887649
_cell_angle_beta   90.12361217
_cell_angle_gamma   90.05107332
_symmetry_Int_Tables_number   1
_chemical_formula_structural   FeHO2
_chemical_formula_sum   'Fe16 H16 O32'
_cell_volume   698.86707892
_cell_formula_units_Z   16
loop_
 _symmetry_equiv_pos_site_id
 _symmetry_equiv_pos_as_xyz
  1  'x, y, z'
loop_
 _atom_site_type_symbol
 _atom_site_label
 _atom_site_symmetry_multiplicity
 _atom_site_fract_x
 _atom_site_fract_y
 _atom_site_fract_z
 _atom_site_occupancy
  Fe  Fe0  1  0.35150900  0.98799200  0.12422900  1
  Fe  Fe1  1  0.14548500  0.99331500  0.62920300  1
  Fe  Fe2  1  0.84229500  0.24376300  0.62235100  1
  Fe  Fe3  1  0.67221800  0.24186000  0.10844500  1
  Fe  Fe4  1  0.65644200  0.00269000  0.81717700  1
  Fe  Fe5  1  0.86205700  0.99882700  0.32182000  1
  Fe  Fe6  1  0.15954400  0.24599200  0.33788500  1
  Fe  Fe7  1  0.35129100  0.24541000  0.82995300  1
  Fe  Fe8  1  0.34835000  0.50825500  0.11800700  1
  Fe  Fe9  1  0.14468400  0.49288600  0.63018300  1
  Fe  Fe10  1  0.84828300  0.74291800  0.61074800  1
  Fe  Fe11  1  0.65323000  0.74300900  0.11831500  1
  Fe  Fe12  1  0.65747200  0.48361100  0.81973900  1
  Fe  Fe13  1  0.86073000  0.49494300  0.32146400  1
  Fe  Fe14  1  0.15610400  0.74461800  0.33766600  1
  Fe  Fe15  1  0.35970500  0.74533200  0.82935400  1
  H  H16  1  0.35964400  0.98377000  0.39286000  1
  H  H17  1  0.41383500  0.99768000  0.64061200  1
  H  H18  1  0.92330600  0.26979900  0.11910700  1
  H  H19  1  0.64875500  0.97969100  0.54237100  1
  H  H20  1  0.60396500  0.02265400  0.31898900  1
  H  H21  1  0.15703800  0.23526900  0.07556300  1
  H  H22  1  0.48809200  0.28302300  0.23921400  1
  H  H23  1  0.07628800  0.23978700  0.82067500  1
  H  H24  1  0.35698400  0.50918500  0.39267300  1
  H  H25  1  0.41169300  0.48336700  0.63878600  1
  H  H26  1  0.85966700  0.75706400  0.85915100  1
  H  H27  1  0.91233100  0.76118700  0.11435900  1
  H  H28  1  0.64695300  0.49525000  0.54840400  1
  H  H29  1  0.61582300  0.55689600  0.33127100  1
  H  H30  1  0.14225800  0.75070800  0.08193900  1
  H  H31  1  0.08948000  0.74109700  0.83038300  1
  O  O32  1  0.30482900  0.99561000  0.32036900  1
  O  O33  1  0.04827700  0.99652400  0.30777400  1
  O  O34  1  0.33939500  0.99339800  0.69380800  1
  O  O35  1  0.33361100  0.99685900  0.94627700  1
  O  O36  1  0.78468700  0.24251000  0.79987100  1
  O  O37  1  0.53262200  0.24480600  0.80531400  1
  O  O38  1  0.85364600  0.25173700  0.17715900  1
  O  O39  1  0.83335100  0.24630800  0.43077000  1
  O  O40  1  0.70217200  0.98719900  0.61603800  1
  O  O41  1  0.96064900  0.99266000  0.63589600  1
  O  O42  1  0.66846000  0.00326500  0.25559200  1
  O  O43  1  0.67455600  0.98985800  0.00424500  1
  O  O44  1  0.22010300  0.24642500  0.14132000  1
  O  O45  1  0.47465000  0.25259700  0.15063100  1
  O  O46  1  0.15324400  0.24248000  0.77055200  1
  O  O47  1  0.17824100  0.24386200  0.51811300  1
  O  O48  1  0.30371100  0.49307600  0.31918700  1
  O  O49  1  0.04743100  0.49388500  0.30734700  1
  O  O50  1  0.33915000  0.49365700  0.69407500  1
  O  O51  1  0.33498800  0.49510300  0.94322800  1
  O  O52  1  0.79069400  0.74443200  0.79971200  1
  O  O53  1  0.54004200  0.74397900  0.80747400  1
  O  O54  1  0.84804500  0.75015400  0.17859500  1
  O  O55  1  0.83296500  0.74665000  0.42818500  1
  O  O56  1  0.70289100  0.50048700  0.62011000  1
  O  O57  1  0.96013200  0.49454500  0.63727600  1
  O  O58  1  0.66590600  0.50280100  0.26196600  1
  O  O59  1  0.67375100  0.49529000  0.00704200  1
  O  O60  1  0.21094300  0.74686000  0.14204700  1
  O  O61  1  0.46628300  0.74470900  0.14185400  1
  O  O62  1  0.15861500  0.74325200  0.77058100  1
  O  O63  1  0.17730600  0.74270300  0.51758000  1
