# generated using pymatgen
data_Fe8H10O17
_symmetry_space_group_name_H-M   'P 1'
_cell_length_a   10.85349026
_cell_length_b   5.91661728
_cell_length_c   10.85244632
_cell_angle_alpha   90.61866992
_cell_angle_beta   90.88141244
_cell_angle_gamma   88.79874723
_symmetry_Int_Tables_number   1
_chemical_formula_structural   Fe8H10O17
_chemical_formula_sum   'Fe16 H20 O34'
_cell_volume   696.62627709
_cell_formula_units_Z   2
loop_
 _symmetry_equiv_pos_site_id
 _symmetry_equiv_pos_as_xyz
  1  'x, y, z'
loop_
 _atom_site_type_symbol
 _atom_site_label
 _atom_site_symmetry_multiplicity
 _atom_site_fract_x
 _atom_site_fract_y
 _atom_site_fract_z
 _atom_site_occupancy
  Fe  Fe0  1  0.33150000  0.01494300  0.07706600  1
  Fe  Fe1  1  0.14831100  0.03557000  0.63022700  1
  Fe  Fe2  1  0.83883700  0.28873900  0.58782400  1
  Fe  Fe3  1  0.71253400  0.23289300  0.07385200  1
  Fe  Fe4  1  0.68852600  0.99476500  0.79691700  1
  Fe  Fe5  1  0.88451900  0.99565500  0.24816800  1
  Fe  Fe6  1  0.15348700  0.26578700  0.34097000  1
  Fe  Fe7  1  0.33747000  0.27446500  0.78999800  1
  Fe  Fe8  1  0.33138600  0.48565800  0.07416000  1
  Fe  Fe9  1  0.14118100  0.53715800  0.62759600  1
  Fe  Fe10  1  0.81007100  0.78971800  0.52725200  1
  Fe  Fe11  1  0.88843500  0.69467200  0.95537600  1
  Fe  Fe12  1  0.68384800  0.46784100  0.80474600  1
  Fe  Fe13  1  0.87303500  0.50393800  0.25855800  1
  Fe  Fe14  1  0.16148600  0.77321600  0.34022000  1
  Fe  Fe15  1  0.35378000  0.77453300  0.78726000  1
  H  H16  1  0.31464300  0.07657500  0.27369700  1
  H  H17  1  0.38680500  0.04013300  0.57916500  1
  H  H18  1  0.54037200  0.22161100  0.89994000  1
  H  H19  1  0.73323800  0.26365800  0.36332200  1
  H  H20  1  0.63590200  0.12043200  0.58224000  1
  H  H21  1  0.97941600  0.02946700  0.48214500  1
  H  H22  1  0.66719300  0.89004900  0.20734000  1
  H  H23  1  0.50985600  0.25327900  0.18191000  1
  H  H24  1  0.08547800  0.32173600  0.82760800  1
  H  H25  1  0.31257700  0.49490100  0.27761800  1
  H  H26  1  0.38304100  0.52533300  0.57918800  1
  H  H27  1  0.55346500  0.74236100  0.90663100  1
  H  H28  1  0.74725500  0.62425300  0.67256500  1
  H  H29  1  0.98113400  0.52907600  0.47472200  1
  H  H30  1  0.13472500  0.76106700  0.07679700  1
  H  H31  1  0.52680900  0.72246500  0.12577200  1
  H  H32  1  0.09763700  0.85369100  0.83106600  1
  H  H33  1  0.00631300  0.37903900  0.01783900  1
  H  H34  1  0.98946500  0.07313900  0.95871200  1
  H  H35  1  0.70379900  0.60140400  0.13215400  1
  O  O36  1  0.28158100  0.03611200  0.35399200  1
  O  O37  1  0.04047800  0.02715800  0.32109800  1
  O  O38  1  0.35073900  0.03022600  0.66041200  1
  O  O39  1  0.34528600  0.02199500  0.90150500  1
  O  O40  1  0.79292900  0.23370900  0.76533600  1
  O  O41  1  0.55815000  0.23639100  0.81152200  1
  O  O42  1  0.89843200  0.24976100  0.15412900  1
  O  O43  1  0.81725800  0.29591100  0.39133500  1
  O  O44  1  0.67564900  0.98109300  0.61109200  1
  O  O45  1  0.94272700  0.01900600  0.56546400  1
  O  O46  1  0.70180900  0.04012000  0.21656700  1
  O  O47  1  0.71098200  0.01088700  0.96339400  1
  O  O48  1  0.23421600  0.25719200  0.15515700  1
  O  O49  1  0.47815200  0.24469400  0.09734200  1
  O  O50  1  0.14304400  0.28746600  0.75539300  1
  O  O51  1  0.14778500  0.26887700  0.51493500  1
  O  O52  1  0.27352200  0.50532000  0.35802200  1
  O  O53  1  0.03645400  0.50286200  0.32154400  1
  O  O54  1  0.34089400  0.52455500  0.65773600  1
  O  O55  1  0.34226400  0.52486300  0.90003100  1
  O  O56  1  0.79403700  0.72609800  0.79482800  1
  O  O57  1  0.56265500  0.73984500  0.81697500  1
  O  O58  1  0.89495600  0.71905300  0.13522800  1
  O  O59  1  0.83547000  0.76295800  0.35995900  1
  O  O60  1  0.70487500  0.53099200  0.60395300  1
  O  O61  1  0.95411000  0.54574100  0.56257500  1
  O  O62  1  0.70978700  0.47097400  0.96901500  1
  O  O63  1  0.21126000  0.75588600  0.12646700  1
  O  O64  1  0.43799900  0.74336100  0.13183400  1
  O  O65  1  0.15116500  0.80636700  0.75538500  1
  O  O66  1  0.15930500  0.80115000  0.51860200  1
  O  O67  1  0.99834500  0.43882200  0.93394500  1
  O  O68  1  0.01293900  0.91792600  0.93476700  1
  O  O69  1  0.70018700  0.48875200  0.19782500  1
