# generated using pymatgen
data_SrH4O3
_symmetry_space_group_name_H-M   'P 1'
_cell_length_a   6.84351100
_cell_length_b   3.69473900
_cell_length_c   6.20974860
_cell_angle_alpha   89.82012427
_cell_angle_beta   90.00000000
_cell_angle_gamma   90.00000000
_symmetry_Int_Tables_number   1
_chemical_formula_structural   SrH4O3
_chemical_formula_sum   'Sr2 H8 O6'
_cell_volume   157.01263883
_cell_formula_units_Z   2
loop_
 _symmetry_equiv_pos_site_id
 _symmetry_equiv_pos_as_xyz
  1  'x, y, z'
loop_
 _atom_site_type_symbol
 _atom_site_label
 _atom_site_symmetry_multiplicity
 _atom_site_fract_x
 _atom_site_fract_y
 _atom_site_fract_z
 _atom_site_occupancy
  Sr  Sr0  1  0.75424900  0.99253800  0.62202700  1
  Sr  Sr1  1  0.25424900  0.00746200  0.37797300  1
  H  H2  1  0.82058600  0.78574100  0.11865900  1
  H  H3  1  0.83256700  0.20517500  0.11287700  1
  H  H4  1  0.32058600  0.21425900  0.88134100  1
  H  H5  1  0.33256700  0.79482500  0.88712300  1
  H  H6  1  0.60352000  0.44885800  0.94669600  1
  H  H7  1  0.10352000  0.55114200  0.05330400  1
  H  H8  1  0.59259900  0.50219000  0.29078000  1
  H  H9  1  0.09259900  0.49781000  0.70922000  1
  O  O10  1  0.87459200  0.99258700  0.20678700  1
  O  O11  1  0.37459200  0.00741300  0.79321300  1
  O  O12  1  0.74355700  0.48677400  0.93094300  1
  O  O13  1  0.24355700  0.51322600  0.06905700  1
  O  O14  1  0.53793200  0.49872000  0.43625000  1
  O  O15  1  0.03793200  0.50128000  0.56375000  1
