# generated using pymatgen
data_Fe(HO)2
_symmetry_space_group_name_H-M   'P 1'
_cell_length_a   3.31057005
_cell_length_b   3.31057005
_cell_length_c   4.64823612
_cell_angle_alpha   85.39175495
_cell_angle_beta   85.39175495
_cell_angle_gamma   59.82321657
_symmetry_Int_Tables_number   1
_chemical_formula_structural   Fe(HO)2
_chemical_formula_sum   'Fe1 H2 O2'
_cell_volume   43.85047941
_cell_formula_units_Z   1
loop_
 _symmetry_equiv_pos_site_id
 _symmetry_equiv_pos_as_xyz
  1  'x, y, z'
loop_
 _atom_site_type_symbol
 _atom_site_label
 _atom_site_symmetry_multiplicity
 _atom_site_fract_x
 _atom_site_fract_y
 _atom_site_fract_z
 _atom_site_occupancy
  Fe  Fe0  1  0.96884200  0.03115800  0.00000000  1
  H  H1  1  0.58050900  0.83095600  0.57300000  1
  H  H2  1  0.16904400  0.41949100  0.42700000  1
  O  O3  1  0.65273700  0.72994700  0.77564600  1
  O  O4  1  0.27005300  0.34726300  0.22435400  1
