# generated using pymatgen
data_Fe8H10O17
_symmetry_space_group_name_H-M   'P 1'
_cell_length_a   6.13081000
_cell_length_b   10.51725659
_cell_length_c   11.04037398
_cell_angle_alpha   90.91883109
_cell_angle_beta   90.77585183
_cell_angle_gamma   92.60081700
_symmetry_Int_Tables_number   1
_chemical_formula_structural   Fe8H10O17
_chemical_formula_sum   'Fe16 H20 O34'
_cell_volume   710.97832566
_cell_formula_units_Z   2
loop_
 _symmetry_equiv_pos_site_id
 _symmetry_equiv_pos_as_xyz
  1  'x, y, z'
loop_
 _atom_site_type_symbol
 _atom_site_label
 _atom_site_symmetry_multiplicity
 _atom_site_fract_x
 _atom_site_fract_y
 _atom_site_fract_z
 _atom_site_occupancy
  Fe  Fe0  1  0.01471500  0.67521100  0.08089900  1
  Fe  Fe1  1  0.02785800  0.85810100  0.62504200  1
  Fe  Fe2  1  0.28592600  0.17785100  0.58181200  1
  Fe  Fe3  1  0.23702900  0.27280400  0.07591700  1
  Fe  Fe4  1  0.99767700  0.30442500  0.79586200  1
  Fe  Fe5  1  0.99390500  0.12054000  0.25194700  1
  Fe  Fe6  1  0.26489300  0.83012200  0.33306800  1
  Fe  Fe7  1  0.27015100  0.66245200  0.79522700  1
  Fe  Fe8  1  0.50062700  0.68228100  0.08115700  1
  Fe  Fe9  1  0.53382500  0.85643400  0.62560000  1
  Fe  Fe10  1  0.77992700  0.18215000  0.53371000  1
  Fe  Fe11  1  0.69914500  0.12714700  0.96015600  1
  Fe  Fe12  1  0.48033200  0.32504100  0.80392700  1
  Fe  Fe13  1  0.51069600  0.13141400  0.25940900  1
  Fe  Fe14  1  0.76476000  0.83267200  0.33975200  1
  Fe  Fe15  1  0.76900400  0.66003700  0.79483100  1
  H  H16  1  0.01153200  0.62166700  0.29881800  1
  H  H17  1  0.01876100  0.62181400  0.58218500  1
  H  H18  1  0.23708400  0.46814500  0.90919400  1
  H  H19  1  0.25201600  0.27860000  0.36830100  1
  H  H20  1  0.05127400  0.39223500  0.55432500  1
  H  H21  1  0.03063600  0.01712400  0.47297700  1
  H  H22  1  0.91281800  0.34869600  0.21847800  1
  H  H23  1  0.24863600  0.48553400  0.16274800  1
  H  H24  1  0.34841000  0.91408600  0.83357000  1
  H  H25  1  0.52106100  0.61781400  0.30311800  1
  H  H26  1  0.51808700  0.61354800  0.58531900  1
  H  H27  1  0.76891200  0.45163700  0.90629400  1
  H  H28  1  0.63846800  0.23607300  0.68498300  1
  H  H29  1  0.51573700  0.01128600  0.47231700  1
  H  H30  1  0.78623700  0.87893100  0.07648700  1
  H  H31  1  0.70254100  0.47625000  0.14004300  1
  H  H32  1  0.84689200  0.92000000  0.84726300  1
  H  H33  1  0.36911400  0.00006200  0.01005800  1
  H  H34  1  0.05289100  0.00346000  0.92572600  1
  H  H35  1  0.60120100  0.30710600  0.12891600  1
  O  O36  1  0.00811300  0.70000100  0.34595300  1
  O  O37  1  0.01996500  0.95419000  0.33013700  1
  O  O38  1  0.02152600  0.65233300  0.66618000  1
  O  O39  1  0.02180700  0.67128300  0.90690400  1
  O  O40  1  0.24553900  0.19941600  0.75589800  1
  O  O41  1  0.24535700  0.45778300  0.81994300  1
  O  O42  1  0.24905700  0.10512400  0.14634600  1
  O  O43  1  0.27985300  0.19205500  0.39436900  1
  O  O44  1  0.02199700  0.31171300  0.59406500  1
  O  O45  1  0.02250400  0.05136100  0.56036100  1
  O  O46  1  0.06271900  0.32230500  0.22391900  1
  O  O47  1  0.98543200  0.26944400  0.96501600  1
  O  O48  1  0.26139800  0.77783800  0.14146700  1
  O  O49  1  0.24930300  0.53327600  0.08677600  1
  O  O50  1  0.29363500  0.85592100  0.75885600  1
  O  O51  1  0.27325400  0.83250100  0.51952500  1
  O  O52  1  0.51268800  0.70139900  0.34061900  1
  O  O53  1  0.51783900  0.95531600  0.33080500  1
  O  O54  1  0.51615700  0.65172600  0.66640800  1
  O  O55  1  0.51952000  0.67101000  0.90704100  1
  O  O56  1  0.73246800  0.19280700  0.77142300  1
  O  O57  1  0.75501500  0.45437500  0.81761200  1
  O  O58  1  0.74282900  0.10688200  0.13730300  1
  O  O59  1  0.77151800  0.18466900  0.36853700  1
  O  O60  1  0.54942500  0.29580800  0.60652900  1
  O  O61  1  0.53022900  0.04624400  0.55914400  1
  O  O62  1  0.49683400  0.27801400  0.96784200  1
  O  O63  1  0.77049700  0.79954500  0.12318500  1
  O  O64  1  0.74410600  0.56605500  0.12826700  1
  O  O65  1  0.78851100  0.84763400  0.75136600  1
  O  O66  1  0.77485400  0.82957600  0.51726700  1
  O  O67  1  0.45168700  0.99955800  0.93422700  1
  O  O68  1  0.89704000  0.97977100  0.92786300  1
  O  O69  1  0.50388900  0.32334200  0.19739700  1
