# generated using pymatgen
data_Mg5Bi
_symmetry_space_group_name_H-M   'P 1'
_cell_length_a   8.40030875
_cell_length_b   8.40030875
_cell_length_c   5.53548400
_cell_angle_alpha   90.00000000
_cell_angle_beta   90.00000000
_cell_angle_gamma   157.78417944
_symmetry_Int_Tables_number   1
_chemical_formula_structural   Mg5Bi
_chemical_formula_sum   'Mg5 Bi1'
_cell_volume   147.68917626
_cell_formula_units_Z   1
loop_
 _symmetry_equiv_pos_site_id
 _symmetry_equiv_pos_as_xyz
  1  'x, y, z'
loop_
 _atom_site_type_symbol
 _atom_site_label
 _atom_site_symmetry_multiplicity
 _atom_site_fract_x
 _atom_site_fract_y
 _atom_site_fract_z
 _atom_site_occupancy
  Mg  Mg0  1  0.00040500  0.99959500  0.00000000  1
  Mg  Mg1  1  0.33458400  0.66541600  0.00000000  1
  Mg  Mg2  1  0.66504000  0.33496000  0.00000000  1
  Mg  Mg3  1  0.44912100  0.55087900  0.50000000  1
  Mg  Mg4  1  0.10692500  0.89307500  0.50000000  1
  Bi  Bi5  1  0.77725800  0.22274200  0.50000000  1
