# generated using pymatgen
data_Al(HO)3
_symmetry_space_group_name_H-M   'P 1'
_cell_length_a   9.45935200
_cell_length_b   5.23556900
_cell_length_c   8.67936131
_cell_angle_alpha   87.75878742
_cell_angle_beta   90.00000000
_cell_angle_gamma   90.00000000
_symmetry_Int_Tables_number   1
_chemical_formula_structural   Al(HO)3
_chemical_formula_sum   'Al8 H24 O24'
_cell_volume   429.51733839
_cell_formula_units_Z   8
loop_
 _symmetry_equiv_pos_site_id
 _symmetry_equiv_pos_as_xyz
  1  'x, y, z'
loop_
 _atom_site_type_symbol
 _atom_site_label
 _atom_site_symmetry_multiplicity
 _atom_site_fract_x
 _atom_site_fract_y
 _atom_site_fract_z
 _atom_site_occupancy
  Al  Al0  1  0.51573400  0.01471800  0.96349300  1
  Al  Al1  1  0.50704400  0.52327900  0.44393500  1
  Al  Al2  1  0.00704400  0.47672100  0.55606500  1
  Al  Al3  1  0.01573400  0.98528200  0.03650700  1
  Al  Al4  1  0.51060800  0.00921800  0.60545700  1
  Al  Al5  1  0.49181000  0.50562400  0.09988600  1
  Al  Al6  1  0.99181000  0.49437600  0.90011400  1
  Al  Al7  1  0.01060800  0.99078200  0.39454300  1
  H  H8  1  0.19256000  0.63530100  0.34951600  1
  H  H9  1  0.36289300  0.81192100  0.24905800  1
  H  H10  1  0.60514000  0.71094900  0.79737200  1
  H  H11  1  0.10514000  0.28905100  0.20262800  1
  H  H12  1  0.69256000  0.36469900  0.65048400  1
  H  H13  1  0.86289300  0.18807900  0.75094200  1
  H  H14  1  0.67991800  0.29296000  0.25121500  1
  H  H15  1  0.28463800  0.13970400  0.82156900  1
  H  H16  1  0.39536400  0.36324300  0.76024300  1
  H  H17  1  0.89536400  0.63675700  0.23975700  1
  H  H18  1  0.78463800  0.86029600  0.17843100  1
  H  H19  1  0.17991800  0.70704000  0.74878500  1
  H  H20  1  0.71723900  0.80842500  0.47973300  1
  H  H21  1  0.21723900  0.19157500  0.52026700  1
  H  H22  1  0.29621400  0.17935900  0.08068900  1
  H  H23  1  0.79621400  0.82064100  0.91931100  1
  H  H24  1  0.38323700  0.15527500  0.35603200  1
  H  H25  1  0.71574200  0.31740200  0.98392600  1
  H  H26  1  0.21574200  0.68259800  0.01607400  1
  H  H27  1  0.88323700  0.84472500  0.64396800  1
  H  H28  1  0.60648700  0.88820800  0.22520400  1
  H  H29  1  0.29981300  0.71828500  0.56447200  1
  H  H30  1  0.79981300  0.28171500  0.43552800  1
  H  H31  1  0.10648700  0.11179200  0.77479600  1
  O  O32  1  0.38545600  0.63544500  0.28045600  1
  O  O33  1  0.61351800  0.89744900  0.78355900  1
  O  O34  1  0.11351800  0.10255100  0.21644100  1
  O  O35  1  0.88545600  0.36455500  0.71954400  1
  O  O36  1  0.60519100  0.41451600  0.26828500  1
  O  O37  1  0.38971300  0.17558900  0.77653000  1
  O  O38  1  0.88971300  0.82441100  0.22347000  1
  O  O39  1  0.10519100  0.58548400  0.73171500  1
  O  O40  1  0.40814600  0.73010800  0.97449400  1
  O  O41  1  0.61428000  0.82697500  0.46001700  1
  O  O42  1  0.11428000  0.17302500  0.53998300  1
  O  O43  1  0.90814600  0.26989200  0.02550600  1
  O  O44  1  0.61303700  0.31743100  0.58424200  1
  O  O45  1  0.39730200  0.19491100  0.10064100  1
  O  O46  1  0.89730200  0.80508900  0.89935900  1
  O  O47  1  0.11303700  0.68256900  0.41575800  1
  O  O48  1  0.39488500  0.20852100  0.46243900  1
  O  O49  1  0.61304500  0.33794700  0.95887500  1
  O  O50  1  0.11304500  0.66205300  0.04112500  1
  O  O51  1  0.89488500  0.79147900  0.53756100  1
  O  O52  1  0.64387800  0.88174800  0.11962300  1
  O  O53  1  0.39898400  0.70391700  0.59642800  1
  O  O54  1  0.89898400  0.29608300  0.40357200  1
  O  O55  1  0.14387800  0.11825200  0.88037700  1
