# generated using pymatgen
data_Ta2H4O7
_symmetry_space_group_name_H-M   'P 1'
_cell_length_a   7.72945353
_cell_length_b   7.49804704
_cell_length_c   7.46237693
_cell_angle_alpha   62.21642088
_cell_angle_beta   59.11817636
_cell_angle_gamma   58.66540276
_symmetry_Int_Tables_number   1
_chemical_formula_structural   Ta2H4O7
_chemical_formula_sum   'Ta4 H8 O14'
_cell_volume   305.10399898
_cell_formula_units_Z   2
loop_
 _symmetry_equiv_pos_site_id
 _symmetry_equiv_pos_as_xyz
  1  'x, y, z'
loop_
 _atom_site_type_symbol
 _atom_site_label
 _atom_site_symmetry_multiplicity
 _atom_site_fract_x
 _atom_site_fract_y
 _atom_site_fract_z
 _atom_site_occupancy
  Ta  Ta0  1  0.12500000  0.62500000  0.62500000  1
  Ta  Ta1  1  0.62500000  0.12500000  0.62500000  1
  Ta  Ta2  1  0.62500000  0.62500000  0.12500000  1
  Ta  Ta3  1  0.62500000  0.62500000  0.62500000  1
  H  H4  1  0.80371000  0.19629000  0.19629000  1
  H  H5  1  0.19629000  0.80371000  0.80371000  1
  H  H6  1  0.44629000  0.05371000  0.05371000  1
  H  H7  1  0.05371000  0.44629000  0.44629000  1
  H  H8  1  0.91188700  0.08811300  0.91188700  1
  H  H9  1  0.08811300  0.91188700  0.08811300  1
  H  H10  1  0.16188700  0.33811300  0.16188700  1
  H  H11  1  0.33811300  0.16188700  0.33811300  1
  O  O12  1  0.32678100  0.32678100  0.67321900  1
  O  O13  1  0.67321900  0.67321900  0.32678100  1
  O  O14  1  0.32054800  0.67945200  0.32054800  1
  O  O15  1  0.67945200  0.32054800  0.67945200  1
  O  O16  1  0.70665400  0.29334600  0.29334600  1
  O  O17  1  0.29334600  0.70665400  0.70665400  1
  O  O18  1  0.92321900  0.92321900  0.57678100  1
  O  O19  1  0.57678100  0.57678100  0.92321900  1
  O  O20  1  0.92945200  0.57054800  0.92945200  1
  O  O21  1  0.57054800  0.92945200  0.57054800  1
  O  O22  1  0.54334600  0.95665400  0.95665400  1
  O  O23  1  0.95665400  0.54334600  0.54334600  1
  O  O24  1  0.00000000  0.00000000  0.00000000  1
  O  O25  1  0.25000000  0.25000000  0.25000000  1
