# generated using pymatgen
data_V6H4O13
_symmetry_space_group_name_H-M   'P 1'
_cell_length_a   6.51003011
_cell_length_b   6.51003011
_cell_length_c   10.42548193
_cell_angle_alpha   79.71396454
_cell_angle_beta   100.28603546
_cell_angle_gamma   144.93112860
_symmetry_Int_Tables_number   1
_chemical_formula_structural   V6H4O13
_chemical_formula_sum   'V6 H4 O13'
_cell_volume   249.37130374
_cell_formula_units_Z   1
loop_
 _symmetry_equiv_pos_site_id
 _symmetry_equiv_pos_as_xyz
  1  'x, y, z'
loop_
 _atom_site_type_symbol
 _atom_site_label
 _atom_site_symmetry_multiplicity
 _atom_site_fract_x
 _atom_site_fract_y
 _atom_site_fract_z
 _atom_site_occupancy
  V  V0  1  0.64986000  0.35014000  0.99775000  1
  V  V1  1  0.35190900  0.64809100  0.00353600  1
  V  V2  1  0.59022200  0.40977800  0.60912400  1
  V  V3  1  0.40713400  0.59286600  0.36536300  1
  V  V4  1  0.28704300  0.71295700  0.63283800  1
  V  V5  1  0.71783500  0.28216500  0.38688800  1
  H  H6  1  0.81038600  0.18961400  0.87685800  1
  H  H7  1  0.92528300  0.07471700  0.49535700  1
  H  H8  1  0.51741300  0.48258700  0.80439900  1
  H  H9  1  0.58180900  0.41819100  0.19439900  1
  O  O10  1  0.81878800  0.18121200  0.97307600  1
  O  O11  1  0.19307700  0.80692300  0.00536400  1
  O  O12  1  0.12340600  0.87659400  0.61635300  1
  O  O13  1  0.89512100  0.10487900  0.40060500  1
  O  O14  1  0.75693200  0.24306800  0.59516900  1
  O  O15  1  0.25530300  0.74469700  0.41516600  1
  O  O16  1  0.49212500  0.50787500  0.00394200  1
  O  O17  1  0.59647100  0.40352900  0.80293500  1
  O  O18  1  0.38404600  0.61595400  0.19943800  1
  O  O19  1  0.32614500  0.67385500  0.79923100  1
  O  O20  1  0.66179200  0.33820800  0.19928100  1
  O  O21  1  0.43622100  0.56377900  0.58158000  1
  O  O22  1  0.56576600  0.43423400  0.42159200  1
