# generated using pymatgen
data_Ba(HO)2
_symmetry_space_group_name_H-M   'P 1'
_cell_length_a   8.10048100
_cell_length_b   6.89112300
_cell_length_c   11.00346185
_cell_angle_alpha   57.28906405
_cell_angle_beta   90.00000000
_cell_angle_gamma   90.00000000
_symmetry_Int_Tables_number   1
_chemical_formula_structural   Ba(HO)2
_chemical_formula_sum   'Ba8 H16 O16'
_cell_volume   516.81678349
_cell_formula_units_Z   8
loop_
 _symmetry_equiv_pos_site_id
 _symmetry_equiv_pos_as_xyz
  1  'x, y, z'
loop_
 _atom_site_type_symbol
 _atom_site_label
 _atom_site_symmetry_multiplicity
 _atom_site_fract_x
 _atom_site_fract_y
 _atom_site_fract_z
 _atom_site_occupancy
  Ba  Ba0  1  0.86865700  0.34556300  0.90173400  1
  Ba  Ba1  1  0.63134300  0.34556300  0.40173400  1
  Ba  Ba2  1  0.13134300  0.65443700  0.09826600  1
  Ba  Ba3  1  0.36865700  0.65443700  0.59826600  1
  Ba  Ba4  1  0.97372200  0.96786200  0.32686100  1
  Ba  Ba5  1  0.52627800  0.96786200  0.82686100  1
  Ba  Ba6  1  0.02627800  0.03213800  0.67313900  1
  Ba  Ba7  1  0.47372200  0.03213800  0.17313900  1
  H  H8  1  0.96533100  0.53490100  0.61581100  1
  H  H9  1  0.53466900  0.53490100  0.11581100  1
  H  H10  1  0.03466900  0.46509900  0.38418900  1
  H  H11  1  0.46533100  0.46509900  0.88418900  1
  H  H12  1  0.16736200  0.20219500  0.02527700  1
  H  H13  1  0.33263800  0.20219500  0.52527700  1
  H  H14  1  0.83263800  0.79780500  0.97472300  1
  H  H15  1  0.66736200  0.79780500  0.47472300  1
  H  H16  1  0.19110700  0.25016700  0.81537100  1
  H  H17  1  0.30889300  0.25016700  0.31537100  1
  H  H18  1  0.80889300  0.74983300  0.18462900  1
  H  H19  1  0.69110700  0.74983300  0.68462900  1
  H  H20  1  0.26682000  0.55941000  0.39694600  1
  H  H21  1  0.23318000  0.55941000  0.89694600  1
  H  H22  1  0.73318000  0.44059000  0.60305400  1
  H  H23  1  0.76682000  0.44059000  0.10305400  1
  O  O24  1  0.03642100  0.63835100  0.62855900  1
  O  O25  1  0.46357900  0.63835100  0.12855900  1
  O  O26  1  0.96357900  0.36164900  0.37144100  1
  O  O27  1  0.53642100  0.36164900  0.87144100  1
  O  O28  1  0.15466900  0.27287700  0.08313400  1
  O  O29  1  0.34533100  0.27287700  0.58313400  1
  O  O30  1  0.84533100  0.72712300  0.91686600  1
  O  O31  1  0.65466900  0.72712300  0.41686600  1
  O  O32  1  0.15923000  0.10046200  0.89871400  1
  O  O33  1  0.34077000  0.10046200  0.39871400  1
  O  O34  1  0.84077000  0.89953800  0.10128600  1
  O  O35  1  0.65923000  0.89953800  0.60128600  1
  O  O36  1  0.22213300  0.71202700  0.32378200  1
  O  O37  1  0.27786700  0.71202700  0.82378200  1
  O  O38  1  0.77786700  0.28797300  0.67621800  1
  O  O39  1  0.72213300  0.28797300  0.17621800  1
