# generated using pymatgen
data_VHO2
_symmetry_space_group_name_H-M   'P 1'
_cell_length_a   3.15276700
_cell_length_b   4.64864300
_cell_length_c   10.07522000
_cell_angle_alpha   90.00000000
_cell_angle_beta   90.00000000
_cell_angle_gamma   90.00000000
_symmetry_Int_Tables_number   1
_chemical_formula_structural   VHO2
_chemical_formula_sum   'V4 H4 O8'
_cell_volume   147.66331341
_cell_formula_units_Z   4
loop_
 _symmetry_equiv_pos_site_id
 _symmetry_equiv_pos_as_xyz
  1  'x, y, z'
loop_
 _atom_site_type_symbol
 _atom_site_label
 _atom_site_symmetry_multiplicity
 _atom_site_fract_x
 _atom_site_fract_y
 _atom_site_fract_z
 _atom_site_occupancy
  V  V0  1  0.00000000  0.29288600  0.65368300  1
  V  V1  1  0.00000000  0.70711400  0.15368300  1
  V  V2  1  0.50000000  0.20715400  0.36239300  1
  V  V3  1  0.50000000  0.79284600  0.86239300  1
  H  H4  1  0.00000000  0.65171700  0.43236400  1
  H  H5  1  0.00000000  0.34828300  0.93236400  1
  H  H6  1  0.50000000  0.84990700  0.59443000  1
  H  H7  1  0.50000000  0.15009300  0.09443000  1
  O  O8  1  0.00000000  0.96565000  0.30567300  1
  O  O9  1  0.00000000  0.03435000  0.80567300  1
  O  O10  1  0.50000000  0.54022600  0.70777400  1
  O  O11  1  0.50000000  0.45977400  0.20777400  1
  O  O12  1  0.00000000  0.44536900  0.45504200  1
  O  O13  1  0.00000000  0.55463100  0.95504200  1
  O  O14  1  0.50000000  0.05091600  0.56204100  1
  O  O15  1  0.50000000  0.94908400  0.06204100  1
