# generated using pymatgen
data_Sr(H2O3)2
_symmetry_space_group_name_H-M   'P 1'
_cell_length_a   5.13869089
_cell_length_b   5.13869089
_cell_length_c   9.38844240
_cell_angle_alpha   76.13297231
_cell_angle_beta   76.13297231
_cell_angle_gamma   69.43074774
_symmetry_Int_Tables_number   1
_chemical_formula_structural   Sr(H2O3)2
_chemical_formula_sum   'Sr2 H8 O12'
_cell_volume   222.02237863
_cell_formula_units_Z   2
loop_
 _symmetry_equiv_pos_site_id
 _symmetry_equiv_pos_as_xyz
  1  'x, y, z'
loop_
 _atom_site_type_symbol
 _atom_site_label
 _atom_site_symmetry_multiplicity
 _atom_site_fract_x
 _atom_site_fract_y
 _atom_site_fract_z
 _atom_site_occupancy
  Sr  Sr0  1  0.88375500  0.11337300  0.73880900  1
  Sr  Sr1  1  0.11337300  0.88375500  0.23880900  1
  H  H2  1  0.10055400  0.41566200  0.94263700  1
  H  H3  1  0.30079500  0.01132100  0.88700700  1
  H  H4  1  0.64400100  0.82274900  0.61502000  1
  H  H5  1  0.82274900  0.64400100  0.11502000  1
  H  H6  1  0.41566200  0.10055400  0.44263700  1
  H  H7  1  0.01132100  0.30079500  0.38700700  1
  H  H8  1  0.35444000  0.80298900  0.51259800  1
  H  H9  1  0.80298900  0.35444000  0.01259800  1
  O  O10  1  0.01734800  0.26292300  0.98458600  1
  O  O11  1  0.84175900  0.79109300  0.56517400  1
  O  O12  1  0.79109300  0.84175900  0.06517400  1
  O  O13  1  0.26292300  0.01734800  0.48458600  1
  O  O14  1  0.41278700  0.93275000  0.79751100  1
  O  O15  1  0.99106700  0.60605500  0.68756200  1
  O  O16  1  0.60605500  0.99106700  0.18756200  1
  O  O17  1  0.93275000  0.41278700  0.29751100  1
  O  O18  1  0.50167800  0.47961300  0.53875000  1
  O  O19  1  0.41596800  0.55280900  0.90438000  1
  O  O20  1  0.55280900  0.41596800  0.40438000  1
  O  O21  1  0.47961300  0.50167800  0.03875000  1
