# generated using pymatgen
data_Ta2H4O7
_symmetry_space_group_name_H-M   'P 1'
_cell_length_a   7.48111035
_cell_length_b   7.48111035
_cell_length_c   7.46055392
_cell_angle_alpha   61.07816705
_cell_angle_beta   61.07816705
_cell_angle_gamma   89.66310975
_symmetry_Int_Tables_number   1
_chemical_formula_structural   Ta2H4O7
_chemical_formula_sum   'Ta4 H8 O14'
_cell_volume   305.39265814
_cell_formula_units_Z   2
loop_
 _symmetry_equiv_pos_site_id
 _symmetry_equiv_pos_as_xyz
  1  'x, y, z'
loop_
 _atom_site_type_symbol
 _atom_site_label
 _atom_site_symmetry_multiplicity
 _atom_site_fract_x
 _atom_site_fract_y
 _atom_site_fract_z
 _atom_site_occupancy
  Ta  Ta0  1  0.50039000  0.01675100  0.49158100  1
  Ta  Ta1  1  0.50805700  0.51244200  0.49733700  1
  Ta  Ta2  1  0.01675100  0.50039000  0.99158100  1
  Ta  Ta3  1  0.51244200  0.50805700  0.99733700  1
  H  H4  1  0.95222800  0.24016600  0.62971200  1
  H  H5  1  0.80911900  0.08634100  0.91286500  1
  H  H6  1  0.66647300  0.93331200  0.76466000  1
  H  H7  1  0.08079500  0.93042000  0.75392900  1
  H  H8  1  0.24016600  0.95222800  0.12971200  1
  H  H9  1  0.08634100  0.80911900  0.41286500  1
  H  H10  1  0.93042000  0.08079500  0.25392900  1
  H  H11  1  0.93331200  0.66647300  0.26466000  1
  O  O12  1  0.56522100  0.82073700  0.39540000  1
  O  O13  1  0.21694000  0.48092400  0.09453100  1
  O  O14  1  0.18452800  0.84512100  0.74069200  1
  O  O15  1  0.58051200  0.46624800  0.74084800  1
  O  O16  1  0.20900200  0.46260600  0.74004100  1
  O  O17  1  0.58940600  0.84490200  0.74493100  1
  O  O18  1  0.48092400  0.21694000  0.59453100  1
  O  O19  1  0.82073700  0.56522100  0.89540000  1
  O  O20  1  0.84512100  0.18452800  0.24069200  1
  O  O21  1  0.46624800  0.58051200  0.24084800  1
  O  O22  1  0.84490200  0.58940600  0.24493100  1
  O  O23  1  0.46260600  0.20900200  0.24004100  1
  O  O24  1  0.88886900  0.08861600  0.76174900  1
  O  O25  1  0.08861600  0.88886900  0.26174900  1
