# generated using pymatgen
data_ZrSn
_symmetry_space_group_name_H-M   'P 1'
_cell_length_a   3.17910800
_cell_length_b   5.20447800
_cell_length_c   5.75996700
_cell_angle_alpha   90.00000000
_cell_angle_beta   90.00000000
_cell_angle_gamma   90.00000000
_symmetry_Int_Tables_number   1
_chemical_formula_structural   ZrSn
_chemical_formula_sum   'Zr2 Sn2'
_cell_volume   95.30209643
_cell_formula_units_Z   2
loop_
 _symmetry_equiv_pos_site_id
 _symmetry_equiv_pos_as_xyz
  1  'x, y, z'
loop_
 _atom_site_type_symbol
 _atom_site_label
 _atom_site_symmetry_multiplicity
 _atom_site_fract_x
 _atom_site_fract_y
 _atom_site_fract_z
 _atom_site_occupancy
  Zr  Zr0  1  0.00000000  0.07729800  0.00000000  1
  Zr  Zr1  1  0.50000000  0.92270200  0.50000000  1
  Sn  Sn2  1  0.50000000  0.58544600  0.00000000  1
  Sn  Sn3  1  0.00000000  0.41455400  0.50000000  1
