# generated using pymatgen
data_H5ClO6
_symmetry_space_group_name_H-M   'P 1'
_cell_length_a   6.04774200
_cell_length_b   8.07204000
_cell_length_c   10.90293200
_cell_angle_alpha   90.00000000
_cell_angle_beta   90.00000000
_cell_angle_gamma   90.00000000
_symmetry_Int_Tables_number   1
_chemical_formula_structural   H5ClO6
_chemical_formula_sum   'H20 Cl4 O24'
_cell_volume   532.25514039
_cell_formula_units_Z   4
loop_
 _symmetry_equiv_pos_site_id
 _symmetry_equiv_pos_as_xyz
  1  'x, y, z'
loop_
 _atom_site_type_symbol
 _atom_site_label
 _atom_site_symmetry_multiplicity
 _atom_site_fract_x
 _atom_site_fract_y
 _atom_site_fract_z
 _atom_site_occupancy
  H  H0  1  0.51825900  0.23072400  0.02692400  1
  H  H1  1  0.50000000  0.00000000  0.00000000  1
  H  H2  1  0.36634800  0.16680000  0.91588200  1
  H  H3  1  0.01825900  0.26927600  0.47307600  1
  H  H4  1  0.86634800  0.33320000  0.58411800  1
  H  H5  1  0.00000000  0.50000000  0.50000000  1
  H  H6  1  0.50000000  0.00000000  0.50000000  1
  H  H7  1  0.48174100  0.76927600  0.52692400  1
  H  H8  1  0.63365200  0.83320000  0.41588200  1
  H  H9  1  0.00000000  0.50000000  0.00000000  1
  H  H10  1  0.98174100  0.73072400  0.97307600  1
  H  H11  1  0.13365200  0.66680000  0.08411800  1
  H  H12  1  0.63365200  0.83320000  0.08411800  1
  H  H13  1  0.48174100  0.76927600  0.97307600  1
  H  H14  1  0.98174100  0.73072400  0.52692400  1
  H  H15  1  0.13365200  0.66680000  0.41588200  1
  H  H16  1  0.51825900  0.23072400  0.47307600  1
  H  H17  1  0.36634800  0.16680000  0.58411800  1
  H  H18  1  0.86634800  0.33320000  0.91588200  1
  H  H19  1  0.01825900  0.26927600  0.02692400  1
  Cl  Cl20  1  0.56054200  0.50621100  0.25000000  1
  Cl  Cl21  1  0.06054200  0.99378900  0.25000000  1
  Cl  Cl22  1  0.43945800  0.49378900  0.75000000  1
  Cl  Cl23  1  0.93945800  0.00621100  0.75000000  1
  O  O24  1  0.59722900  0.32884100  0.25000000  1
  O  O25  1  0.09722900  0.17115900  0.25000000  1
  O  O26  1  0.40277100  0.67115900  0.75000000  1
  O  O27  1  0.90277100  0.82884100  0.75000000  1
  O  O28  1  0.77071700  0.59618000  0.25000000  1
  O  O29  1  0.27071700  0.90382000  0.25000000  1
  O  O30  1  0.22928300  0.40382000  0.75000000  1
  O  O31  1  0.72928300  0.09618000  0.75000000  1
  O  O32  1  0.43501300  0.55350300  0.13951300  1
  O  O33  1  0.93501300  0.94649700  0.36048700  1
  O  O34  1  0.56498700  0.44649700  0.63951300  1
  O  O35  1  0.06498700  0.05350300  0.86048700  1
  O  O36  1  0.56498700  0.44649700  0.86048700  1
  O  O37  1  0.06498700  0.05350300  0.63951300  1
  O  O38  1  0.43501300  0.55350300  0.36048700  1
  O  O39  1  0.93501300  0.94649700  0.13951300  1
  O  O40  1  0.41976700  0.14141800  0.99912500  1
  O  O41  1  0.91976700  0.35858200  0.50087500  1
  O  O42  1  0.58023300  0.85858200  0.49912500  1
  O  O43  1  0.08023300  0.64141800  0.00087500  1
  O  O44  1  0.58023300  0.85858200  0.00087500  1
  O  O45  1  0.08023300  0.64141800  0.49912500  1
  O  O46  1  0.41976700  0.14141800  0.50087500  1
  O  O47  1  0.91976700  0.35858200  0.99912500  1
