# generated using pymatgen
data_V3H5O8
_symmetry_space_group_name_H-M   'P 1'
_cell_length_a   10.13930810
_cell_length_b   10.15314353
_cell_length_c   4.92958660
_cell_angle_alpha   77.34854725
_cell_angle_beta   102.76741220
_cell_angle_gamma   162.59563102
_symmetry_Int_Tables_number   1
_chemical_formula_structural   V3H5O8
_chemical_formula_sum   'V3 H5 O8'
_cell_volume   147.98351701
_cell_formula_units_Z   1
loop_
 _symmetry_equiv_pos_site_id
 _symmetry_equiv_pos_as_xyz
  1  'x, y, z'
loop_
 _atom_site_type_symbol
 _atom_site_label
 _atom_site_symmetry_multiplicity
 _atom_site_fract_x
 _atom_site_fract_y
 _atom_site_fract_z
 _atom_site_occupancy
  V  V0  1  0.04997100  0.03060600  0.52075500  1
  V  V1  1  0.81910600  0.19050900  0.64570600  1
  V  V2  1  0.18203600  0.82242400  0.35896600  1
  H  H3  1  0.49814700  0.51015100  0.07067900  1
  H  H4  1  0.54837200  0.72965200  0.54392700  1
  H  H5  1  0.31383500  0.69040400  0.07967900  1
  H  H6  1  0.61144200  0.38833000  0.96962500  1
  H  H7  1  0.69824800  0.31148100  0.81848300  1
  O  O8  1  0.50886900  0.44738200  0.76415100  1
  O  O9  1  0.49456300  0.53378600  0.25177800  1
  O  O10  1  0.86754400  0.04335800  0.57644400  1
  O  O11  1  0.10474100  0.90934600  0.42727700  1
  O  O12  1  0.33753700  0.67415600  0.90959300  1
  O  O13  1  0.66189900  0.34091100  0.07757100  1
  O  O14  1  0.71674400  0.29562700  0.63895300  1
  O  O15  1  0.27579500  0.72413100  0.36120700  1
