# generated using pymatgen
data_Mo(HO2)2
_symmetry_space_group_name_H-M   'P 1'
_cell_length_a   3.72965000
_cell_length_b   6.54214840
_cell_length_c   7.67760032
_cell_angle_alpha   66.45686415
_cell_angle_beta   80.96725418
_cell_angle_gamma   76.74100211
_symmetry_Int_Tables_number   1
_chemical_formula_structural   Mo(HO2)2
_chemical_formula_sum   'Mo2 H4 O8'
_cell_volume   166.71180838
_cell_formula_units_Z   2
loop_
 _symmetry_equiv_pos_site_id
 _symmetry_equiv_pos_as_xyz
  1  'x, y, z'
loop_
 _atom_site_type_symbol
 _atom_site_label
 _atom_site_symmetry_multiplicity
 _atom_site_fract_x
 _atom_site_fract_y
 _atom_site_fract_z
 _atom_site_occupancy
  Mo  Mo0  1  0.25150600  0.15646400  0.79639300  1
  Mo  Mo1  1  0.74849400  0.84353600  0.20360700  1
  H  H2  1  0.53159200  0.78178200  0.67145000  1
  H  H3  1  0.25678700  0.66827200  0.83992200  1
  H  H4  1  0.74321300  0.33172800  0.16007800  1
  H  H5  1  0.46840800  0.21821800  0.32855000  1
  O  O6  1  0.30788400  0.24273800  0.55116900  1
  O  O7  1  0.69211600  0.75726200  0.44883100  1
  O  O8  1  0.23602200  0.93502900  0.12607800  1
  O  O9  1  0.76397800  0.06497100  0.87392200  1
  O  O10  1  0.13646700  0.41126900  0.82789200  1
  O  O11  1  0.86353300  0.58873100  0.17210800  1
  O  O12  1  0.40527000  0.78920000  0.79260000  1
  O  O13  1  0.59473000  0.21080000  0.20740000  1
