# generated using pymatgen
data_H4SO5
_symmetry_space_group_name_H-M   'P 1'
_cell_length_a   6.93861300
_cell_length_b   7.16583889
_cell_length_c   8.38609907
_cell_angle_alpha   76.42660013
_cell_angle_beta   89.88166565
_cell_angle_gamma   89.60430647
_symmetry_Int_Tables_number   1
_chemical_formula_structural   H4SO5
_chemical_formula_sum   'H16 S4 O20'
_cell_volume   405.30957130
_cell_formula_units_Z   4
loop_
 _symmetry_equiv_pos_site_id
 _symmetry_equiv_pos_as_xyz
  1  'x, y, z'
loop_
 _atom_site_type_symbol
 _atom_site_label
 _atom_site_symmetry_multiplicity
 _atom_site_fract_x
 _atom_site_fract_y
 _atom_site_fract_z
 _atom_site_occupancy
  H  H0  1  0.65899100  0.05137500  0.04532400  1
  H  H1  1  0.82893300  0.38901500  0.61056200  1
  H  H2  1  0.32485900  0.60197300  0.90097300  1
  H  H3  1  0.17992600  0.60445700  0.39721100  1
  H  H4  1  0.65232000  0.65853400  0.14177100  1
  H  H5  1  0.85977400  0.72733900  0.20652500  1
  H  H6  1  0.63278900  0.75968700  0.29975800  1
  H  H7  1  0.18371500  0.10108800  0.40322300  1
  H  H8  1  0.33660600  0.26966200  0.30459800  1
  H  H9  1  0.11447800  0.23717100  0.22098800  1
  H  H10  1  0.30884700  0.10746600  0.90786500  1
  H  H11  1  0.15581900  0.26404500  0.79445800  1
  H  H12  1  0.38274900  0.22493000  0.72226400  1
  H  H13  1  0.88491100  0.78305600  0.76138700  1
  H  H14  1  0.79450100  0.91142200  0.58054900  1
  H  H15  1  0.66975500  0.72474600  0.70040700  1
  S  S16  1  0.65209700  0.24124700  0.46728400  1
  S  S17  1  0.16374200  0.76622600  0.03639300  1
  S  S18  1  0.34204600  0.75460600  0.54145900  1
  S  S19  1  0.84115400  0.29308800  0.94963600  1
  O  O20  1  0.79998900  0.09444600  0.45971100  1
  O  O21  1  0.31787400  0.90470200  0.03900400  1
  O  O22  1  0.18754000  0.89723800  0.52934700  1
  O  O23  1  0.68984100  0.12957100  0.93594000  1
  O  O24  1  0.76045900  0.42189300  0.50013500  1
  O  O25  1  0.26391200  0.57508200  0.01328300  1
  O  O26  1  0.24760300  0.56710100  0.50535100  1
  O  O27  1  0.73397200  0.45976100  0.97186900  1
  O  O28  1  0.51594600  0.16820100  0.60079000  1
  O  O29  1  0.02363600  0.83188300  0.90648300  1
  O  O30  1  0.49580600  0.81899800  0.42098800  1
  O  O31  1  0.97514000  0.20553900  0.07993100  1
  O  O32  1  0.55653900  0.31959700  0.30941200  1
  O  O33  1  0.06982200  0.70030200  0.20065700  1
  O  O34  1  0.42173500  0.68533400  0.70815300  1
  O  O35  1  0.93688800  0.32676700  0.78560200  1
  O  O36  1  0.70944600  0.75454400  0.19419100  1
  O  O37  1  0.19359600  0.23318400  0.32400700  1
  O  O38  1  0.29830300  0.23310800  0.82154000  1
  O  O39  1  0.80127200  0.77633500  0.66534400  1
