# generated using pymatgen
data_Te(HO)6
_symmetry_space_group_name_H-M   'P 1'
_cell_length_a   5.91528034
_cell_length_b   5.79077966
_cell_length_c   5.37207892
_cell_angle_alpha   63.86912730
_cell_angle_beta   61.50927335
_cell_angle_gamma   54.62159935
_symmetry_Int_Tables_number   1
_chemical_formula_structural   Te(HO)6
_chemical_formula_sum   'Te1 H6 O6'
_cell_volume   128.35592592
_cell_formula_units_Z   1
loop_
 _symmetry_equiv_pos_site_id
 _symmetry_equiv_pos_as_xyz
  1  'x, y, z'
loop_
 _atom_site_type_symbol
 _atom_site_label
 _atom_site_symmetry_multiplicity
 _atom_site_fract_x
 _atom_site_fract_y
 _atom_site_fract_z
 _atom_site_occupancy
  Te  Te0  1  0.02410600  0.97589400  0.97589400  1
  H  H1  1  0.14134300  0.37223000  0.85865700  1
  H  H2  1  0.21278900  0.78721100  0.42019400  1
  H  H3  1  0.54850600  0.45149400  0.23297700  1
  H  H4  1  0.76702300  0.23297700  0.45149400  1
  H  H5  1  0.62777000  0.85865700  0.37223000  1
  H  H6  1  0.57980600  0.42019400  0.78721100  1
  O  O7  1  0.27309600  0.72690400  0.72690400  1
  O  O8  1  0.22626500  0.20844000  0.77373500  1
  O  O9  1  0.26597600  0.73402400  0.23825100  1
  O  O10  1  0.73816700  0.26183300  0.26183300  1
  O  O11  1  0.79156000  0.77373500  0.20844000  1
  O  O12  1  0.76174900  0.23825100  0.73402400  1
