# generated using pymatgen
data_MgSn
_symmetry_space_group_name_H-M   'P 1'
_cell_length_a   3.49942100
_cell_length_b   4.99214700
_cell_length_c   5.72309500
_cell_angle_alpha   90.00000000
_cell_angle_beta   90.00000000
_cell_angle_gamma   90.00000000
_symmetry_Int_Tables_number   1
_chemical_formula_structural   MgSn
_chemical_formula_sum   'Mg2 Sn2'
_cell_volume   99.98031803
_cell_formula_units_Z   2
loop_
 _symmetry_equiv_pos_site_id
 _symmetry_equiv_pos_as_xyz
  1  'x, y, z'
loop_
 _atom_site_type_symbol
 _atom_site_label
 _atom_site_symmetry_multiplicity
 _atom_site_fract_x
 _atom_site_fract_y
 _atom_site_fract_z
 _atom_site_occupancy
  Mg  Mg0  1  0.00000000  0.09173900  0.00000000  1
  Mg  Mg1  1  0.50000000  0.90826100  0.50000000  1
  Sn  Sn2  1  0.50000000  0.59105900  0.00000000  1
  Sn  Sn3  1  0.00000000  0.40894100  0.50000000  1
