# generated using pymatgen
data_In2Se
_symmetry_space_group_name_H-M   'P 1'
_cell_length_a   4.09284600
_cell_length_b   11.61178800
_cell_length_c   15.16202700
_cell_angle_alpha   90.00000000
_cell_angle_beta   90.00000000
_cell_angle_gamma   90.00000000
_symmetry_Int_Tables_number   1
_chemical_formula_structural   In2Se
_chemical_formula_sum   'In16 Se8'
_cell_volume   720.57927634
_cell_formula_units_Z   8
loop_
 _symmetry_equiv_pos_site_id
 _symmetry_equiv_pos_as_xyz
  1  'x, y, z'
loop_
 _atom_site_type_symbol
 _atom_site_label
 _atom_site_symmetry_multiplicity
 _atom_site_fract_x
 _atom_site_fract_y
 _atom_site_fract_z
 _atom_site_occupancy
  In  In0  1  0.50000000  0.09446000  0.85966200  1
  In  In1  1  0.00000000  0.59446000  0.64033800  1
  In  In2  1  0.50000000  0.25305500  0.23928700  1
  In  In3  1  0.50000000  0.74694500  0.76071300  1
  In  In4  1  0.50000000  0.69162600  0.49154800  1
  In  In5  1  0.50000000  0.58669300  0.12249600  1
  In  In6  1  0.00000000  0.75305500  0.26071300  1
  In  In7  1  0.50000000  0.30837400  0.50845200  1
  In  In8  1  0.00000000  0.08669300  0.37750400  1
  In  In9  1  0.50000000  0.41330700  0.87750400  1
  In  In10  1  0.00000000  0.91330700  0.62249600  1
  In  In11  1  0.00000000  0.24694500  0.73928700  1
  In  In12  1  0.00000000  0.80837400  0.99154800  1
  In  In13  1  0.00000000  0.19162600  0.00845200  1
  In  In14  1  0.00000000  0.40554000  0.35966200  1
  In  In15  1  0.50000000  0.90554000  0.14033800  1
  Se  Se16  1  0.00000000  0.08467200  0.17642400  1
  Se  Se17  1  0.50000000  0.58467200  0.32357600  1
  Se  Se18  1  0.50000000  0.34680200  0.06866400  1
  Se  Se19  1  0.00000000  0.91532800  0.82357600  1
  Se  Se20  1  0.50000000  0.41532800  0.67642400  1
  Se  Se21  1  0.00000000  0.15319800  0.56866400  1
  Se  Se22  1  0.50000000  0.65319800  0.93133600  1
  Se  Se23  1  0.00000000  0.84680200  0.43133600  1
