# generated using pymatgen
data_RuC3SeO3
_symmetry_space_group_name_H-M   'P 1'
_cell_length_a   9.02854520
_cell_length_b   9.02854520
_cell_length_c   9.02854520
_cell_angle_alpha   109.47122063
_cell_angle_beta   109.47122063
_cell_angle_gamma   109.47122063
_symmetry_Int_Tables_number   1
_chemical_formula_structural   RuC3SeO3
_chemical_formula_sum   'Ru4 C12 Se4 O12'
_cell_volume   566.54112249
_cell_formula_units_Z   4
loop_
 _symmetry_equiv_pos_site_id
 _symmetry_equiv_pos_as_xyz
  1  'x, y, z'
loop_
 _atom_site_type_symbol
 _atom_site_label
 _atom_site_symmetry_multiplicity
 _atom_site_fract_x
 _atom_site_fract_y
 _atom_site_fract_z
 _atom_site_occupancy
  Ru  Ru0  1  0.73759900  0.73759900  0.73759900  1
  Ru  Ru1  1  0.00000000  0.26240100  0.00000000  1
  Ru  Ru2  1  0.00000000  0.00000000  0.26240100  1
  Ru  Ru3  1  0.26240100  0.00000000  0.00000000  1
  C  C4  1  0.18965800  0.44110300  0.00000000  1
  C  C5  1  0.81034200  0.81034200  0.25144500  1
  C  C6  1  0.44110300  0.00000000  0.18965800  1
  C  C7  1  0.55889700  0.74855500  0.55889700  1
  C  C8  1  0.44110300  0.18965800  0.00000000  1
  C  C9  1  0.00000000  0.18965800  0.44110300  1
  C  C10  1  0.18965800  0.00000000  0.44110300  1
  C  C11  1  0.55889700  0.55889700  0.74855500  1
  C  C12  1  0.00000000  0.44110300  0.18965800  1
  C  C13  1  0.81034200  0.25144500  0.81034200  1
  C  C14  1  0.25144500  0.81034200  0.81034200  1
  C  C15  1  0.74855500  0.55889700  0.55889700  1
  Se  Se16  1  0.00000000  0.00000000  0.76290200  1
  Se  Se17  1  0.00000000  0.76290200  0.00000000  1
  Se  Se18  1  0.76290200  0.00000000  0.00000000  1
  Se  Se19  1  0.23709800  0.23709800  0.23709800  1
  O  O20  1  0.54966200  0.30310800  0.00000000  1
  O  O21  1  0.30310800  0.00000000  0.54966200  1
  O  O22  1  0.75344600  0.45033800  0.45033800  1
  O  O23  1  0.45033800  0.75344600  0.45033800  1
  O  O24  1  0.00000000  0.54966200  0.30310800  1
  O  O25  1  0.69689200  0.24655400  0.69689200  1
  O  O26  1  0.69689200  0.69689200  0.24655400  1
  O  O27  1  0.45033800  0.45033800  0.75344600  1
  O  O28  1  0.54966200  0.00000000  0.30310800  1
  O  O29  1  0.00000000  0.30310800  0.54966200  1
  O  O30  1  0.30310800  0.54966200  0.00000000  1
  O  O31  1  0.24655400  0.69689200  0.69689200  1
