# generated using pymatgen
data_C
_symmetry_space_group_name_H-M   'P 1'
_cell_length_a   9.96986634
_cell_length_b   9.96986634
_cell_length_c   9.96986634
_cell_angle_alpha   125.50753385
_cell_angle_beta   125.23441265
_cell_angle_gamma   80.92466415
_symmetry_Int_Tables_number   1
_chemical_formula_structural   C
_chemical_formula_sum   C60
_cell_volume   635.04189481
_cell_formula_units_Z   60
loop_
 _symmetry_equiv_pos_site_id
 _symmetry_equiv_pos_as_xyz
  1  'x, y, z'
loop_
 _atom_site_type_symbol
 _atom_site_label
 _atom_site_symmetry_multiplicity
 _atom_site_fract_x
 _atom_site_fract_y
 _atom_site_fract_z
 _atom_site_occupancy
  C  C0  1  0.23578100  0.70108800  0.03403000  1
  C  C1  1  0.33294200  0.79824900  0.03403000  1
  C  C2  1  0.36026800  0.94735600  0.41291300  1
  C  C3  1  0.91705100  0.08949600  0.66918500  1
  C  C4  1  0.08212800  0.59007800  0.82688300  1
  C  C5  1  0.91787200  0.40992200  0.17311700  1
  C  C6  1  0.57968900  0.75213400  0.66918500  1
  C  C7  1  0.32351000  0.35217500  0.28297200  1
  C  C8  1  0.66705800  0.70108800  0.46530700  1
  C  C9  1  0.76421900  0.79824900  0.46530700  1
  C  C10  1  0.06920300  0.04053700  0.71702800  1
  C  C11  1  0.93079700  0.64782500  0.97133400  1
  C  C12  1  0.76990800  0.56609700  0.63530400  1
  C  C13  1  0.63973200  0.05264400  0.58708700  1
  C  C14  1  0.46555700  0.05264400  0.41291300  1
  C  C15  1  0.77465300  0.69843500  0.92378200  1
  C  C16  1  0.08212800  0.25524400  0.49205000  1
  C  C17  1  0.91705100  0.24786600  0.82755500  1
  C  C18  1  0.93079700  0.95946300  0.28297200  1
  C  C19  1  0.66705800  0.20175100  0.96597000  1
  C  C20  1  0.53444300  0.94735600  0.58708700  1
  C  C21  1  0.67649000  0.64782500  0.71702800  1
  C  C22  1  0.23926800  0.03394000  0.46344200  1
  C  C23  1  0.91165000  0.58797600  0.49962600  1
  C  C24  1  0.32351000  0.04053700  0.97133400  1
  C  C25  1  0.08835000  0.41202400  0.50037400  1
  C  C26  1  0.93079300  0.13460400  0.36469600  1
  C  C27  1  0.06920300  0.35217500  0.02866600  1
  C  C28  1  0.67649000  0.95946300  0.02866600  1
  C  C29  1  0.76073200  0.96606000  0.53655800  1
  C  C30  1  0.42950300  0.96606000  0.20532800  1
  C  C31  1  0.23926800  0.77582600  0.20532800  1
  C  C32  1  0.42031100  0.24786600  0.33081500  1
  C  C33  1  0.08294900  0.91050400  0.33081500  1
  C  C34  1  0.76073200  0.22417400  0.79467200  1
  C  C35  1  0.91787200  0.74475600  0.50795000  1
  C  C36  1  0.23680600  0.74475600  0.82688300  1
  C  C37  1  0.06920700  0.86539600  0.63530400  1
  C  C38  1  0.08835000  0.58797600  0.67632500  1
  C  C39  1  0.33294200  0.29891200  0.53469300  1
  C  C40  1  0.93079300  0.56609700  0.79619000  1
  C  C41  1  0.42031100  0.08949600  0.17244500  1
  C  C42  1  0.42950300  0.22417400  0.46344200  1
  C  C43  1  0.57049700  0.77582600  0.53655800  1
  C  C44  1  0.23680600  0.40992200  0.49205000  1
  C  C45  1  0.76319400  0.25524400  0.17311700  1
  C  C46  1  0.23009200  0.86539600  0.79619000  1
  C  C47  1  0.57049700  0.03394000  0.79467200  1
  C  C48  1  0.23009200  0.43390300  0.36469600  1
  C  C49  1  0.57968900  0.91050400  0.82755500  1
  C  C50  1  0.76990800  0.13460400  0.20381000  1
  C  C51  1  0.77465300  0.85087100  0.07621800  1
  C  C52  1  0.76319400  0.59007800  0.50795000  1
  C  C53  1  0.22534700  0.30156500  0.07621800  1
  C  C54  1  0.06920700  0.43390300  0.20381000  1
  C  C55  1  0.76421900  0.29891200  0.96597000  1
  C  C56  1  0.91165000  0.41202400  0.32367500  1
  C  C57  1  0.08294900  0.75213400  0.17244500  1
  C  C58  1  0.23578100  0.20175100  0.53469300  1
  C  C59  1  0.22534700  0.14912900  0.92378200  1
