# generated using pymatgen
data_K3TiCl6
_symmetry_space_group_name_H-M   'P 1'
_cell_length_a   7.26755600
_cell_length_b   13.18304600
_cell_length_c   15.74941306
_cell_angle_alpha   71.70382361
_cell_angle_beta   90.00000000
_cell_angle_gamma   90.00000000
_symmetry_Int_Tables_number   1
_chemical_formula_structural   K3TiCl6
_chemical_formula_sum   'K12 Ti4 Cl24'
_cell_volume   1432.64633627
_cell_formula_units_Z   4
loop_
 _symmetry_equiv_pos_site_id
 _symmetry_equiv_pos_as_xyz
  1  'x, y, z'
loop_
 _atom_site_type_symbol
 _atom_site_label
 _atom_site_symmetry_multiplicity
 _atom_site_fract_x
 _atom_site_fract_y
 _atom_site_fract_z
 _atom_site_occupancy
  K  K0  1  0.99801300  0.17240300  0.89735700  1
  K  K1  1  0.51520500  0.54429900  0.15847300  1
  K  K2  1  0.89030100  0.14546600  0.19894300  1
  K  K3  1  0.01520500  0.45570100  0.34152700  1
  K  K4  1  0.49801300  0.82759700  0.60264300  1
  K  K5  1  0.39030100  0.85453400  0.30105700  1
  K  K6  1  0.60969900  0.14546600  0.69894300  1
  K  K7  1  0.00198700  0.82759700  0.10264300  1
  K  K8  1  0.10969900  0.85453400  0.80105700  1
  K  K9  1  0.48479500  0.45570100  0.84152700  1
  K  K10  1  0.50198700  0.17240300  0.39735700  1
  K  K11  1  0.98479500  0.54429900  0.65847300  1
  Ti  Ti12  1  0.00000000  0.00000000  0.50000000  1
  Ti  Ti13  1  0.50000000  0.00000000  0.00000000  1
  Ti  Ti14  1  0.50000000  0.50000000  0.50000000  1
  Ti  Ti15  1  0.00000000  0.50000000  0.00000000  1
  Cl  Cl16  1  0.56573200  0.18029700  0.96455500  1
  Cl  Cl17  1  0.72021200  0.96944200  0.42080400  1
  Cl  Cl18  1  0.40111500  0.38477800  0.42222500  1
  Cl  Cl19  1  0.74284600  0.33550200  0.25140200  1
  Cl  Cl20  1  0.90111500  0.61522200  0.07777500  1
  Cl  Cl21  1  0.75715400  0.33550200  0.75140200  1
  Cl  Cl22  1  0.71114200  0.42517100  0.01334200  1
  Cl  Cl23  1  0.93426800  0.18029700  0.46455500  1
  Cl  Cl24  1  0.17323200  0.03452000  0.35639100  1
  Cl  Cl25  1  0.43426800  0.81970300  0.03544500  1
  Cl  Cl26  1  0.24284600  0.66449800  0.24859800  1
  Cl  Cl27  1  0.59888500  0.61522200  0.57777500  1
  Cl  Cl28  1  0.28885800  0.57482900  0.98665800  1
  Cl  Cl29  1  0.21114200  0.57482900  0.48665800  1
  Cl  Cl30  1  0.32676800  0.03452000  0.85639100  1
  Cl  Cl31  1  0.09888500  0.38477800  0.92222500  1
  Cl  Cl32  1  0.06573200  0.81970300  0.53544500  1
  Cl  Cl33  1  0.82676800  0.96548000  0.64360900  1
  Cl  Cl34  1  0.77978800  0.96944200  0.92080400  1
  Cl  Cl35  1  0.22021200  0.03055800  0.07919600  1
  Cl  Cl36  1  0.25715400  0.66449800  0.74859800  1
  Cl  Cl37  1  0.78885800  0.42517100  0.51334200  1
  Cl  Cl38  1  0.27978800  0.03055800  0.57919600  1
  Cl  Cl39  1  0.67323200  0.96548000  0.14360900  1
