# generated using pymatgen
data_Ba(HO)2
_symmetry_space_group_name_H-M   'P 1'
_cell_length_a   8.25639300
_cell_length_b   7.07440900
_cell_length_c   10.60821724
_cell_angle_alpha   58.33608493
_cell_angle_beta   90.00000000
_cell_angle_gamma   90.00000000
_symmetry_Int_Tables_number   1
_chemical_formula_structural   Ba(HO)2
_chemical_formula_sum   'Ba8 H16 O16'
_cell_volume   527.38149654
_cell_formula_units_Z   8
loop_
 _symmetry_equiv_pos_site_id
 _symmetry_equiv_pos_as_xyz
  1  'x, y, z'
loop_
 _atom_site_type_symbol
 _atom_site_label
 _atom_site_symmetry_multiplicity
 _atom_site_fract_x
 _atom_site_fract_y
 _atom_site_fract_z
 _atom_site_occupancy
  Ba  Ba0  1  0.87554700  0.35186700  0.90697200  1
  Ba  Ba1  1  0.62445300  0.35186700  0.40697200  1
  Ba  Ba2  1  0.12445300  0.64813300  0.09302800  1
  Ba  Ba3  1  0.37554700  0.64813300  0.59302800  1
  Ba  Ba4  1  0.95378500  0.92983600  0.33489900  1
  Ba  Ba5  1  0.54621500  0.92983600  0.83489900  1
  Ba  Ba6  1  0.04621500  0.07016400  0.66510100  1
  Ba  Ba7  1  0.45378500  0.07016400  0.16510100  1
  H  H8  1  0.10396100  0.66816900  0.71611400  1
  H  H9  1  0.39603900  0.66816900  0.21611400  1
  H  H10  1  0.89603900  0.33183100  0.28388600  1
  H  H11  1  0.60396100  0.33183100  0.78388600  1
  H  H12  1  0.15580800  0.19815200  0.02932000  1
  H  H13  1  0.34419200  0.19815200  0.52932000  1
  H  H14  1  0.84419200  0.80184800  0.97068000  1
  H  H15  1  0.65580800  0.80184800  0.47068000  1
  H  H16  1  0.25637500  0.17079500  0.85091400  1
  H  H17  1  0.24362500  0.17079500  0.35091400  1
  H  H18  1  0.74362500  0.82920500  0.14908600  1
  H  H19  1  0.75637500  0.82920500  0.64908600  1
  H  H20  1  0.19490400  0.55347900  0.39550200  1
  H  H21  1  0.30509600  0.55347900  0.89550200  1
  H  H22  1  0.80509600  0.44652100  0.60449800  1
  H  H23  1  0.69490400  0.44652100  0.10449800  1
  O  O24  1  0.02933800  0.69707000  0.63526200  1
  O  O25  1  0.47066200  0.69707000  0.13526200  1
  O  O26  1  0.97066200  0.30293000  0.36473800  1
  O  O27  1  0.52933800  0.30293000  0.86473800  1
  O  O28  1  0.14177700  0.25493900  0.09719500  1
  O  O29  1  0.35822300  0.25493900  0.59719500  1
  O  O30  1  0.85822300  0.74506100  0.90280500  1
  O  O31  1  0.64177700  0.74506100  0.40280500  1
  O  O32  1  0.15451600  0.10371500  0.90162500  1
  O  O33  1  0.34548400  0.10371500  0.40162500  1
  O  O34  1  0.84548400  0.89628500  0.09837500  1
  O  O35  1  0.65451600  0.89628500  0.59837500  1
  O  O36  1  0.21915300  0.71009300  0.32587700  1
  O  O37  1  0.28084700  0.71009300  0.82587700  1
  O  O38  1  0.78084700  0.28990700  0.67412300  1
  O  O39  1  0.71915300  0.28990700  0.17412300  1
