# generated using pymatgen
data_Ca2MnGaO5
_symmetry_space_group_name_H-M   'P 1'
_cell_length_a   5.39452900
_cell_length_b   5.63503700
_cell_length_c   15.02717000
_cell_angle_alpha   90.00000000
_cell_angle_beta   90.00000000
_cell_angle_gamma   90.00000000
_symmetry_Int_Tables_number   1
_chemical_formula_structural   Ca2MnGaO5
_chemical_formula_sum   'Ca8 Mn4 Ga4 O20'
_cell_volume   456.80148142
_cell_formula_units_Z   4
loop_
 _symmetry_equiv_pos_site_id
 _symmetry_equiv_pos_as_xyz
  1  'x, y, z'
loop_
 _atom_site_type_symbol
 _atom_site_label
 _atom_site_symmetry_multiplicity
 _atom_site_fract_x
 _atom_site_fract_y
 _atom_site_fract_z
 _atom_site_occupancy
  Ca  Ca0  1  0.51280000  0.02738500  0.39145300  1
  Ca  Ca1  1  0.48720000  0.97261500  0.89145300  1
  Ca  Ca2  1  0.01280000  0.47261500  0.39145300  1
  Ca  Ca3  1  0.98720000  0.52738500  0.89145300  1
  Ca  Ca4  1  0.01280000  0.47261500  0.10854700  1
  Ca  Ca5  1  0.51280000  0.02738500  0.10854700  1
  Ca  Ca6  1  0.48720000  0.97261500  0.60854700  1
  Ca  Ca7  1  0.98720000  0.52738500  0.60854700  1
  Mn  Mn8  1  0.50000000  0.50000000  0.50000000  1
  Mn  Mn9  1  0.00000000  0.00000000  0.50000000  1
  Mn  Mn10  1  0.00000000  0.00000000  0.00000000  1
  Mn  Mn11  1  0.50000000  0.50000000  0.00000000  1
  Ga  Ga12  1  0.04677300  0.93172700  0.25000000  1
  Ga  Ga13  1  0.95322700  0.06827300  0.75000000  1
  Ga  Ga14  1  0.45322700  0.43172700  0.75000000  1
  Ga  Ga15  1  0.54677300  0.56827300  0.25000000  1
  O  O16  1  0.97047900  0.07140100  0.14307700  1
  O  O17  1  0.47047900  0.42859900  0.14307700  1
  O  O18  1  0.90086500  0.62208700  0.25000000  1
  O  O19  1  0.75568800  0.74316700  0.48629800  1
  O  O20  1  0.02952100  0.92859900  0.64307700  1
  O  O21  1  0.09913500  0.37791300  0.75000000  1
  O  O22  1  0.24431200  0.25683300  0.51370200  1
  O  O23  1  0.74431200  0.24316700  0.98629800  1
  O  O24  1  0.25568800  0.75683300  0.48629800  1
  O  O25  1  0.74431200  0.24316700  0.51370200  1
  O  O26  1  0.24431200  0.25683300  0.98629800  1
  O  O27  1  0.25568800  0.75683300  0.01370200  1
  O  O28  1  0.52952100  0.57140100  0.64307700  1
  O  O29  1  0.75568800  0.74316700  0.01370200  1
  O  O30  1  0.59913500  0.12208700  0.75000000  1
  O  O31  1  0.97047900  0.07140100  0.35692300  1
  O  O32  1  0.47047900  0.42859900  0.35692300  1
  O  O33  1  0.40086500  0.87791300  0.25000000  1
  O  O34  1  0.52952100  0.57140100  0.85692300  1
  O  O35  1  0.02952100  0.92859900  0.85692300  1
