# generated using pymatgen
data_K3TiO4F3
_symmetry_space_group_name_H-M   'P 1'
_cell_length_a   6.35240139
_cell_length_b   6.35240139
_cell_length_c   8.97673800
_cell_angle_alpha   90.00000000
_cell_angle_beta   90.00000000
_cell_angle_gamma   97.23223101
_symmetry_Int_Tables_number   1
_chemical_formula_structural   K3TiO4F3
_chemical_formula_sum   'K6 Ti2 O8 F6'
_cell_volume   359.35638546
_cell_formula_units_Z   2
loop_
 _symmetry_equiv_pos_site_id
 _symmetry_equiv_pos_as_xyz
  1  'x, y, z'
loop_
 _atom_site_type_symbol
 _atom_site_label
 _atom_site_symmetry_multiplicity
 _atom_site_fract_x
 _atom_site_fract_y
 _atom_site_fract_z
 _atom_site_occupancy
  K  K0  1  0.70246900  0.70246900  0.75000000  1
  K  K1  1  0.29753100  0.29753100  0.25000000  1
  K  K2  1  0.20196300  0.79803700  0.50000000  1
  K  K3  1  0.79803700  0.20196300  0.00000000  1
  K  K4  1  0.20196300  0.79803700  0.00000000  1
  K  K5  1  0.79803700  0.20196300  0.50000000  1
  Ti  Ti6  1  0.74066100  0.74066100  0.25000000  1
  Ti  Ti7  1  0.25933900  0.25933900  0.75000000  1
  O  O8  1  0.46989900  0.05186700  0.75000000  1
  O  O9  1  0.53010100  0.94813300  0.25000000  1
  O  O10  1  0.94813300  0.53010100  0.25000000  1
  O  O11  1  0.05186700  0.46989900  0.75000000  1
  O  O12  1  0.56473100  0.27769000  0.75000000  1
  O  O13  1  0.43526900  0.72231000  0.25000000  1
  O  O14  1  0.72231000  0.43526900  0.25000000  1
  O  O15  1  0.27769000  0.56473100  0.75000000  1
  F  F16  1  0.01973900  0.01973900  0.75000000  1
  F  F17  1  0.98026100  0.98026100  0.25000000  1
  F  F18  1  0.23786300  0.23786300  0.53193700  1
  F  F19  1  0.76213700  0.76213700  0.03193700  1
  F  F20  1  0.23786300  0.23786300  0.96806300  1
  F  F21  1  0.76213700  0.76213700  0.46806300  1
