# generated using pymatgen
data_MgCd2
_symmetry_space_group_name_H-M   'P 1'
_cell_length_a   5.44203285
_cell_length_b   5.44203285
_cell_length_c   5.17718300
_cell_angle_alpha   90.00000000
_cell_angle_beta   90.00000000
_cell_angle_gamma   120.96172727
_symmetry_Int_Tables_number   1
_chemical_formula_structural   MgCd2
_chemical_formula_sum   'Mg2 Cd4'
_cell_volume   131.47876303
_cell_formula_units_Z   2
loop_
 _symmetry_equiv_pos_site_id
 _symmetry_equiv_pos_as_xyz
  1  'x, y, z'
loop_
 _atom_site_type_symbol
 _atom_site_label
 _atom_site_symmetry_multiplicity
 _atom_site_fract_x
 _atom_site_fract_y
 _atom_site_fract_z
 _atom_site_occupancy
  Mg  Mg0  1  0.67451600  0.67451600  0.75000000  1
  Mg  Mg1  1  0.32548400  0.32548400  0.25000000  1
  Cd  Cd2  1  0.00215800  0.33541000  0.75000000  1
  Cd  Cd3  1  0.33541000  0.00215800  0.75000000  1
  Cd  Cd4  1  0.66459000  0.99784200  0.25000000  1
  Cd  Cd5  1  0.99784200  0.66459000  0.25000000  1
