# generated using pymatgen
data_Si4H2O9
_symmetry_space_group_name_H-M   'P 1'
_cell_length_a   15.90114054
_cell_length_b   15.89038969
_cell_length_c   7.51283115
_cell_angle_alpha   76.41050213
_cell_angle_beta   76.25116625
_cell_angle_gamma   27.33833163
_symmetry_Int_Tables_number   1
_chemical_formula_structural   Si4H2O9
_chemical_formula_sum   'Si16 H8 O36'
_cell_volume   845.59620993
_cell_formula_units_Z   4
loop_
 _symmetry_equiv_pos_site_id
 _symmetry_equiv_pos_as_xyz
  1  'x, y, z'
loop_
 _atom_site_type_symbol
 _atom_site_label
 _atom_site_symmetry_multiplicity
 _atom_site_fract_x
 _atom_site_fract_y
 _atom_site_fract_z
 _atom_site_occupancy
  Si  Si0  1  0.45841300  0.04597800  0.04102100  1
  Si  Si1  1  0.04102100  0.45458800  0.45841300  1
  Si  Si2  1  0.20402200  0.79158700  0.79541200  1
  Si  Si3  1  0.79541200  0.20897900  0.20402200  1
  Si  Si4  1  0.03306400  0.46693600  0.03306400  1
  Si  Si5  1  0.45737600  0.04262400  0.45737600  1
  Si  Si6  1  0.78306400  0.21693600  0.78306400  1
  Si  Si7  1  0.20737600  0.79262400  0.20737600  1
  Si  Si8  1  0.87575200  0.47036200  0.82514500  1
  Si  Si9  1  0.46065000  0.88112400  0.81000700  1
  Si  Si10  1  0.77963800  0.37424800  0.42125900  1
  Si  Si11  1  0.36887600  0.78935000  0.40178200  1
  Si  Si12  1  0.81000700  0.84821800  0.46065000  1
  Si  Si13  1  0.82514500  0.82874100  0.87575200  1
  Si  Si14  1  0.40178200  0.43999300  0.36887600  1
  Si  Si15  1  0.42125900  0.42485500  0.77963800  1
  H  H16  1  0.10106100  0.16392500  0.86950500  1
  H  H17  1  0.08607500  0.14893900  0.38449100  1
  H  H18  1  0.86950500  0.86550900  0.10106100  1
  H  H19  1  0.38449100  0.38049500  0.08607500  1
  H  H20  1  0.67658100  0.23228000  0.47323400  1
  H  H21  1  0.01772000  0.57341900  0.63209500  1
  H  H22  1  0.47323400  0.61790500  0.67658100  1
  H  H23  1  0.63209500  0.77676600  0.01772000  1
  O  O24  1  0.95699000  0.30460900  0.87527100  1
  O  O25  1  0.28390700  0.98383400  0.87464800  1
  O  O26  1  0.94539100  0.29301000  0.38687000  1
  O  O27  1  0.26616600  0.96609300  0.39238900  1
  O  O28  1  0.87464800  0.85761100  0.28390700  1
  O  O29  1  0.87527100  0.86313000  0.95699000  1
  O  O30  1  0.39238900  0.37535200  0.26616600  1
  O  O31  1  0.38687000  0.37472900  0.94539100  1
  O  O32  1  0.27627500  0.63409100  0.78259500  1
  O  O33  1  0.63750700  0.27895000  0.34540300  1
  O  O34  1  0.61590900  0.97372500  0.94296100  1
  O  O35  1  0.97105000  0.61249300  0.51186100  1
  O  O36  1  0.63509100  0.27805200  0.74941600  1
  O  O37  1  0.28127100  0.63379900  0.30749700  1
  O  O38  1  0.97194800  0.61490900  0.91255900  1
  O  O39  1  0.61620100  0.96872900  0.47256700  1
  O  O40  1  0.34540300  0.73813900  0.63750700  1
  O  O41  1  0.78259500  0.30703900  0.27627500  1
  O  O42  1  0.51186100  0.90459700  0.97105000  1
  O  O43  1  0.94296100  0.46740500  0.61590900  1
  O  O44  1  0.74941600  0.33744100  0.63509100  1
  O  O45  1  0.30749700  0.77743300  0.28127100  1
  O  O46  1  0.91255900  0.50058400  0.97194800  1
  O  O47  1  0.47256700  0.94250300  0.61620100  1
  O  O48  1  0.83291400  0.85429600  0.65311300  1
  O  O49  1  0.39570400  0.41708600  0.59032300  1
  O  O50  1  0.65311300  0.65967700  0.83291400  1
  O  O51  1  0.59032300  0.59688700  0.39570400  1
  O  O52  1  0.74655600  0.26211100  0.99323200  1
  O  O53  1  0.24931300  0.77375500  0.98608300  1
  O  O54  1  0.98788900  0.50344400  0.25189900  1
  O  O55  1  0.47624500  0.00068700  0.25915100  1
  O  O56  1  0.98608300  0.99084900  0.24931300  1
  O  O57  1  0.99323200  0.99810100  0.74655600  1
  O  O58  1  0.25915100  0.26391700  0.47624500  1
  O  O59  1  0.25189900  0.25676800  0.98788900  1
