# generated using pymatgen
data_Si2H2O3
_symmetry_space_group_name_H-M   'P 1'
_cell_length_a   8.59768700
_cell_length_b   9.73262364
_cell_length_c   12.40429206
_cell_angle_alpha   83.27589053
_cell_angle_beta   110.14713111
_cell_angle_gamma   115.90569100
_symmetry_Int_Tables_number   1
_chemical_formula_structural   Si2H2O3
_chemical_formula_sum   'Si20 H20 O30'
_cell_volume   875.85089882
_cell_formula_units_Z   10
loop_
 _symmetry_equiv_pos_site_id
 _symmetry_equiv_pos_as_xyz
  1  'x, y, z'
loop_
 _atom_site_type_symbol
 _atom_site_label
 _atom_site_symmetry_multiplicity
 _atom_site_fract_x
 _atom_site_fract_y
 _atom_site_fract_z
 _atom_site_occupancy
  Si  Si0  1  0.62186700  0.85713900  0.89540300  1
  Si  Si1  1  0.35548800  0.63720000  0.63306400  1
  Si  Si2  1  0.43093900  0.14481400  0.14232600  1
  Si  Si3  1  0.62749600  0.36036800  0.39720900  1
  Si  Si4  1  0.84346600  0.11170500  0.76199000  1
  Si  Si5  1  0.49244500  0.39103000  0.73393400  1
  Si  Si6  1  0.14986100  0.87911100  0.24009000  1
  Si  Si7  1  0.52370000  0.61516900  0.26037600  1
  Si  Si8  1  0.22788200  0.03222300  0.80419800  1
  Si  Si9  1  0.95455500  0.46341200  0.69131700  1
  Si  Si10  1  0.63260200  0.98459400  0.17284700  1
  Si  Si11  1  0.10460500  0.53250500  0.30403100  1
  Si  Si12  1  0.94358000  0.80423500  0.55294500  1
  Si  Si13  1  0.12205900  0.75887800  0.96160400  1
  Si  Si14  1  0.09883400  0.26084000  0.46415500  1
  Si  Si15  1  0.91612400  0.30387600  0.05210100  1
  Si  Si16  1  0.64507500  0.87939100  0.51633800  1
  Si  Si17  1  0.74156700  0.58173400  0.00284900  1
  Si  Si18  1  0.34007200  0.08211100  0.50260700  1
  Si  Si19  1  0.25155400  0.37269600  0.01723800  1
  H  H20  1  0.89440200  0.88677400  0.83921500  1
  H  H21  1  0.66304400  0.66010300  0.67023200  1
  H  H22  1  0.17202600  0.14597900  0.17042500  1
  H  H23  1  0.32719300  0.38675900  0.33894700  1
  H  H24  1  0.12574000  0.22590000  0.72807100  1
  H  H25  1  0.69504200  0.28980400  0.75744000  1
  H  H26  1  0.86405400  0.79348500  0.25573700  1
  H  H27  1  0.31223500  0.72476000  0.22848700  1
  H  H28  1  0.83677600  0.53704700  0.51503000  1
  H  H29  1  0.71402600  0.03948000  0.01175500  1
  H  H30  1  0.31304700  0.71878600  0.78629400  1
  H  H31  1  0.69207200  0.21293600  0.29278200  1
  H  H32  1  0.68376200  0.12454800  0.56774500  1
  H  H33  1  0.49104400  0.34813700  0.92622800  1
  H  H34  1  0.29972400  0.85081000  0.43545600  1
  H  H35  1  0.50142700  0.62082700  0.06634500  1
  H  H36  1  0.24865000  0.97156100  0.63344800  1
  H  H37  1  0.14201200  0.52094200  0.87012600  1
  H  H38  1  0.74386000  0.02186800  0.36600000  1
  H  H39  1  0.85539700  0.46921600  0.13349500  1
  O  O40  1  0.78715300  0.91935200  0.81833500  1
  O  O41  1  0.55059200  0.58578300  0.69095900  1
  O  O42  1  0.23714400  0.07616600  0.18947200  1
  O  O43  1  0.44722900  0.42040800  0.31766700  1
  O  O44  1  0.06137800  0.12634100  0.75832300  1
  O  O45  1  0.69083300  0.38789200  0.72902300  1
  O  O46  1  0.94642500  0.87572000  0.22203600  1
  O  O47  1  0.31342500  0.62390400  0.25642100  1
  O  O48  1  0.08616300  0.89554700  0.86978900  1
  O  O49  1  0.90930200  0.60227000  0.59367500  1
  O  O50  1  0.77258500  0.10785600  0.08778700  1
  O  O51  1  0.17821000  0.39677900  0.37129600  1
  O  O52  1  0.78002800  0.79710700  0.60688400  1
  O  O53  1  0.90219800  0.65637900  0.94062000  1
  O  O54  1  0.18953300  0.15280200  0.43914300  1
  O  O55  1  0.12198600  0.28836000  0.10629700  1
  O  O56  1  0.64547200  0.70879600  0.97045300  1
  O  O57  1  0.44577400  0.77078500  0.54504900  1
  O  O58  1  0.37747300  0.26626000  0.04696100  1
  O  O59  1  0.53021100  0.21164600  0.47164600  1
  O  O60  1  0.42951500  0.75899100  0.76803000  1
  O  O61  1  0.59856200  0.25945300  0.27050600  1
  O  O62  1  0.72391000  0.04785400  0.61405800  1
  O  O63  1  0.56341900  0.43449500  0.88736700  1
  O  O64  1  0.26765000  0.93327000  0.39273700  1
  O  O65  1  0.43134600  0.54333800  0.11224400  1
  O  O66  1  0.14602000  0.91538000  0.67538000  1
  O  O67  1  0.09761400  0.58595000  0.80875700  1
  O  O68  1  0.77463400  0.09169100  0.30096000  1
  O  O69  1  0.94366200  0.41365600  0.17548000  1
