# generated using pymatgen
data_CsZnAgC4(SN)4
_symmetry_space_group_name_H-M   'P 1'
_cell_length_a   16.87684000
_cell_length_b   9.14974400
_cell_length_c   12.01588511
_cell_angle_alpha   49.36345981
_cell_angle_beta   90.00000000
_cell_angle_gamma   90.00000000
_symmetry_Int_Tables_number   1
_chemical_formula_structural   CsZnAgC4(SN)4
_chemical_formula_sum   'Cs4 Zn4 Ag4 C16 S16 N16'
_cell_volume   1408.04095345
_cell_formula_units_Z   4
loop_
 _symmetry_equiv_pos_site_id
 _symmetry_equiv_pos_as_xyz
  1  'x, y, z'
loop_
 _atom_site_type_symbol
 _atom_site_label
 _atom_site_symmetry_multiplicity
 _atom_site_fract_x
 _atom_site_fract_y
 _atom_site_fract_z
 _atom_site_occupancy
  Cs  Cs0  1  0.87538700  0.75277000  0.85493900  1
  Cs  Cs1  1  0.62461300  0.75277000  0.35493900  1
  Cs  Cs2  1  0.12461300  0.24723000  0.14506100  1
  Cs  Cs3  1  0.37538700  0.24723000  0.64506100  1
  Zn  Zn4  1  0.55248500  0.80421100  0.78730700  1
  Zn  Zn5  1  0.94751500  0.80421100  0.28730700  1
  Zn  Zn6  1  0.05248500  0.19578900  0.71269300  1
  Zn  Zn7  1  0.44751500  0.19578900  0.21269300  1
  Ag  Ag8  1  0.73957700  0.23686000  0.84092200  1
  Ag  Ag9  1  0.23957700  0.76314000  0.65907800  1
  Ag  Ag10  1  0.26042300  0.76314000  0.15907800  1
  Ag  Ag11  1  0.76042300  0.23686000  0.34092200  1
  C  C12  1  0.18017700  0.18172600  0.52990000  1
  C  C13  1  0.41782700  0.50709400  0.24322300  1
  C  C14  1  0.62437600  0.24460300  0.11684200  1
  C  C15  1  0.37562400  0.75539700  0.88315800  1
  C  C16  1  0.31982300  0.18172600  0.02990000  1
  C  C17  1  0.81982300  0.81827400  0.47010000  1
  C  C18  1  0.87562400  0.24460300  0.61684200  1
  C  C19  1  0.08217300  0.50709400  0.74322300  1
  C  C20  1  0.59012300  0.20391500  0.47964400  1
  C  C21  1  0.12437600  0.75539700  0.38315800  1
  C  C22  1  0.68017700  0.81827400  0.97010000  1
  C  C23  1  0.91782700  0.49290600  0.25677700  1
  C  C24  1  0.58217300  0.49290600  0.75677700  1
  C  C25  1  0.90987700  0.20391500  0.97964400  1
  C  C26  1  0.09012300  0.79608500  0.02035600  1
  C  C27  1  0.40987700  0.79608500  0.52035600  1
  S  S28  1  0.25227000  0.14892300  0.95087400  1
  S  S29  1  0.90598200  0.32377000  0.24759600  1
  S  S30  1  0.37249700  0.60973500  0.67600900  1
  S  S31  1  0.21892700  0.73531500  0.41240100  1
  S  S32  1  0.74773000  0.85107700  0.04912600  1
  S  S33  1  0.24773000  0.14892300  0.45087400  1
  S  S34  1  0.12750300  0.60973500  0.17600900  1
  S  S35  1  0.75227000  0.85107700  0.54912600  1
  S  S36  1  0.87249700  0.39026500  0.82399100  1
  S  S37  1  0.40598200  0.67623000  0.25240400  1
  S  S38  1  0.09401800  0.67623000  0.75240400  1
  S  S39  1  0.71892700  0.26468500  0.08759900  1
  S  S40  1  0.78107300  0.26468500  0.58759900  1
  S  S41  1  0.59401800  0.32377000  0.74759600  1
  S  S42  1  0.62750300  0.39026500  0.32399100  1
  S  S43  1  0.28107300  0.73531500  0.91240100  1
  N  N44  1  0.06154400  0.93030900  0.90790600  1
  N  N45  1  0.56154400  0.06969100  0.59209400  1
  N  N46  1  0.57380000  0.61694200  0.76130600  1
  N  N47  1  0.55526400  0.22130100  0.14083700  1
  N  N48  1  0.92620000  0.61694200  0.26130600  1
  N  N49  1  0.93845600  0.06969100  0.09209400  1
  N  N50  1  0.94473600  0.22130100  0.64083700  1
  N  N51  1  0.42620000  0.38305800  0.23869400  1
  N  N52  1  0.86761000  0.79222800  0.41276600  1
  N  N53  1  0.44473600  0.77869900  0.85916300  1
  N  N54  1  0.05526400  0.77869900  0.35916300  1
  N  N55  1  0.36761000  0.20777200  0.08723400  1
  N  N56  1  0.63239000  0.79222800  0.91276600  1
  N  N57  1  0.07380000  0.38305800  0.73869400  1
  N  N58  1  0.13239000  0.20777200  0.58723400  1
  N  N59  1  0.43845600  0.93030900  0.40790600  1
