# generated using pymatgen
data_FeBN3O3F4
_symmetry_space_group_name_H-M   'P 1'
_cell_length_a   7.50389600
_cell_length_b   9.19423700
_cell_length_c   12.94339006
_cell_angle_alpha   52.59075740
_cell_angle_beta   90.00000000
_cell_angle_gamma   90.00000000
_symmetry_Int_Tables_number   1
_chemical_formula_structural   FeBN3O3F4
_chemical_formula_sum   'Fe4 B4 N12 O12 F16'
_cell_volume   709.32325147
_cell_formula_units_Z   4
loop_
 _symmetry_equiv_pos_site_id
 _symmetry_equiv_pos_as_xyz
  1  'x, y, z'
loop_
 _atom_site_type_symbol
 _atom_site_label
 _atom_site_symmetry_multiplicity
 _atom_site_fract_x
 _atom_site_fract_y
 _atom_site_fract_z
 _atom_site_occupancy
  Fe  Fe0  1  0.30461500  0.26569800  0.52827800  1
  Fe  Fe1  1  0.80461500  0.73430200  0.97172200  1
  Fe  Fe2  1  0.69538500  0.73430200  0.47172200  1
  Fe  Fe3  1  0.19538500  0.26569800  0.02827800  1
  B  B4  1  0.78532800  0.34689000  0.72834300  1
  B  B5  1  0.28532800  0.65311000  0.77165700  1
  B  B6  1  0.71467200  0.34689000  0.22834300  1
  B  B7  1  0.21467200  0.65311000  0.27165700  1
  N  N8  1  0.39111100  0.15990400  0.05450600  1
  N  N9  1  0.31511300  0.32392500  0.62809500  1
  N  N10  1  0.68488700  0.67607500  0.37190500  1
  N  N11  1  0.10888900  0.15990400  0.55450600  1
  N  N12  1  0.02715000  0.12107700  0.06913700  1
  N  N13  1  0.81511300  0.67607500  0.87190500  1
  N  N14  1  0.60888900  0.84009600  0.94549400  1
  N  N15  1  0.52715000  0.87892300  0.43086300  1
  N  N16  1  0.18488700  0.32392500  0.12809500  1
  N  N17  1  0.47285000  0.12107700  0.56913700  1
  N  N18  1  0.89111100  0.84009600  0.44549400  1
  N  N19  1  0.97285000  0.87892300  0.93086300  1
  O  O20  1  0.67621500  0.68226900  0.27971800  1
  O  O21  1  0.51032900  0.05975600  0.10383500  1
  O  O22  1  0.82378500  0.68226900  0.77971800  1
  O  O23  1  0.57414600  0.00046900  0.62457900  1
  O  O24  1  0.17621500  0.31773100  0.22028200  1
  O  O25  1  0.32378500  0.31773100  0.72028200  1
  O  O26  1  0.48967100  0.94024400  0.89616500  1
  O  O27  1  0.92585400  0.00046900  0.12457900  1
  O  O28  1  0.42585400  0.99953100  0.37542100  1
  O  O29  1  0.01032900  0.94024400  0.39616500  1
  O  O30  1  0.07414600  0.99953100  0.87542100  1
  O  O31  1  0.98967100  0.05975600  0.60383500  1
  F  F32  1  0.54120400  0.41079400  0.20329200  1
  F  F33  1  0.66597700  0.51335200  0.65761700  1
  F  F34  1  0.24780200  0.74564100  0.82406200  1
  F  F35  1  0.45879600  0.58920600  0.79670800  1
  F  F36  1  0.33402300  0.48664800  0.34238300  1
  F  F37  1  0.25994400  0.75677400  0.14064600  1
  F  F38  1  0.74780200  0.25435900  0.67593800  1
  F  F39  1  0.24005600  0.75677400  0.64064600  1
  F  F40  1  0.75994400  0.24322600  0.35935400  1
  F  F41  1  0.83402300  0.51335200  0.15761700  1
  F  F42  1  0.95879600  0.41079400  0.70329200  1
  F  F43  1  0.25219800  0.74564100  0.32406200  1
  F  F44  1  0.16597700  0.48664800  0.84238300  1
  F  F45  1  0.75219800  0.25435900  0.17593800  1
  F  F46  1  0.74005600  0.24322600  0.85935400  1
  F  F47  1  0.04120400  0.58920600  0.29670800  1
