# generated using pymatgen
data_TlInS2
_symmetry_space_group_name_H-M   'P 1'
_cell_length_a   4.13282300
_cell_length_b   5.08966911
_cell_length_c   6.16479409
_cell_angle_alpha   96.19864997
_cell_angle_beta   102.57872407
_cell_angle_gamma   103.46026292
_symmetry_Int_Tables_number   1
_chemical_formula_structural   TlInS2
_chemical_formula_sum   'Tl1 In1 S2'
_cell_volume   121.35375565
_cell_formula_units_Z   1
loop_
 _symmetry_equiv_pos_site_id
 _symmetry_equiv_pos_as_xyz
  1  'x, y, z'
loop_
 _atom_site_type_symbol
 _atom_site_label
 _atom_site_symmetry_multiplicity
 _atom_site_fract_x
 _atom_site_fract_y
 _atom_site_fract_z
 _atom_site_occupancy
  Tl  Tl0  1  0.98480900  0.73313600  0.79786200  1
  In  In1  1  0.76538000  0.20814100  0.21500900  1
  S  S2  1  0.35892800  0.22975400  0.54132700  1
  S  S3  1  0.39088300  0.82896800  0.44580200  1
