# generated using pymatgen
data_FeC3SO3
_symmetry_space_group_name_H-M   'P 1'
_cell_length_a   6.74614100
_cell_length_b   7.91297879
_cell_length_c   11.62983850
_cell_angle_alpha   83.41804817
_cell_angle_beta   76.15905983
_cell_angle_gamma   78.17913154
_symmetry_Int_Tables_number   1
_chemical_formula_structural   FeC3SO3
_chemical_formula_sum   'Fe4 C12 S4 O12'
_cell_volume   588.60667665
_cell_formula_units_Z   4
loop_
 _symmetry_equiv_pos_site_id
 _symmetry_equiv_pos_as_xyz
  1  'x, y, z'
loop_
 _atom_site_type_symbol
 _atom_site_label
 _atom_site_symmetry_multiplicity
 _atom_site_fract_x
 _atom_site_fract_y
 _atom_site_fract_z
 _atom_site_occupancy
  Fe  Fe0  1  0.78728500  0.18615200  0.76163200  1
  Fe  Fe1  1  0.21271500  0.81384800  0.23836800  1
  Fe  Fe2  1  0.36081000  0.48998500  0.28096600  1
  Fe  Fe3  1  0.63919000  0.51001500  0.71903400  1
  C  C4  1  0.45093900  0.89266600  0.17801400  1
  C  C5  1  0.95737300  0.98478500  0.72580000  1
  C  C6  1  0.15640900  0.79523700  0.09686800  1
  C  C7  1  0.84359100  0.20476300  0.90313200  1
  C  C8  1  0.62890100  0.50569200  0.22376100  1
  C  C9  1  0.54906100  0.10733400  0.82198600  1
  C  C10  1  0.33227300  0.40503300  0.15014800  1
  C  C11  1  0.61095600  0.70938600  0.62911900  1
  C  C12  1  0.38904400  0.29061400  0.37088100  1
  C  C13  1  0.04262700  0.01521500  0.27420000  1
  C  C14  1  0.66772700  0.59496700  0.84985200  1
  C  C15  1  0.37109900  0.49430800  0.77623900  1
  S  S16  1  0.96640700  0.37739500  0.64374200  1
  S  S17  1  0.03359300  0.62260500  0.35625800  1
  S  S18  1  0.73772300  0.30867300  0.58214100  1
  S  S19  1  0.26227700  0.69132700  0.41785900  1
  O  O20  1  0.60309400  0.94650300  0.14042700  1
  O  O21  1  0.12024900  0.78324600  0.00617200  1
  O  O22  1  0.06842000  0.85375200  0.70551100  1
  O  O23  1  0.41122000  0.15897600  0.42565700  1
  O  O24  1  0.58878000  0.84102400  0.57434300  1
  O  O25  1  0.19886400  0.48297700  0.81325700  1
  O  O26  1  0.39690600  0.05349700  0.85957300  1
  O  O27  1  0.80113600  0.51702300  0.18674300  1
  O  O28  1  0.68379100  0.65315600  0.93335400  1
  O  O29  1  0.87975100  0.21675400  0.99382800  1
  O  O30  1  0.93158000  0.14624800  0.29448900  1
  O  O31  1  0.31620900  0.34684400  0.06664600  1
