# generated using pymatgen
data_NiO2
_symmetry_space_group_name_H-M   'P 1'
_cell_length_a   4.37214992
_cell_length_b   4.37214992
_cell_length_c   4.37214992
_cell_angle_alpha   143.42785541
_cell_angle_beta   110.01069167
_cell_angle_gamma   81.64518973
_symmetry_Int_Tables_number   1
_chemical_formula_structural   NiO2
_chemical_formula_sum   'Ni1 O2'
_cell_volume   45.52223464
_cell_formula_units_Z   1
loop_
 _symmetry_equiv_pos_site_id
 _symmetry_equiv_pos_as_xyz
  1  'x, y, z'
loop_
 _atom_site_type_symbol
 _atom_site_label
 _atom_site_symmetry_multiplicity
 _atom_site_fract_x
 _atom_site_fract_y
 _atom_site_fract_z
 _atom_site_occupancy
  Ni  Ni0  1  0.50000000  0.00000000  0.50000000  1
  O  O1  1  0.32054700  0.32054700  0.00000000  1
  O  O2  1  0.67945300  0.67945300  0.00000000  1
