# generated using pymatgen
data_CaAlH5
_symmetry_space_group_name_H-M   'P 1'
_cell_length_a   4.32729100
_cell_length_b   4.96128200
_cell_length_c   12.16085700
_cell_angle_alpha   90.00000000
_cell_angle_beta   90.00000000
_cell_angle_gamma   90.00000000
_symmetry_Int_Tables_number   1
_chemical_formula_structural   CaAlH5
_chemical_formula_sum   'Ca4 Al4 H20'
_cell_volume   261.08035597
_cell_formula_units_Z   4
loop_
 _symmetry_equiv_pos_site_id
 _symmetry_equiv_pos_as_xyz
  1  'x, y, z'
loop_
 _atom_site_type_symbol
 _atom_site_label
 _atom_site_symmetry_multiplicity
 _atom_site_fract_x
 _atom_site_fract_y
 _atom_site_fract_z
 _atom_site_occupancy
  Ca  Ca0  1  0.70790800  0.64036400  0.83924700  1
  Ca  Ca1  1  0.20790800  0.85963600  0.16075300  1
  Ca  Ca2  1  0.79209200  0.35963600  0.33924700  1
  Ca  Ca3  1  0.29209200  0.14036400  0.66075300  1
  Al  Al4  1  0.31163500  0.12461700  0.91452200  1
  Al  Al5  1  0.81163500  0.37538300  0.08547800  1
  Al  Al6  1  0.18836500  0.87538300  0.41452200  1
  Al  Al7  1  0.68836500  0.62461700  0.58547800  1
  H  H8  1  0.47958600  0.87982800  0.99108700  1
  H  H9  1  0.97958600  0.62017200  0.00891300  1
  H  H10  1  0.02041400  0.12017200  0.49108700  1
  H  H11  1  0.52041400  0.37982800  0.50891300  1
  H  H12  1  0.16519000  0.88924200  0.82506000  1
  H  H13  1  0.66519000  0.61075800  0.17494000  1
  H  H14  1  0.33481000  0.11075800  0.32506000  1
  H  H15  1  0.83481000  0.38924200  0.67494000  1
  H  H16  1  0.67858600  0.11580000  0.16444800  1
  H  H17  1  0.17858600  0.38420000  0.83555200  1
  H  H18  1  0.82141400  0.88420000  0.66444800  1
  H  H19  1  0.32141400  0.61580000  0.33555200  1
  H  H20  1  0.62868800  0.12975000  0.82639400  1
  H  H21  1  0.12868800  0.37025000  0.17360600  1
  H  H22  1  0.87131200  0.87025000  0.32639400  1
  H  H23  1  0.37131200  0.62975000  0.67360600  1
  H  H24  1  0.99995300  0.11838600  0.00649400  1
  H  H25  1  0.49995300  0.38161400  0.99350600  1
  H  H26  1  0.50004700  0.88161400  0.50649400  1
  H  H27  1  0.00004700  0.61838600  0.49350600  1
