# generated using pymatgen
data_Zr7Ni10
_symmetry_space_group_name_H-M   'P 1'
_cell_length_a   7.71230250
_cell_length_b   7.71230250
_cell_length_c   9.23371100
_cell_angle_alpha   90.00000000
_cell_angle_beta   90.00000000
_cell_angle_gamma   107.00728735
_symmetry_Int_Tables_number   1
_chemical_formula_structural   Zr7Ni10
_chemical_formula_sum   'Zr14 Ni20'
_cell_volume   525.19890656
_cell_formula_units_Z   2
loop_
 _symmetry_equiv_pos_site_id
 _symmetry_equiv_pos_as_xyz
  1  'x, y, z'
loop_
 _atom_site_type_symbol
 _atom_site_label
 _atom_site_symmetry_multiplicity
 _atom_site_fract_x
 _atom_site_fract_y
 _atom_site_fract_z
 _atom_site_occupancy
  Zr  Zr0  1  0.19148200  0.80851800  0.00000000  1
  Zr  Zr1  1  0.69148200  0.30851800  0.50000000  1
  Zr  Zr2  1  0.31246400  0.31246400  0.68754700  1
  Zr  Zr3  1  0.68753600  0.68753600  0.31245300  1
  Zr  Zr4  1  0.80851800  0.19148200  0.00000000  1
  Zr  Zr5  1  0.00164900  0.50164900  0.75000000  1
  Zr  Zr6  1  0.99835100  0.49835100  0.25000000  1
  Zr  Zr7  1  0.81246400  0.81246400  0.81245300  1
  Zr  Zr8  1  0.50000000  0.50000000  0.00000000  1
  Zr  Zr9  1  0.49835100  0.99835100  0.25000000  1
  Zr  Zr10  1  0.30851800  0.69148200  0.50000000  1
  Zr  Zr11  1  0.50164900  0.00164900  0.75000000  1
  Zr  Zr12  1  0.18753600  0.18753600  0.18754700  1
  Zr  Zr13  1  0.00000000  0.00000000  0.50000000  1
  Ni  Ni14  1  0.89405700  0.89405700  0.10557600  1
  Ni  Ni15  1  0.64027600  0.34770300  0.20712600  1
  Ni  Ni16  1  0.06144600  0.35105900  0.49331500  1
  Ni  Ni17  1  0.65229700  0.35972400  0.79287400  1
  Ni  Ni18  1  0.84770300  0.14027600  0.29287400  1
  Ni  Ni19  1  0.14027600  0.84770300  0.29287400  1
  Ni  Ni20  1  0.60594300  0.60594300  0.60557600  1
  Ni  Ni21  1  0.43855400  0.14894100  0.99331500  1
  Ni  Ni22  1  0.35972400  0.65229700  0.79287400  1
  Ni  Ni23  1  0.15229700  0.85972400  0.70712600  1
  Ni  Ni24  1  0.14894100  0.43855400  0.99331500  1
  Ni  Ni25  1  0.56144600  0.85105900  0.00668500  1
  Ni  Ni26  1  0.93855400  0.64894100  0.50668500  1
  Ni  Ni27  1  0.64894100  0.93855400  0.50668500  1
  Ni  Ni28  1  0.10594300  0.10594300  0.89442400  1
  Ni  Ni29  1  0.39405700  0.39405700  0.39442400  1
  Ni  Ni30  1  0.85105900  0.56144600  0.00668500  1
  Ni  Ni31  1  0.35105900  0.06144600  0.49331500  1
  Ni  Ni32  1  0.85972400  0.15229700  0.70712600  1
  Ni  Ni33  1  0.34770300  0.64027600  0.20712600  1
