# generated using pymatgen
data_RbCdH2I3O
_symmetry_space_group_name_H-M   'P 1'
_cell_length_a   7.55004241
_cell_length_b   7.55004241
_cell_length_c   8.98693949
_cell_angle_alpha   89.63033722
_cell_angle_beta   89.63033722
_cell_angle_gamma   85.42988186
_symmetry_Int_Tables_number   1
_chemical_formula_structural   RbCdH2I3O
_chemical_formula_sum   'Rb2 Cd2 H4 I6 O2'
_cell_volume   510.63531400
_cell_formula_units_Z   2
loop_
 _symmetry_equiv_pos_site_id
 _symmetry_equiv_pos_as_xyz
  1  'x, y, z'
loop_
 _atom_site_type_symbol
 _atom_site_label
 _atom_site_symmetry_multiplicity
 _atom_site_fract_x
 _atom_site_fract_y
 _atom_site_fract_z
 _atom_site_occupancy
  Rb  Rb0  1  0.49186500  0.71285200  0.82601300  1
  Rb  Rb1  1  0.71285200  0.49186500  0.32601300  1
  Cd  Cd2  1  0.03350500  0.96586700  0.50005000  1
  Cd  Cd3  1  0.96586700  0.03350500  0.00005000  1
  H  H4  1  0.87034500  0.48759400  0.67802500  1
  H  H5  1  0.48759400  0.87034500  0.17802500  1
  H  H6  1  0.73062200  0.34749600  0.67919300  1
  H  H7  1  0.34749600  0.73062200  0.17919300  1
  I  I8  1  0.19719000  0.62103600  0.49455500  1
  I  I9  1  0.62103600  0.19719000  0.99455500  1
  I  I10  1  0.15375300  0.16795900  0.24868000  1
  I  I11  1  0.16795900  0.15375300  0.74868000  1
  I  I12  1  0.66205000  0.99087500  0.49424800  1
  I  I13  1  0.99087500  0.66205000  0.99424800  1
  O  O14  1  0.74602900  0.47076200  0.65173600  1
  O  O15  1  0.47076200  0.74602900  0.15173600  1
