# generated using pymatgen
data_SrUO4
_symmetry_space_group_name_H-M   'P 1'
_cell_length_a   4.45346457
_cell_length_b   4.45346457
_cell_length_c   6.36721901
_cell_angle_alpha   59.31004518
_cell_angle_beta   59.31004518
_cell_angle_gamma   47.48231521
_symmetry_Int_Tables_number   1
_chemical_formula_structural   SrUO4
_chemical_formula_sum   'Sr1 U1 O4'
_cell_volume   77.26753860
_cell_formula_units_Z   1
loop_
 _symmetry_equiv_pos_site_id
 _symmetry_equiv_pos_as_xyz
  1  'x, y, z'
loop_
 _atom_site_type_symbol
 _atom_site_label
 _atom_site_symmetry_multiplicity
 _atom_site_fract_x
 _atom_site_fract_y
 _atom_site_fract_z
 _atom_site_occupancy
  Sr  Sr0  1  0.00000000  0.00000000  0.50000000  1
  U  U1  1  0.00000000  0.00000000  0.00000000  1
  O  O2  1  0.22945900  0.22945900  0.66177600  1
  O  O3  1  0.77054100  0.77054100  0.33822400  1
  O  O4  1  0.41372200  0.41372200  0.88370900  1
  O  O5  1  0.58627800  0.58627800  0.11629100  1
