# generated using pymatgen
data_Al4C3
_symmetry_space_group_name_H-M   'P 1'
_cell_length_a   3.19240300
_cell_length_b   5.05639537
_cell_length_c   5.57203210
_cell_angle_alpha   114.24573856
_cell_angle_beta   86.63339504
_cell_angle_gamma   103.37814816
_symmetry_Int_Tables_number   1
_chemical_formula_structural   Al4C3
_chemical_formula_sum   'Al4 C3'
_cell_volume   79.71808650
_cell_formula_units_Z   1
loop_
 _symmetry_equiv_pos_site_id
 _symmetry_equiv_pos_as_xyz
  1  'x, y, z'
loop_
 _atom_site_type_symbol
 _atom_site_label
 _atom_site_symmetry_multiplicity
 _atom_site_fract_x
 _atom_site_fract_y
 _atom_site_fract_z
 _atom_site_occupancy
  Al  Al0  1  0.04025400  0.17435500  0.75988800  1
  Al  Al1  1  0.63479400  0.20539600  0.20761100  1
  Al  Al2  1  0.25829000  0.66104100  0.68501700  1
  Al  Al3  1  0.94655500  0.74812600  0.22672100  1
  C  C4  1  0.07651900  0.98199800  0.00258300  1
  C  C5  1  0.61810200  0.34380700  0.61512500  1
  C  C6  1  0.49706700  0.95321300  0.48226100  1
