# generated using pymatgen
data_CaUO4
_symmetry_space_group_name_H-M   'P 1'
_cell_length_a   3.72549305
_cell_length_b   3.72549305
_cell_length_c   6.20295158
_cell_angle_alpha   68.59335446
_cell_angle_beta   68.59335446
_cell_angle_gamma   69.59421539
_symmetry_Int_Tables_number   1
_chemical_formula_structural   CaUO4
_chemical_formula_sum   'Ca1 U1 O4'
_cell_volume   72.28182813
_cell_formula_units_Z   1
loop_
 _symmetry_equiv_pos_site_id
 _symmetry_equiv_pos_as_xyz
  1  'x, y, z'
loop_
 _atom_site_type_symbol
 _atom_site_label
 _atom_site_symmetry_multiplicity
 _atom_site_fract_x
 _atom_site_fract_y
 _atom_site_fract_z
 _atom_site_occupancy
  Ca  Ca0  1  0.00000000  0.00000000  0.50000000  1
  U  U1  1  0.00000000  0.00000000  0.00000000  1
  O  O2  1  0.24973100  0.24973100  0.66194700  1
  O  O3  1  0.75026900  0.75026900  0.33805300  1
  O  O4  1  0.72576900  0.72576900  0.89760500  1
  O  O5  1  0.27423100  0.27423100  0.10239500  1
