# generated using pymatgen
data_SiO2
_symmetry_space_group_name_H-M   'P 1'
_cell_length_a   4.11412300
_cell_length_b   4.52716300
_cell_length_c   5.08124800
_cell_angle_alpha   90.00000000
_cell_angle_beta   90.00000000
_cell_angle_gamma   90.00000000
_symmetry_Int_Tables_number   1
_chemical_formula_structural   SiO2
_chemical_formula_sum   'Si4 O8'
_cell_volume   94.63979593
_cell_formula_units_Z   4
loop_
 _symmetry_equiv_pos_site_id
 _symmetry_equiv_pos_as_xyz
  1  'x, y, z'
loop_
 _atom_site_type_symbol
 _atom_site_label
 _atom_site_symmetry_multiplicity
 _atom_site_fract_x
 _atom_site_fract_y
 _atom_site_fract_z
 _atom_site_occupancy
  Si  Si0  1  0.50000000  0.75000000  0.65231100  1
  Si  Si1  1  0.00000000  0.25000000  0.84768900  1
  Si  Si2  1  0.50000000  0.25000000  0.34768900  1
  Si  Si3  1  0.00000000  0.75000000  0.15231100  1
  O  O4  1  0.26910100  0.57996900  0.38242200  1
  O  O5  1  0.76910100  0.42003100  0.11757800  1
  O  O6  1  0.23089900  0.07996900  0.11757800  1
  O  O7  1  0.73089900  0.92003100  0.38242200  1
  O  O8  1  0.26910100  0.07996900  0.61757800  1
  O  O9  1  0.76910100  0.92003100  0.88242200  1
  O  O10  1  0.23089900  0.57996900  0.88242200  1
  O  O11  1  0.73089900  0.42003100  0.61757800  1
