# generated using pymatgen
data_H4N2O3
_symmetry_space_group_name_H-M   'P 1'
_cell_length_a   4.99073700
_cell_length_b   5.45861000
_cell_length_c   5.80418500
_cell_angle_alpha   90.00000000
_cell_angle_beta   90.00000000
_cell_angle_gamma   90.00000000
_symmetry_Int_Tables_number   1
_chemical_formula_structural   H4N2O3
_chemical_formula_sum   'H8 N4 O6'
_cell_volume   158.12043380
_cell_formula_units_Z   2
loop_
 _symmetry_equiv_pos_site_id
 _symmetry_equiv_pos_as_xyz
  1  'x, y, z'
loop_
 _atom_site_type_symbol
 _atom_site_label
 _atom_site_symmetry_multiplicity
 _atom_site_fract_x
 _atom_site_fract_y
 _atom_site_fract_z
 _atom_site_occupancy
  H  H0  1  0.80367100  0.50000000  0.85075400  1
  H  H1  1  0.80367100  0.50000000  0.14924600  1
  H  H2  1  0.19632900  0.00000000  0.64924600  1
  H  H3  1  0.19632900  0.00000000  0.35075400  1
  H  H4  1  0.03840400  0.34595900  0.00000000  1
  H  H5  1  0.03840400  0.65404100  0.00000000  1
  H  H6  1  0.96159600  0.15404100  0.50000000  1
  H  H7  1  0.96159600  0.84595900  0.50000000  1
  N  N8  1  0.91864400  0.50000000  0.00000000  1
  N  N9  1  0.08135600  0.00000000  0.50000000  1
  N  N10  1  0.50549800  0.50000000  0.50000000  1
  N  N11  1  0.49450200  0.00000000  0.00000000  1
  O  O12  1  0.76505000  0.50000000  0.50000000  1
  O  O13  1  0.23495000  0.00000000  0.00000000  1
  O  O14  1  0.38295500  0.50000000  0.68965100  1
  O  O15  1  0.38295500  0.50000000  0.31034900  1
  O  O16  1  0.61704500  0.00000000  0.81034900  1
  O  O17  1  0.61704500  0.00000000  0.18965100  1
