# generated using pymatgen
data_Yb2S3
_symmetry_space_group_name_H-M   'P 1'
_cell_length_a   6.94455288
_cell_length_b   6.94455288
_cell_length_c   5.72676643
_cell_angle_alpha   70.97380403
_cell_angle_beta   70.97380403
_cell_angle_gamma   105.47247066
_symmetry_Int_Tables_number   1
_chemical_formula_structural   Yb2S3
_chemical_formula_sum   'Yb4 S6'
_cell_volume   224.30037992
_cell_formula_units_Z   2
loop_
 _symmetry_equiv_pos_site_id
 _symmetry_equiv_pos_as_xyz
  1  'x, y, z'
loop_
 _atom_site_type_symbol
 _atom_site_label
 _atom_site_symmetry_multiplicity
 _atom_site_fract_x
 _atom_site_fract_y
 _atom_site_fract_z
 _atom_site_occupancy
  Yb  Yb0  1  0.56844300  0.83472400  0.79247700  1
  Yb  Yb1  1  0.43155700  0.16527600  0.20752300  1
  Yb  Yb2  1  0.83472400  0.56844300  0.29247700  1
  Yb  Yb3  1  0.16527600  0.43155700  0.70752300  1
  S  S4  1  0.18769100  0.43085900  0.20585600  1
  S  S5  1  0.88320800  0.11679200  0.25000000  1
  S  S6  1  0.56914100  0.81230900  0.29414400  1
  S  S7  1  0.81230900  0.56914100  0.79414400  1
  S  S8  1  0.11679200  0.88320800  0.75000000  1
  S  S9  1  0.43085900  0.18769100  0.70585600  1
