# generated using pymatgen
data_AsN9
_symmetry_space_group_name_H-M   'P 1'
_cell_length_a   11.84318800
_cell_length_b   7.06355600
_cell_length_c   7.40774012
_cell_angle_alpha   72.77070703
_cell_angle_beta   90.00000000
_cell_angle_gamma   90.00000000
_symmetry_Int_Tables_number   1
_chemical_formula_structural   AsN9
_chemical_formula_sum   'As4 N36'
_cell_volume   591.88713534
_cell_formula_units_Z   4
loop_
 _symmetry_equiv_pos_site_id
 _symmetry_equiv_pos_as_xyz
  1  'x, y, z'
loop_
 _atom_site_type_symbol
 _atom_site_label
 _atom_site_symmetry_multiplicity
 _atom_site_fract_x
 _atom_site_fract_y
 _atom_site_fract_z
 _atom_site_occupancy
  As  As0  1  0.55335900  0.37834600  0.28680000  1
  As  As1  1  0.44664100  0.62165400  0.71320000  1
  As  As2  1  0.05335900  0.12165400  0.71320000  1
  As  As3  1  0.94664100  0.87834600  0.28680000  1
  N  N4  1  0.80224900  0.85049400  0.17278400  1
  N  N5  1  0.18316800  0.51789600  0.47734700  1
  N  N6  1  0.22261400  0.02190500  0.97432900  1
  N  N7  1  0.52122700  0.92149300  0.21922900  1
  N  N8  1  0.25059700  0.90845200  0.11363200  1
  N  N9  1  0.98202200  0.13658800  0.11076700  1
  N  N10  1  0.22068600  0.02209200  0.49973900  1
  N  N11  1  0.51797800  0.63658800  0.11076700  1
  N  N12  1  0.31683200  0.01789600  0.47734700  1
  N  N13  1  0.61740000  0.47637500  0.48634100  1
  N  N14  1  0.47877300  0.07850700  0.78077100  1
  N  N15  1  0.69775100  0.35049400  0.17278400  1
  N  N16  1  0.77931400  0.97790800  0.50026100  1
  N  N17  1  0.11740000  0.02362500  0.51365900  1
  N  N18  1  0.19775100  0.14950600  0.82721600  1
  N  N19  1  0.74940300  0.09154800  0.88636800  1
  N  N20  1  0.02103900  0.71952000  0.82852800  1
  N  N21  1  0.88260000  0.97637500  0.48634100  1
  N  N22  1  0.01797800  0.86341200  0.88923300  1
  N  N23  1  0.27738600  0.52190500  0.97432900  1
  N  N24  1  0.38260000  0.52362500  0.51365900  1
  N  N25  1  0.77738600  0.97809500  0.02567100  1
  N  N26  1  0.48202200  0.36341200  0.88923300  1
  N  N27  1  0.30224900  0.64950600  0.82721600  1
  N  N28  1  0.68316800  0.98210400  0.52265300  1
  N  N29  1  0.47896100  0.21952000  0.82852800  1
  N  N30  1  0.02122700  0.57850700  0.78077100  1
  N  N31  1  0.27931400  0.52209200  0.49973900  1
  N  N32  1  0.24940300  0.40845200  0.11363200  1
  N  N33  1  0.72261400  0.47809500  0.02567100  1
  N  N34  1  0.75059700  0.59154800  0.88636800  1
  N  N35  1  0.52103900  0.78048000  0.17147200  1
  N  N36  1  0.72068600  0.47790800  0.50026100  1
  N  N37  1  0.81683200  0.48210400  0.52265300  1
  N  N38  1  0.97877300  0.42149300  0.21922900  1
  N  N39  1  0.97896100  0.28048000  0.17147200  1
