# generated using pymatgen
data_MnSbSe2Br
_symmetry_space_group_name_H-M   'P 1'
_cell_length_a   3.92547400
_cell_length_b   10.90010100
_cell_length_c   27.60690293
_cell_angle_alpha   89.83111701
_cell_angle_beta   90.00000000
_cell_angle_gamma   90.00000000
_symmetry_Int_Tables_number   1
_chemical_formula_structural   MnSbSe2Br
_chemical_formula_sum   'Mn8 Sb8 Se16 Br8'
_cell_volume   1181.24077224
_cell_formula_units_Z   8
loop_
 _symmetry_equiv_pos_site_id
 _symmetry_equiv_pos_as_xyz
  1  'x, y, z'
loop_
 _atom_site_type_symbol
 _atom_site_label
 _atom_site_symmetry_multiplicity
 _atom_site_fract_x
 _atom_site_fract_y
 _atom_site_fract_z
 _atom_site_occupancy
  Mn  Mn0  1  0.50000000  0.00053000  0.49916200  1
  Mn  Mn1  1  0.50000000  0.93030200  0.24442300  1
  Mn  Mn2  1  0.50000000  0.42489500  0.25583500  1
  Mn  Mn3  1  0.50000000  0.57575800  0.74411900  1
  Mn  Mn4  1  0.50000000  0.99906100  0.00036300  1
  Mn  Mn5  1  0.50000000  0.06894800  0.75558600  1
  Mn  Mn6  1  0.50000000  0.51428500  0.50254000  1
  Mn  Mn7  1  0.50000000  0.49983000  0.99977700  1
  Sb  Sb8  1  0.50000000  0.35229000  0.14408400  1
  Sb  Sb9  1  0.00000000  0.17307500  0.39773900  1
  Sb  Sb10  1  0.50000000  0.14526900  0.64364300  1
  Sb  Sb11  1  0.00000000  0.82528500  0.60299100  1
  Sb  Sb12  1  0.00000000  0.32813000  0.89667300  1
  Sb  Sb13  1  0.50000000  0.85393000  0.35589800  1
  Sb  Sb14  1  0.00000000  0.67180700  0.10297200  1
  Sb  Sb15  1  0.50000000  0.64791000  0.85583100  1
  Se  Se16  1  0.50000000  0.73057600  0.03565200  1
  Se  Se17  1  0.00000000  0.72240700  0.79075800  1
  Se  Se18  1  0.00000000  0.21763700  0.70863200  1
  Se  Se19  1  0.50000000  0.22954000  0.46454800  1
  Se  Se20  1  0.50000000  0.76636500  0.53535300  1
  Se  Se21  1  0.50000000  0.42665800  0.81874500  1
  Se  Se22  1  0.00000000  0.94833700  0.43406100  1
  Se  Se23  1  0.00000000  0.04875100  0.56570200  1
  Se  Se24  1  0.50000000  0.57360300  0.18092300  1
  Se  Se25  1  0.00000000  0.55143600  0.93352100  1
  Se  Se26  1  0.50000000  0.26959700  0.96392800  1
  Se  Se27  1  0.00000000  0.78096400  0.29103900  1
  Se  Se28  1  0.50000000  0.92253400  0.68039900  1
  Se  Se29  1  0.50000000  0.07630000  0.31923800  1
  Se  Se30  1  0.00000000  0.27788700  0.20904900  1
  Se  Se31  1  0.00000000  0.44878200  0.06583900  1
  Br  Br32  1  0.50000000  0.41645300  0.57872200  1
  Br  Br33  1  0.00000000  0.94542000  0.18292300  1
  Br  Br34  1  0.00000000  0.05455900  0.81698100  1
  Br  Br35  1  0.50000000  0.58019000  0.42189600  1
  Br  Br36  1  0.00000000  0.55550500  0.68298800  1
  Br  Br37  1  0.50000000  0.08293600  0.07851200  1
  Br  Br38  1  0.50000000  0.91821600  0.92199200  1
  Br  Br39  1  0.00000000  0.44404400  0.31696300  1
