# generated using pymatgen
data_Hg2ClO
_symmetry_space_group_name_H-M   'P 1'
_cell_length_a   7.09091200
_cell_length_b   7.24682789
_cell_length_c   9.82463839
_cell_angle_alpha   105.62755615
_cell_angle_beta   89.13267221
_cell_angle_gamma   118.90578674
_symmetry_Int_Tables_number   1
_chemical_formula_structural   Hg2ClO
_chemical_formula_sum   'Hg8 Cl4 O4'
_cell_volume   421.63652427
_cell_formula_units_Z   4
loop_
 _symmetry_equiv_pos_site_id
 _symmetry_equiv_pos_as_xyz
  1  'x, y, z'
loop_
 _atom_site_type_symbol
 _atom_site_label
 _atom_site_symmetry_multiplicity
 _atom_site_fract_x
 _atom_site_fract_y
 _atom_site_fract_z
 _atom_site_occupancy
  Hg  Hg0  1  0.80207900  0.09153700  0.88868500  1
  Hg  Hg1  1  0.28333400  0.09130900  0.38771900  1
  Hg  Hg2  1  0.28974400  0.99996500  0.74796500  1
  Hg  Hg3  1  0.71025600  0.00003500  0.25203500  1
  Hg  Hg4  1  0.00000000  0.50000000  0.50000000  1
  Hg  Hg5  1  0.19792100  0.90846300  0.11131500  1
  Hg  Hg6  1  0.71666600  0.90869100  0.61228100  1
  Hg  Hg7  1  0.50000000  0.50000000  0.00000000  1
  Cl  Cl8  1  0.63738700  0.63795800  0.37285500  1
  Cl  Cl9  1  0.00029100  0.64007700  0.87399900  1
  Cl  Cl10  1  0.99970900  0.35992300  0.12600100  1
  Cl  Cl11  1  0.36261300  0.36204200  0.62714500  1
  O  O12  1  0.79244100  0.17087400  0.46285500  1
  O  O13  1  0.20755900  0.82912600  0.53714500  1
  O  O14  1  0.39382200  0.17201000  0.96187200  1
  O  O15  1  0.60617800  0.82799000  0.03812800  1
