# generated using pymatgen
data_SiO2
_symmetry_space_group_name_H-M   'P 1'
_cell_length_a   7.96581194
_cell_length_b   7.96581194
_cell_length_c   7.96581194
_cell_angle_alpha   125.94784423
_cell_angle_beta   125.94784423
_cell_angle_gamma   79.97387861
_symmetry_Int_Tables_number   1
_chemical_formula_structural   SiO2
_chemical_formula_sum   'Si5 O10'
_cell_volume   319.85720297
_cell_formula_units_Z   5
loop_
 _symmetry_equiv_pos_site_id
 _symmetry_equiv_pos_as_xyz
  1  'x, y, z'
loop_
 _atom_site_type_symbol
 _atom_site_label
 _atom_site_symmetry_multiplicity
 _atom_site_fract_x
 _atom_site_fract_y
 _atom_site_fract_z
 _atom_site_occupancy
  Si  Si0  1  0.00000000  0.00000000  0.00000000  1
  Si  Si1  1  0.78858400  0.99498600  0.20640200  1
  Si  Si2  1  0.00501400  0.21141600  0.79359800  1
  Si  Si3  1  0.41781900  0.21141600  0.20640200  1
  Si  Si4  1  0.78858400  0.58218100  0.79359800  1
  O  O5  1  0.26161800  0.07772100  0.18389800  1
  O  O6  1  0.92227900  0.10617700  0.18389800  1
  O  O7  1  0.92227900  0.73838200  0.81610200  1
  O  O8  1  0.89382300  0.07772100  0.81610200  1
  O  O9  1  0.73482300  0.73482300  0.00000000  1
  O  O10  1  0.26517700  0.26517700  0.00000000  1
  O  O11  1  0.56606100  0.06606100  0.13212100  1
  O  O12  1  0.93393900  0.06606100  0.50000000  1
  O  O13  1  0.56606100  0.43393900  0.50000000  1
  O  O14  1  0.93393900  0.43393900  0.86787900  1
