# generated using pymatgen
data_Bi2O3
_symmetry_space_group_name_H-M   'P 1'
_cell_length_a   9.38215723
_cell_length_b   9.38215723
_cell_length_c   9.38215723
_cell_angle_alpha   109.47122063
_cell_angle_beta   109.47122063
_cell_angle_gamma   109.47122063
_symmetry_Int_Tables_number   1
_chemical_formula_structural   Bi2O3
_chemical_formula_sum   'Bi12 O18'
_cell_volume   635.74979522
_cell_formula_units_Z   6
loop_
 _symmetry_equiv_pos_site_id
 _symmetry_equiv_pos_as_xyz
  1  'x, y, z'
loop_
 _atom_site_type_symbol
 _atom_site_label
 _atom_site_symmetry_multiplicity
 _atom_site_fract_x
 _atom_site_fract_y
 _atom_site_fract_z
 _atom_site_occupancy
  Bi  Bi0  1  0.08513900  0.49224900  0.28183900  1
  Bi  Bi1  1  0.59289000  0.78959000  0.50775100  1
  Bi  Bi2  1  0.19670000  0.40711000  0.91486100  1
  Bi  Bi3  1  0.80330000  0.71816100  0.21041000  1
  Bi  Bi4  1  0.49224900  0.28183900  0.08513900  1
  Bi  Bi5  1  0.91486100  0.19670000  0.40711000  1
  Bi  Bi6  1  0.40711000  0.91486100  0.19670000  1
  Bi  Bi7  1  0.50775100  0.59289000  0.78959000  1
  Bi  Bi8  1  0.21041000  0.80330000  0.71816100  1
  Bi  Bi9  1  0.28183900  0.08513900  0.49224900  1
  Bi  Bi10  1  0.78959000  0.50775100  0.59289000  1
  Bi  Bi11  1  0.71816100  0.21041000  0.80330000  1
  O  O12  1  0.23106600  0.00000000  0.23106600  1
  O  O13  1  0.40163100  0.07164800  0.83142400  1
  O  O14  1  0.07164800  0.83142400  0.40163100  1
  O  O15  1  0.76893400  0.76893400  0.00000000  1
  O  O16  1  0.76893400  0.00000000  0.76893400  1
  O  O17  1  0.92835200  0.32998300  0.75977700  1
  O  O18  1  0.00000000  0.76893400  0.76893400  1
  O  O19  1  0.67001600  0.59836900  0.42979300  1
  O  O20  1  0.57020700  0.16857600  0.24022300  1
  O  O21  1  0.42979300  0.67001600  0.59836900  1
  O  O22  1  0.59836900  0.42979300  0.67001600  1
  O  O23  1  0.24022300  0.57020700  0.16857600  1
  O  O24  1  0.23106600  0.23106600  0.00000000  1
  O  O25  1  0.00000000  0.23106600  0.23106600  1
  O  O26  1  0.32998300  0.75977700  0.92835200  1
  O  O27  1  0.83142400  0.40163100  0.07164800  1
  O  O28  1  0.75977700  0.92835200  0.32998400  1
  O  O29  1  0.16857600  0.24022300  0.57020700  1
