# generated using pymatgen
data_Rb2ZnBr4
_symmetry_space_group_name_H-M   'P 1'
_cell_length_a   9.92611200
_cell_length_b   7.78698000
_cell_length_c   15.72843658
_cell_angle_alpha   60.57985059
_cell_angle_beta   90.00000000
_cell_angle_gamma   90.00000000
_symmetry_Int_Tables_number   1
_chemical_formula_structural   Rb2ZnBr4
_chemical_formula_sum   'Rb8 Zn4 Br16'
_cell_volume   1058.94265688
_cell_formula_units_Z   4
loop_
 _symmetry_equiv_pos_site_id
 _symmetry_equiv_pos_as_xyz
  1  'x, y, z'
loop_
 _atom_site_type_symbol
 _atom_site_label
 _atom_site_symmetry_multiplicity
 _atom_site_fract_x
 _atom_site_fract_y
 _atom_site_fract_z
 _atom_site_occupancy
  Rb  Rb0  1  0.62283300  0.34114800  0.39685600  1
  Rb  Rb1  1  0.01459000  0.91832400  0.32784100  1
  Rb  Rb2  1  0.51459000  0.08167600  0.17215900  1
  Rb  Rb3  1  0.48541000  0.91832400  0.82784100  1
  Rb  Rb4  1  0.87716700  0.34114800  0.89685600  1
  Rb  Rb5  1  0.98541000  0.08167600  0.67215900  1
  Rb  Rb6  1  0.12283300  0.65885200  0.10314400  1
  Rb  Rb7  1  0.37716700  0.65885200  0.60314400  1
  Zn  Zn8  1  0.72617100  0.67405600  0.07673600  1
  Zn  Zn9  1  0.27382900  0.32594400  0.92326400  1
  Zn  Zn10  1  0.77382900  0.67405600  0.57673600  1
  Zn  Zn11  1  0.22617100  0.32594400  0.42326400  1
  Br  Br12  1  0.01741000  0.67481500  0.58384900  1
  Br  Br13  1  0.51741000  0.32518500  0.91615100  1
  Br  Br14  1  0.67971700  0.78699400  0.41407900  1
  Br  Br15  1  0.17971700  0.21300600  0.08592100  1
  Br  Br16  1  0.67787700  0.88676500  0.63484500  1
  Br  Br17  1  0.82212300  0.88676500  0.13484500  1
  Br  Br18  1  0.98259000  0.32518500  0.41615100  1
  Br  Br19  1  0.48259000  0.67481500  0.08384900  1
  Br  Br20  1  0.32212300  0.11323500  0.36515500  1
  Br  Br21  1  0.82028300  0.78699400  0.91407900  1
  Br  Br22  1  0.80453600  0.33861200  0.18269600  1
  Br  Br23  1  0.17787700  0.11323500  0.86515500  1
  Br  Br24  1  0.30453600  0.66138800  0.31730400  1
  Br  Br25  1  0.32028300  0.21300600  0.58592100  1
  Br  Br26  1  0.19546400  0.66138800  0.81730400  1
  Br  Br27  1  0.69546400  0.33861200  0.68269600  1
