# generated using pymatgen
data_C4SO2
_symmetry_space_group_name_H-M   'P 1'
_cell_length_a   6.05208100
_cell_length_b   9.78696300
_cell_length_c   14.25518300
_cell_angle_alpha   90.00000000
_cell_angle_beta   90.00000000
_cell_angle_gamma   90.00000000
_symmetry_Int_Tables_number   1
_chemical_formula_structural   C4SO2
_chemical_formula_sum   'C32 S8 O16'
_cell_volume   844.35576951
_cell_formula_units_Z   8
loop_
 _symmetry_equiv_pos_site_id
 _symmetry_equiv_pos_as_xyz
  1  'x, y, z'
loop_
 _atom_site_type_symbol
 _atom_site_label
 _atom_site_symmetry_multiplicity
 _atom_site_fract_x
 _atom_site_fract_y
 _atom_site_fract_z
 _atom_site_occupancy
  C  C0  1  0.76707800  0.40537900  0.44210200  1
  C  C1  1  0.61998600  0.39909300  0.57525100  1
  C  C2  1  0.75270700  0.72233800  0.67224100  1
  C  C3  1  0.75270700  0.22233800  0.82775900  1
  C  C4  1  0.96648100  0.15856400  0.78613500  1
  C  C5  1  0.96648100  0.65856400  0.71386500  1
  C  C6  1  0.03351900  0.15856400  0.28613500  1
  C  C7  1  0.28644400  0.28470300  0.23341600  1
  C  C8  1  0.44831600  0.96641000  0.51559900  1
  C  C9  1  0.38001400  0.89909300  0.42474900  1
  C  C10  1  0.55168400  0.46641000  0.48440100  1
  C  C11  1  0.28644400  0.78470300  0.26658400  1
  C  C12  1  0.23292200  0.40537900  0.94210200  1
  C  C13  1  0.90347400  0.22837000  0.69516100  1
  C  C14  1  0.61998600  0.89909300  0.92474900  1
  C  C15  1  0.71355600  0.78470300  0.76658400  1
  C  C16  1  0.90347400  0.72837000  0.80483900  1
  C  C17  1  0.76707800  0.90537900  0.05789800  1
  C  C18  1  0.24729300  0.72233800  0.17224100  1
  C  C19  1  0.81021400  0.34379700  0.53682700  1
  C  C20  1  0.09652600  0.22837000  0.19516100  1
  C  C21  1  0.24729300  0.22233800  0.32775900  1
  C  C22  1  0.71355600  0.28470300  0.73341600  1
  C  C23  1  0.81021400  0.84379700  0.96317300  1
  C  C24  1  0.44831600  0.46641000  0.98440100  1
  C  C25  1  0.23292200  0.90537900  0.55789800  1
  C  C26  1  0.03351900  0.65856400  0.21386500  1
  C  C27  1  0.38001400  0.39909300  0.07525100  1
  C  C28  1  0.18978600  0.34379700  0.03682700  1
  C  C29  1  0.55168400  0.96641000  0.01559900  1
  C  C30  1  0.18978600  0.84379700  0.46317300  1
  C  C31  1  0.09652600  0.72837000  0.30483900  1
  S  S32  1  0.01566300  0.24265300  0.58443300  1
  S  S33  1  0.51244000  0.39079700  0.68767700  1
  S  S34  1  0.98433700  0.74265300  0.41556700  1
  S  S35  1  0.48756000  0.89079700  0.31232300  1
  S  S36  1  0.48756000  0.39079700  0.18767700  1
  S  S37  1  0.01566300  0.74265300  0.91556700  1
  S  S38  1  0.51244000  0.89079700  0.81232300  1
  S  S39  1  0.98433700  0.24265300  0.08443300  1
  O  O40  1  0.13925000  0.90829000  0.63331000  1
  O  O41  1  0.13925000  0.40829000  0.86669000  1
  O  O42  1  0.11513500  0.58679400  0.68544200  1
  O  O43  1  0.34004300  0.72225900  0.09663800  1
  O  O44  1  0.11513500  0.08679400  0.81455800  1
  O  O45  1  0.88486500  0.08679400  0.31455800  1
  O  O46  1  0.86075000  0.90829000  0.13331000  1
  O  O47  1  0.39983600  0.03636300  0.04339700  1
  O  O48  1  0.65995700  0.22225900  0.90336200  1
  O  O49  1  0.86075000  0.40829000  0.36669000  1
  O  O50  1  0.60016400  0.03636300  0.54339700  1
  O  O51  1  0.88486500  0.58679400  0.18544200  1
  O  O52  1  0.60016400  0.53636300  0.95660300  1
  O  O53  1  0.65995700  0.72225900  0.59663800  1
  O  O54  1  0.34004300  0.22225900  0.40336200  1
  O  O55  1  0.39983600  0.53636300  0.45660300  1
