# generated using pymatgen
data_K3Th2Cu3S7
_symmetry_space_group_name_H-M   'P 1'
_cell_length_a   7.41559368
_cell_length_b   7.41559368
_cell_length_c   24.75949000
_cell_angle_alpha   90.00000000
_cell_angle_beta   90.00000000
_cell_angle_gamma   148.16258105
_symmetry_Int_Tables_number   1
_chemical_formula_structural   K3Th2Cu3S7
_chemical_formula_sum   'K6 Th4 Cu6 S14'
_cell_volume   718.23215937
_cell_formula_units_Z   2
loop_
 _symmetry_equiv_pos_site_id
 _symmetry_equiv_pos_as_xyz
  1  'x, y, z'
loop_
 _atom_site_type_symbol
 _atom_site_label
 _atom_site_symmetry_multiplicity
 _atom_site_fract_x
 _atom_site_fract_y
 _atom_site_fract_z
 _atom_site_occupancy
  K  K0  1  0.04617000  0.95383000  0.06223400  1
  K  K1  1  0.04617000  0.95383000  0.43776600  1
  K  K2  1  0.95383000  0.04617000  0.56223400  1
  K  K3  1  0.56913800  0.43086200  0.25000000  1
  K  K4  1  0.95383000  0.04617000  0.93776600  1
  K  K5  1  0.43086200  0.56913800  0.75000000  1
  Th  Th6  1  0.30921400  0.69078600  0.35806800  1
  Th  Th7  1  0.69078600  0.30921400  0.64193200  1
  Th  Th8  1  0.69078600  0.30921400  0.85806800  1
  Th  Th9  1  0.30921400  0.69078600  0.14193200  1
  Cu  Cu10  1  0.76327500  0.23672500  0.46235800  1
  Cu  Cu11  1  0.76327500  0.23672500  0.03764200  1
  Cu  Cu12  1  0.84059000  0.15941000  0.25000000  1
  Cu  Cu13  1  0.23672500  0.76327500  0.96235800  1
  Cu  Cu14  1  0.15941000  0.84059000  0.75000000  1
  Cu  Cu15  1  0.23672500  0.76327500  0.53764200  1
  S  S16  1  0.75123000  0.24877000  0.75000000  1
  S  S17  1  0.35740500  0.64259500  0.03255500  1
  S  S18  1  0.93338900  0.06661100  0.32736600  1
  S  S19  1  0.68248900  0.31751100  0.38000400  1
  S  S20  1  0.68248900  0.31751100  0.11999600  1
  S  S21  1  0.31751100  0.68248900  0.61999600  1
  S  S22  1  0.24877000  0.75123000  0.25000000  1
  S  S23  1  0.31751100  0.68248900  0.88000400  1
  S  S24  1  0.06661100  0.93338900  0.82736600  1
  S  S25  1  0.06661100  0.93338900  0.67263400  1
  S  S26  1  0.64259500  0.35740500  0.96744500  1
  S  S27  1  0.93338900  0.06661100  0.17263400  1
  S  S28  1  0.64259500  0.35740500  0.53255500  1
  S  S29  1  0.35740500  0.64259500  0.46744500  1
