# generated using pymatgen
data_SrMg
_symmetry_space_group_name_H-M   'P 1'
_cell_length_a   4.00947500
_cell_length_b   5.98124900
_cell_length_c   6.11675800
_cell_angle_alpha   90.00000000
_cell_angle_beta   90.00000000
_cell_angle_gamma   90.00000000
_symmetry_Int_Tables_number   1
_chemical_formula_structural   SrMg
_chemical_formula_sum   'Sr2 Mg2'
_cell_volume   146.69006164
_cell_formula_units_Z   2
loop_
 _symmetry_equiv_pos_site_id
 _symmetry_equiv_pos_as_xyz
  1  'x, y, z'
loop_
 _atom_site_type_symbol
 _atom_site_label
 _atom_site_symmetry_multiplicity
 _atom_site_fract_x
 _atom_site_fract_y
 _atom_site_fract_z
 _atom_site_occupancy
  Sr  Sr0  1  0.50000000  0.25000000  0.28742900  1
  Sr  Sr1  1  0.50000000  0.75000000  0.71257100  1
  Mg  Mg2  1  0.00000000  0.75000000  0.18946400  1
  Mg  Mg3  1  0.00000000  0.25000000  0.81053600  1
