# generated using pymatgen
data_Ta2Al
_symmetry_space_group_name_H-M   'P 1'
_cell_length_a   9.92239500
_cell_length_b   9.92239500
_cell_length_c   5.41383200
_cell_angle_alpha   90.00000000
_cell_angle_beta   90.00000000
_cell_angle_gamma   90.00000000
_symmetry_Int_Tables_number   1
_chemical_formula_structural   Ta2Al
_chemical_formula_sum   'Ta20 Al10'
_cell_volume   533.01299635
_cell_formula_units_Z   10
loop_
 _symmetry_equiv_pos_site_id
 _symmetry_equiv_pos_as_xyz
  1  'x, y, z'
loop_
 _atom_site_type_symbol
 _atom_site_label
 _atom_site_symmetry_multiplicity
 _atom_site_fract_x
 _atom_site_fract_y
 _atom_site_fract_z
 _atom_site_occupancy
  Ta  Ta0  1  0.31140700  0.31140700  0.24836200  1
  Ta  Ta1  1  0.93778600  0.73700000  0.50000000  1
  Ta  Ta2  1  0.26300000  0.06221400  0.50000000  1
  Ta  Ta3  1  0.43778600  0.76300000  0.00000000  1
  Ta  Ta4  1  0.81140700  0.18859300  0.74836200  1
  Ta  Ta5  1  0.40318600  0.59681400  0.50000000  1
  Ta  Ta6  1  0.56221400  0.23700000  0.00000000  1
  Ta  Ta7  1  0.81140700  0.18859300  0.25163800  1
  Ta  Ta8  1  0.18859300  0.81140700  0.74836200  1
  Ta  Ta9  1  0.31140700  0.31140700  0.75163800  1
  Ta  Ta10  1  0.90318600  0.90318600  0.00000000  1
  Ta  Ta11  1  0.06221400  0.26300000  0.50000000  1
  Ta  Ta12  1  0.23700000  0.56221400  0.00000000  1
  Ta  Ta13  1  0.68859300  0.68859300  0.75163800  1
  Ta  Ta14  1  0.09681400  0.09681400  0.00000000  1
  Ta  Ta15  1  0.59681400  0.40318600  0.50000000  1
  Ta  Ta16  1  0.76300000  0.43778600  0.00000000  1
  Ta  Ta17  1  0.18859300  0.81140700  0.25163800  1
  Ta  Ta18  1  0.68859300  0.68859300  0.24836200  1
  Ta  Ta19  1  0.73700000  0.93778600  0.50000000  1
  Al  Al20  1  0.36390500  0.03470100  0.00000000  1
  Al  Al21  1  0.96529900  0.63609500  0.00000000  1
  Al  Al22  1  0.13609500  0.53470100  0.50000000  1
  Al  Al23  1  0.53470100  0.13609500  0.50000000  1
  Al  Al24  1  0.46529900  0.86390500  0.50000000  1
  Al  Al25  1  0.03470100  0.36390500  0.00000000  1
  Al  Al26  1  0.63609500  0.96529900  0.00000000  1
  Al  Al27  1  0.86390500  0.46529900  0.50000000  1
  Al  Al28  1  0.50000000  0.50000000  0.00000000  1
  Al  Al29  1  0.00000000  0.00000000  0.50000000  1
