# generated using pymatgen
data_SeO2
_symmetry_space_group_name_H-M   'P 1'
_cell_length_a   5.20779000
_cell_length_b   8.67629200
_cell_length_c   8.77264900
_cell_angle_alpha   90.00000000
_cell_angle_beta   90.00000000
_cell_angle_gamma   90.00000000
_symmetry_Int_Tables_number   1
_chemical_formula_structural   SeO2
_chemical_formula_sum   'Se8 O16'
_cell_volume   396.38606312
_cell_formula_units_Z   8
loop_
 _symmetry_equiv_pos_site_id
 _symmetry_equiv_pos_as_xyz
  1  'x, y, z'
loop_
 _atom_site_type_symbol
 _atom_site_label
 _atom_site_symmetry_multiplicity
 _atom_site_fract_x
 _atom_site_fract_y
 _atom_site_fract_z
 _atom_site_occupancy
  Se  Se0  1  0.00000000  0.78123600  0.86436100  1
  Se  Se1  1  0.00000000  0.71876400  0.36436100  1
  Se  Se2  1  0.50000000  0.87731700  0.21332400  1
  Se  Se3  1  0.50000000  0.62268300  0.71332400  1
  Se  Se4  1  0.50000000  0.12268300  0.78667600  1
  Se  Se5  1  0.00000000  0.28123600  0.63563900  1
  Se  Se6  1  0.00000000  0.21876400  0.13563900  1
  Se  Se7  1  0.50000000  0.37731700  0.28667600  1
  O  O8  1  0.50000000  0.06514600  0.18285700  1
  O  O9  1  0.00000000  0.67913300  0.54767500  1
  O  O10  1  0.24976400  0.86985100  0.36053300  1
  O  O11  1  0.75023600  0.86985100  0.36053300  1
  O  O12  1  0.50000000  0.43485400  0.68285700  1
  O  O13  1  0.75023600  0.36985100  0.13946700  1
  O  O14  1  0.24976400  0.36985100  0.13946700  1
  O  O15  1  0.00000000  0.32086700  0.45232500  1
  O  O16  1  0.50000000  0.56514600  0.31714300  1
  O  O17  1  0.50000000  0.93485400  0.81714300  1
  O  O18  1  0.75023600  0.13014900  0.63946700  1
  O  O19  1  0.24976400  0.63014900  0.86053300  1
  O  O20  1  0.00000000  0.17913300  0.95232500  1
  O  O21  1  0.24976400  0.13014900  0.63946700  1
  O  O22  1  0.75023600  0.63014900  0.86053300  1
  O  O23  1  0.00000000  0.82086700  0.04767500  1
