# generated using pymatgen
data_Na4Pu(MoO4)4
_symmetry_space_group_name_H-M   'P 1'
_cell_length_a   10.04376599
_cell_length_b   10.04376599
_cell_length_c   10.04376599
_cell_angle_alpha   110.96049412
_cell_angle_beta   110.96049412
_cell_angle_gamma   106.53205299
_symmetry_Int_Tables_number   1
_chemical_formula_structural   Na4Pu(MoO4)4
_chemical_formula_sum   'Na8 Pu2 Mo8 O32'
_cell_volume   778.42266788
_cell_formula_units_Z   2
loop_
 _symmetry_equiv_pos_site_id
 _symmetry_equiv_pos_as_xyz
  1  'x, y, z'
loop_
 _atom_site_type_symbol
 _atom_site_label
 _atom_site_symmetry_multiplicity
 _atom_site_fract_x
 _atom_site_fract_y
 _atom_site_fract_z
 _atom_site_occupancy
  Na  Na0  1  0.63648000  0.25627700  0.83545300  1
  Na  Na1  1  0.32917600  0.44897300  0.33545300  1
  Na  Na2  1  0.74372300  0.57917600  0.38020300  1
  Na  Na3  1  0.00627700  0.67082400  0.11979700  1
  Na  Na4  1  0.19897300  0.36352000  0.61979700  1
  Na  Na5  1  0.55102700  0.88648000  0.88020300  1
  Na  Na6  1  0.11352000  0.99372300  0.66454700  1
  Na  Na7  1  0.42082400  0.80102700  0.16454700  1
  Pu  Pu8  1  0.00000000  0.00000000  0.00000000  1
  Pu  Pu9  1  0.75000000  0.25000000  0.50000000  1
  Mo  Mo10  1  0.32126300  0.09708800  0.41357500  1
  Mo  Mo11  1  0.65768900  0.57126300  0.72417500  1
  Mo  Mo12  1  0.06648600  0.34231100  0.91357500  1
  Mo  Mo13  1  0.09231100  0.67873700  0.77582500  1
  Mo  Mo14  1  0.84708800  0.93351400  0.27582500  1
  Mo  Mo15  1  0.68351400  0.90768900  0.58642500  1
  Mo  Mo16  1  0.90291200  0.31648600  0.22417500  1
  Mo  Mo17  1  0.42873700  0.15291200  0.08642500  1
  O  O18  1  0.08778600  0.26619800  0.05756300  1
  O  O19  1  0.10652700  0.42145700  0.38449300  1
  O  O20  1  0.87566300  0.83214400  0.38839100  1
  O  O21  1  0.58214400  0.69375300  0.45648100  1
  O  O22  1  0.17145700  0.28696400  0.81493000  1
  O  O23  1  0.89778900  0.98419100  0.73899600  1
  O  O24  1  0.47203400  0.35652700  0.18507000  1
  O  O25  1  0.71303600  0.52796600  0.88449300  1
  O  O26  1  0.57854300  0.96303600  0.68507000  1
  O  O27  1  0.01580900  0.75480500  0.91359800  1
  O  O28  1  0.66221400  0.98380200  0.44243700  1
  O  O29  1  0.50480500  0.09120700  0.23899600  1
  O  O30  1  0.64347300  0.82854300  0.11550700  1
  O  O31  1  0.73419100  0.49519500  0.58640200  1
  O  O32  1  0.20863600  0.03022300  0.94243700  1
  O  O33  1  0.16785600  0.55624700  0.04351900  1
  O  O34  1  0.27796600  0.89347300  0.31493000  1
  O  O35  1  0.03696400  0.72203400  0.61550700  1
  O  O36  1  0.54136400  0.21977700  0.55756300  1
  O  O37  1  0.23727200  0.12566300  0.54351900  1
  O  O38  1  0.87433700  0.41785600  0.11160900  1
  O  O39  1  0.01619800  0.45863600  0.67841300  1
  O  O40  1  0.96977700  0.91221400  0.17841300  1
  O  O41  1  0.85221100  0.26580900  0.76100400  1
  O  O42  1  0.51272800  0.12433700  0.95648100  1
  O  O43  1  0.44375300  0.48727200  0.61160900  1
  O  O44  1  0.30624700  0.76272800  0.88839100  1
  O  O45  1  0.24519500  0.15879300  0.26100400  1
  O  O46  1  0.90879300  0.14778900  0.41359800  1
  O  O47  1  0.84120700  0.10221100  0.08640200  1
  O  O48  1  0.73380200  0.79136400  0.82158700  1
  O  O49  1  0.78022300  0.33778600  0.32158700  1
