# generated using pymatgen
data_NdInPd
_symmetry_space_group_name_H-M   'P 1'
_cell_length_a   8.18370215
_cell_length_b   8.18370215
_cell_length_c   3.77942700
_cell_angle_alpha   90.00000000
_cell_angle_beta   90.00000000
_cell_angle_gamma   120.00000120
_symmetry_Int_Tables_number   1
_chemical_formula_structural   NdInPd
_chemical_formula_sum   'Nd3 In3 Pd3'
_cell_volume   219.20790770
_cell_formula_units_Z   3
loop_
 _symmetry_equiv_pos_site_id
 _symmetry_equiv_pos_as_xyz
  1  'x, y, z'
loop_
 _atom_site_type_symbol
 _atom_site_label
 _atom_site_symmetry_multiplicity
 _atom_site_fract_x
 _atom_site_fract_y
 _atom_site_fract_z
 _atom_site_occupancy
  Nd  Nd0  1  0.00000000  0.71831500  0.50000000  1
  Nd  Nd1  1  0.28168500  0.28168500  0.50000000  1
  Nd  Nd2  1  0.71831500  0.00000000  0.50000000  1
  In  In3  1  0.61692200  0.61692200  0.00000000  1
  In  In4  1  0.00000000  0.38307800  0.00000000  1
  In  In5  1  0.38307800  0.00000000  0.00000000  1
  Pd  Pd6  1  0.00000000  0.00000000  0.00000000  1
  Pd  Pd7  1  0.66666700  0.33333300  0.50000000  1
  Pd  Pd8  1  0.33333300  0.66666700  0.50000000  1
