# generated using pymatgen
data_In2Si(AgSe3)2
_symmetry_space_group_name_H-M   'P 1'
_cell_length_a   7.50738343
_cell_length_b   7.50738343
_cell_length_c   12.83073034
_cell_angle_alpha   73.23334730
_cell_angle_beta   73.23334730
_cell_angle_gamma   60.79399204
_symmetry_Int_Tables_number   1
_chemical_formula_structural   In2Si(AgSe3)2
_chemical_formula_sum   'In4 Si2 Ag4 Se12'
_cell_volume   594.86781495
_cell_formula_units_Z   2
loop_
 _symmetry_equiv_pos_site_id
 _symmetry_equiv_pos_as_xyz
  1  'x, y, z'
loop_
 _atom_site_type_symbol
 _atom_site_label
 _atom_site_symmetry_multiplicity
 _atom_site_fract_x
 _atom_site_fract_y
 _atom_site_fract_z
 _atom_site_occupancy
  In  In0  1  0.32304400  0.50944000  0.93892300  1
  In  In1  1  0.50944000  0.32304400  0.43892300  1
  In  In2  1  0.17527900  0.29309600  0.74144500  1
  In  In3  1  0.29309600  0.17527900  0.24144500  1
  Si  Si4  1  0.93389500  0.40264900  0.49807500  1
  Si  Si5  1  0.40264900  0.93389500  0.99807500  1
  Ag  Ag6  1  0.39606300  0.80388000  0.58486800  1
  Ag  Ag7  1  0.98963800  0.80742500  0.24737900  1
  Ag  Ag8  1  0.80388000  0.39606300  0.08486800  1
  Ag  Ag9  1  0.80742500  0.98963800  0.74737900  1
  Se  Se10  1  0.60006500  0.10869700  0.95031100  1
  Se  Se11  1  0.08706000  0.10046300  0.94561400  1
  Se  Se12  1  0.17016900  0.64583900  0.75343200  1
  Se  Se13  1  0.10046300  0.08706000  0.44561400  1
  Se  Se14  1  0.05222200  0.52680100  0.12671700  1
  Se  Se15  1  0.36183900  0.82994300  0.18575700  1
  Se  Se16  1  0.10869700  0.60006500  0.45031100  1
  Se  Se17  1  0.64583900  0.17016900  0.25343200  1
  Se  Se18  1  0.52680100  0.05222200  0.62671700  1
  Se  Se19  1  0.60153100  0.64656400  0.91457900  1
  Se  Se20  1  0.64656400  0.60153100  0.41457900  1
  Se  Se21  1  0.82994300  0.36183900  0.68575700  1
