# generated using pymatgen
data_Ce4Sn25Pt12
_symmetry_space_group_name_H-M   'P 1'
_cell_length_a   10.70909867
_cell_length_b   10.70909867
_cell_length_c   10.70909867
_cell_angle_alpha   109.47122063
_cell_angle_beta   109.47122063
_cell_angle_gamma   109.47122063
_symmetry_Int_Tables_number   1
_chemical_formula_structural   Ce4Sn25Pt12
_chemical_formula_sum   'Ce4 Sn25 Pt12'
_cell_volume   945.44630604
_cell_formula_units_Z   1
loop_
 _symmetry_equiv_pos_site_id
 _symmetry_equiv_pos_as_xyz
  1  'x, y, z'
loop_
 _atom_site_type_symbol
 _atom_site_label
 _atom_site_symmetry_multiplicity
 _atom_site_fract_x
 _atom_site_fract_y
 _atom_site_fract_z
 _atom_site_occupancy
  Ce  Ce0  1  0.00000000  0.50000000  0.00000000  1
  Ce  Ce1  1  0.00000000  0.00000000  0.50000000  1
  Ce  Ce2  1  0.50000000  0.50000000  0.50000000  1
  Ce  Ce3  1  0.50000000  0.00000000  0.00000000  1
  Sn  Sn4  1  0.75024100  0.62717200  0.87693100  1
  Sn  Sn5  1  0.62013800  0.37338500  0.99352200  1
  Sn  Sn6  1  0.12306900  0.75024100  0.87331000  1
  Sn  Sn7  1  0.12306900  0.24975900  0.37282800  1
  Sn  Sn8  1  0.37986200  0.37338500  0.75324700  1
  Sn  Sn9  1  0.00000000  0.00000000  0.00000000  1
  Sn  Sn10  1  0.12669000  0.87693100  0.24975900  1
  Sn  Sn11  1  0.62717200  0.87693100  0.75024100  1
  Sn  Sn12  1  0.37282800  0.12306900  0.24975900  1
  Sn  Sn13  1  0.87331000  0.12306900  0.75024100  1
  Sn  Sn14  1  0.37338500  0.75324700  0.37986200  1
  Sn  Sn15  1  0.24975900  0.12669000  0.87693100  1
  Sn  Sn16  1  0.00647800  0.37986200  0.62661500  1
  Sn  Sn17  1  0.99352200  0.62013800  0.37338500  1
  Sn  Sn18  1  0.24975900  0.37282800  0.12306900  1
  Sn  Sn19  1  0.62661500  0.24675300  0.62013800  1
  Sn  Sn20  1  0.87693100  0.24975900  0.12669000  1
  Sn  Sn21  1  0.24675300  0.62013800  0.62661500  1
  Sn  Sn22  1  0.75024100  0.87331000  0.12306900  1
  Sn  Sn23  1  0.75324700  0.37986200  0.37338500  1
  Sn  Sn24  1  0.62661500  0.00647800  0.37986200  1
  Sn  Sn25  1  0.37338500  0.99352200  0.62013800  1
  Sn  Sn26  1  0.87693100  0.75024100  0.62717200  1
  Sn  Sn27  1  0.37986200  0.62661500  0.00647800  1
  Sn  Sn28  1  0.62013800  0.62661500  0.24675300  1
  Pt  Pt29  1  0.48702200  0.31941300  0.16760900  1
  Pt  Pt30  1  0.15180400  0.31941300  0.83239100  1
  Pt  Pt31  1  0.16760900  0.84819600  0.68058700  1
  Pt  Pt32  1  0.31941300  0.16760900  0.48702200  1
  Pt  Pt33  1  0.84819600  0.68058700  0.16760900  1
  Pt  Pt34  1  0.83239100  0.51297800  0.68058700  1
  Pt  Pt35  1  0.31941300  0.83239100  0.15180400  1
  Pt  Pt36  1  0.68058700  0.16760900  0.84819600  1
  Pt  Pt37  1  0.68058700  0.83239100  0.51297800  1
  Pt  Pt38  1  0.83239100  0.15180400  0.31941300  1
  Pt  Pt39  1  0.16760900  0.48702200  0.31941300  1
  Pt  Pt40  1  0.51297800  0.68058700  0.83239100  1
