# generated using pymatgen
data_XeF6
_symmetry_space_group_name_H-M   'P 1'
_cell_length_a   13.62409776
_cell_length_b   13.62409776
_cell_length_c   14.58339223
_cell_angle_alpha   59.17164624
_cell_angle_beta   59.17164624
_cell_angle_gamma   59.20519200
_symmetry_Int_Tables_number   1
_chemical_formula_structural   XeF6
_chemical_formula_sum   'Xe16 F96'
_cell_volume   1878.43487172
_cell_formula_units_Z   16
loop_
 _symmetry_equiv_pos_site_id
 _symmetry_equiv_pos_as_xyz
  1  'x, y, z'
loop_
 _atom_site_type_symbol
 _atom_site_label
 _atom_site_symmetry_multiplicity
 _atom_site_fract_x
 _atom_site_fract_y
 _atom_site_fract_z
 _atom_site_occupancy
  Xe  Xe0  1  0.76882500  0.14898000  0.98683300  1
  Xe  Xe1  1  0.69715000  0.94016800  0.78760400  1
  Xe  Xe2  1  0.11719500  0.62880400  0.96792200  1
  Xe  Xe3  1  0.46876600  0.29613800  0.71014100  1
  Xe  Xe4  1  0.62880400  0.11719500  0.46792200  1
  Xe  Xe5  1  0.88280500  0.37119600  0.03207800  1
  Xe  Xe6  1  0.70386200  0.53123400  0.78985900  1
  Xe  Xe7  1  0.23117500  0.85102000  0.01316700  1
  Xe  Xe8  1  0.94016800  0.69715000  0.28760400  1
  Xe  Xe9  1  0.30285000  0.05983200  0.21239600  1
  Xe  Xe10  1  0.14898000  0.76882500  0.48683300  1
  Xe  Xe11  1  0.05983200  0.30285000  0.71239600  1
  Xe  Xe12  1  0.37119600  0.88280500  0.53207800  1
  Xe  Xe13  1  0.85102000  0.23117500  0.51316700  1
  Xe  Xe14  1  0.29613800  0.46876600  0.21014100  1
  Xe  Xe15  1  0.53123400  0.70386200  0.28985900  1
  F  F16  1  0.44557900  0.32820300  0.22942800  1
  F  F17  1  0.66249800  0.77624700  0.17882900  1
  F  F18  1  0.91008900  0.05829200  0.88426900  1
  F  F19  1  0.82448500  0.67656900  0.44596500  1
  F  F20  1  0.32021200  0.81273100  0.30786000  1
  F  F21  1  0.52691000  0.69557700  0.15928300  1
  F  F22  1  0.14986500  0.45043800  0.02450500  1
  F  F23  1  0.58597800  0.65337600  0.41665500  1
  F  F24  1  0.20934600  0.99888700  0.39308300  1
  F  F25  1  0.37599700  0.93297600  0.63551100  1
  F  F26  1  0.34426400  0.06034900  0.44356700  1
  F  F27  1  0.99464800  0.73654600  0.55804400  1
  F  F28  1  0.85013500  0.54956200  0.97549500  1
  F  F29  1  0.34662400  0.41402200  0.08334500  1
  F  F30  1  0.67978800  0.18726900  0.69214000  1
  F  F31  1  0.75513700  0.31277400  0.02125700  1
  F  F32  1  0.45043800  0.14986500  0.52450500  1
  F  F33  1  0.21042200  0.16930500  0.73986400  1
  F  F34  1  0.94170800  0.08991100  0.61573100  1
  F  F35  1  0.13059100  0.40634900  0.70391400  1
  F  F36  1  0.18726900  0.67978800  0.19214000  1
  F  F37  1  0.38595300  0.81469600  0.88742100  1
  F  F38  1  0.00111300  0.79065400  0.10691700  1
  F  F39  1  0.62400300  0.06702400  0.36448900  1
  F  F40  1  0.14345200  0.94328700  0.90267400  1
  F  F41  1  0.86940900  0.59365100  0.29608600  1
  F  F42  1  0.55442100  0.67179700  0.77057200  1
  F  F43  1  0.42069600  0.55182700  0.10490100  1
  F  F44  1  0.65573600  0.93965100  0.55643300  1
  F  F45  1  0.77624700  0.66249800  0.67882900  1
  F  F46  1  0.07286500  0.80383300  0.87216800  1
  F  F47  1  0.61404700  0.18530400  0.11257900  1
  F  F48  1  0.67179700  0.55442100  0.27057200  1
  F  F49  1  0.19616700  0.92713500  0.62783200  1
  F  F50  1  0.32820300  0.44557900  0.72942800  1
  F  F51  1  0.78957800  0.83069500  0.26013600  1
  F  F52  1  0.11393500  0.54329200  0.16948600  1
  F  F53  1  0.00535200  0.26345400  0.44195600  1
  F  F54  1  0.95196900  0.45212600  0.61989200  1
  F  F55  1  0.26345400  0.00535200  0.94195600  1
  F  F56  1  0.31277400  0.75513700  0.52125700  1
  F  F57  1  0.79065400  0.00111300  0.60691700  1
  F  F58  1  0.05829200  0.91008900  0.38426900  1
  F  F59  1  0.93965100  0.65573600  0.05643300  1
  F  F60  1  0.85654800  0.05671300  0.09732600  1
  F  F61  1  0.06702400  0.62400300  0.86448900  1
  F  F62  1  0.99888700  0.20934600  0.89308300  1
  F  F63  1  0.32343100  0.17551500  0.05403500  1
  F  F64  1  0.92713500  0.19616700  0.12783200  1
  F  F65  1  0.81386300  0.95891400  0.81699000  1
  F  F66  1  0.93297600  0.37599700  0.13551100  1
  F  F67  1  0.27601600  0.59387500  0.84523900  1
  F  F68  1  0.33750200  0.22375300  0.82117100  1
  F  F69  1  0.94328700  0.14345200  0.40267400  1
  F  F70  1  0.72398400  0.40612500  0.15476100  1
  F  F71  1  0.80943700  0.33482800  0.59500000  1
  F  F72  1  0.40634900  0.13059100  0.20391400  1
  F  F73  1  0.57930400  0.44817300  0.89509900  1
  F  F74  1  0.81469600  0.38595300  0.38742100  1
  F  F75  1  0.18530400  0.61404700  0.61257900  1
  F  F76  1  0.67656900  0.82448500  0.94596500  1
  F  F77  1  0.04803100  0.54787400  0.38010800  1
  F  F78  1  0.83069500  0.78957800  0.76013600  1
  F  F79  1  0.22375300  0.33750200  0.32117100  1
  F  F80  1  0.59387500  0.27601600  0.34523900  1
  F  F81  1  0.54956200  0.85013500  0.47549500  1
  F  F82  1  0.55182700  0.42069600  0.60490100  1
  F  F83  1  0.45670800  0.88606500  0.33051400  1
  F  F84  1  0.45212600  0.95196900  0.11989200  1
  F  F85  1  0.18613700  0.04108600  0.18301000  1
  F  F86  1  0.54787400  0.04803100  0.88010800  1
  F  F87  1  0.88606500  0.45670800  0.83051400  1
  F  F88  1  0.66517200  0.19056300  0.90500000  1
  F  F89  1  0.40612500  0.72398400  0.65476100  1
  F  F90  1  0.68722600  0.24486300  0.47874300  1
  F  F91  1  0.19056300  0.66517200  0.40500000  1
  F  F92  1  0.54329200  0.11393500  0.66948600  1
  F  F93  1  0.16930500  0.21042200  0.23986400  1
  F  F94  1  0.69557700  0.52691000  0.65928300  1
  F  F95  1  0.06034900  0.34426400  0.94356700  1
  F  F96  1  0.08991100  0.94170800  0.11573100  1
  F  F97  1  0.30442300  0.47309000  0.34071700  1
  F  F98  1  0.33482800  0.80943700  0.09500000  1
  F  F99  1  0.41402200  0.34662400  0.58334500  1
  F  F100  1  0.59365100  0.86940900  0.79608600  1
  F  F101  1  0.24486300  0.68722600  0.97874300  1
  F  F102  1  0.44817300  0.57930400  0.39509900  1
  F  F103  1  0.95891400  0.81386300  0.31699000  1
  F  F104  1  0.17551500  0.32343100  0.55403500  1
  F  F105  1  0.05671300  0.85654800  0.59732600  1
  F  F106  1  0.73654600  0.99464800  0.05804400  1
  F  F107  1  0.04108600  0.18613700  0.68301000  1
  F  F108  1  0.65337600  0.58597800  0.91665500  1
  F  F109  1  0.81273100  0.32021200  0.80786000  1
  F  F110  1  0.47309000  0.30442300  0.84071700  1
  F  F111  1  0.80383300  0.07286500  0.37216800  1
