# generated using pymatgen
data_Er5Sb3
_symmetry_space_group_name_H-M   'P 1'
_cell_length_a   8.08300200
_cell_length_b   9.23633800
_cell_length_c   11.77973000
_cell_angle_alpha   90.00000000
_cell_angle_beta   90.00000000
_cell_angle_gamma   90.00000000
_symmetry_Int_Tables_number   1
_chemical_formula_structural   Er5Sb3
_chemical_formula_sum   'Er20 Sb12'
_cell_volume   879.44329036
_cell_formula_units_Z   4
loop_
 _symmetry_equiv_pos_site_id
 _symmetry_equiv_pos_as_xyz
  1  'x, y, z'
loop_
 _atom_site_type_symbol
 _atom_site_label
 _atom_site_symmetry_multiplicity
 _atom_site_fract_x
 _atom_site_fract_y
 _atom_site_fract_z
 _atom_site_occupancy
  Er  Er0  1  0.67345000  0.75000000  0.27218200  1
  Er  Er1  1  0.30865800  0.55770800  0.43314200  1
  Er  Er2  1  0.84613200  0.25000000  0.79083000  1
  Er  Er3  1  0.19134200  0.94229200  0.93314200  1
  Er  Er4  1  0.30865800  0.94229200  0.43314200  1
  Er  Er5  1  0.69134200  0.44229200  0.56685800  1
  Er  Er6  1  0.80865800  0.44229200  0.06685800  1
  Er  Er7  1  0.97490600  0.75000000  0.49583500  1
  Er  Er8  1  0.15386800  0.75000000  0.20917000  1
  Er  Er9  1  0.32655000  0.25000000  0.72781800  1
  Er  Er10  1  0.47490600  0.25000000  0.00416500  1
  Er  Er11  1  0.80865800  0.05770800  0.06685800  1
  Er  Er12  1  0.19134200  0.55770800  0.93314200  1
  Er  Er13  1  0.02509400  0.25000000  0.50416500  1
  Er  Er14  1  0.34613200  0.75000000  0.70917000  1
  Er  Er15  1  0.69134200  0.05770800  0.56685800  1
  Er  Er16  1  0.52509400  0.75000000  0.99583500  1
  Er  Er17  1  0.82655000  0.75000000  0.77218200  1
  Er  Er18  1  0.65386800  0.25000000  0.29083000  1
  Er  Er19  1  0.17345000  0.25000000  0.22781800  1
  Sb  Sb20  1  0.09488700  0.25000000  0.97731600  1
  Sb  Sb21  1  0.93425500  0.49064600  0.32662200  1
  Sb  Sb22  1  0.43425500  0.99064600  0.17337800  1
  Sb  Sb23  1  0.06574500  0.99064600  0.67337800  1
  Sb  Sb24  1  0.43425500  0.50935400  0.17337800  1
  Sb  Sb25  1  0.59488700  0.75000000  0.52268400  1
  Sb  Sb26  1  0.40511300  0.25000000  0.47731600  1
  Sb  Sb27  1  0.56574500  0.49064600  0.82662200  1
  Sb  Sb28  1  0.06574500  0.50935400  0.67337800  1
  Sb  Sb29  1  0.90511300  0.75000000  0.02268400  1
  Sb  Sb30  1  0.56574500  0.00935400  0.82662200  1
  Sb  Sb31  1  0.93425500  0.00935400  0.32662200  1
