# generated using pymatgen
data_Sr11Al4In3
_symmetry_space_group_name_H-M   'P 1'
_cell_length_a   12.42980726
_cell_length_b   12.42980726
_cell_length_c   12.42980726
_cell_angle_alpha   60.00000000
_cell_angle_beta   60.00000000
_cell_angle_gamma   60.00000000
_symmetry_Int_Tables_number   1
_chemical_formula_structural   Sr11Al4In3
_chemical_formula_sum   'Sr22 Al8 In6'
_cell_volume   1357.93250757
_cell_formula_units_Z   2
loop_
 _symmetry_equiv_pos_site_id
 _symmetry_equiv_pos_as_xyz
  1  'x, y, z'
loop_
 _atom_site_type_symbol
 _atom_site_label
 _atom_site_symmetry_multiplicity
 _atom_site_fract_x
 _atom_site_fract_y
 _atom_site_fract_z
 _atom_site_occupancy
  Sr  Sr0  1  0.60658700  0.13113800  0.13113800  1
  Sr  Sr1  1  0.86886200  0.86886200  0.39341300  1
  Sr  Sr2  1  0.13113800  0.13113800  0.13113800  1
  Sr  Sr3  1  0.86886200  0.39341300  0.86886200  1
  Sr  Sr4  1  0.86886200  0.86886200  0.86886200  1
  Sr  Sr5  1  0.16418800  0.83581200  0.50000000  1
  Sr  Sr6  1  0.83581200  0.50000000  0.50000000  1
  Sr  Sr7  1  0.83581200  0.16418800  0.50000000  1
  Sr  Sr8  1  0.13113800  0.60658700  0.13113800  1
  Sr  Sr9  1  0.16418800  0.50000000  0.83581200  1
  Sr  Sr10  1  0.50000000  0.16418800  0.83581200  1
  Sr  Sr11  1  0.13113800  0.13113800  0.60658700  1
  Sr  Sr12  1  0.00000000  0.00000000  0.00000000  1
  Sr  Sr13  1  0.16418800  0.50000000  0.50000000  1
  Sr  Sr14  1  0.39341300  0.86886200  0.86886200  1
  Sr  Sr15  1  0.83581200  0.50000000  0.16418800  1
  Sr  Sr16  1  0.50000000  0.83581200  0.16418800  1
  Sr  Sr17  1  0.50000000  0.83581200  0.50000000  1
  Sr  Sr18  1  0.50000000  0.50000000  0.16418800  1
  Sr  Sr19  1  0.50000000  0.50000000  0.50000000  1
  Sr  Sr20  1  0.50000000  0.50000000  0.83581200  1
  Sr  Sr21  1  0.50000000  0.16418800  0.50000000  1
  Al  Al22  1  0.91567400  0.69477500  0.69477500  1
  Al  Al23  1  0.30522500  0.30522500  0.30522500  1
  Al  Al24  1  0.69477500  0.69477500  0.69477500  1
  Al  Al25  1  0.69477500  0.91567400  0.69477500  1
  Al  Al26  1  0.69477500  0.69477500  0.91567400  1
  Al  Al27  1  0.30522500  0.08432600  0.30522500  1
  Al  Al28  1  0.30522500  0.30522500  0.08432600  1
  Al  Al29  1  0.08432600  0.30522500  0.30522500  1
  In  In30  1  0.78169200  0.21830800  0.78169200  1
  In  In31  1  0.78169200  0.21830800  0.21830800  1
  In  In32  1  0.78169200  0.78169200  0.21830800  1
  In  In33  1  0.21830800  0.78169200  0.78169200  1
  In  In34  1  0.21830800  0.78169200  0.21830800  1
  In  In35  1  0.21830800  0.21830800  0.78169200  1
