# generated using pymatgen
data_Sb8Pb5S17
_symmetry_space_group_name_H-M   'P 1'
_cell_length_a   9.10064488
_cell_length_b   9.10064488
_cell_length_c   20.48911981
_cell_angle_alpha   78.00217181
_cell_angle_beta   78.00217181
_cell_angle_gamma   82.23996383
_symmetry_Int_Tables_number   1
_chemical_formula_structural   Sb8Pb5S17
_chemical_formula_sum   'Sb16 Pb10 S34'
_cell_volume   1616.12382179
_cell_formula_units_Z   2
loop_
 _symmetry_equiv_pos_site_id
 _symmetry_equiv_pos_as_xyz
  1  'x, y, z'
loop_
 _atom_site_type_symbol
 _atom_site_label
 _atom_site_symmetry_multiplicity
 _atom_site_fract_x
 _atom_site_fract_y
 _atom_site_fract_z
 _atom_site_occupancy
  Sb  Sb0  1  0.18324800  0.79276700  0.02987500  1
  Sb  Sb1  1  0.08288600  0.46179600  0.41332200  1
  Sb  Sb2  1  0.20723300  0.81675200  0.47012500  1
  Sb  Sb3  1  0.92292000  0.17170600  0.33207100  1
  Sb  Sb4  1  0.51298300  0.47755700  0.40022800  1
  Sb  Sb5  1  0.52244300  0.48701700  0.09977200  1
  Sb  Sb6  1  0.81675200  0.20723300  0.97012500  1
  Sb  Sb7  1  0.91711400  0.53820400  0.58667800  1
  Sb  Sb8  1  0.47755700  0.51298300  0.90022800  1
  Sb  Sb9  1  0.48701700  0.52244300  0.59977200  1
  Sb  Sb10  1  0.53820400  0.91711400  0.08667800  1
  Sb  Sb11  1  0.46179600  0.08288600  0.91332200  1
  Sb  Sb12  1  0.07708000  0.82829400  0.66792900  1
  Sb  Sb13  1  0.79276700  0.18324800  0.52987500  1
  Sb  Sb14  1  0.82829400  0.07708000  0.16792900  1
  Sb  Sb15  1  0.17170600  0.92292000  0.83207100  1
  Pb  Pb16  1  0.82368400  0.17631600  0.75000000  1
  Pb  Pb17  1  0.15195400  0.32560100  0.04890100  1
  Pb  Pb18  1  0.17631600  0.82368400  0.25000000  1
  Pb  Pb19  1  0.32560100  0.15195400  0.54890100  1
  Pb  Pb20  1  0.60580800  0.86143300  0.67599800  1
  Pb  Pb21  1  0.13856700  0.39419200  0.82400200  1
  Pb  Pb22  1  0.84804600  0.67439900  0.95109900  1
  Pb  Pb23  1  0.86143300  0.60580800  0.17599800  1
  Pb  Pb24  1  0.67439900  0.84804600  0.45109900  1
  Pb  Pb25  1  0.39419200  0.13856700  0.32400200  1
  S  S26  1  0.10306100  0.15704200  0.94060400  1
  S  S27  1  0.31284000  0.46547400  0.32407100  1
  S  S28  1  0.13868100  0.15159900  0.74569700  1
  S  S29  1  0.97032000  0.25276800  0.60250600  1
  S  S30  1  0.55953000  0.18319900  0.43605900  1
  S  S31  1  0.55198300  0.08561100  0.16926400  1
  S  S32  1  0.53452600  0.68716000  0.17592900  1
  S  S33  1  0.81680100  0.44047000  0.06394100  1
  S  S34  1  0.15704200  0.10306100  0.44060400  1
  S  S35  1  0.15159900  0.13868100  0.24569700  1
  S  S36  1  0.84840100  0.86131900  0.75430300  1
  S  S37  1  0.44801700  0.91438900  0.83073600  1
  S  S38  1  0.42879100  0.80673100  0.37706500  1
  S  S39  1  0.69134000  0.52141100  0.49817700  1
  S  S40  1  0.30866000  0.47858900  0.50182300  1
  S  S41  1  0.91438900  0.44801700  0.33073600  1
  S  S42  1  0.19326900  0.57120900  0.12293500  1
  S  S43  1  0.47858900  0.30866000  0.00182300  1
  S  S44  1  0.74225100  0.25774900  0.25000000  1
  S  S45  1  0.52141100  0.69134000  0.99817700  1
  S  S46  1  0.46547400  0.31284000  0.82407100  1
  S  S47  1  0.44047000  0.81680100  0.56394100  1
  S  S48  1  0.89693900  0.84295800  0.05939600  1
  S  S49  1  0.84295800  0.89693900  0.55939600  1
  S  S50  1  0.80673100  0.42879100  0.87706500  1
  S  S51  1  0.68716000  0.53452600  0.67592900  1
  S  S52  1  0.25276800  0.97032000  0.10250600  1
  S  S53  1  0.02968000  0.74723200  0.39749400  1
  S  S54  1  0.74723200  0.02968000  0.89749400  1
  S  S55  1  0.18319900  0.55953000  0.93605900  1
  S  S56  1  0.57120900  0.19326900  0.62293500  1
  S  S57  1  0.25774900  0.74225100  0.75000000  1
  S  S58  1  0.86131900  0.84840100  0.25430300  1
  S  S59  1  0.08561100  0.55198300  0.66926400  1
