# generated using pymatgen
data_Cu5Si(SbO6)2
_symmetry_space_group_name_H-M   'P 1'
_cell_length_a   9.55081277
_cell_length_b   9.71583434
_cell_length_c   19.24102306
_cell_angle_alpha   90.00001725
_cell_angle_beta   90.00002044
_cell_angle_gamma   90.00317360
_symmetry_Int_Tables_number   1
_chemical_formula_structural   Cu5Si(SbO6)2
_chemical_formula_sum   'Cu40 Si8 Sb16 O96'
_cell_volume   1785.45369913
_cell_formula_units_Z   8
loop_
 _symmetry_equiv_pos_site_id
 _symmetry_equiv_pos_as_xyz
  1  'x, y, z'
loop_
 _atom_site_type_symbol
 _atom_site_label
 _atom_site_symmetry_multiplicity
 _atom_site_fract_x
 _atom_site_fract_y
 _atom_site_fract_z
 _atom_site_occupancy
  Cu  Cu0  1  0.74384265  0.50236446  0.37719927  1
  Cu  Cu1  1  0.97903239  0.72773340  0.37586581  1
  Cu  Cu2  1  0.50001097  0.45987359  0.74999938  1
  Cu  Cu3  1  0.49998896  0.04012629  0.24999938  1
  Cu  Cu4  1  0.02097504  0.72776843  0.12414423  1
  Cu  Cu5  1  0.97902496  0.27223157  0.87585577  1
  Cu  Cu6  1  0.24585884  0.75482760  0.25011794  1
  Cu  Cu7  1  0.74385547  0.49762256  0.87720388  1
  Cu  Cu8  1  0.25614448  0.00237734  0.37720393  1
  Cu  Cu9  1  0.22060295  0.74998102  0.49998715  1
  Cu  Cu10  1  0.74385552  0.99762266  0.62279607  1
  Cu  Cu11  1  0.24593559  0.74520689  0.74988468  1
  Cu  Cu12  1  0.25614453  0.50237744  0.12279612  1
  Cu  Cu13  1  0.02096759  0.77226680  0.87586589  1
  Cu  Cu14  1  0.72352440  0.75000335  0.49999414  1
  Cu  Cu15  1  0.75414116  0.24517240  0.74988206  1
  Cu  Cu16  1  0.27647560  0.24999665  0.50000586  1
  Cu  Cu17  1  0.24593564  0.24520694  0.75011536  1
  Cu  Cu18  1  0.25615759  0.99763544  0.87719928  1
  Cu  Cu19  1  0.75414119  0.74517250  0.75011791  1
  Cu  Cu20  1  0.97902496  0.77223145  0.62414419  1
  Cu  Cu21  1  0.74384241  0.00236456  0.12280072  1
  Cu  Cu22  1  0.75406436  0.75479306  0.24988464  1
  Cu  Cu23  1  0.72352441  0.25000322  0.00000580  1
  Cu  Cu24  1  0.77939705  0.25001898  0.50001285  1
  Cu  Cu25  1  0.24585881  0.25482750  0.24988209  1
  Cu  Cu26  1  0.27647559  0.74999678  -0.00000580  1
  Cu  Cu27  1  0.77939696  0.75001898  0.99998717  1
  Cu  Cu28  1  0.75406441  0.25479311  0.25011532  1
  Cu  Cu29  1  0.50000000  0.50000000  -0.00000000  1
  Cu  Cu30  1  0.22060304  0.24998102  0.00001283  1
  Cu  Cu31  1  0.49998903  0.54012641  0.25000062  1
  Cu  Cu32  1  0.50000000  -0.00000000  -0.00000000  1
  Cu  Cu33  1  0.50000000  0.50000000  0.50000000  1
  Cu  Cu34  1  0.25615735  0.49763554  0.62280073  1
  Cu  Cu35  1  0.02097504  0.22776855  0.37585581  1
  Cu  Cu36  1  0.02096761  0.27226660  0.62413419  1
  Cu  Cu37  1  0.50000000  -0.00000000  0.50000000  1
  Cu  Cu38  1  0.50001104  0.95987371  0.75000062  1
  Cu  Cu39  1  0.97903241  0.22773320  0.12413411  1
  Si  Si40  1  0.25317934  0.99270828  0.62697401  1
  Si  Si41  1  0.74682066  0.00729172  0.37302599  1
  Si  Si42  1  0.25317936  0.49270844  0.87302600  1
  Si  Si43  1  0.25316102  0.50723935  0.37300690  1
  Si  Si44  1  0.74683893  0.99276066  0.87300691  1
  Si  Si45  1  0.74683898  0.49276065  0.62699310  1
  Si  Si46  1  0.74682064  0.50729156  0.12697400  1
  Si  Si47  1  0.25316107  0.00723934  0.12699309  1
  Sb  Sb48  1  0.00001968  0.03643220  0.74998483  1
  Sb  Sb49  1  0.51528353  0.22755644  0.62465975  1
  Sb  Sb50  1  0.51523593  0.77242743  0.12467746  1
  Sb  Sb51  1  0.48471627  0.27244351  0.12465981  1
  Sb  Sb52  1  0.48476407  0.22757257  0.87532254  1
  Sb  Sb53  1  0.00000000  0.50000000  -0.00000000  1
  Sb  Sb54  1  0.48476409  0.72757262  0.62467745  1
  Sb  Sb55  1  0.51523591  0.27242738  0.37532255  1
  Sb  Sb56  1  0.00000000  -0.00000000  -0.00000000  1
  Sb  Sb57  1  0.00000000  0.50000000  0.50000000  1
  Sb  Sb58  1  0.48471647  0.77244356  0.37534025  1
  Sb  Sb59  1  0.99998032  0.96356780  0.25001517  1
  Sb  Sb60  1  0.51528373  0.72755649  0.87534019  1
  Sb  Sb61  1  0.00000000  -0.00000000  0.50000000  1
  Sb  Sb62  1  0.99998032  0.46356789  0.24998487  1
  Sb  Sb63  1  0.00001968  0.53643211  0.75001513  1
  O  O64  1  0.85544129  0.43822465  0.56867212  1
  O  O65  1  0.14455412  0.93822857  0.56865886  1
  O  O66  1  0.60203249  0.31478908  0.80253449  1
  O  O67  1  0.06918961  0.15655583  0.94445213  1
  O  O68  1  0.64198049  0.86688887  0.05392989  1
  O  O69  1  0.64194326  0.13314676  0.55397644  1
  O  O70  1  0.14110517  0.37559772  0.55392998  1
  O  O71  1  0.64194314  0.63314673  0.94602359  1
  O  O72  1  0.85544132  0.93822470  0.93132797  1
  O  O73  1  0.90603073  0.31486627  0.30643296  1
  O  O74  1  0.60199700  0.18527884  0.19741730  1
  O  O75  1  0.88958857  0.89962591  0.69156659  1
  O  O76  1  0.11044876  0.39971579  0.69157507  1
  O  O77  1  0.16992349  0.07226472  0.68889310  1
  O  O78  1  0.93081027  0.34344413  0.44445213  1
  O  O79  1  0.83011449  0.07233189  0.81109628  1
  O  O80  1  0.60738398  0.41014972  0.31007355  1
  O  O81  1  0.83007638  0.42773534  0.18889302  1
  O  O82  1  0.64198050  0.36688882  0.44607010  1
  O  O83  1  0.42636680  0.64746754  0.05482638  1
  O  O84  1  0.39256133  0.91014580  0.31005560  1
  O  O85  1  0.06911634  0.84342906  0.44448683  1
  O  O86  1  0.93088368  0.65657075  0.94448683  1
  O  O87  1  0.66611401  0.35926940  0.65876513  1
  O  O88  1  0.36289932  0.09853128  0.59152082  1
  O  O89  1  0.36278279  0.90133861  0.09153392  1
  O  O90  1  0.16988563  0.42766818  0.31109628  1
  O  O91  1  0.35801950  0.63311118  0.55392990  1
  O  O92  1  0.88958866  0.39962594  0.80843338  1
  O  O93  1  0.57363313  0.85253251  0.55482639  1
  O  O94  1  0.60199682  0.68527890  0.30258271  1
  O  O95  1  0.39256132  0.41014581  0.18994432  1
  O  O96  1  0.63710067  0.40146864  0.09152092  1
  O  O97  1  0.57359497  0.64743705  0.44522011  1
  O  O98  1  0.60203237  0.81478898  0.69746548  1
  O  O99  1  0.16988551  0.92766811  0.18890372  1
  O  O100  1  0.36278294  0.40133855  0.40846613  1
  O  O101  1  0.88955124  0.60028421  0.30842493  1
  O  O102  1  0.93088366  0.15657094  0.55551317  1
  O  O103  1  0.35805674  0.86685324  0.44602356  1
  O  O104  1  0.83011437  0.57233182  0.68890372  1
  O  O105  1  0.85544588  0.06177143  0.43134114  1
  O  O106  1  0.14101388  0.12441775  0.44602710  1
  O  O107  1  0.57363320  0.35253246  0.94517362  1
  O  O108  1  0.14455404  0.43822858  0.93134117  1
  O  O109  1  0.11041134  0.60037406  0.19156662  1
  O  O110  1  0.09396919  0.18513353  0.80643291  1
  O  O111  1  0.60738398  0.91014975  0.18992645  1
  O  O112  1  0.16992362  0.57226466  0.81110698  1
  O  O113  1  0.11044872  0.89971588  0.80842491  1
  O  O114  1  0.14110510  0.87559772  0.94607004  1
  O  O115  1  0.39261602  0.08985025  0.81007355  1
  O  O116  1  0.39800318  0.31472110  0.69741729  1
  O  O117  1  0.85544596  0.56177142  0.06865883  1
  O  O118  1  0.06911632  0.34342925  0.05551317  1
  O  O119  1  0.39796763  0.18521102  0.30253452  1
  O  O120  1  0.93081039  0.84344417  0.05554787  1
  O  O121  1  0.09396927  0.68513373  0.69356704  1
  O  O122  1  0.83007651  0.92773528  0.31110690  1
  O  O123  1  0.63721721  0.09866139  0.90846608  1
  O  O124  1  0.39800300  0.81472116  0.80258270  1
  O  O125  1  0.14101382  0.62441778  0.05397288  1
  O  O126  1  0.36289933  0.59853136  0.90847908  1
  O  O127  1  0.66615465  0.64081172  0.15875216  1
  O  O128  1  0.66611400  0.85926942  0.84123489  1
  O  O129  1  0.90596660  0.18510713  0.69355006  1
  O  O130  1  0.39261602  0.58985028  0.68992645  1
  O  O131  1  0.09403347  0.31489276  0.19354997  1
  O  O132  1  0.85889483  0.62440228  0.44607002  1
  O  O133  1  0.63710068  0.90146872  0.40847918  1
  O  O134  1  0.06918973  0.65655587  0.55554787  1
  O  O135  1  0.33388499  0.64073060  0.34123487  1
  O  O136  1  0.90596653  0.68510724  0.80645003  1
  O  O137  1  0.85898618  0.37558222  0.94602712  1
  O  O138  1  0.85898612  0.87558225  0.55397290  1
  O  O139  1  0.85889490  0.12440228  0.05392996  1
  O  O140  1  0.09403340  0.81489287  0.30644994  1
  O  O141  1  0.42636687  0.14746749  0.44517361  1
  O  O142  1  0.63721706  0.59866145  0.59153387  1
  O  O143  1  0.14455871  0.56177535  0.43132788  1
  O  O144  1  0.39796751  0.68521092  0.19746551  1
  O  O145  1  0.66615471  0.14081173  0.34124787  1
  O  O146  1  0.88955128  0.10028412  0.19157509  1
  O  O147  1  0.60743868  0.58985419  0.81005568  1
  O  O148  1  0.33388500  0.14073058  0.15876511  1
  O  O149  1  0.60743867  0.08985420  0.68994440  1
  O  O150  1  0.33384429  0.85918827  0.65875213  1
  O  O151  1  0.14455868  0.06177530  0.06867203  1
  O  O152  1  0.35805686  0.36685327  0.05397641  1
  O  O153  1  0.90603081  0.81486647  0.19356709  1
  O  O154  1  0.35801951  0.13311113  0.94607011  1
  O  O155  1  0.42640503  0.35256295  0.55477989  1
  O  O156  1  0.57359498  0.14743709  0.05477999  1
  O  O157  1  0.33384435  0.35918828  0.84124784  1
  O  O158  1  0.11041143  0.10037409  0.30843341  1
  O  O159  1  0.42640502  0.85256291  0.94522001  1
