# generated using pymatgen
data_Cr3AuO8
_symmetry_space_group_name_H-M   'P 1'
_cell_length_a   5.21919767
_cell_length_b   5.21905342
_cell_length_c   8.35470878
_cell_angle_alpha   80.48991815
_cell_angle_beta   80.49473674
_cell_angle_gamma   63.86684873
_symmetry_Int_Tables_number   1
_chemical_formula_structural   Cr3AuO8
_chemical_formula_sum   'Cr3 Au1 O8'
_cell_volume   200.40440602
_cell_formula_units_Z   1
loop_
 _symmetry_equiv_pos_site_id
 _symmetry_equiv_pos_as_xyz
  1  'x, y, z'
loop_
 _atom_site_type_symbol
 _atom_site_label
 _atom_site_symmetry_multiplicity
 _atom_site_fract_x
 _atom_site_fract_y
 _atom_site_fract_z
 _atom_site_occupancy
  Cr  Cr0  1  0.67948400  0.67952400  0.30439900  1
  Cr  Cr1  1  0.32049000  0.32047600  0.69561000  1
  Cr  Cr2  1  0.99998300  0.99999200  0.49997700  1
  Au  Au3  1  0.00007800  0.00003600  0.00001500  1
  O  O4  1  0.31902800  0.81631300  0.33018800  1
  O  O5  1  0.68091200  0.18372600  0.66976200  1
  O  O6  1  0.79357200  0.79358000  0.43892900  1
  O  O7  1  0.18374900  0.68087300  0.66975100  1
  O  O8  1  0.20634600  0.20632200  0.56111100  1
  O  O9  1  0.21962200  0.21956800  0.88683300  1
  O  O10  1  0.81624900  0.31907500  0.33019000  1
  O  O11  1  0.78048800  0.78051400  0.11323600  1
