# generated using pymatgen
data_VInCuO5
_symmetry_space_group_name_H-M   'P 1'
_cell_length_a   6.24506900
_cell_length_b   8.92283400
_cell_length_c   15.48860667
_cell_angle_alpha   73.31499239
_cell_angle_beta   90.00000000
_cell_angle_gamma   90.00000000
_symmetry_Int_Tables_number   1
_chemical_formula_structural   VInCuO5
_chemical_formula_sum   'V8 In8 Cu8 O40'
_cell_volume   826.74488284
_cell_formula_units_Z   8
loop_
 _symmetry_equiv_pos_site_id
 _symmetry_equiv_pos_as_xyz
  1  'x, y, z'
loop_
 _atom_site_type_symbol
 _atom_site_label
 _atom_site_symmetry_multiplicity
 _atom_site_fract_x
 _atom_site_fract_y
 _atom_site_fract_z
 _atom_site_occupancy
  V  V0  1  0.15296200  0.92999100  0.14759900  1
  V  V1  1  0.65296200  0.07000900  0.35240100  1
  V  V2  1  0.84703800  0.07000900  0.85240100  1
  V  V3  1  0.34703800  0.92999100  0.64759900  1
  V  V4  1  0.87225600  0.67712200  0.64582700  1
  V  V5  1  0.62774400  0.67712200  0.14582700  1
  V  V6  1  0.12774400  0.32287800  0.35417300  1
  V  V7  1  0.37225600  0.32287800  0.85417300  1
  In  In8  1  0.12183500  0.62406400  0.04548200  1
  In  In9  1  0.11055000  0.29705500  0.65175200  1
  In  In10  1  0.88945000  0.70294500  0.34824800  1
  In  In11  1  0.38945000  0.29705500  0.15175200  1
  In  In12  1  0.61055000  0.70294500  0.84824800  1
  In  In13  1  0.62183500  0.37593600  0.45451800  1
  In  In14  1  0.37816500  0.62406400  0.54548200  1
  In  In15  1  0.87816500  0.37593600  0.95451800  1
  Cu  Cu16  1  0.35708800  0.93133800  0.93570000  1
  Cu  Cu17  1  0.14291200  0.93133800  0.43570000  1
  Cu  Cu18  1  0.85708800  0.06866200  0.56430000  1
  Cu  Cu19  1  0.11127800  0.71106000  0.83600000  1
  Cu  Cu20  1  0.64291200  0.06866200  0.06430000  1
  Cu  Cu21  1  0.61127800  0.28894000  0.66400000  1
  Cu  Cu22  1  0.38872200  0.71106000  0.33600000  1
  Cu  Cu23  1  0.88872200  0.28894000  0.16400000  1
  O  O24  1  0.37696400  0.05580500  0.14319700  1
  O  O25  1  0.88280100  0.85127800  0.56142500  1
  O  O26  1  0.62303600  0.94419500  0.85680300  1
  O  O27  1  0.12303600  0.05580500  0.64319700  1
  O  O28  1  0.12775400  0.27958800  0.24847200  1
  O  O29  1  0.83032400  0.28807700  0.57063800  1
  O  O30  1  0.61719900  0.85127800  0.06142500  1
  O  O31  1  0.07509800  0.97205000  0.84918600  1
  O  O32  1  0.10598800  0.37101900  0.06636100  1
  O  O33  1  0.89401200  0.62898100  0.93363900  1
  O  O34  1  0.86372500  0.58025700  0.14109100  1
  O  O35  1  0.57509800  0.02795000  0.65081400  1
  O  O36  1  0.84412000  0.13839700  0.94993600  1
  O  O37  1  0.66967600  0.28807700  0.07063800  1
  O  O38  1  0.90917300  0.44756800  0.36595100  1
  O  O39  1  0.36372500  0.41974300  0.35890900  1
  O  O40  1  0.15316400  0.76414400  0.24759600  1
  O  O41  1  0.15588000  0.86160300  0.05006400  1
  O  O42  1  0.87224600  0.72041200  0.75152800  1
  O  O43  1  0.59082700  0.44756800  0.86595100  1
  O  O44  1  0.11719900  0.14872200  0.43857500  1
  O  O45  1  0.37224600  0.27958800  0.74847200  1
  O  O46  1  0.84683600  0.23585600  0.75240400  1
  O  O47  1  0.62775400  0.72041200  0.25152800  1
  O  O48  1  0.60598800  0.62898100  0.43363900  1
  O  O49  1  0.42490200  0.97205000  0.34918600  1
  O  O50  1  0.09082700  0.55243200  0.63404900  1
  O  O51  1  0.39401200  0.37101900  0.56636100  1
  O  O52  1  0.63627500  0.58025700  0.64109100  1
  O  O53  1  0.16967600  0.71192300  0.42936200  1
  O  O54  1  0.13627500  0.41974300  0.85890900  1
  O  O55  1  0.34683600  0.76414400  0.74759600  1
  O  O56  1  0.33032400  0.71192300  0.92936200  1
  O  O57  1  0.34412000  0.86160300  0.55006400  1
  O  O58  1  0.65316400  0.23585600  0.25240400  1
  O  O59  1  0.40917300  0.55243200  0.13404900  1
  O  O60  1  0.87696400  0.94419500  0.35680300  1
  O  O61  1  0.92490200  0.02795000  0.15081400  1
  O  O62  1  0.65588000  0.13839700  0.44993600  1
  O  O63  1  0.38280100  0.14872200  0.93857500  1
