# generated using pymatgen
data_PbWO4
_symmetry_space_group_name_H-M   'P 1'
_cell_length_a   8.17586476
_cell_length_b   8.17586476
_cell_length_c   5.54265800
_cell_angle_alpha   90.00000000
_cell_angle_beta   90.00000000
_cell_angle_gamma   121.04098641
_symmetry_Int_Tables_number   1
_chemical_formula_structural   PbWO4
_chemical_formula_sum   'Pb4 W4 O16'
_cell_volume   317.44190288
_cell_formula_units_Z   4
loop_
 _symmetry_equiv_pos_site_id
 _symmetry_equiv_pos_as_xyz
  1  'x, y, z'
loop_
 _atom_site_type_symbol
 _atom_site_label
 _atom_site_symmetry_multiplicity
 _atom_site_fract_x
 _atom_site_fract_y
 _atom_site_fract_z
 _atom_site_occupancy
  Pb  Pb0  1  0.58848700  0.91151300  0.25000000  1
  Pb  Pb1  1  0.41151300  0.08848700  0.75000000  1
  Pb  Pb2  1  0.91151300  0.58848700  0.75000000  1
  Pb  Pb3  1  0.08848700  0.41151300  0.25000000  1
  W  W4  1  0.58572700  0.41427300  0.29061200  1
  W  W5  1  0.08572700  0.91427300  0.20938800  1
  W  W6  1  0.91427300  0.08572700  0.79061200  1
  W  W7  1  0.41427300  0.58572700  0.70938800  1
  O  O8  1  0.85781800  0.85781800  0.00000000  1
  O  O9  1  0.69440500  0.30559500  0.46781600  1
  O  O10  1  0.58873500  0.41126500  0.95252900  1
  O  O11  1  0.88071200  0.61928800  0.25000000  1
  O  O12  1  0.35781800  0.35781800  0.50000000  1
  O  O13  1  0.80559500  0.19440500  0.96781600  1
  O  O14  1  0.08873500  0.91126500  0.54747100  1
  O  O15  1  0.64218200  0.64218200  0.50000000  1
  O  O16  1  0.30559500  0.69440500  0.53218400  1
  O  O17  1  0.41126500  0.58873500  0.04747100  1
  O  O18  1  0.14218200  0.14218200  0.00000000  1
  O  O19  1  0.11928800  0.38071200  0.75000000  1
  O  O20  1  0.91126500  0.08873500  0.45252900  1
  O  O21  1  0.19440500  0.80559500  0.03218400  1
  O  O22  1  0.61928800  0.88071200  0.75000000  1
  O  O23  1  0.38071200  0.11928800  0.25000000  1
