# generated using pymatgen
data_K34(Zn4In17)5
_symmetry_space_group_name_H-M   'P 1'
_cell_length_a   17.48843511
_cell_length_b   17.48843529
_cell_length_c   17.48843523
_cell_angle_alpha   65.44359580
_cell_angle_beta   65.44359554
_cell_angle_gamma   65.44359445
_symmetry_Int_Tables_number   1
_chemical_formula_structural   K34(Zn4In17)5
_chemical_formula_sum   'K34 Zn20 In85'
_cell_volume   4229.96325917
_cell_formula_units_Z   1
loop_
 _symmetry_equiv_pos_site_id
 _symmetry_equiv_pos_as_xyz
  1  'x, y, z'
loop_
 _atom_site_type_symbol
 _atom_site_label
 _atom_site_symmetry_multiplicity
 _atom_site_fract_x
 _atom_site_fract_y
 _atom_site_fract_z
 _atom_site_occupancy
  K  K0  1  0.49951788  0.10789274  0.10789274  1
  K  K1  1  0.36187500  0.36187500  0.36187500  1
  K  K2  1  0.11259833  0.74238357  0.11259833  1
  K  K3  1  0.49977454  0.15383876  0.71315550  1
  K  K4  1  0.88740167  0.25761643  0.88740167  1
  K  K5  1  0.89210726  0.50048212  0.89210726  1
  K  K6  1  0.25761643  0.88740167  0.88740167  1
  K  K7  1  0.50022546  0.84616124  0.28684450  1
  K  K8  1  0.74292837  0.74292837  0.74292837  1
  K  K9  1  0.50048212  0.89210726  0.89210726  1
  K  K10  1  0.37016294  0.71797200  0.71797200  1
  K  K11  1  0.74238357  0.11259833  0.11259833  1
  K  K12  1  0.84616124  0.50022546  0.28684450  1
  K  K13  1  0.10789274  0.49951788  0.10789274  1
  K  K14  1  0.71797200  0.71797200  0.37016294  1
  K  K15  1  0.71315550  0.49977454  0.15383876  1
  K  K16  1  0.62983706  0.28202800  0.28202800  1
  K  K17  1  0.25707163  0.25707163  0.25707163  1
  K  K18  1  0.50022546  0.28684450  0.84616124  1
  K  K19  1  0.88740167  0.88740167  0.25761643  1
  K  K20  1  0.28684450  0.50022546  0.84616124  1
  K  K21  1  0.11259833  0.11259833  0.74238357  1
  K  K22  1  0.28202800  0.28202800  0.62983706  1
  K  K23  1  0.15383876  0.49977454  0.71315550  1
  K  K24  1  0.84616124  0.28684450  0.50022546  1
  K  K25  1  0.28684450  0.84616124  0.50022546  1
  K  K26  1  0.63812500  0.63812500  0.63812500  1
  K  K27  1  0.49977454  0.71315550  0.15383876  1
  K  K28  1  0.71797200  0.37016294  0.71797200  1
  K  K29  1  0.15383876  0.71315550  0.49977454  1
  K  K30  1  0.10789274  0.10789274  0.49951788  1
  K  K31  1  0.89210726  0.89210726  0.50048212  1
  K  K32  1  0.28202800  0.62983706  0.28202800  1
  K  K33  1  0.71315550  0.15383876  0.49977454  1
  Zn  Zn34  1  0.88191720  0.88191720  0.73901521  1
  Zn  Zn35  1  0.88191720  0.73901521  0.88191720  1
  Zn  Zn36  1  0.10859359  0.96054555  0.10859359  1
  Zn  Zn37  1  0.11368816  0.11368816  0.11368816  1
  Zn  Zn38  1  0.10859359  0.10859359  0.96054555  1
  Zn  Zn39  1  0.03945445  0.89140641  0.89140641  1
  Zn  Zn40  1  0.25454118  0.02192947  0.02192947  1
  Zn  Zn41  1  0.74545882  0.97807053  0.97807053  1
  Zn  Zn42  1  0.73901521  0.88191720  0.88191720  1
  Zn  Zn43  1  0.11808280  0.26098479  0.11808280  1
  Zn  Zn44  1  0.88631184  0.88631184  0.88631184  1
  Zn  Zn45  1  0.11808280  0.11808280  0.26098479  1
  Zn  Zn46  1  0.89140641  0.89140641  0.03945445  1
  Zn  Zn47  1  0.97807053  0.74545882  0.97807053  1
  Zn  Zn48  1  0.02192947  0.25454118  0.02192947  1
  Zn  Zn49  1  0.89140641  0.03945445  0.89140641  1
  Zn  Zn50  1  0.96054555  0.10859359  0.10859359  1
  Zn  Zn51  1  0.97807053  0.97807053  0.74545882  1
  Zn  Zn52  1  0.26098479  0.11808280  0.11808280  1
  Zn  Zn53  1  0.02192947  0.02192947  0.25454118  1
  In  In54  1  0.60879451  0.60879451  0.98264293  1
  In  In55  1  0.60250351  0.33640485  0.60250351  1
  In  In56  1  0.05216976  0.88471309  0.60681769  1
  In  In57  1  0.84099446  0.28413477  0.10962826  1
  In  In58  1  0.04653716  0.67370244  0.39151354  1
  In  In59  1  0.83075832  0.29102426  0.29102426  1
  In  In60  1  0.28710929  0.01472892  0.28710929  1
  In  In61  1  0.84099446  0.10962826  0.28413477  1
  In  In62  1  0.32629756  0.95346284  0.60848646  1
  In  In63  1  0.31982030  0.14847396  0.49772562  1
  In  In64  1  0.39318231  0.94783024  0.11528691  1
  In  In65  1  0.14847396  0.49772562  0.31982030  1
  In  In66  1  0.15614490  0.49693633  0.49693633  1
  In  In67  1  0.28710929  0.28710929  0.01472892  1
  In  In68  1  0.15900554  0.71586523  0.89037174  1
  In  In69  1  0.49715524  0.49715524  0.33183515  1
  In  In70  1  0.39151354  0.67370244  0.04653716  1
  In  In71  1  0.71586523  0.15900554  0.89037174  1
  In  In72  1  0.29102426  0.83075832  0.29102426  1
  In  In73  1  0.50284476  0.50284476  0.66816485  1
  In  In74  1  0.49693633  0.15614490  0.49693633  1
  In  In75  1  0.71289071  0.71289071  0.98527108  1
  In  In76  1  0.70897574  0.16924168  0.70897574  1
  In  In77  1  0.11528691  0.39318231  0.94783024  1
  In  In78  1  0.95346284  0.60848646  0.32629756  1
  In  In79  1  0.60848646  0.95346284  0.32629756  1
  In  In80  1  0.68017970  0.50227438  0.85152604  1
  In  In81  1  0.60848646  0.32629756  0.95346284  1
  In  In82  1  0.16924168  0.70897574  0.70897574  1
  In  In83  1  0.84385510  0.50306367  0.50306367  1
  In  In84  1  0.15900554  0.89037174  0.71586523  1
  In  In85  1  0.39151354  0.04653716  0.67370244  1
  In  In86  1  0.89037174  0.15900554  0.71586523  1
  In  In87  1  0.39120549  0.39120549  0.01735707  1
  In  In88  1  0.14847396  0.31982030  0.49772562  1
  In  In89  1  0.98264293  0.60879451  0.60879451  1
  In  In90  1  0.88471309  0.05216976  0.60681769  1
  In  In91  1  0.50284476  0.66816485  0.50284476  1
  In  In92  1  0.95346284  0.32629756  0.60848646  1
  In  In93  1  0.60681769  0.05216976  0.88471309  1
  In  In94  1  0.85152604  0.50227438  0.68017970  1
  In  In95  1  0.33640485  0.60250351  0.60250351  1
  In  In96  1  0.66359515  0.39749649  0.39749649  1
  In  In97  1  0.50306367  0.50306367  0.84385510  1
  In  In98  1  0.60681769  0.88471309  0.05216976  1
  In  In99  1  0.67370244  0.39151354  0.04653716  1
  In  In100  1  0.49715524  0.33183515  0.49715524  1
  In  In101  1  0.60250351  0.60250351  0.33640485  1
  In  In102  1  0.85152604  0.68017970  0.50227438  1
  In  In103  1  0.32629756  0.60848646  0.95346284  1
  In  In104  1  0.98527108  0.71289071  0.71289071  1
  In  In105  1  0.28413477  0.10962826  0.84099446  1
  In  In106  1  0.49772562  0.31982030  0.14847396  1
  In  In107  1  0.50306367  0.84385510  0.50306367  1
  In  In108  1  0.60879451  0.98264293  0.60879451  1
  In  In109  1  0.05216976  0.60681769  0.88471309  1
  In  In110  1  0.39749649  0.66359515  0.39749649  1
  In  In111  1  0.49772562  0.14847396  0.31982030  1
  In  In112  1  0.94783024  0.39318231  0.11528691  1
  In  In113  1  0.88471309  0.60681769  0.05216976  1
  In  In114  1  0.50227438  0.85152604  0.68017970  1
  In  In115  1  0.39749649  0.39749649  0.66359515  1
  In  In116  1  0.94783024  0.11528691  0.39318231  1
  In  In117  1  0.39318231  0.11528691  0.94783024  1
  In  In118  1  0.67370244  0.04653716  0.39151354  1
  In  In119  1  0.89037174  0.71586523  0.15900554  1
  In  In120  1  0.71586523  0.89037174  0.15900554  1
  In  In121  1  0.04653716  0.39151354  0.67370244  1
  In  In122  1  0.01472892  0.28710929  0.28710929  1
  In  In123  1  0.29102426  0.29102426  0.83075832  1
  In  In124  1  0.49693633  0.49693633  0.15614490  1
  In  In125  1  0.71289071  0.98527108  0.71289071  1
  In  In126  1  0.11528691  0.94783024  0.39318231  1
  In  In127  1  0.01735707  0.39120549  0.39120549  1
  In  In128  1  0.68017970  0.85152604  0.50227438  1
  In  In129  1  0.31982030  0.49772562  0.14847396  1
  In  In130  1  0.50227438  0.68017970  0.85152604  1
  In  In131  1  0.00000000  0.00000000  0.00000000  1
  In  In132  1  0.10962826  0.28413477  0.84099446  1
  In  In133  1  0.39120549  0.01735707  0.39120549  1
  In  In134  1  0.28413477  0.84099446  0.10962826  1
  In  In135  1  0.66816485  0.50284476  0.50284476  1
  In  In136  1  0.33183515  0.49715524  0.49715524  1
  In  In137  1  0.70897574  0.70897574  0.16924168  1
  In  In138  1  0.10962826  0.84099446  0.28413477  1
