# generated using pymatgen
data_In9Ni13
_symmetry_space_group_name_H-M   'P 1'
_cell_length_a   6.75182181
_cell_length_b   6.75182181
_cell_length_c   9.08199035
_cell_angle_alpha   63.23150949
_cell_angle_beta   63.23150949
_cell_angle_gamma   77.56223687
_symmetry_Int_Tables_number   1
_chemical_formula_structural   In9Ni13
_chemical_formula_sum   'In9 Ni13'
_cell_volume   329.99731579
_cell_formula_units_Z   1
loop_
 _symmetry_equiv_pos_site_id
 _symmetry_equiv_pos_as_xyz
  1  'x, y, z'
loop_
 _atom_site_type_symbol
 _atom_site_label
 _atom_site_symmetry_multiplicity
 _atom_site_fract_x
 _atom_site_fract_y
 _atom_site_fract_z
 _atom_site_occupancy
  In  In0  1  0.25202600  0.83102200  0.19010900  1
  In  In1  1  0.17219300  0.17219300  0.38571900  1
  In  In2  1  0.28518000  0.28518000  0.66775000  1
  In  In3  1  0.83102200  0.25202600  0.19010900  1
  In  In4  1  0.71482000  0.71482000  0.33225000  1
  In  In5  1  0.50000000  0.50000000  0.00000000  1
  In  In6  1  0.74797400  0.16897800  0.80989100  1
  In  In7  1  0.16897800  0.74797400  0.80989100  1
  In  In8  1  0.82780700  0.82780700  0.61428100  1
  Ni  Ni9  1  0.54603400  0.06494300  0.15918200  1
  Ni  Ni10  1  0.50000000  0.00000000  0.50000000  1
  Ni  Ni11  1  0.54469600  0.54469600  0.67709600  1
  Ni  Ni12  1  0.06494300  0.54603400  0.15918200  1
  Ni  Ni13  1  0.45530400  0.45530400  0.32290400  1
  Ni  Ni14  1  0.26641400  0.73358600  0.50000000  1
  Ni  Ni15  1  0.25863700  0.25863700  0.97952100  1
  Ni  Ni16  1  0.93505700  0.45396600  0.84081800  1
  Ni  Ni17  1  0.74136300  0.74136300  0.02047900  1
  Ni  Ni18  1  0.45396600  0.93505700  0.84081800  1
  Ni  Ni19  1  0.73358600  0.26641400  0.50000000  1
  Ni  Ni20  1  0.00000000  0.00000000  0.00000000  1
  Ni  Ni21  1  0.00000000  0.50000000  0.50000000  1
