# generated using pymatgen
data_Mo9O26
_symmetry_space_group_name_H-M   'P 1'
_cell_length_a   8.52038000
_cell_length_b   12.09150258
_cell_length_c   20.14396695
_cell_angle_alpha   95.41450339
_cell_angle_beta   92.41094380
_cell_angle_gamma   109.69235899
_symmetry_Int_Tables_number   1
_chemical_formula_structural   Mo9O26
_chemical_formula_sum   'Mo36 O104'
_cell_volume   1939.17468605
_cell_formula_units_Z   4
loop_
 _symmetry_equiv_pos_site_id
 _symmetry_equiv_pos_as_xyz
  1  'x, y, z'
loop_
 _atom_site_type_symbol
 _atom_site_label
 _atom_site_symmetry_multiplicity
 _atom_site_fract_x
 _atom_site_fract_y
 _atom_site_fract_z
 _atom_site_occupancy
  Mo  Mo0  1  0.64485300  0.19694200  0.34854000  1
  Mo  Mo1  1  0.43178600  0.01332400  0.17711500  1
  Mo  Mo2  1  0.37323000  0.99278100  0.43323600  1
  Mo  Mo3  1  0.99683500  0.35305800  0.15555200  1
  Mo  Mo4  1  0.39800500  0.51027400  0.69742000  1
  Mo  Mo5  1  0.78357700  0.17194600  0.99067600  1
  Mo  Mo6  1  0.62384500  0.69779600  0.86138300  1
  Mo  Mo7  1  0.93701000  0.92652000  0.79878400  1
  Mo  Mo8  1  0.37615500  0.30220400  0.13861700  1
  Mo  Mo9  1  0.13758300  0.80642500  0.25980300  1
  Mo  Mo10  1  0.72915500  0.93027300  0.40707900  1
  Mo  Mo11  1  0.00316500  0.64694200  0.84444800  1
  Mo  Mo12  1  0.30011300  0.56642100  0.07444000  1
  Mo  Mo13  1  0.08157000  0.38239100  0.91035200  1
  Mo  Mo14  1  0.91843000  0.61760900  0.08964800  1
  Mo  Mo15  1  0.21642300  0.82805400  0.00932400  1
  Mo  Mo16  1  0.51660000  0.75025800  0.23847600  1
  Mo  Mo17  1  0.69504600  0.72954900  0.62547400  1
  Mo  Mo18  1  0.21728300  0.54024300  0.31889200  1
  Mo  Mo19  1  0.84307100  0.88513500  0.03088100  1
  Mo  Mo20  1  0.60199500  0.48972600  0.30258000  1
  Mo  Mo21  1  0.62677000  0.00721900  0.56676400  1
  Mo  Mo22  1  0.06299000  0.07348000  0.20121600  1
  Mo  Mo23  1  0.34106900  0.62148500  0.49358100  1
  Mo  Mo24  1  0.27084500  0.06972700  0.59292100  1
  Mo  Mo25  1  0.86241700  0.19357500  0.74019700  1
  Mo  Mo26  1  0.78271700  0.45975700  0.68110800  1
  Mo  Mo27  1  0.56821400  0.98667600  0.82288500  1
  Mo  Mo28  1  0.30495400  0.27045100  0.37452600  1
  Mo  Mo29  1  0.48340000  0.24974200  0.76152400  1
  Mo  Mo30  1  0.65893100  0.37851500  0.50641900  1
  Mo  Mo31  1  0.82696200  0.67381000  0.46578700  1
  Mo  Mo32  1  0.15692900  0.11486500  0.96911900  1
  Mo  Mo33  1  0.69988700  0.43357900  0.92556000  1
  Mo  Mo34  1  0.17303800  0.32619000  0.53421300  1
  Mo  Mo35  1  0.35514700  0.80305800  0.65146000  1
  O  O36  1  0.32739800  0.42744300  0.34858800  1
  O  O37  1  0.87414500  0.04209000  0.00323000  1
  O  O38  1  0.34418000  0.14284800  0.16855800  1
  O  O39  1  0.48371400  0.60316700  0.03817300  1
  O  O40  1  0.04723000  0.22451700  0.94043400  1
  O  O41  1  0.18692800  0.68556200  0.80785100  1
  O  O42  1  0.65248400  0.35058000  0.59260500  1
  O  O43  1  0.37299200  0.94193400  0.85056900  1
  O  O44  1  0.96112800  0.77687900  0.30176800  1
  O  O45  1  0.29348000  0.20769400  0.79335400  1
  O  O46  1  0.01431700  0.00887900  0.87814400  1
  O  O47  1  0.51628600  0.39683300  0.96182700  1
  O  O48  1  0.55483000  0.33552800  0.09805900  1
  O  O49  1  0.81252300  0.52417500  0.50714100  1
  O  O50  1  0.21275600  0.98035500  0.48979600  1
  O  O51  1  0.34751600  0.64942000  0.40739500  1
  O  O52  1  0.08963900  0.73798300  0.93361600  1
  O  O53  1  0.78299100  0.52194000  0.26414100  1
  O  O54  1  0.54439400  0.62707400  0.52560000  1
  O  O55  1  0.76575400  0.80427400  0.94997000  1
  O  O56  1  0.48234500  0.89765300  0.46631100  1
  O  O57  1  0.11232900  0.95541400  0.75625100  1
  O  O58  1  0.23424600  0.19572600  0.05003000  1
  O  O59  1  0.26977400  0.41281600  0.11415700  1
  O  O60  1  0.81307200  0.31443800  0.19214900  1
  O  O61  1  0.60214100  0.84639400  0.59611800  1
  O  O62  1  0.62700800  0.05806600  0.14943100  1
  O  O63  1  0.58199500  0.12326300  0.77471500  1
  O  O64  1  0.73022600  0.58718400  0.88584300  1
  O  O65  1  0.15294800  0.75096200  0.67194300  1
  O  O66  1  0.85381000  0.74556500  0.56719100  1
  O  O67  1  0.98568300  0.99112100  0.12185600  1
  O  O68  1  0.61320900  0.34178300  0.83640200  1
  O  O69  1  0.02627900  0.71831200  0.44244800  1
  O  O70  1  0.92535500  0.00034200  0.38398500  1
  O  O71  1  0.68514600  0.57360400  0.39106200  1
  O  O72  1  0.45539900  0.38133600  0.22119300  1
  O  O73  1  0.84705200  0.24903800  0.32805700  1
  O  O74  1  0.37533800  0.93908500  0.60333800  1
  O  O75  1  0.72720100  0.28341600  0.45121400  1
  O  O76  1  0.96288500  0.49697500  0.64156500  1
  O  O77  1  0.82500800  0.03451000  0.76658700  1
  O  O78  1  0.50316700  0.38890400  0.71684900  1
  O  O79  1  0.66611300  0.85193800  0.07243900  1
  O  O80  1  0.72733100  0.08952900  0.64295800  1
  O  O81  1  0.58968900  0.12834300  0.01942000  1
  O  O82  1  0.97372100  0.28168800  0.55755200  1
  O  O83  1  0.31485400  0.42639600  0.60893800  1
  O  O84  1  0.25016800  0.19586000  0.55471100  1
  O  O85  1  0.03711500  0.50302500  0.35843500  1
  O  O86  1  0.38679100  0.65821700  0.16359800  1
  O  O87  1  0.27266900  0.91047100  0.35704200  1
  O  O88  1  0.89855000  0.76994300  0.82351700  1
  O  O89  1  0.39785900  0.15360600  0.40388200  1
  O  O90  1  0.67260200  0.57255700  0.65141200  1
  O  O91  1  0.17499200  0.96549000  0.23341300  1
  O  O92  1  0.27279900  0.71658400  0.54878600  1
  O  O93  1  0.41031100  0.87165700  0.98058000  1
  O  O94  1  0.02212000  0.50698500  0.11611700  1
  O  O95  1  0.95277000  0.77548300  0.05956600  1
  O  O96  1  0.49683300  0.61109600  0.28315100  1
  O  O97  1  0.51765500  0.10234700  0.53368900  1
  O  O98  1  0.46786700  0.88749700  0.72716800  1
  O  O99  1  0.91036100  0.26201700  0.06638400  1
  O  O100  1  0.14619000  0.25443500  0.43280900  1
  O  O101  1  0.79943500  0.30964700  0.94652300  1
  O  O102  1  0.83932300  0.53900600  0.00697100  1
  O  O103  1  0.44517000  0.66447200  0.90194100  1
  O  O104  1  0.30797600  0.92357300  0.10334000  1
  O  O105  1  0.78724400  0.01964500  0.51020400  1
  O  O106  1  0.97788000  0.49301500  0.88388300  1
  O  O107  1  0.45560600  0.37292600  0.47440000  1
  O  O108  1  0.18747700  0.47582500  0.49285900  1
  O  O109  1  0.33388700  0.14806200  0.92756100  1
  O  O110  1  0.19813100  0.18526100  0.30110300  1
  O  O111  1  0.55667800  0.32973000  0.34359400  1
  O  O112  1  0.69202400  0.07642700  0.89666000  1
  O  O113  1  0.54460100  0.61866400  0.77880700  1
  O  O114  1  0.39009400  0.15099900  0.67073500  1
  O  O115  1  0.88767100  0.04458600  0.24374900  1
  O  O116  1  0.20056500  0.69035300  0.05347700  1
  O  O117  1  0.21700900  0.47806000  0.73585900  1
  O  O118  1  0.16067700  0.46099400  0.99302900  1
  O  O119  1  0.14111700  0.45698700  0.23766400  1
  O  O120  1  0.03887200  0.22312100  0.69823200  1
  O  O121  1  0.60990600  0.84900100  0.32926500  1
  O  O122  1  0.85888300  0.54301300  0.76233600  1
  O  O123  1  0.41800500  0.87673700  0.22528500  1
  O  O124  1  0.70652000  0.79230600  0.20664600  1
  O  O125  1  0.80186900  0.81473900  0.69889700  1
  O  O126  1  0.53213300  0.11250300  0.27283200  1
  O  O127  1  0.24261400  0.69472600  0.28864500  1
  O  O128  1  0.94062700  0.27271700  0.82072700  1
  O  O129  1  0.12585500  0.95791000  0.99677000  1
  O  O130  1  0.73869900  0.58646600  0.12920900  1
  O  O131  1  0.10145000  0.23005700  0.17648300  1
  O  O132  1  0.75738600  0.30527400  0.71135500  1
  O  O133  1  0.74983200  0.80414000  0.44528900  1
  O  O134  1  0.05937300  0.72728300  0.17927300  1
  O  O135  1  0.26130100  0.41353400  0.87079100  1
  O  O136  1  0.65582000  0.85715200  0.83144200  1
  O  O137  1  0.62466200  0.06091500  0.39666200  1
  O  O138  1  0.07464500  0.99965800  0.61601500  1
  O  O139  1  0.44332200  0.67027000  0.65640600  1
