# generated using pymatgen
data_Yb11(Ce2Se11)2
_symmetry_space_group_name_H-M   'P 1'
_cell_length_a   20.87865376
_cell_length_b   20.87865376
_cell_length_c   11.88875123
_cell_angle_alpha   85.90797491
_cell_angle_beta   85.90797491
_cell_angle_gamma   11.40363119
_symmetry_Int_Tables_number   1
_chemical_formula_structural   Yb11(Ce2Se11)2
_chemical_formula_sum   'Yb11 Ce4 Se22'
_cell_volume   1022.04736607
_cell_formula_units_Z   1
loop_
 _symmetry_equiv_pos_site_id
 _symmetry_equiv_pos_as_xyz
  1  'x, y, z'
loop_
 _atom_site_type_symbol
 _atom_site_label
 _atom_site_symmetry_multiplicity
 _atom_site_fract_x
 _atom_site_fract_y
 _atom_site_fract_z
 _atom_site_occupancy
  Yb  Yb0  1  0.34208700  0.34208700  0.80827600  1
  Yb  Yb1  1  0.65791300  0.65791300  0.19172400  1
  Yb  Yb2  1  0.26509100  0.26509100  0.14555500  1
  Yb  Yb3  1  0.53759300  0.53759300  0.77082600  1
  Yb  Yb4  1  0.93204800  0.93204800  0.85486200  1
  Yb  Yb5  1  0.06795200  0.06795200  0.14513800  1
  Yb  Yb6  1  0.80162400  0.80162400  0.43814900  1
  Yb  Yb7  1  0.73490900  0.73490900  0.85444500  1
  Yb  Yb8  1  0.00000000  0.00000000  0.50000000  1
  Yb  Yb9  1  0.46240700  0.46240700  0.22917400  1
  Yb  Yb10  1  0.19837600  0.19837600  0.56185100  1
  Ce  Ce11  1  0.62985600  0.62985600  0.85552200  1
  Ce  Ce12  1  0.89420700  0.89420700  0.51137100  1
  Ce  Ce13  1  0.10579300  0.10579300  0.48862900  1
  Ce  Ce14  1  0.37014400  0.37014400  0.14447800  1
  Se  Se15  1  0.44838800  0.44838800  0.47834400  1
  Se  Se16  1  0.35557500  0.35557500  0.40686800  1
  Se  Se17  1  0.86547900  0.86547900  0.96360800  1
  Se  Se18  1  0.55161200  0.55161200  0.52165600  1
  Se  Se19  1  0.40730300  0.40730300  0.68840100  1
  Se  Se20  1  0.83457000  0.83457000  0.64621800  1
  Se  Se21  1  0.59269700  0.59269700  0.31159900  1
  Se  Se22  1  0.43512400  0.43512400  0.01831000  1
  Se  Se23  1  0.64442500  0.64442500  0.59313200  1
  Se  Se24  1  0.99339700  0.99339700  0.73752300  1
  Se  Se25  1  0.56487600  0.56487600  0.98169000  1
  Se  Se26  1  0.72058600  0.72058600  0.09208200  1
  Se  Se27  1  0.00660300  0.00660300  0.26247700  1
  Se  Se28  1  0.27941400  0.27941400  0.90791800  1
  Se  Se29  1  0.81690600  0.81690600  0.18868900  1
  Se  Se30  1  0.16543000  0.16543000  0.35378200  1
  Se  Se31  1  0.74560200  0.74560200  0.60729200  1
  Se  Se32  1  0.90870100  0.90870100  0.25421000  1
  Se  Se33  1  0.13452100  0.13452100  0.03639200  1
  Se  Se34  1  0.25439800  0.25439800  0.39270800  1
  Se  Se35  1  0.18309400  0.18309400  0.81131100  1
  Se  Se36  1  0.09129900  0.09129900  0.74579000  1
