# generated using pymatgen
data_Mg3Ge
_symmetry_space_group_name_H-M   'P 1'
_cell_length_a   6.95265624
_cell_length_b   6.95265624
_cell_length_c   4.25265200
_cell_angle_alpha   90.00000000
_cell_angle_beta   90.00000000
_cell_angle_gamma   120.00000231
_symmetry_Int_Tables_number   1
_chemical_formula_structural   Mg3Ge
_chemical_formula_sum   'Mg6 Ge2'
_cell_volume   178.02950382
_cell_formula_units_Z   2
loop_
 _symmetry_equiv_pos_site_id
 _symmetry_equiv_pos_as_xyz
  1  'x, y, z'
loop_
 _atom_site_type_symbol
 _atom_site_label
 _atom_site_symmetry_multiplicity
 _atom_site_fract_x
 _atom_site_fract_y
 _atom_site_fract_z
 _atom_site_occupancy
  Mg  Mg0  1  0.62748600  0.71255500  0.75000000  1
  Mg  Mg1  1  0.28744500  0.91493000  0.75000000  1
  Mg  Mg2  1  0.08507000  0.37251400  0.75000000  1
  Mg  Mg3  1  0.37251400  0.28744500  0.25000000  1
  Mg  Mg4  1  0.71255500  0.08507000  0.25000000  1
  Mg  Mg5  1  0.91493000  0.62748600  0.25000000  1
  Ge  Ge6  1  0.66666700  0.33333300  0.75000000  1
  Ge  Ge7  1  0.33333300  0.66666700  0.25000000  1
