data_image0
_chemical_formula_structural       Al2F6
_chemical_formula_sum              "Al2 F6"
_cell_length_a       4.92558
_cell_length_b       4.92558
_cell_length_c       4.92558
_cell_angle_alpha    56.281
_cell_angle_beta     56.281
_cell_angle_gamma    56.281

_space_group_name_H-M_alt    "P 1"
_space_group_IT_number       1

loop_
  _space_group_symop_operation_xyz
  'x, y, z'

loop_
  _atom_site_type_symbol
  _atom_site_label
  _atom_site_symmetry_multiplicity
  _atom_site_fract_x
  _atom_site_fract_y
  _atom_site_fract_z
  _atom_site_occupancy
  Al  Al1       1.0  0.25000  0.25000  0.25000  1.0000
  Al  Al2       1.0  0.75000  0.75000  0.75000  1.0000
  F   F1        1.0  0.37000  0.63000  0.00000  1.0000
  F   F2        1.0  0.87000  0.50000  0.13000  1.0000
  F   F3        1.0  0.63000  0.00000  0.37000  1.0000
  F   F4        1.0  0.13000  0.87000  0.50000  1.0000
  F   F5        1.0  0.00000  0.37000  0.63000  1.0000
  F   F6        1.0  0.50000  0.13000  0.87000  1.0000
