# generated using pymatgen
data_Cs3B12H12I
_symmetry_space_group_name_H-M   'P 1'
_cell_length_a   7.46972952
_cell_length_b   7.46972952
_cell_length_c   7.46972971
_cell_angle_alpha   93.31641814
_cell_angle_beta   93.31641814
_cell_angle_gamma   93.31642632
_symmetry_Int_Tables_number   1
_chemical_formula_structural   Cs3B12H12I
_chemical_formula_sum   'Cs3 B12 H12 I1'
_cell_volume   414.60881444
_cell_formula_units_Z   1
loop_
 _symmetry_equiv_pos_site_id
 _symmetry_equiv_pos_as_xyz
  1  'x, y, z'
loop_
 _atom_site_type_symbol
 _atom_site_label
 _atom_site_symmetry_multiplicity
 _atom_site_fract_x
 _atom_site_fract_y
 _atom_site_fract_z
 _atom_site_occupancy
  Cs  Cs0  1  0.50000000  0.50000000  0.00000000  1
  Cs  Cs1  1  0.00000000  0.50000000  0.50000000  1
  Cs  Cs2  1  0.50000000  0.00000000  0.50000000  1
  B  B3  1  0.05588500  0.21941500  0.05588500  1
  B  B4  1  0.05588500  0.05588500  0.21941500  1
  B  B5  1  0.21941500  0.05588500  0.05588500  1
  B  B6  1  0.94411500  0.78058500  0.94411500  1
  B  B7  1  0.94411500  0.94411500  0.78058500  1
  B  B8  1  0.78058500  0.94411500  0.94411500  1
  B  B9  1  0.88527600  0.15085700  0.88527600  1
  B  B10  1  0.88527600  0.88527600  0.15085700  1
  B  B11  1  0.15085700  0.88527600  0.88527600  1
  B  B12  1  0.11472400  0.84914300  0.11472400  1
  B  B13  1  0.11472400  0.11472400  0.84914300  1
  B  B14  1  0.84914300  0.11472400  0.11472400  1
  H  H15  1  0.90430300  0.62404100  0.90430300  1
  H  H16  1  0.90430300  0.90430300  0.62404100  1
  H  H17  1  0.62404100  0.90430300  0.90430300  1
  H  H18  1  0.09569700  0.37595900  0.09569700  1
  H  H19  1  0.09569700  0.09569700  0.37595900  1
  H  H20  1  0.37595900  0.09569700  0.09569700  1
  H  H21  1  0.80271400  0.25741300  0.80271400  1
  H  H22  1  0.80271400  0.80271400  0.25741300  1
  H  H23  1  0.25741300  0.80271400  0.80271400  1
  H  H24  1  0.19728600  0.74258700  0.19728600  1
  H  H25  1  0.19728600  0.19728600  0.74258700  1
  H  H26  1  0.74258700  0.19728600  0.19728600  1
  I  I27  1  0.50000000  0.50000000  0.50000000  1
