# generated using pymatgen
data_Na3VH6O7
_symmetry_space_group_name_H-M   'P 1'
_cell_length_a   5.58858274
_cell_length_b   5.58858274
_cell_length_c   5.58858233
_cell_angle_alpha   100.00373742
_cell_angle_beta   100.00373742
_cell_angle_gamma   100.00374030
_symmetry_Int_Tables_number   1
_chemical_formula_structural   Na3VH6O7
_chemical_formula_sum   'Na3 V1 H6 O7'
_cell_volume   165.49389929
_cell_formula_units_Z   1
loop_
 _symmetry_equiv_pos_site_id
 _symmetry_equiv_pos_as_xyz
  1  'x, y, z'
loop_
 _atom_site_type_symbol
 _atom_site_label
 _atom_site_symmetry_multiplicity
 _atom_site_fract_x
 _atom_site_fract_y
 _atom_site_fract_z
 _atom_site_occupancy
  Na  Na0  1  0.42857700  0.62431500  0.17735200  1
  Na  Na1  1  0.17735200  0.42857700  0.62431500  1
  Na  Na2  1  0.62431500  0.17735200  0.42857700  1
  V  V3  1  0.99738400  0.99738400  0.99738400  1
  H  H4  1  0.51113800  0.88362500  0.75089200  1
  H  H5  1  0.75089200  0.51113800  0.88362500  1
  H  H6  1  0.88362500  0.75089200  0.51113800  1
  H  H7  1  0.25611600  0.92346100  0.60775300  1
  H  H8  1  0.60775300  0.25611600  0.92346100  1
  H  H9  1  0.92346100  0.60775300  0.25611600  1
  O  O10  1  0.21827300  0.21827300  0.21827300  1
  O  O11  1  0.69370900  0.99978600  0.04377600  1
  O  O12  1  0.04377600  0.69370900  0.99978600  1
  O  O13  1  0.99978600  0.04377600  0.69370900  1
  O  O14  1  0.39704200  0.83951200  0.58220900  1
  O  O15  1  0.58220900  0.39704200  0.83951200  1
  O  O16  1  0.83951200  0.58220900  0.39704200  1
