# generated using pymatgen
data_Fe2(CO)9
_symmetry_space_group_name_H-M   'P 1'
_cell_length_a   6.44716194
_cell_length_b   6.44716194
_cell_length_c   16.13669500
_cell_angle_alpha   90.00000000
_cell_angle_beta   90.00000000
_cell_angle_gamma   119.99999934
_symmetry_Int_Tables_number   1
_chemical_formula_structural   Fe2(CO)9
_chemical_formula_sum   'Fe4 C18 O18'
_cell_volume   580.87459463
_cell_formula_units_Z   2
loop_
 _symmetry_equiv_pos_site_id
 _symmetry_equiv_pos_as_xyz
  1  'x, y, z'
loop_
 _atom_site_type_symbol
 _atom_site_label
 _atom_site_symmetry_multiplicity
 _atom_site_fract_x
 _atom_site_fract_y
 _atom_site_fract_z
 _atom_site_occupancy
  Fe  Fe0  1  0.66666700  0.33333300  0.82827200  1
  Fe  Fe1  1  0.33333300  0.66666700  0.32827200  1
  Fe  Fe2  1  0.33333300  0.66666700  0.17172800  1
  Fe  Fe3  1  0.66666700  0.33333300  0.67172800  1
  C  C4  1  0.66198900  0.57326200  0.88604700  1
  C  C5  1  0.66198900  0.57326200  0.61395300  1
  C  C6  1  0.33801100  0.42673800  0.38604700  1
  C  C7  1  0.91127400  0.33801100  0.61395300  1
  C  C8  1  0.08872600  0.66198900  0.11395300  1
  C  C9  1  0.08872600  0.66198900  0.38604700  1
  C  C10  1  0.33194700  0.90770800  0.25000000  1
  C  C11  1  0.57576100  0.66805300  0.25000000  1
  C  C12  1  0.66805300  0.09229200  0.75000000  1
  C  C13  1  0.57326200  0.91127400  0.38604700  1
  C  C14  1  0.57326200  0.91127400  0.11395300  1
  C  C15  1  0.90770800  0.57576100  0.75000000  1
  C  C16  1  0.91127400  0.33801100  0.88604700  1
  C  C17  1  0.33801100  0.42673800  0.11395300  1
  C  C18  1  0.42673800  0.08872600  0.61395300  1
  C  C19  1  0.42673800  0.08872600  0.88604700  1
  C  C20  1  0.09229200  0.42423900  0.25000000  1
  C  C21  1  0.42423900  0.33194700  0.75000000  1
  O  O22  1  0.34412300  0.28025800  0.07429500  1
  O  O23  1  0.24072100  0.33102800  0.75000000  1
  O  O24  1  0.06386600  0.34412300  0.57429500  1
  O  O25  1  0.09030700  0.75927900  0.75000000  1
  O  O26  1  0.90969300  0.24072100  0.25000000  1
  O  O27  1  0.93613400  0.65587700  0.07429500  1
  O  O28  1  0.65587700  0.71974200  0.92570500  1
  O  O29  1  0.71974200  0.06386600  0.42570500  1
  O  O30  1  0.28025800  0.93613400  0.57429500  1
  O  O31  1  0.34412300  0.28025800  0.42570500  1
  O  O32  1  0.66897200  0.90969300  0.75000000  1
  O  O33  1  0.28025800  0.93613400  0.92570500  1
  O  O34  1  0.65587700  0.71974200  0.57429500  1
  O  O35  1  0.93613400  0.65587700  0.42570500  1
  O  O36  1  0.71974200  0.06386600  0.07429500  1
  O  O37  1  0.06386600  0.34412300  0.92570500  1
  O  O38  1  0.33102800  0.09030700  0.25000000  1
  O  O39  1  0.75927900  0.66897200  0.25000000  1
