# generated using pymatgen
data_Pr6Fe13Ge
_symmetry_space_group_name_H-M   'P 1'
_cell_length_a   8.08250196
_cell_length_b   8.07565371
_cell_length_c   12.91378252
_cell_angle_alpha   108.10337395
_cell_angle_beta   108.30063608
_cell_angle_gamma   90.06365107
_symmetry_Int_Tables_number   1
_chemical_formula_structural   Pr6Fe13Ge
_chemical_formula_sum   'Pr12 Fe26 Ge2'
_cell_volume   756.09252148
_cell_formula_units_Z   2
loop_
 _symmetry_equiv_pos_site_id
 _symmetry_equiv_pos_as_xyz
  1  'x, y, z'
loop_
 _atom_site_type_symbol
 _atom_site_label
 _atom_site_symmetry_multiplicity
 _atom_site_fract_x
 _atom_site_fract_y
 _atom_site_fract_z
 _atom_site_occupancy
  Pr  Pr0  1  0.97761600  0.47760600  0.62022100  1
  Pr  Pr1  1  0.64357100  0.14804600  0.62443900  1
  Pr  Pr2  1  0.85755400  0.02433400  0.37748700  1
  Pr  Pr3  1  0.89085100  0.89395700  0.78277100  1
  Pr  Pr4  1  0.38890300  0.39228100  0.78357000  1
  Pr  Pr5  1  0.10897100  0.10618400  0.21605300  1
  Pr  Pr6  1  0.60905500  0.60867700  0.21595800  1
  Pr  Pr7  1  0.52412600  0.35523500  0.38005800  1
  Pr  Pr8  1  0.02421400  0.52455300  0.37949200  1
  Pr  Pr9  1  0.36099600  0.85832900  0.37940800  1
  Pr  Pr10  1  0.47478100  0.64597900  0.62033100  1
  Pr  Pr11  1  0.14282700  0.97518300  0.61924000  1
  Fe  Fe12  1  0.21012400  0.48235800  0.19240500  1
  Fe  Fe13  1  0.93310200  0.79014400  0.00013600  1
  Fe  Fe14  1  0.78812500  0.06640100  0.00040900  1
  Fe  Fe15  1  0.56522700  0.28945900  0.00071800  1
  Fe  Fe16  1  0.73564700  0.87886500  0.11693100  1
  Fe  Fe17  1  0.11604500  0.61738800  0.87986300  1
  Fe  Fe18  1  0.70628900  0.20733700  0.19166600  1
  Fe  Fe19  1  0.88050500  0.38010900  0.12016000  1
  Fe  Fe20  1  0.28805700  0.43316300  0.00051200  1
  Fe  Fe21  1  0.01769300  0.29152300  0.80988100  1
  Fe  Fe22  1  0.29098700  0.79289400  0.80737600  1
  Fe  Fe23  1  0.38168400  0.23660700  0.11877100  1
  Fe  Fe24  1  0.48411400  0.98103100  0.18959800  1
  Fe  Fe25  1  0.79238800  0.51962100  0.81015800  1
  Fe  Fe26  1  0.99893500  0.49992100  0.00082600  1
  Fe  Fe27  1  0.23732800  0.73700900  0.11912000  1
  Fe  Fe28  1  0.98395500  0.70579700  0.19080100  1
  Fe  Fe29  1  0.61818500  0.76217600  0.88011400  1
  Fe  Fe30  1  0.51489100  0.01820700  0.80930700  1
  Fe  Fe31  1  0.20859000  0.93228100  0.99818700  1
  Fe  Fe32  1  0.42998300  0.70881100  0.99832700  1
  Fe  Fe33  1  0.70828800  0.56530600  0.99908100  1
  Fe  Fe34  1  0.49810100  0.99858600  0.99891800  1
  Fe  Fe35  1  0.06614300  0.21064400  0.00098200  1
  Fe  Fe36  1  0.76138900  0.26257300  0.88212000  1
  Fe  Fe37  1  0.26149900  0.11940400  0.88045800  1
  Ge  Ge38  1  0.74831000  0.75187800  0.49834400  1
  Ge  Ge39  1  0.24971300  0.25304900  0.50083200  1
