# generated using pymatgen
data_K5Ag(NO)2
_symmetry_space_group_name_H-M   'P 1'
_cell_length_a   13.90295400
_cell_length_b   5.24448200
_cell_length_c   6.92552390
_cell_angle_alpha   89.95757537
_cell_angle_beta   90.00000000
_cell_angle_gamma   90.00000000
_symmetry_Int_Tables_number   1
_chemical_formula_structural   K5Ag(NO)2
_chemical_formula_sum   'K10 Ag2 N4 O4'
_cell_volume   504.96607060
_cell_formula_units_Z   2
loop_
 _symmetry_equiv_pos_site_id
 _symmetry_equiv_pos_as_xyz
  1  'x, y, z'
loop_
 _atom_site_type_symbol
 _atom_site_label
 _atom_site_symmetry_multiplicity
 _atom_site_fract_x
 _atom_site_fract_y
 _atom_site_fract_z
 _atom_site_occupancy
  K  K0  1  0.71258100  0.51467300  0.91217400  1
  K  K1  1  0.28131600  0.51157200  0.59812500  1
  K  K2  1  0.78131600  0.48842800  0.40187500  1
  K  K3  1  0.21258100  0.48532700  0.08782600  1
  K  K4  1  0.87706500  0.99957500  0.03030700  1
  K  K5  1  0.11920400  0.99662500  0.48040700  1
  K  K6  1  0.61920400  0.00337500  0.51959300  1
  K  K7  1  0.37706500  0.00042500  0.96969300  1
  K  K8  1  0.50217500  0.46786800  0.24798400  1
  K  K9  1  0.00217500  0.53213200  0.75201600  1
  Ag  Ag10  1  0.99834400  0.49633300  0.25041500  1
  Ag  Ag11  1  0.49834400  0.50366700  0.74958500  1
  N  N12  1  0.85568000  0.98666500  0.59729600  1
  N  N13  1  0.15510800  0.97125900  0.89117600  1
  N  N14  1  0.65510800  0.02874100  0.10882400  1
  N  N15  1  0.35568000  0.01333500  0.40270400  1
  O  O16  1  0.88288300  0.49888500  0.06653500  1
  O  O17  1  0.11542700  0.49468000  0.43039200  1
  O  O18  1  0.61542700  0.50532000  0.56960800  1
  O  O19  1  0.38288300  0.50111500  0.93346500  1
