# generated using pymatgen
data_KH3C2O3
_symmetry_space_group_name_H-M   'P 1'
_cell_length_a   3.87149000
_cell_length_b   5.70277527
_cell_length_c   10.03190859
_cell_angle_alpha   101.04271098
_cell_angle_beta   90.25248264
_cell_angle_gamma   92.48995791
_symmetry_Int_Tables_number   1
_chemical_formula_structural   KH3C2O3
_chemical_formula_sum   'K2 H6 C4 O6'
_cell_volume   217.16241625
_cell_formula_units_Z   2
loop_
 _symmetry_equiv_pos_site_id
 _symmetry_equiv_pos_as_xyz
  1  'x, y, z'
loop_
 _atom_site_type_symbol
 _atom_site_label
 _atom_site_symmetry_multiplicity
 _atom_site_fract_x
 _atom_site_fract_y
 _atom_site_fract_z
 _atom_site_occupancy
  K  K0  1  0.87560200  0.71075700  0.87552300  1
  K  K1  1  0.12439800  0.28924300  0.12447700  1
  H  H2  1  0.00917500  0.17452100  0.61085000  1
  H  H3  1  0.99082500  0.82547900  0.38915000  1
  H  H4  1  0.16903800  0.46312100  0.58633400  1
  H  H5  1  0.83096200  0.53687900  0.41366600  1
  H  H6  1  0.41960800  0.20456400  0.53300900  1
  H  H7  1  0.58039200  0.79543600  0.46699100  1
  C  C8  1  0.48913900  0.15640500  0.80371300  1
  C  C9  1  0.51086100  0.84359500  0.19628700  1
  C  C10  1  0.24117300  0.29151700  0.61002700  1
  C  C11  1  0.75882700  0.70848300  0.38997300  1
  O  O12  1  0.40575400  0.34983500  0.74233200  1
  O  O13  1  0.59424600  0.65016500  0.25766800  1
  O  O14  1  0.39304500  0.94859700  0.74602500  1
  O  O15  1  0.60695500  0.05140300  0.25397500  1
  O  O16  1  0.65812200  0.22410800  0.91421400  1
  O  O17  1  0.34187800  0.77589200  0.08578600  1
