# generated using pymatgen
data_Si
_symmetry_space_group_name_H-M   'P 1'
_cell_length_a   5.45513625
_cell_length_b   3.97462346
_cell_length_c   9.14468512
_cell_angle_alpha   78.22843373
_cell_angle_beta   108.78166373
_cell_angle_gamma   111.23949886
_symmetry_Int_Tables_number   1
_chemical_formula_structural   Si
_chemical_formula_sum   Si8
_cell_volume   174.10767850
_cell_formula_units_Z   8
loop_
 _symmetry_equiv_pos_site_id
 _symmetry_equiv_pos_as_xyz
  1  'x, y, z'
loop_
 _atom_site_type_symbol
 _atom_site_label
 _atom_site_symmetry_multiplicity
 _atom_site_fract_x
 _atom_site_fract_y
 _atom_site_fract_z
 _atom_site_occupancy
  Si  Si0  1  0.82765500  0.09474000  0.08233300  1
  Si  Si1  1  0.21100200  0.00072400  0.05971100  1
  Si  Si2  1  0.00363400  0.56659500  0.24071800  1
  Si  Si3  1  0.36170500  0.12570700  0.62845900  1
  Si  Si4  1  0.06950100  0.84100800  0.80164500  1
  Si  Si5  1  0.84225300  0.28671500  0.68233000  1
  Si  Si6  1  0.13266900  0.56787400  0.51132200  1
  Si  Si7  1  0.56641800  0.50925300  0.00009200  1
