# generated using pymatgen
data_Cs4CO4
_symmetry_space_group_name_H-M   'P 1'
_cell_length_a   6.93944787
_cell_length_b   6.93944787
_cell_length_c   6.60171970
_cell_angle_alpha   68.69794037
_cell_angle_beta   68.69794037
_cell_angle_gamma   52.22486326
_symmetry_Int_Tables_number   1
_chemical_formula_structural   Cs4CO4
_chemical_formula_sum   'Cs4 C1 O4'
_cell_volume   229.80021776
_cell_formula_units_Z   1
loop_
 _symmetry_equiv_pos_site_id
 _symmetry_equiv_pos_as_xyz
  1  'x, y, z'
loop_
 _atom_site_type_symbol
 _atom_site_label
 _atom_site_symmetry_multiplicity
 _atom_site_fract_x
 _atom_site_fract_y
 _atom_site_fract_z
 _atom_site_occupancy
  Cs  Cs0  1  0.83917200  0.44242200  0.10238400  1
  Cs  Cs1  1  0.15832500  0.56723000  0.43198300  1
  Cs  Cs2  1  0.55757800  0.16082800  0.89761600  1
  Cs  Cs3  1  0.43277000  0.84167500  0.56801700  1
  C  C4  1  0.07433100  0.92566900  0.00000000  1
  O  O5  1  0.86570800  0.99353100  0.18391200  1
  O  O6  1  0.00646900  0.13429200  0.81608800  1
  O  O7  1  0.13262100  0.71588600  0.93813800  1
  O  O8  1  0.28411400  0.86737900  0.06186200  1
