# generated using pymatgen
data_C17F5
_symmetry_space_group_name_H-M   'P 1'
_cell_length_a   19.97094300
_cell_length_b   9.95192100
_cell_length_c   10.40141178
_cell_angle_alpha   70.82778221
_cell_angle_beta   90.00000000
_cell_angle_gamma   90.00000000
_symmetry_Int_Tables_number   1
_chemical_formula_structural   C17F5
_chemical_formula_sum   'C136 F40'
_cell_volume   1952.61297121
_cell_formula_units_Z   8
loop_
 _symmetry_equiv_pos_site_id
 _symmetry_equiv_pos_as_xyz
  1  'x, y, z'
loop_
 _atom_site_type_symbol
 _atom_site_label
 _atom_site_symmetry_multiplicity
 _atom_site_fract_x
 _atom_site_fract_y
 _atom_site_fract_z
 _atom_site_occupancy
  C  C0  1  0.28697100  0.57052600  0.78992400  1
  C  C1  1  0.78632600  0.25713200  0.91373800  1
  C  C2  1  0.32013300  0.32324800  0.61753800  1
  C  C3  1  0.32148700  0.98936100  0.26123100  1
  C  C4  1  0.32151500  0.84925300  0.11907100  1
  C  C5  1  0.37909400  0.41296800  0.58491300  1
  C  C6  1  0.21393200  0.28945800  0.51443000  1
  C  C7  1  0.12290800  0.75655200  0.67456000  1
  C  C8  1  0.25000000  0.50582600  0.17222800  1
  C  C9  1  0.87987100  0.10085200  0.70609800  1
  C  C10  1  0.62090600  0.58703200  0.41508700  1
  C  C11  1  0.80874800  0.40377500  0.86051600  1
  C  C12  1  0.57650300  0.30474400  0.51706900  1
  C  C13  1  0.78644800  0.98357800  0.63334200  1
  C  C14  1  0.25000000  0.92085300  0.59214400  1
  C  C15  1  0.17194200  0.44469000  0.78502600  1
  C  C16  1  0.59619700  0.36322000  0.37660800  1
  C  C17  1  0.37709200  0.75655200  0.67456000  1
  C  C18  1  0.86112200  0.64367800  0.07886000  1
  C  C19  1  0.71367400  0.25713200  0.91373800  1
  C  C20  1  0.09830300  0.46646000  0.44981500  1
  C  C21  1  0.88025700  0.18765700  0.79381100  1
  C  C22  1  0.21355200  0.01642200  0.36665800  1
  C  C23  1  0.07565400  0.61177300  0.39749900  1
  C  C24  1  0.82805800  0.55531000  0.21497400  1
  C  C25  1  0.63445100  0.43917500  0.77673400  1
  C  C26  1  0.30962700  0.95898300  0.50530600  1
  C  C27  1  0.99871800  0.77477000  0.75150000  1
  C  C28  1  0.88168100  0.50243100  0.32709200  1
  C  C29  1  0.86531000  0.56570100  0.65730100  1
  C  C30  1  0.71490900  0.04081200  0.84717100  1
  C  C31  1  0.19037300  0.95898300  0.50530600  1
  C  C32  1  0.80910000  0.29037200  0.26022600  1
  C  C33  1  0.71302900  0.42947400  0.21007600  1
  C  C34  1  0.78697100  0.42947400  0.21007600  1
  C  C35  1  0.69090000  0.29037200  0.26022600  1
  C  C36  1  0.42434600  0.61177300  0.39749900  1
  C  C37  1  0.38025700  0.81234300  0.20618900  1
  C  C38  1  0.17851300  0.98936100  0.26123100  1
  C  C39  1  0.36531000  0.43429900  0.34269900  1
  C  C40  1  0.63469000  0.56570100  0.65730100  1
  C  C41  1  0.61831900  0.50243100  0.32709200  1
  C  C42  1  0.75000000  0.07914700  0.40785600  1
  C  C43  1  0.38168100  0.49756900  0.67290800  1
  C  C44  1  0.86554900  0.43917500  0.77673400  1
  C  C45  1  0.21367400  0.74286800  0.08626200  1
  C  C46  1  0.58494500  0.04570200  0.22258400  1
  C  C47  1  0.17986700  0.32324800  0.61753800  1
  C  C48  1  0.61974300  0.18765700  0.79381100  1
  C  C49  1  0.13255600  0.87686200  0.53619600  1
  C  C50  1  0.36554900  0.56082500  0.22326600  1
  C  C51  1  0.63887800  0.64367800  0.07886000  1
  C  C52  1  0.40169700  0.46646000  0.44981500  1
  C  C53  1  0.67986700  0.67675200  0.38246200  1
  C  C54  1  0.90380300  0.36322000  0.37660800  1
  C  C55  1  0.71355200  0.98357800  0.63334200  1
  C  C56  1  0.00128200  0.22523000  0.24850000  1
  C  C57  1  0.69125200  0.40377500  0.86051600  1
  C  C58  1  0.87909400  0.58703200  0.41508700  1
  C  C59  1  0.62012900  0.10085200  0.70609800  1
  C  C60  1  0.13469000  0.43429900  0.34269900  1
  C  C61  1  0.30874800  0.59622500  0.13948400  1
  C  C62  1  0.36112200  0.35632200  0.92114000  1
  C  C63  1  0.11974300  0.81234300  0.20618900  1
  C  C64  1  0.09792100  0.67079600  0.25696200  1
  C  C65  1  0.11831900  0.49756900  0.67290800  1
  C  C66  1  0.40380300  0.63678000  0.62339200  1
  C  C67  1  0.28632600  0.74286800  0.08626200  1
  C  C68  1  0.80872600  0.65305700  0.62568700  1
  C  C69  1  0.90207900  0.32920400  0.74303800  1
  C  C70  1  0.07400600  0.79946800  0.77541400  1
  C  C71  1  0.07650300  0.69525600  0.48293100  1
  C  C72  1  0.08494500  0.95429800  0.77741600  1
  C  C73  1  0.19127400  0.34694300  0.37431300  1
  C  C74  1  0.86744400  0.12313800  0.46380400  1
  C  C75  1  0.13445100  0.56082500  0.22326600  1
  C  C76  1  0.09877400  0.84223200  0.43009300  1
  C  C77  1  0.30872600  0.34694300  0.37431300  1
  C  C78  1  0.57400600  0.20053200  0.22458600  1
  C  C79  1  0.36744400  0.87686200  0.53619600  1
  C  C80  1  0.21535500  0.35076100  0.72631500  1
  C  C81  1  0.69037300  0.04101700  0.49469400  1
  C  C82  1  0.28606800  0.28945800  0.51443000  1
  C  C83  1  0.82013300  0.67675200  0.38246200  1
  C  C84  1  0.91505500  0.04570200  0.22258400  1
  C  C85  1  0.90169700  0.53354000  0.55018500  1
  C  C86  1  0.67194200  0.55531000  0.21497400  1
  C  C87  1  0.71535500  0.64923900  0.27368500  1
  C  C88  1  0.92434600  0.38822700  0.60250100  1
  C  C89  1  0.67848500  0.15074700  0.88092900  1
  C  C90  1  0.30910000  0.70962800  0.73977400  1
  C  C91  1  0.28644800  0.01642200  0.36665800  1
  C  C92  1  0.82148700  0.01063900  0.73876900  1
  C  C93  1  0.19090000  0.70962800  0.73977400  1
  C  C94  1  0.78509100  0.04081200  0.84717100  1
  C  C95  1  0.40207900  0.67079600  0.25696200  1
  C  C96  1  0.90122600  0.15776800  0.56990700  1
  C  C97  1  0.78606800  0.71054200  0.48557000  1
  C  C98  1  0.62290800  0.24344800  0.32544000  1
  C  C99  1  0.87709200  0.24344800  0.32544000  1
  C  C100  1  0.71393200  0.71054200  0.48557000  1
  C  C101  1  0.59877400  0.15776800  0.56990700  1
  C  C102  1  0.17848500  0.84925300  0.11907100  1
  C  C103  1  0.25000000  0.79953800  0.70490000  1
  C  C104  1  0.67851300  0.01063900  0.73876900  1
  C  C105  1  0.28464500  0.35076100  0.72631500  1
  C  C106  1  0.49871800  0.22523000  0.24850000  1
  C  C107  1  0.09619700  0.63678000  0.62339200  1
  C  C108  1  0.50128200  0.77477000  0.75150000  1
  C  C109  1  0.19125200  0.59622500  0.13948400  1
  C  C110  1  0.75000000  0.49417400  0.82777200  1
  C  C111  1  0.32805800  0.44469000  0.78502600  1
  C  C112  1  0.21302900  0.57052600  0.78992400  1
  C  C113  1  0.82151500  0.15074700  0.88092900  1
  C  C114  1  0.57565400  0.38822700  0.60250100  1
  C  C115  1  0.78464500  0.64923900  0.27368500  1
  C  C116  1  0.75000000  0.20046200  0.29510000  1
  C  C117  1  0.59830300  0.53354000  0.55018500  1
  C  C118  1  0.13887800  0.35632200  0.92114000  1
  C  C119  1  0.28509100  0.95918800  0.15282900  1
  C  C120  1  0.41505500  0.95429800  0.77741600  1
  C  C121  1  0.80962700  0.04101700  0.49469400  1
  C  C122  1  0.59792100  0.32920400  0.74303800  1
  C  C123  1  0.42599400  0.79946800  0.77541400  1
  C  C124  1  0.12090600  0.41296800  0.58491300  1
  C  C125  1  0.92599400  0.20053200  0.22458600  1
  C  C126  1  0.75000000  0.61685000  0.71230200  1
  C  C127  1  0.21490900  0.95918800  0.15282900  1
  C  C128  1  0.63255600  0.12313800  0.46380400  1
  C  C129  1  0.42349700  0.69525600  0.48293100  1
  C  C130  1  0.37987100  0.89914800  0.29390200  1
  C  C131  1  0.92349700  0.30474400  0.51706900  1
  C  C132  1  0.69127400  0.65305700  0.62568700  1
  C  C133  1  0.12012900  0.89914800  0.29390200  1
  C  C134  1  0.25000000  0.38315000  0.28769800  1
  C  C135  1  0.40122600  0.84223200  0.43009300  1
  F  F136  1  0.48111400  0.16065000  0.38053000  1
  F  F137  1  0.58652100  0.28771000  0.09206400  1
  F  F138  1  0.05566100  0.97274500  0.88741300  1
  F  F139  1  0.98111400  0.83935000  0.61947000  1
  F  F140  1  0.51314700  0.63372800  0.78505300  1
  F  F141  1  0.31578600  0.30832900  0.02325000  1
  F  F142  1  0.39276300  0.24003700  0.90777300  1
  F  F143  1  0.05902600  0.05187800  0.66424100  1
  F  F144  1  0.41347900  0.71229000  0.90793600  1
  F  F145  1  0.08652100  0.71229000  0.90793600  1
  F  F146  1  0.98685300  0.63372800  0.78505300  1
  F  F147  1  0.44433900  0.97274500  0.88741300  1
  F  F148  1  0.51888600  0.83935000  0.61947000  1
  F  F149  1  0.18421400  0.30832900  0.02325000  1
  F  F150  1  0.15118600  0.98163700  0.78330800  1
  F  F151  1  0.01314700  0.36627200  0.21494700  1
  F  F152  1  0.84881400  0.01836300  0.21669200  1
  F  F153  1  0.48685300  0.36627200  0.21494700  1
  F  F154  1  0.91347900  0.28771000  0.09206400  1
  F  F155  1  0.34881400  0.98163700  0.78330800  1
  F  F156  1  0.01888600  0.16065000  0.38053000  1
  F  F157  1  0.95844900  0.82543900  0.82963400  1
  F  F158  1  0.68421400  0.69167100  0.97675000  1
  F  F159  1  0.94433900  0.02725500  0.11258700  1
  F  F160  1  0.55902600  0.94812200  0.33575900  1
  F  F161  1  0.60723700  0.75996300  0.09222700  1
  F  F162  1  0.45844900  0.17456100  0.17036600  1
  F  F163  1  0.40752200  0.43318900  0.96185500  1
  F  F164  1  0.04155100  0.17456100  0.17036600  1
  F  F165  1  0.59247800  0.56681100  0.03814500  1
  F  F166  1  0.90752200  0.56681100  0.03814500  1
  F  F167  1  0.10723700  0.24003700  0.90777300  1
  F  F168  1  0.89276300  0.75996300  0.09222700  1
  F  F169  1  0.44097400  0.05187800  0.66424100  1
  F  F170  1  0.94097400  0.94812200  0.33575900  1
  F  F171  1  0.55566100  0.02725500  0.11258700  1
  F  F172  1  0.81578600  0.69167100  0.97675000  1
  F  F173  1  0.54155100  0.82543900  0.82963400  1
  F  F174  1  0.09247800  0.43318900  0.96185500  1
  F  F175  1  0.65118600  0.01836300  0.21669200  1
