# generated using pymatgen
data_ZnWO4
_symmetry_space_group_name_H-M   'P 1'
_cell_length_a   7.69017854
_cell_length_b   7.69017854
_cell_length_c   5.31942200
_cell_angle_alpha   90.00000000
_cell_angle_beta   90.00000000
_cell_angle_gamma   123.94141616
_symmetry_Int_Tables_number   1
_chemical_formula_structural   ZnWO4
_chemical_formula_sum   'Zn4 W4 O16'
_cell_volume   260.98208393
_cell_formula_units_Z   4
loop_
 _symmetry_equiv_pos_site_id
 _symmetry_equiv_pos_as_xyz
  1  'x, y, z'
loop_
 _atom_site_type_symbol
 _atom_site_label
 _atom_site_symmetry_multiplicity
 _atom_site_fract_x
 _atom_site_fract_y
 _atom_site_fract_z
 _atom_site_occupancy
  Zn  Zn0  1  0.42289200  0.07710800  0.75000000  1
  Zn  Zn1  1  0.92289200  0.57710800  0.75000000  1
  Zn  Zn2  1  0.07710800  0.42289200  0.25000000  1
  Zn  Zn3  1  0.57710800  0.92289200  0.25000000  1
  W  W4  1  0.40750200  0.59249800  0.80413000  1
  W  W5  1  0.90750200  0.09249800  0.69587000  1
  W  W6  1  0.09249800  0.90750200  0.30413000  1
  W  W7  1  0.59249800  0.40750200  0.19587000  1
  O  O8  1  0.08966500  0.41033500  0.75000000  1
  O  O9  1  0.80854400  0.19145600  0.44085700  1
  O  O10  1  0.40551900  0.59448100  0.45759700  1
  O  O11  1  0.16177400  0.16177400  0.50000000  1
  O  O12  1  0.09448100  0.90551900  0.95759700  1
  O  O13  1  0.30854400  0.69145600  0.05914300  1
  O  O14  1  0.58966500  0.91033500  0.75000000  1
  O  O15  1  0.19145600  0.80854400  0.55914300  1
  O  O16  1  0.66177400  0.66177400  0.00000000  1
  O  O17  1  0.83822600  0.83822600  0.50000000  1
  O  O18  1  0.33822600  0.33822600  0.00000000  1
  O  O19  1  0.59448100  0.40551900  0.54240300  1
  O  O20  1  0.69145600  0.30854400  0.94085700  1
  O  O21  1  0.90551900  0.09448100  0.04240300  1
  O  O22  1  0.41033500  0.08966500  0.25000000  1
  O  O23  1  0.91033500  0.58966500  0.25000000  1
