# generated using pymatgen
data_Ce10S19
_symmetry_space_group_name_H-M   'P 1'
_cell_length_a   8.93011800
_cell_length_b   8.93011800
_cell_length_c   15.99080900
_cell_angle_alpha   90.00000000
_cell_angle_beta   90.00000000
_cell_angle_gamma   90.00000000
_symmetry_Int_Tables_number   1
_chemical_formula_structural   Ce10S19
_chemical_formula_sum   'Ce20 S38'
_cell_volume   1275.21916516
_cell_formula_units_Z   2
loop_
 _symmetry_equiv_pos_site_id
 _symmetry_equiv_pos_as_xyz
  1  'x, y, z'
loop_
 _atom_site_type_symbol
 _atom_site_label
 _atom_site_symmetry_multiplicity
 _atom_site_fract_x
 _atom_site_fract_y
 _atom_site_fract_z
 _atom_site_occupancy
  Ce  Ce0  1  0.50000000  0.00000000  0.13684500  1
  Ce  Ce1  1  0.59865400  0.70917200  0.37204000  1
  Ce  Ce2  1  0.40134600  0.29082800  0.37204000  1
  Ce  Ce3  1  0.19458400  0.89641300  0.35184200  1
  Ce  Ce4  1  0.20917200  0.90134600  0.87204000  1
  Ce  Ce5  1  0.00000000  0.50000000  0.86315500  1
  Ce  Ce6  1  0.79082800  0.09865400  0.87204000  1
  Ce  Ce7  1  0.00000000  0.50000000  0.36315500  1
  Ce  Ce8  1  0.90134600  0.79082800  0.12796000  1
  Ce  Ce9  1  0.89641300  0.80541600  0.64815800  1
  Ce  Ce10  1  0.30541600  0.60358700  0.14815800  1
  Ce  Ce11  1  0.29082800  0.59865400  0.62796000  1
  Ce  Ce12  1  0.69458400  0.39641300  0.14815800  1
  Ce  Ce13  1  0.50000000  0.00000000  0.63684500  1
  Ce  Ce14  1  0.80541600  0.10358700  0.35184200  1
  Ce  Ce15  1  0.60358700  0.69458400  0.85184200  1
  Ce  Ce16  1  0.70917200  0.40134600  0.62796000  1
  Ce  Ce17  1  0.09865400  0.20917200  0.12796000  1
  Ce  Ce18  1  0.10358700  0.19458400  0.64815800  1
  Ce  Ce19  1  0.39641300  0.30541600  0.85184200  1
  S  S20  1  0.79868200  0.09844900  0.17449500  1
  S  S21  1  0.30360600  0.60203800  0.81278200  1
  S  S22  1  0.10203800  0.19639400  0.31278200  1
  S  S23  1  0.94424100  0.27841800  0.49918300  1
  S  S24  1  0.22158200  0.44424100  0.99918300  1
  S  S25  1  0.05575900  0.72158200  0.49918300  1
  S  S26  1  0.55575900  0.22158200  0.00081700  1
  S  S27  1  0.50000000  0.00000000  0.81734400  1
  S  S28  1  0.20131800  0.90155100  0.17449500  1
  S  S29  1  0.89796200  0.80360600  0.31278200  1
  S  S30  1  0.39796200  0.30360600  0.18721800  1
  S  S31  1  0.36363500  0.82741400  0.50006900  1
  S  S32  1  0.82741400  0.63636500  0.49993100  1
  S  S33  1  0.17258600  0.36363500  0.49993100  1
  S  S34  1  0.77841800  0.55575900  0.99918300  1
  S  S35  1  0.32741400  0.13636500  0.00006900  1
  S  S36  1  0.70131800  0.40155100  0.32550500  1
  S  S37  1  0.63636500  0.17258600  0.50006900  1
  S  S38  1  0.44424100  0.77841800  0.00081700  1
  S  S39  1  0.00000000  0.50000000  0.18265600  1
  S  S40  1  0.09844900  0.20131800  0.82550500  1
  S  S41  1  0.13636500  0.67258600  0.99993100  1
  S  S42  1  0.50000000  0.50000000  0.50000000  1
  S  S43  1  0.29868200  0.59844900  0.32550500  1
  S  S44  1  0.27841800  0.05575900  0.50081700  1
  S  S45  1  0.67258600  0.86363500  0.00006900  1
  S  S46  1  0.40155100  0.29868200  0.67449500  1
  S  S47  1  0.19639400  0.89796200  0.68721800  1
  S  S48  1  0.69639400  0.39796200  0.81278200  1
  S  S49  1  0.80360600  0.10203800  0.68721800  1
  S  S50  1  0.59844900  0.70131800  0.67449500  1
  S  S51  1  0.00000000  0.00000000  0.00000000  1
  S  S52  1  0.72158200  0.94424100  0.50081700  1
  S  S53  1  0.60203800  0.69639400  0.18721800  1
  S  S54  1  0.86363500  0.32741400  0.99993100  1
  S  S55  1  0.90155100  0.79868200  0.82550500  1
  S  S56  1  0.00000000  0.50000000  0.68265600  1
  S  S57  1  0.50000000  0.00000000  0.31734400  1
