# generated using pymatgen
data_TbGa2Co3
_symmetry_space_group_name_H-M   'P 1'
_cell_length_a   8.98726989
_cell_length_b   8.98726989
_cell_length_c   3.82799500
_cell_angle_alpha   90.00000000
_cell_angle_beta   90.00000000
_cell_angle_gamma   119.99999917
_symmetry_Int_Tables_number   1
_chemical_formula_structural   TbGa2Co3
_chemical_formula_sum   'Tb3 Ga6 Co9'
_cell_volume   267.76731550
_cell_formula_units_Z   3
loop_
 _symmetry_equiv_pos_site_id
 _symmetry_equiv_pos_as_xyz
  1  'x, y, z'
loop_
 _atom_site_type_symbol
 _atom_site_label
 _atom_site_symmetry_multiplicity
 _atom_site_fract_x
 _atom_site_fract_y
 _atom_site_fract_z
 _atom_site_occupancy
  Tb  Tb0  1  0.66666700  0.33333300  0.50000000  1
  Tb  Tb1  1  0.33333300  0.66666700  0.50000000  1
  Tb  Tb2  1  0.00000000  0.00000000  0.00000000  1
  Ga  Ga3  1  0.68411500  0.68411500  0.50000000  1
  Ga  Ga4  1  0.31588500  0.00000000  0.50000000  1
  Ga  Ga5  1  0.00000000  0.31588500  0.50000000  1
  Ga  Ga6  1  0.31588500  0.31588500  0.50000000  1
  Ga  Ga7  1  0.68411500  0.00000000  0.50000000  1
  Ga  Ga8  1  0.00000000  0.68411500  0.50000000  1
  Co  Co9  1  0.81674600  0.18325400  0.00000000  1
  Co  Co10  1  0.81674600  0.63349200  0.00000000  1
  Co  Co11  1  0.36650800  0.18325400  0.00000000  1
  Co  Co12  1  0.18325400  0.81674600  0.00000000  1
  Co  Co13  1  0.63349200  0.81674600  0.00000000  1
  Co  Co14  1  0.18325400  0.36650800  0.00000000  1
  Co  Co15  1  0.50000000  0.50000000  0.00000000  1
  Co  Co16  1  0.50000000  0.00000000  0.00000000  1
  Co  Co17  1  0.00000000  0.50000000  0.00000000  1
