data_image0
_chemical_formula_structural       CFe2Nd2Si2
_chemical_formula_sum              "C1 Fe2 Nd2 Si2"
_cell_length_a       4.00523
_cell_length_b       5.76944
_cell_length_c       5.84247
_cell_angle_alpha    74.2456
_cell_angle_beta     110.046
_cell_angle_gamma    110.31

_space_group_name_H-M_alt    "P 1"
_space_group_IT_number       1

loop_
  _space_group_symop_operation_xyz
  'x, y, z'

loop_
  _atom_site_type_symbol
  _atom_site_label
  _atom_site_symmetry_multiplicity
  _atom_site_fract_x
  _atom_site_fract_y
  _atom_site_fract_z
  _atom_site_occupancy
  C   C1        1.0  0.50000  0.50000  0.50000  1.0000
  Fe  Fe1       1.0  0.30300  0.19400  0.41200  1.0000
  Fe  Fe2       1.0  0.69700  0.80600  0.58800  1.0000
  Nd  Nd1       1.0  0.94000  0.67800  0.20300  1.0000
  Nd  Nd2       1.0  0.05960  0.32200  0.79700  1.0000
  Si  Si1       1.0  0.67200  0.10900  0.23400  1.0000
  Si  Si2       1.0  0.32800  0.89100  0.76600  1.0000
