# generated using pymatgen
data_CaTiSiO5
_symmetry_space_group_name_H-M   'P 1'
_cell_length_a   5.50872171
_cell_length_b   5.50872171
_cell_length_c   7.13048808
_cell_angle_alpha   75.72078191
_cell_angle_beta   75.72078191
_cell_angle_gamma   105.56592234
_symmetry_Int_Tables_number   1
_chemical_formula_structural   CaTiSiO5
_chemical_formula_sum   'Ca2 Ti2 Si2 O10'
_cell_volume   190.32631909
_cell_formula_units_Z   2
loop_
 _symmetry_equiv_pos_site_id
 _symmetry_equiv_pos_as_xyz
  1  'x, y, z'
loop_
 _atom_site_type_symbol
 _atom_site_label
 _atom_site_symmetry_multiplicity
 _atom_site_fract_x
 _atom_site_fract_y
 _atom_site_fract_z
 _atom_site_occupancy
  Ca  Ca0  1  0.17173400  0.82826600  0.25000000  1
  Ca  Ca1  1  0.82826600  0.17173400  0.75000000  1
  Ti  Ti2  1  0.50000000  0.50000000  0.00000000  1
  Ti  Ti3  1  0.50000000  0.50000000  0.50000000  1
  Si  Si4  1  0.18025800  0.81974200  0.75000000  1
  Si  Si5  1  0.81974200  0.18025800  0.25000000  1
  O  O6  1  0.38554800  0.81260500  0.88438000  1
  O  O7  1  0.18739500  0.61445200  0.61562000  1
  O  O8  1  0.61445200  0.18739500  0.11562000  1
  O  O9  1  0.81260500  0.38554800  0.38438000  1
  O  O10  1  0.24932700  0.12276200  0.59220300  1
  O  O11  1  0.87723800  0.75067300  0.90779700  1
  O  O12  1  0.43111300  0.56888700  0.25000000  1
  O  O13  1  0.56888700  0.43111300  0.75000000  1
  O  O14  1  0.12276200  0.24932700  0.09220300  1
  O  O15  1  0.75067300  0.87723800  0.40779700  1
