# generated using pymatgen
data_Zr2FeH5
_symmetry_space_group_name_H-M   'P 1'
_cell_length_a   6.92019300
_cell_length_b   6.92019300
_cell_length_c   5.65283400
_cell_angle_alpha   90.00000000
_cell_angle_beta   90.00000000
_cell_angle_gamma   90.00000000
_symmetry_Int_Tables_number   1
_chemical_formula_structural   Zr2FeH5
_chemical_formula_sum   'Zr8 Fe4 H20'
_cell_volume   270.70896967
_cell_formula_units_Z   4
loop_
 _symmetry_equiv_pos_site_id
 _symmetry_equiv_pos_as_xyz
  1  'x, y, z'
loop_
 _atom_site_type_symbol
 _atom_site_label
 _atom_site_symmetry_multiplicity
 _atom_site_fract_x
 _atom_site_fract_y
 _atom_site_fract_z
 _atom_site_occupancy
  Zr  Zr0  1  0.16173100  0.83826900  0.25000000  1
  Zr  Zr1  1  0.16173100  0.16173100  0.75000000  1
  Zr  Zr2  1  0.83826900  0.83826900  0.75000000  1
  Zr  Zr3  1  0.83826900  0.16173100  0.25000000  1
  Zr  Zr4  1  0.33826900  0.66173100  0.75000000  1
  Zr  Zr5  1  0.33826900  0.33826900  0.25000000  1
  Zr  Zr6  1  0.66173100  0.66173100  0.25000000  1
  Zr  Zr7  1  0.66173100  0.33826900  0.75000000  1
  Fe  Fe8  1  0.00000000  0.50000000  0.48769000  1
  Fe  Fe9  1  0.00000000  0.50000000  0.98769000  1
  Fe  Fe10  1  0.50000000  0.00000000  0.51231000  1
  Fe  Fe11  1  0.50000000  0.00000000  0.01231000  1
  H  H12  1  0.50000000  0.50000000  0.50000000  1
  H  H13  1  0.50000000  0.50000000  0.00000000  1
  H  H14  1  0.00000000  0.00000000  0.00000000  1
  H  H15  1  0.00000000  0.00000000  0.50000000  1
  H  H16  1  0.78664900  0.41724400  0.42708400  1
  H  H17  1  0.78664900  0.58275600  0.92708400  1
  H  H18  1  0.21335100  0.41724400  0.92708400  1
  H  H19  1  0.21335100  0.58275600  0.42708400  1
  H  H20  1  0.91724400  0.28664900  0.92708400  1
  H  H21  1  0.91724400  0.71335100  0.42708400  1
  H  H22  1  0.08275600  0.28664900  0.42708400  1
  H  H23  1  0.08275600  0.71335100  0.92708400  1
  H  H24  1  0.71335100  0.08275600  0.57291600  1
  H  H25  1  0.71335100  0.91724400  0.07291600  1
  H  H26  1  0.28664900  0.08275600  0.07291600  1
  H  H27  1  0.28664900  0.91724400  0.57291600  1
  H  H28  1  0.58275600  0.21335100  0.07291600  1
  H  H29  1  0.58275600  0.78664900  0.57291600  1
  H  H30  1  0.41724400  0.21335100  0.57291600  1
  H  H31  1  0.41724400  0.78664900  0.07291600  1
