# generated using pymatgen
data_KAlH4
_symmetry_space_group_name_H-M   'P 1'
_cell_length_a   7.36992802
_cell_length_b   7.36992802
_cell_length_c   7.36992802
_cell_angle_alpha   137.01688898
_cell_angle_beta   137.01688898
_cell_angle_gamma   62.41206569
_symmetry_Int_Tables_number   1
_chemical_formula_structural   KAlH4
_chemical_formula_sum   'K2 Al2 H8'
_cell_volume   183.82261461
_cell_formula_units_Z   2
loop_
 _symmetry_equiv_pos_site_id
 _symmetry_equiv_pos_as_xyz
  1  'x, y, z'
loop_
 _atom_site_type_symbol
 _atom_site_label
 _atom_site_symmetry_multiplicity
 _atom_site_fract_x
 _atom_site_fract_y
 _atom_site_fract_z
 _atom_site_occupancy
  K  K0  1  0.75000000  0.25000000  0.50000000  1
  K  K1  1  0.00000000  0.00000000  0.00000000  1
  Al  Al2  1  0.25000000  0.75000000  0.50000000  1
  Al  Al3  1  0.50000000  0.50000000  0.00000000  1
  H  H4  1  0.55343800  0.72694200  0.63443800  1
  H  H5  1  0.09250500  0.91900100  0.36556200  1
  H  H6  1  0.66900100  0.80343800  0.32649600  1
  H  H7  1  0.47694200  0.34250500  0.67350400  1
  H  H8  1  0.19656200  0.52305800  0.86556200  1
  H  H9  1  0.65749500  0.33099900  0.13443800  1
  H  H10  1  0.08099900  0.44656200  0.17350400  1
  H  H11  1  0.27305800  0.90749500  0.82649600  1
