# generated using pymatgen
data_DyAgSe2
_symmetry_space_group_name_H-M   'P 1'
_cell_length_a   7.42504415
_cell_length_b   7.42504415
_cell_length_c   7.42504415
_cell_angle_alpha   135.05631213
_cell_angle_beta   135.05631213
_cell_angle_gamma   65.44271574
_symmetry_Int_Tables_number   1
_chemical_formula_structural   DyAgSe2
_chemical_formula_sum   'Dy2 Ag2 Se4'
_cell_volume   201.26161275
_cell_formula_units_Z   2
loop_
 _symmetry_equiv_pos_site_id
 _symmetry_equiv_pos_as_xyz
  1  'x, y, z'
loop_
 _atom_site_type_symbol
 _atom_site_label
 _atom_site_symmetry_multiplicity
 _atom_site_fract_x
 _atom_site_fract_y
 _atom_site_fract_z
 _atom_site_occupancy
  Dy  Dy0  1  0.75075300  0.25075300  0.50000000  1
  Dy  Dy1  1  0.00075300  0.00075300  0.00000000  1
  Ag  Ag2  1  0.29008300  0.79008300  0.50000000  1
  Ag  Ag3  1  0.54008300  0.54008300  0.00000000  1
  Se  Se4  1  0.98078200  0.48078200  0.50000000  1
  Se  Se5  1  0.23078200  0.23078200  0.00000000  1
  Se  Se6  1  0.51838100  0.01838100  0.50000000  1
  Se  Se7  1  0.76838100  0.76838100  0.00000000  1
