# generated using pymatgen
data_CaAl2Si(HO2)4
_symmetry_space_group_name_H-M   'P 1'
_cell_length_a   12.24138141
_cell_length_b   12.24138141
_cell_length_c   12.24138141
_cell_angle_alpha   156.39115567
_cell_angle_beta   156.39115567
_cell_angle_gamma   33.63305508
_symmetry_Int_Tables_number   1
_chemical_formula_structural   CaAl2Si(HO2)4
_chemical_formula_sum   'Ca2 Al4 Si2 H8 O16'
_cell_volume   293.94158512
_cell_formula_units_Z   2
loop_
 _symmetry_equiv_pos_site_id
 _symmetry_equiv_pos_as_xyz
  1  'x, y, z'
loop_
 _atom_site_type_symbol
 _atom_site_label
 _atom_site_symmetry_multiplicity
 _atom_site_fract_x
 _atom_site_fract_y
 _atom_site_fract_z
 _atom_site_occupancy
  Ca  Ca0  1  0.25000000  0.75000000  0.50000000  1
  Ca  Ca1  1  0.50000000  0.50000000  0.00000000  1
  Al  Al2  1  0.40966600  0.90966600  0.50000000  1
  Al  Al3  1  0.65966600  0.65966600  0.00000000  1
  Al  Al4  1  0.34033400  0.34033400  0.00000000  1
  Al  Al5  1  0.09033400  0.59033400  0.50000000  1
  Si  Si6  1  0.75000000  0.25000000  0.50000000  1
  Si  Si7  1  0.00000000  0.00000000  0.00000000  1
  H  H8  1  0.78903300  0.21868800  0.18951300  1
  H  H9  1  0.02917500  0.59952000  0.81048700  1
  H  H10  1  0.34952000  0.03903300  0.07034500  1
  H  H11  1  0.96868800  0.27917500  0.92965500  1
  H  H12  1  0.96096700  0.03131200  0.31048700  1
  H  H13  1  0.72082500  0.65048000  0.68951300  1
  H  H14  1  0.40048000  0.21096700  0.42965500  1
  H  H15  1  0.78131200  0.97082500  0.57034500  1
  O  O16  1  0.84360900  0.96748600  0.38792100  1
  O  O17  1  0.57956500  0.45568900  0.61207900  1
  O  O18  1  0.20568900  0.09360900  0.37612400  1
  O  O19  1  0.71748600  0.82956500  0.62387600  1
  O  O20  1  0.90639100  0.28251400  0.11207900  1
  O  O21  1  0.17043500  0.79431100  0.88792100  1
  O  O22  1  0.54431100  0.15639100  0.12387600  1
  O  O23  1  0.03251400  0.42043500  0.87612400  1
  O  O24  1  0.59221100  0.23289700  0.01470800  1
  O  O25  1  0.21819000  0.57750400  0.98529200  1
  O  O26  1  0.32750400  0.84221100  0.85931400  1
  O  O27  1  0.98289700  0.46819000  0.14068600  1
  O  O28  1  0.15778900  0.01710300  0.48529200  1
  O  O29  1  0.53181000  0.67249600  0.51470800  1
  O  O30  1  0.42249600  0.40778900  0.64068600  1
  O  O31  1  0.76710300  0.78181000  0.35931400  1
