# generated using pymatgen
data_Hf2Ni2Sn
_symmetry_space_group_name_H-M   'P 1'
_cell_length_a   7.06214500
_cell_length_b   7.06214500
_cell_length_c   3.38980100
_cell_angle_alpha   90.00000000
_cell_angle_beta   90.00000000
_cell_angle_gamma   90.00000000
_symmetry_Int_Tables_number   1
_chemical_formula_structural   Hf2Ni2Sn
_chemical_formula_sum   'Hf4 Ni4 Sn2'
_cell_volume   169.06256898
_cell_formula_units_Z   2
loop_
 _symmetry_equiv_pos_site_id
 _symmetry_equiv_pos_as_xyz
  1  'x, y, z'
loop_
 _atom_site_type_symbol
 _atom_site_label
 _atom_site_symmetry_multiplicity
 _atom_site_fract_x
 _atom_site_fract_y
 _atom_site_fract_z
 _atom_site_occupancy
  Hf  Hf0  1  0.66708900  0.16708900  0.50000000  1
  Hf  Hf1  1  0.33291100  0.83291100  0.50000000  1
  Hf  Hf2  1  0.83291100  0.66708900  0.50000000  1
  Hf  Hf3  1  0.16708900  0.33291100  0.50000000  1
  Ni  Ni4  1  0.62540400  0.87459600  0.00000000  1
  Ni  Ni5  1  0.12540400  0.62540400  0.00000000  1
  Ni  Ni6  1  0.87459600  0.37459600  0.00000000  1
  Ni  Ni7  1  0.37459600  0.12540400  0.00000000  1
  Sn  Sn8  1  0.50000000  0.50000000  0.00000000  1
  Sn  Sn9  1  0.00000000  0.00000000  0.00000000  1
