# generated using pymatgen
data_MnSiO3
_symmetry_space_group_name_H-M   'P 1'
_cell_length_a   6.48035200
_cell_length_b   8.12797606
_cell_length_c   12.41381273
_cell_angle_alpha   103.05140443
_cell_angle_beta   89.64640537
_cell_angle_gamma   100.14449241
_symmetry_Int_Tables_number   1
_chemical_formula_structural   MnSiO3
_chemical_formula_sum   'Mn10 Si10 O30'
_cell_volume   626.62843233
_cell_formula_units_Z   10
loop_
 _symmetry_equiv_pos_site_id
 _symmetry_equiv_pos_as_xyz
  1  'x, y, z'
loop_
 _atom_site_type_symbol
 _atom_site_label
 _atom_site_symmetry_multiplicity
 _atom_site_fract_x
 _atom_site_fract_y
 _atom_site_fract_z
 _atom_site_occupancy
  Mn  Mn0  1  0.06923300  0.16128200  0.24769300  1
  Mn  Mn1  1  0.17737600  0.79913900  0.18924400  1
  Mn  Mn2  1  0.82262400  0.20086100  0.81075600  1
  Mn  Mn3  1  0.84869500  0.14847900  0.49242000  1
  Mn  Mn4  1  0.60991300  0.41914000  0.65036200  1
  Mn  Mn5  1  0.15130500  0.85152100  0.50758000  1
  Mn  Mn6  1  0.39008700  0.58086000  0.34963800  1
  Mn  Mn7  1  0.00000000  0.00000000  0.00000000  1
  Mn  Mn8  1  0.93076700  0.83871800  0.75230700  1
  Mn  Mn9  1  0.50000000  0.00000000  0.00000000  1
  Si  Si10  1  0.22805900  0.40747300  0.07083800  1
  Si  Si11  1  0.41808000  0.58149700  0.87983100  1
  Si  Si12  1  0.34035200  0.24973700  0.45312700  1
  Si  Si13  1  0.65964800  0.75026300  0.54687300  1
  Si  Si14  1  0.14441000  0.50655300  0.64796100  1
  Si  Si15  1  0.77194100  0.59252700  0.92916200  1
  Si  Si16  1  0.31321100  0.19251600  0.83228200  1
  Si  Si17  1  0.85559000  0.49344700  0.35203900  1
  Si  Si18  1  0.68678900  0.80748400  0.16771800  1
  Si  Si19  1  0.58192000  0.41850300  0.12016900  1
  O  O20  1  0.21020300  0.99301000  0.12281100  1
  O  O21  1  0.29585000  0.04492300  0.90343800  1
  O  O22  1  0.37816100  0.75545900  0.96034000  1
  O  O23  1  0.88219800  0.29893100  0.35226700  1
  O  O24  1  0.92284700  0.37106400  0.63963500  1
  O  O25  1  0.69716800  0.48603600  0.24259900  1
  O  O26  1  0.89052400  0.43564900  0.88706900  1
  O  O27  1  0.90428800  0.85720100  0.24131900  1
  O  O28  1  0.70415000  0.95507700  0.09656200  1
  O  O29  1  0.05948700  0.23692800  0.07492900  1
  O  O30  1  0.55427700  0.21576400  0.50511100  1
  O  O31  1  0.30612000  0.39241300  0.92955900  1
  O  O32  1  0.94051300  0.76307200  0.92507100  1
  O  O33  1  0.34203200  0.31103800  0.33549700  1
  O  O34  1  0.30283200  0.51396400  0.75740100  1
  O  O35  1  0.69388000  0.60758700  0.07044100  1
  O  O36  1  0.14906100  0.08468200  0.44302400  1
  O  O37  1  0.44572300  0.78423600  0.49488900  1
  O  O38  1  0.09571200  0.14279900  0.75868100  1
  O  O39  1  0.62183900  0.24454100  0.03966000  1
  O  O40  1  0.11780200  0.70106900  0.64773300  1
  O  O41  1  0.78979700  0.00699000  0.87718900  1
  O  O42  1  0.85093900  0.91531800  0.55697600  1
  O  O43  1  0.10947600  0.56435100  0.11293100  1
  O  O44  1  0.65796800  0.68896200  0.66450300  1
  O  O45  1  0.70606000  0.57719600  0.45117200  1
  O  O46  1  0.07715300  0.62893600  0.36036500  1
  O  O47  1  0.29394000  0.42280400  0.54882800  1
  O  O48  1  0.46870100  0.77652300  0.23239400  1
  O  O49  1  0.53129900  0.22347700  0.76760600  1
