# generated using pymatgen
data_La4Mo7O27
_symmetry_space_group_name_H-M   'P 1'
_cell_length_a   7.39160800
_cell_length_b   14.34215200
_cell_length_c   23.31370800
_cell_angle_alpha   90.00000000
_cell_angle_beta   90.00000000
_cell_angle_gamma   90.00000000
_symmetry_Int_Tables_number   1
_chemical_formula_structural   La4Mo7O27
_chemical_formula_sum   'La16 Mo28 O108'
_cell_volume   2471.52268177
_cell_formula_units_Z   4
loop_
 _symmetry_equiv_pos_site_id
 _symmetry_equiv_pos_as_xyz
  1  'x, y, z'
loop_
 _atom_site_type_symbol
 _atom_site_label
 _atom_site_symmetry_multiplicity
 _atom_site_fract_x
 _atom_site_fract_y
 _atom_site_fract_z
 _atom_site_occupancy
  La  La0  1  0.01658900  0.84041900  0.11244600  1
  La  La1  1  0.99639600  0.40278400  0.84872200  1
  La  La2  1  0.01658900  0.65958100  0.61244600  1
  La  La3  1  0.50895600  0.70113900  0.10555200  1
  La  La4  1  0.98341100  0.34041900  0.11244600  1
  La  La5  1  0.48552300  0.53880000  0.84592400  1
  La  La6  1  0.50895600  0.79886100  0.60555200  1
  La  La7  1  0.00360400  0.59721600  0.34872200  1
  La  La8  1  0.98341100  0.15958100  0.61244600  1
  La  La9  1  0.51447700  0.03880000  0.84592400  1
  La  La10  1  0.49104400  0.20113900  0.10555200  1
  La  La11  1  0.49104400  0.29886100  0.60555200  1
  La  La12  1  0.00360400  0.90278400  0.84872200  1
  La  La13  1  0.99639600  0.09721600  0.34872200  1
  La  La14  1  0.48552300  0.96120000  0.34592400  1
  La  La15  1  0.51447700  0.46120000  0.34592400  1
  Mo  Mo16  1  0.98548600  0.86770000  0.28985500  1
  Mo  Mo17  1  0.51052000  0.80803300  0.79103300  1
  Mo  Mo18  1  0.32285200  0.07364400  0.50031900  1
  Mo  Mo19  1  0.67714800  0.92635600  0.00031900  1
  Mo  Mo20  1  0.32285200  0.42635600  0.00031900  1
  Mo  Mo21  1  0.78787100  0.97719700  0.48641000  1
  Mo  Mo22  1  0.50459600  0.43296800  0.17092200  1
  Mo  Mo23  1  0.67714800  0.57364400  0.50031900  1
  Mo  Mo24  1  0.81236200  0.19036800  0.96619200  1
  Mo  Mo25  1  0.51052000  0.69196700  0.29103300  1
  Mo  Mo26  1  0.18763800  0.80963200  0.46619200  1
  Mo  Mo27  1  0.01451400  0.13230000  0.78985500  1
  Mo  Mo28  1  0.48948000  0.30803300  0.79103300  1
  Mo  Mo29  1  0.99288500  0.61367000  0.16725200  1
  Mo  Mo30  1  0.48948000  0.19196700  0.29103300  1
  Mo  Mo31  1  0.49540400  0.56703200  0.67092200  1
  Mo  Mo32  1  0.99288500  0.88633000  0.66725200  1
  Mo  Mo33  1  0.00711500  0.38633000  0.66725200  1
  Mo  Mo34  1  0.50459600  0.06703200  0.67092200  1
  Mo  Mo35  1  0.21212900  0.47719700  0.48641000  1
  Mo  Mo36  1  0.00711500  0.11367000  0.16725200  1
  Mo  Mo37  1  0.81236200  0.30963200  0.46619200  1
  Mo  Mo38  1  0.18763800  0.69036800  0.96619200  1
  Mo  Mo39  1  0.49540400  0.93296800  0.17092200  1
  Mo  Mo40  1  0.98548600  0.63230000  0.78985500  1
  Mo  Mo41  1  0.21212900  0.02280300  0.98641000  1
  Mo  Mo42  1  0.01451400  0.36770000  0.28985500  1
  Mo  Mo43  1  0.78787100  0.52280300  0.98641000  1
  O  O44  1  0.76102800  0.50659100  0.90835300  1
  O  O45  1  0.14986300  0.56635600  0.83263900  1
  O  O46  1  0.51635800  0.70252400  0.83141100  1
  O  O47  1  0.34225500  0.39801700  0.52808900  1
  O  O48  1  0.94265500  0.34461800  0.21797400  1
  O  O49  1  0.52646400  0.54752700  0.14233900  1
  O  O50  1  0.71825800  0.89046700  0.16050300  1
  O  O51  1  0.24558700  0.76228500  0.53553000  1
  O  O52  1  0.56757300  0.06981700  0.48994900  1
  O  O53  1  0.62656900  0.36899400  0.43451500  1
  O  O54  1  0.32112000  0.39100600  0.81637800  1
  O  O55  1  0.20829700  0.44168500  0.29361100  1
  O  O56  1  0.20829700  0.05831500  0.79361100  1
  O  O57  1  0.98252900  0.88500200  0.47241600  1
  O  O58  1  0.73348600  0.67668900  0.54333300  1
  O  O59  1  0.37343100  0.63100600  0.93451500  1
  O  O60  1  0.85013700  0.06635600  0.83263900  1
  O  O61  1  0.47493800  0.21724200  0.21638200  1
  O  O62  1  0.19949400  0.82954200  0.64765000  1
  O  O63  1  0.47353600  0.04752700  0.14233900  1
  O  O64  1  0.06314000  0.25907400  0.32349900  1
  O  O65  1  0.05734500  0.65538200  0.71797400  1
  O  O66  1  0.80050600  0.17045800  0.14765000  1
  O  O67  1  0.71825800  0.60953300  0.66050300  1
  O  O68  1  0.67888000  0.60899400  0.31637800  1
  O  O69  1  0.24558700  0.73771500  0.03553000  1
  O  O70  1  0.06314000  0.24092600  0.82349900  1
  O  O71  1  0.05734500  0.84461800  0.21797400  1
  O  O72  1  0.87046600  0.28634600  0.92260200  1
  O  O73  1  0.77988600  0.57119200  0.42972100  1
  O  O74  1  0.03764600  0.00325100  0.13417500  1
  O  O75  1  0.26651400  0.32331100  0.04333300  1
  O  O76  1  0.52506200  0.71724200  0.21638200  1
  O  O77  1  0.32112000  0.10899400  0.31637800  1
  O  O78  1  0.91937800  0.06228000  0.52279300  1
  O  O79  1  0.26774400  0.97304100  0.53877700  1
  O  O80  1  0.56757300  0.43018300  0.98994900  1
  O  O81  1  0.65774500  0.60198300  0.02808900  1
  O  O82  1  0.97558500  0.59853600  0.24262500  1
  O  O83  1  0.48364200  0.29747600  0.33141100  1
  O  O84  1  0.26651400  0.17668900  0.54333300  1
  O  O85  1  0.87046600  0.21365400  0.42260200  1
  O  O86  1  0.51635800  0.79747600  0.33141100  1
  O  O87  1  0.19949400  0.67045800  0.14765000  1
  O  O88  1  0.12953400  0.78634600  0.92260200  1
  O  O89  1  0.94265500  0.15538200  0.71797400  1
  O  O90  1  0.47493800  0.28275800  0.71638200  1
  O  O91  1  0.96235400  0.50325100  0.13417500  1
  O  O92  1  0.43242700  0.93018300  0.98994900  1
  O  O93  1  0.12953400  0.71365400  0.42260200  1
  O  O94  1  0.23897200  0.49340900  0.40835300  1
  O  O95  1  0.31081600  0.62705200  0.30930400  1
  O  O96  1  0.02441500  0.09853600  0.24262500  1
  O  O97  1  0.31081600  0.87294800  0.80930400  1
  O  O98  1  0.03764600  0.49674900  0.63417500  1
  O  O99  1  0.52506200  0.78275800  0.71638200  1
  O  O100  1  0.16950100  0.30237900  0.63766600  1
  O  O101  1  0.14986300  0.93364400  0.33263900  1
  O  O102  1  0.34225500  0.10198300  0.02808900  1
  O  O103  1  0.23897200  0.00659100  0.90835300  1
  O  O104  1  0.83049900  0.80237900  0.63766600  1
  O  O105  1  0.35077600  0.85358900  0.12933200  1
  O  O106  1  0.43565400  0.56125700  0.74503500  1
  O  O107  1  0.16950100  0.19762100  0.13766600  1
  O  O108  1  0.98252900  0.61499800  0.97241600  1
  O  O109  1  0.75441300  0.23771500  0.03553000  1
  O  O110  1  0.64922400  0.35358900  0.12933200  1
  O  O111  1  0.85013700  0.43364400  0.33263900  1
  O  O112  1  0.68918400  0.37294800  0.80930400  1
  O  O113  1  0.75441300  0.26228500  0.53553000  1
  O  O114  1  0.68918400  0.12705200  0.30930400  1
  O  O115  1  0.64922400  0.14641100  0.62933200  1
  O  O116  1  0.65774500  0.89801700  0.52808900  1
  O  O117  1  0.77988600  0.92880800  0.92972100  1
  O  O118  1  0.43242700  0.56981700  0.48994900  1
  O  O119  1  0.91937800  0.43772000  0.02279300  1
  O  O120  1  0.37343100  0.86899400  0.43451500  1
  O  O121  1  0.80050600  0.32954200  0.64765000  1
  O  O122  1  0.28174200  0.39046700  0.16050300  1
  O  O123  1  0.62656900  0.13100600  0.93451500  1
  O  O124  1  0.56434600  0.06125700  0.74503500  1
  O  O125  1  0.93686000  0.74092600  0.82349900  1
  O  O126  1  0.01747100  0.38500200  0.47241600  1
  O  O127  1  0.96235400  0.99674900  0.63417500  1
  O  O128  1  0.35077600  0.64641100  0.62933200  1
  O  O129  1  0.73225600  0.02695900  0.03877700  1
  O  O130  1  0.08062200  0.93772000  0.02279300  1
  O  O131  1  0.83049900  0.69762100  0.13766600  1
  O  O132  1  0.47353600  0.45247300  0.64233900  1
  O  O133  1  0.97558500  0.90146400  0.74262500  1
  O  O134  1  0.93686000  0.75907400  0.32349900  1
  O  O135  1  0.48364200  0.20252400  0.83141100  1
  O  O136  1  0.43565400  0.93874300  0.24503500  1
  O  O137  1  0.22011400  0.42880800  0.92972100  1
  O  O138  1  0.67888000  0.89100600  0.81637800  1
  O  O139  1  0.73348600  0.82331100  0.04333300  1
  O  O140  1  0.01747100  0.11499800  0.97241600  1
  O  O141  1  0.79170300  0.94168500  0.29361100  1
  O  O142  1  0.02441500  0.40146400  0.74262500  1
  O  O143  1  0.79170300  0.55831500  0.79361100  1
  O  O144  1  0.73225600  0.47304100  0.53877700  1
  O  O145  1  0.08062200  0.56228000  0.52279300  1
  O  O146  1  0.52646400  0.95247300  0.64233900  1
  O  O147  1  0.26774400  0.52695900  0.03877700  1
  O  O148  1  0.56434600  0.43874300  0.24503500  1
  O  O149  1  0.76102800  0.99340900  0.40835300  1
  O  O150  1  0.22011400  0.07119200  0.42972100  1
  O  O151  1  0.28174200  0.10953300  0.66050300  1
