# generated using pymatgen
data_Sm6InCo2
_symmetry_space_group_name_H-M   'P 1'
_cell_length_a   8.54934451
_cell_length_b   8.54934451
_cell_length_c   8.54934451
_cell_angle_alpha   112.41609455
_cell_angle_beta   108.85596855
_cell_angle_gamma   107.18630266
_symmetry_Int_Tables_number   1
_chemical_formula_structural   Sm6InCo2
_chemical_formula_sum   'Sm12 In2 Co4'
_cell_volume   479.97986678
_cell_formula_units_Z   2
loop_
 _symmetry_equiv_pos_site_id
 _symmetry_equiv_pos_as_xyz
  1  'x, y, z'
loop_
 _atom_site_type_symbol
 _atom_site_label
 _atom_site_symmetry_multiplicity
 _atom_site_fract_x
 _atom_site_fract_y
 _atom_site_fract_z
 _atom_site_occupancy
  Sm  Sm0  1  0.67914700  0.86747100  0.18832400  1
  Sm  Sm1  1  0.81540000  0.21276600  0.02816600  1
  Sm  Sm2  1  0.97577600  0.26793200  0.70784400  1
  Sm  Sm3  1  0.32085300  0.13252900  0.81167600  1
  Sm  Sm4  1  0.67914700  0.49082300  0.81167600  1
  Sm  Sm5  1  0.81540000  0.78723400  0.60263400  1
  Sm  Sm6  1  0.02422400  0.73206800  0.29215600  1
  Sm  Sm7  1  0.18460000  0.78723400  0.97183400  1
  Sm  Sm8  1  0.56008800  0.26793200  0.29215600  1
  Sm  Sm9  1  0.18460000  0.21276600  0.39736600  1
  Sm  Sm10  1  0.43991200  0.73206800  0.70784400  1
  Sm  Sm11  1  0.32085300  0.50917700  0.18832400  1
  In  In12  1  0.50000000  0.00000000  0.50000000  1
  In  In13  1  0.00000000  0.50000000  0.50000000  1
  Co  Co14  1  0.35369700  0.50000000  0.85369700  1
  Co  Co15  1  0.89003200  0.89003200  0.00000000  1
  Co  Co16  1  0.10996800  0.10996800  0.00000000  1
  Co  Co17  1  0.64630300  0.50000000  0.14630300  1
