# generated using pymatgen
data_KB5O8
_symmetry_space_group_name_H-M   'P 1'
_cell_length_a   8.18169500
_cell_length_b   12.47873600
_cell_length_c   17.19859700
_cell_angle_alpha   90.00000000
_cell_angle_beta   90.00000000
_cell_angle_gamma   90.00000000
_symmetry_Int_Tables_number   1
_chemical_formula_structural   KB5O8
_chemical_formula_sum   'K8 B40 O64'
_cell_volume   1755.92880294
_cell_formula_units_Z   8
loop_
 _symmetry_equiv_pos_site_id
 _symmetry_equiv_pos_as_xyz
  1  'x, y, z'
loop_
 _atom_site_type_symbol
 _atom_site_label
 _atom_site_symmetry_multiplicity
 _atom_site_fract_x
 _atom_site_fract_y
 _atom_site_fract_z
 _atom_site_occupancy
  K  K0  1  0.59824900  0.14137000  0.82427500  1
  K  K1  1  0.40175100  0.85863000  0.17572500  1
  K  K2  1  0.09824900  0.14137000  0.67572500  1
  K  K3  1  0.90175100  0.85863000  0.32427500  1
  K  K4  1  0.90175100  0.64137000  0.82427500  1
  K  K5  1  0.40175100  0.64137000  0.67572500  1
  K  K6  1  0.09824900  0.35863000  0.17572500  1
  K  K7  1  0.59824900  0.35863000  0.32427500  1
  B  B8  1  0.53457100  0.06899600  0.55454200  1
  B  B9  1  0.43924900  0.77682400  0.98129100  1
  B  B10  1  0.76795900  0.44680100  0.49125900  1
  B  B11  1  0.70863400  0.86027900  0.98913300  1
  B  B12  1  0.29136600  0.36027900  0.51086700  1
  B  B13  1  0.72190500  0.22889900  0.18931100  1
  B  B14  1  0.93924900  0.77682400  0.51870900  1
  B  B15  1  0.72190500  0.27110100  0.68931100  1
  B  B16  1  0.23204100  0.94680100  0.00874100  1
  B  B17  1  0.73204100  0.55319900  0.99125900  1
  B  B18  1  0.70863400  0.63972100  0.48913300  1
  B  B19  1  0.46542900  0.93100400  0.44545800  1
  B  B20  1  0.29136600  0.13972100  0.01086700  1
  B  B21  1  0.53457100  0.43100400  0.05454200  1
  B  B22  1  0.06075100  0.22317600  0.48129100  1
  B  B23  1  0.43924900  0.72317600  0.48129100  1
  B  B24  1  0.79136600  0.13972100  0.48913300  1
  B  B25  1  0.96542900  0.93100400  0.05454200  1
  B  B26  1  0.79136600  0.36027900  0.98913300  1
  B  B27  1  0.26795900  0.05319900  0.50874100  1
  B  B28  1  0.22190500  0.27110100  0.81068900  1
  B  B29  1  0.03457100  0.43100400  0.44545800  1
  B  B30  1  0.26795900  0.44680100  0.00874100  1
  B  B31  1  0.96542900  0.56899600  0.55454200  1
  B  B32  1  0.73204100  0.94680100  0.49125900  1
  B  B33  1  0.20863400  0.63972100  0.01086700  1
  B  B34  1  0.20863400  0.86027900  0.51086700  1
  B  B35  1  0.03457100  0.06899600  0.94545800  1
  B  B36  1  0.22190500  0.22889900  0.31068900  1
  B  B37  1  0.76795900  0.05319900  0.99125900  1
  B  B38  1  0.27809500  0.77110100  0.81068900  1
  B  B39  1  0.27809500  0.72889900  0.31068900  1
  B  B40  1  0.77809500  0.77110100  0.68931100  1
  B  B41  1  0.93924900  0.72317600  0.01870900  1
  B  B42  1  0.06075100  0.27682400  0.98129100  1
  B  B43  1  0.56075100  0.27682400  0.51870900  1
  B  B44  1  0.56075100  0.22317600  0.01870900  1
  B  B45  1  0.23204100  0.55319900  0.50874100  1
  B  B46  1  0.77809500  0.72889900  0.18931100  1
  B  B47  1  0.46542900  0.56899600  0.94545800  1
  O  O48  1  0.84375800  0.86000100  0.50966800  1
  O  O49  1  0.60574200  0.77619500  0.97819000  1
  O  O50  1  0.87906900  0.47719400  0.55642200  1
  O  O51  1  0.68899400  0.70962200  0.64848600  1
  O  O52  1  0.18899400  0.70962200  0.85151400  1
  O  O53  1  0.37625300  0.67857000  0.26713700  1
  O  O54  1  0.87774000  0.08321100  0.92381000  1
  O  O55  1  0.89425800  0.22380500  0.47819000  1
  O  O56  1  0.89425800  0.27619500  0.97819000  1
  O  O57  1  0.12093100  0.52280600  0.44357800  1
  O  O58  1  0.31100600  0.20962200  0.85151400  1
  O  O59  1  0.37396200  0.66474000  0.98140600  1
  O  O60  1  0.67065100  0.54014700  0.47005200  1
  O  O61  1  0.84375800  0.63999900  0.00966800  1
  O  O62  1  0.10574200  0.77619500  0.52181000  1
  O  O63  1  0.17065100  0.54014700  0.02994800  1
  O  O64  1  0.87396200  0.66474000  0.51859400  1
  O  O65  1  0.15624200  0.13999900  0.49033200  1
  O  O66  1  0.62374700  0.32143000  0.73286300  1
  O  O67  1  0.62374700  0.17857000  0.23286300  1
  O  O68  1  0.12226000  0.58321100  0.57619000  1
  O  O69  1  0.67065100  0.95985300  0.97005200  1
  O  O70  1  0.37906900  0.47719400  0.94357800  1
  O  O71  1  0.32934900  0.04014700  0.02994800  1
  O  O72  1  0.62093100  0.97719400  0.55642200  1
  O  O73  1  0.87625300  0.67857000  0.23286300  1
  O  O74  1  0.37396200  0.83526000  0.48140600  1
  O  O75  1  0.87906900  0.02280600  0.05642200  1
  O  O76  1  0.12603800  0.16474000  0.98140600  1
  O  O77  1  0.65624200  0.13999900  0.00966800  1
  O  O78  1  0.37625300  0.82143000  0.76713700  1
  O  O79  1  0.62226000  0.91678900  0.42381000  1
  O  O80  1  0.15624200  0.36000100  0.99033200  1
  O  O81  1  0.87625300  0.82143000  0.73286300  1
  O  O82  1  0.12374700  0.32143000  0.76713700  1
  O  O83  1  0.32934900  0.45985300  0.52994800  1
  O  O84  1  0.12374700  0.17857000  0.26713700  1
  O  O85  1  0.81100600  0.20962200  0.64848600  1
  O  O86  1  0.31100600  0.29037800  0.35151400  1
  O  O87  1  0.17065100  0.95985300  0.52994800  1
  O  O88  1  0.87396200  0.83526000  0.01859400  1
  O  O89  1  0.37906900  0.02280600  0.44357800  1
  O  O90  1  0.39425800  0.22380500  0.02181000  1
  O  O91  1  0.37774000  0.08321100  0.57619000  1
  O  O92  1  0.12093100  0.97719400  0.94357800  1
  O  O93  1  0.62603800  0.33526000  0.01859400  1
  O  O94  1  0.10574200  0.72380500  0.02181000  1
  O  O95  1  0.81100600  0.29037800  0.14848600  1
  O  O96  1  0.82934900  0.04014700  0.47005200  1
  O  O97  1  0.34375800  0.63999900  0.49033200  1
  O  O98  1  0.62226000  0.58321100  0.92381000  1
  O  O99  1  0.39425800  0.27619500  0.52181000  1
  O  O100  1  0.65624200  0.36000100  0.50966800  1
  O  O101  1  0.68899400  0.79037800  0.14848600  1
  O  O102  1  0.18899400  0.79037800  0.35151400  1
  O  O103  1  0.12603800  0.33526000  0.48140600  1
  O  O104  1  0.62093100  0.52280600  0.05642200  1
  O  O105  1  0.34375800  0.86000100  0.99033200  1
  O  O106  1  0.37774000  0.41678900  0.07619000  1
  O  O107  1  0.82934900  0.45985300  0.97005200  1
  O  O108  1  0.12226000  0.91678900  0.07619000  1
  O  O109  1  0.87774000  0.41678900  0.42381000  1
  O  O110  1  0.60574200  0.72380500  0.47819000  1
  O  O111  1  0.62603800  0.16474000  0.51859400  1
