# generated using pymatgen
data_Tb4In20Ni11
_symmetry_space_group_name_H-M   'P 1'
_cell_length_a   4.31358020
_cell_length_b   11.46682216
_cell_length_c   13.98580245
_cell_angle_alpha   80.05718212
_cell_angle_beta   81.12885643
_cell_angle_gamma   79.15868421
_symmetry_Int_Tables_number   1
_chemical_formula_structural   Tb4In20Ni11
_chemical_formula_sum   'Tb4 In20 Ni11'
_cell_volume   663.90897581
_cell_formula_units_Z   1
loop_
 _symmetry_equiv_pos_site_id
 _symmetry_equiv_pos_as_xyz
  1  'x, y, z'
loop_
 _atom_site_type_symbol
 _atom_site_label
 _atom_site_symmetry_multiplicity
 _atom_site_fract_x
 _atom_site_fract_y
 _atom_site_fract_z
 _atom_site_occupancy
  Tb  Tb0  1  0.11913965  0.09214305  0.66957766  1
  Tb  Tb1  1  0.77122513  0.63327093  0.82427882  1
  Tb  Tb2  1  0.88086035  0.90785695  0.33042234  1
  Tb  Tb3  1  0.22877487  0.36672907  0.17572118  1
  In  In4  1  0.11532378  0.32052821  0.44882423  1
  In  In5  1  0.75362380  0.20282649  0.28992591  1
  In  In6  1  0.61227679  0.46676174  0.30868468  1
  In  In7  1  0.93765465  0.33592467  0.78876603  1
  In  In8  1  0.06234535  0.66407533  0.21123397  1
  In  In9  1  0.98948726  0.92515410  0.09587139  1
  In  In10  1  0.60202739  0.78634680  0.00959843  1
  In  In11  1  0.54065284  0.29691060  0.62178372  1
  In  In12  1  0.01051274  0.07484590  0.90412861  1
  In  In13  1  0.45934716  0.70308940  0.37821628  1
  In  In14  1  0.88467622  0.67947179  0.55117577  1
  In  In15  1  0.24637620  0.79717351  0.71007409  1
  In  In16  1  0.20257943  0.59693846  0.99790269  1
  In  In17  1  0.70332218  0.09561610  0.49773953  1
  In  In18  1  0.62784619  0.93941093  0.80489669  1
  In  In19  1  0.39797261  0.21365320  0.99040157  1
  In  In20  1  0.37215381  0.06058907  0.19510331  1
  In  In21  1  0.38772321  0.53323826  0.69131532  1
  In  In22  1  0.79742057  0.40306154  0.00209731  1
  In  In23  1  0.29667782  0.90438390  0.50226047  1
  Ni  Ni24  1  0.13702256  0.82888324  0.89707165  1
  Ni  Ni25  1  0.97845109  0.44577276  0.59732506  1
  Ni  Ni26  1  0.25547855  0.10835425  0.38068865  1
  Ni  Ni27  1  0.34730366  0.42641215  0.87898054  1
  Ni  Ni28  1  0.50740782  0.18201906  0.80316531  1
  Ni  Ni29  1  0.74452145  0.89164575  0.61931135  1
  Ni  Ni30  1  0.49259218  0.81798094  0.19683469  1
  Ni  Ni31  1  0.65269634  0.57358785  0.12101946  1
  Ni  Ni32  1  0.86297744  0.17111676  0.10292835  1
  Ni  Ni33  1  0.50000000  0.50000000  0.50000000  1
  Ni  Ni34  1  0.02154891  0.55422724  0.40267494  1
