# generated using pymatgen
data_GeOs2C8(ClO2)4
_symmetry_space_group_name_H-M   'P 1'
_cell_length_a   21.49145100
_cell_length_b   10.22930700
_cell_length_c   14.48298214
_cell_angle_alpha   64.34160823
_cell_angle_beta   90.00000000
_cell_angle_gamma   90.00000000
_symmetry_Int_Tables_number   1
_chemical_formula_structural   GeOs2C8(ClO2)4
_chemical_formula_sum   'Ge6 Os12 C48 Cl24 O48'
_cell_volume   2870.01062294
_cell_formula_units_Z   6
loop_
 _symmetry_equiv_pos_site_id
 _symmetry_equiv_pos_as_xyz
  1  'x, y, z'
loop_
 _atom_site_type_symbol
 _atom_site_label
 _atom_site_symmetry_multiplicity
 _atom_site_fract_x
 _atom_site_fract_y
 _atom_site_fract_z
 _atom_site_occupancy
  Ge  Ge0  1  0.76050400  0.62811000  0.82486800  1
  Ge  Ge1  1  0.51844100  0.91756000  0.32443600  1
  Ge  Ge2  1  0.23949600  0.62811000  0.32486800  1
  Ge  Ge3  1  0.91055800  0.59452600  0.31206800  1
  Ge  Ge4  1  0.48155900  0.91756000  0.82443600  1
  Ge  Ge5  1  0.08944200  0.59452600  0.81206800  1
  Os  Os6  1  0.92100700  0.99629200  0.50187200  1
  Os  Os7  1  0.56086700  0.66723300  0.39761500  1
  Os  Os8  1  0.08577500  0.32393700  0.89508000  1
  Os  Os9  1  0.91422500  0.32393700  0.39508000  1
  Os  Os10  1  0.07899300  0.99629200  0.00187200  1
  Os  Os11  1  0.25376900  0.03246800  0.49397000  1
  Os  Os12  1  0.38355800  0.36819400  0.98697600  1
  Os  Os13  1  0.74623100  0.03246800  0.99397000  1
  Os  Os14  1  0.61644200  0.36819400  0.48697600  1
  Os  Os15  1  0.23836200  0.35807600  0.40371700  1
  Os  Os16  1  0.43913300  0.66723300  0.89761500  1
  Os  Os17  1  0.76163800  0.35807600  0.90371700  1
  C  C18  1  0.59529300  0.70817800  0.50723400  1
  C  C19  1  0.16268300  0.00786600  0.94104000  1
  C  C20  1  0.46758400  0.64031200  0.77878000  1
  C  C21  1  0.57348000  0.34267700  0.61478400  1
  C  C22  1  0.28037200  0.36004100  0.52278600  1
  C  C23  1  0.87365400  0.31898700  0.27585700  1
  C  C24  1  0.46206100  0.31120700  0.94363500  1
  C  C25  1  0.88198100  0.02544400  0.61521100  1
  C  C26  1  0.11801900  0.02544400  0.11521100  1
  C  C27  1  0.94552200  0.33295700  0.51894100  1
  C  C28  1  0.65083100  0.42803000  0.34836100  1
  C  C29  1  0.15984500  0.34639700  0.46356000  1
  C  C30  1  0.99803000  0.02468400  0.05432400  1
  C  C31  1  0.66360400  0.07695400  0.03570200  1
  C  C32  1  0.40470700  0.70817800  0.00723400  1
  C  C33  1  0.71395100  0.07653200  0.85575800  1
  C  C34  1  0.78193800  0.03566600  0.11812400  1
  C  C35  1  0.00555300  0.33292200  0.84141000  1
  C  C36  1  0.07594000  0.78363300  0.06841600  1
  C  C37  1  0.16970000  0.03218100  0.44049400  1
  C  C38  1  0.96006700  0.02106300  0.37268000  1
  C  C39  1  0.53793900  0.31120700  0.44363400  1
  C  C40  1  0.03993300  0.02106300  0.87268000  1
  C  C41  1  0.92406000  0.78363300  0.56841600  1
  C  C42  1  0.65449900  0.17658200  0.53827600  1
  C  C43  1  0.31400300  0.46894000  0.01976900  1
  C  C44  1  0.83731700  0.00786600  0.44104000  1
  C  C45  1  0.53241600  0.64031200  0.27878000  1
  C  C46  1  0.33639600  0.07695400  0.53570200  1
  C  C47  1  0.84015500  0.34639700  0.96356000  1
  C  C48  1  0.20063700  0.35783300  0.28112300  1
  C  C49  1  0.05447800  0.33295700  0.01894100  1
  C  C50  1  0.12634600  0.31898700  0.77585700  1
  C  C51  1  0.83030000  0.03218100  0.94049400  1
  C  C52  1  0.28604900  0.07653200  0.35575800  1
  C  C53  1  0.71962800  0.36004100  0.02278600  1
  C  C54  1  0.68599700  0.46894000  0.51976900  1
  C  C55  1  0.42652000  0.34267700  0.11478400  1
  C  C56  1  0.34550100  0.17658200  0.03827600  1
  C  C57  1  0.21806200  0.03566600  0.61812400  1
  C  C58  1  0.99444700  0.33292200  0.34141000  1
  C  C59  1  0.26735600  0.82269800  0.55349800  1
  C  C60  1  0.73264400  0.82269800  0.05349800  1
  C  C61  1  0.51257000  0.59047000  0.97230900  1
  C  C62  1  0.00197000  0.02468400  0.55432400  1
  C  C63  1  0.79936300  0.35783300  0.78112300  1
  C  C64  1  0.34916900  0.42803000  0.84836100  1
  C  C65  1  0.48743000  0.59047000  0.47230900  1
  Cl  Cl66  1  0.55564800  0.95026700  0.91742500  1
  Cl  Cl67  1  0.67680500  0.73457100  0.84348300  1
  Cl  Cl68  1  0.89697000  0.69491400  0.14390400  1
  Cl  Cl69  1  0.00147000  0.69651000  0.82554500  1
  Cl  Cl70  1  0.33971100  0.38648400  0.31886200  1
  Cl  Cl71  1  0.77481800  0.73781700  0.65803800  1
  Cl  Cl72  1  0.22518200  0.73781700  0.15803800  1
  Cl  Cl73  1  0.99853000  0.69651000  0.32554500  1
  Cl  Cl74  1  0.58365100  0.09482300  0.30472400  1
  Cl  Cl75  1  0.41634900  0.09482300  0.80472400  1
  Cl  Cl76  1  0.80784600  0.31214100  0.45975000  1
  Cl  Cl77  1  0.32319500  0.73457100  0.34348300  1
  Cl  Cl78  1  0.66028900  0.38648400  0.81886200  1
  Cl  Cl79  1  0.15801600  0.70698400  0.86313700  1
  Cl  Cl80  1  0.16560600  0.72400400  0.38254500  1
  Cl  Cl81  1  0.47435300  0.99273300  0.17307700  1
  Cl  Cl82  1  0.34264400  0.76904700  0.79943400  1
  Cl  Cl83  1  0.52564700  0.99273300  0.67307700  1
  Cl  Cl84  1  0.19215400  0.31214100  0.95975000  1
  Cl  Cl85  1  0.83439400  0.72400400  0.88254500  1
  Cl  Cl86  1  0.44435200  0.95026700  0.41742500  1
  Cl  Cl87  1  0.65735600  0.76904700  0.29943400  1
  Cl  Cl88  1  0.10303000  0.69491400  0.64390400  1
  Cl  Cl89  1  0.84198400  0.70698400  0.36313700  1
  O  O90  1  0.11053300  0.34205100  0.49869200  1
  O  O91  1  0.72403500  0.69933700  0.08966200  1
  O  O92  1  0.82206600  0.35862200  0.70854900  1
  O  O93  1  0.15186500  0.31944500  0.70550600  1
  O  O94  1  0.44225900  0.54361000  0.51969100  1
  O  O95  1  0.80302400  0.04024800  0.18976300  1
  O  O96  1  0.32318500  0.06377400  0.06373300  1
  O  O97  1  0.48396700  0.62691000  0.70741900  1
  O  O98  1  0.84813500  0.31944500  0.20550600  1
  O  O99  1  0.51603300  0.62691000  0.20741900  1
  O  O100  1  0.01685300  0.03961600  0.79612200  1
  O  O101  1  0.17793400  0.35862200  0.20854900  1
  O  O102  1  0.27427900  0.52775800  0.03926200  1
  O  O103  1  0.38352200  0.10218000  0.56169900  1
  O  O104  1  0.98314700  0.03961600  0.29612200  1
  O  O105  1  0.27596500  0.69933700  0.58966200  1
  O  O106  1  0.04846400  0.04411600  0.58562600  1
  O  O107  1  0.12059400  0.03350600  0.40770300  1
  O  O108  1  0.87940600  0.03350600  0.90770300  1
  O  O109  1  0.69765400  0.10110800  0.77433500  1
  O  O110  1  0.95613900  0.33928900  0.80625900  1
  O  O111  1  0.21164800  0.01213900  0.90775900  1
  O  O112  1  0.96358900  0.34069200  0.59162900  1
  O  O113  1  0.54721500  0.33170800  0.68684600  1
  O  O114  1  0.32962000  0.45634200  0.76802300  1
  O  O115  1  0.30234600  0.10110800  0.27433500  1
  O  O116  1  0.78835200  0.01213900  0.40775900  1
  O  O117  1  0.30439000  0.36324300  0.59314000  1
  O  O118  1  0.72572100  0.52775800  0.53926200  1
  O  O119  1  0.61471800  0.73746100  0.57016600  1
  O  O120  1  0.95153600  0.04411600  0.08562600  1
  O  O121  1  0.88946700  0.34205100  0.99869200  1
  O  O122  1  0.03641100  0.34069200  0.09162900  1
  O  O123  1  0.67038000  0.45634200  0.26802300  1
  O  O124  1  0.38528200  0.73746100  0.07016600  1
  O  O125  1  0.69561000  0.36324300  0.09314000  1
  O  O126  1  0.13882400  0.04415500  0.18162100  1
  O  O127  1  0.50831200  0.27902900  0.91917200  1
  O  O128  1  0.45278500  0.33170800  0.18684600  1
  O  O129  1  0.49168800  0.27902900  0.41917200  1
  O  O130  1  0.67681500  0.06377400  0.56373300  1
  O  O131  1  0.07358600  0.65874700  0.10577200  1
  O  O132  1  0.19697600  0.04024800  0.68976300  1
  O  O133  1  0.04386100  0.33928900  0.30625900  1
  O  O134  1  0.92641400  0.65874700  0.60577200  1
  O  O135  1  0.61647800  0.10218000  0.06169900  1
  O  O136  1  0.86117600  0.04415500  0.68162100  1
  O  O137  1  0.55774100  0.54361000  0.01969100  1
