# generated using pymatgen
data_Eu2O3
_symmetry_space_group_name_H-M   'P 1'
_cell_length_a   3.65052600
_cell_length_b   7.44270596
_cell_length_c   8.94834393
_cell_angle_alpha   99.95181377
_cell_angle_beta   90.00000000
_cell_angle_gamma   104.19612693
_symmetry_Int_Tables_number   1
_chemical_formula_structural   Eu2O3
_chemical_formula_sum   'Eu6 O9'
_cell_volume   231.92481472
_cell_formula_units_Z   3
loop_
 _symmetry_equiv_pos_site_id
 _symmetry_equiv_pos_as_xyz
  1  'x, y, z'
loop_
 _atom_site_type_symbol
 _atom_site_label
 _atom_site_symmetry_multiplicity
 _atom_site_fract_x
 _atom_site_fract_y
 _atom_site_fract_z
 _atom_site_occupancy
  Eu  Eu0  1  0.31063100  0.62126200  0.86634800  1
  Eu  Eu1  1  0.36286500  0.72573000  0.50975700  1
  Eu  Eu2  1  0.02972500  0.05944900  0.81286900  1
  Eu  Eu3  1  0.68936900  0.37873800  0.13365200  1
  Eu  Eu4  1  0.97027500  0.94055100  0.18713100  1
  Eu  Eu5  1  0.63713500  0.27427000  0.49024300  1
  O  O6  1  0.79160800  0.58321600  0.37985700  1
  O  O7  1  0.20839200  0.41678400  0.62014300  1
  O  O8  1  0.87453300  0.74906500  0.71047800  1
  O  O9  1  0.50000000  0.00000000  0.00000000  1
  O  O10  1  0.53023400  0.06046900  0.65874000  1
  O  O11  1  0.46976600  0.93953100  0.34126000  1
  O  O12  1  0.12546700  0.25093500  0.28952200  1
  O  O13  1  0.82637000  0.65274000  0.03046800  1
  O  O14  1  0.17363000  0.34726000  0.96953200  1
