# generated using pymatgen
data_Sc3OsC4
_symmetry_space_group_name_H-M   'P 1'
_cell_length_a   6.81012942
_cell_length_b   6.81012942
_cell_length_c   6.81012942
_cell_angle_alpha   151.59595659
_cell_angle_beta   141.42032019
_cell_angle_gamma   48.59657604
_symmetry_Int_Tables_number   1
_chemical_formula_structural   Sc3OsC4
_chemical_formula_sum   'Sc3 Os1 C4'
_cell_volume   93.32201634
_cell_formula_units_Z   1
loop_
 _symmetry_equiv_pos_site_id
 _symmetry_equiv_pos_as_xyz
  1  'x, y, z'
loop_
 _atom_site_type_symbol
 _atom_site_label
 _atom_site_symmetry_multiplicity
 _atom_site_fract_x
 _atom_site_fract_y
 _atom_site_fract_z
 _atom_site_occupancy
  Sc  Sc0  1  0.50000000  0.50000000  0.00000000  1
  Sc  Sc1  1  0.80922200  0.30922200  0.50000000  1
  Sc  Sc2  1  0.19077800  0.69077800  0.50000000  1
  Os  Os3  1  0.00000000  0.00000000  0.00000000  1
  C  C4  1  0.21167800  0.87224900  0.33943000  1
  C  C5  1  0.78832200  0.12775100  0.66057000  1
  C  C6  1  0.46718100  0.12775100  0.33943000  1
  C  C7  1  0.53281900  0.87224900  0.66057000  1
