# generated using pymatgen
data_Mn3Al2(SiO4)3
_symmetry_space_group_name_H-M   'P 1'
_cell_length_a   10.16977962
_cell_length_b   10.16977962
_cell_length_c   10.16977962
_cell_angle_alpha   109.47122063
_cell_angle_beta   109.47122063
_cell_angle_gamma   109.47122063
_symmetry_Int_Tables_number   1
_chemical_formula_structural   Mn3Al2(SiO4)3
_chemical_formula_sum   'Mn12 Al8 Si12 O48'
_cell_volume   809.67873710
_cell_formula_units_Z   4
loop_
 _symmetry_equiv_pos_site_id
 _symmetry_equiv_pos_as_xyz
  1  'x, y, z'
loop_
 _atom_site_type_symbol
 _atom_site_label
 _atom_site_symmetry_multiplicity
 _atom_site_fract_x
 _atom_site_fract_y
 _atom_site_fract_z
 _atom_site_occupancy
  Mn  Mn0  1  0.37500000  0.12500000  0.25000000  1
  Mn  Mn1  1  0.75000000  0.12500000  0.37500000  1
  Mn  Mn2  1  0.25000000  0.37500000  0.12500000  1
  Mn  Mn3  1  0.37500000  0.75000000  0.12500000  1
  Mn  Mn4  1  0.12500000  0.37500000  0.75000000  1
  Mn  Mn5  1  0.12500000  0.25000000  0.37500000  1
  Mn  Mn6  1  0.62500000  0.25000000  0.87500000  1
  Mn  Mn7  1  0.25000000  0.87500000  0.62500000  1
  Mn  Mn8  1  0.62500000  0.87500000  0.75000000  1
  Mn  Mn9  1  0.87500000  0.62500000  0.25000000  1
  Mn  Mn10  1  0.87500000  0.75000000  0.62500000  1
  Mn  Mn11  1  0.75000000  0.62500000  0.87500000  1
  Al  Al12  1  0.50000000  0.00000000  0.00000000  1
  Al  Al13  1  0.50000000  0.50000000  0.50000000  1
  Al  Al14  1  0.50000000  0.00000000  0.50000000  1
  Al  Al15  1  0.00000000  0.00000000  0.50000000  1
  Al  Al16  1  0.00000000  0.00000000  0.00000000  1
  Al  Al17  1  0.00000000  0.50000000  0.50000000  1
  Al  Al18  1  0.50000000  0.50000000  0.00000000  1
  Al  Al19  1  0.00000000  0.50000000  0.00000000  1
  Si  Si20  1  0.62500000  0.37500000  0.25000000  1
  Si  Si21  1  0.87500000  0.12500000  0.75000000  1
  Si  Si22  1  0.25000000  0.62500000  0.37500000  1
  Si  Si23  1  0.62500000  0.75000000  0.37500000  1
  Si  Si24  1  0.37500000  0.25000000  0.62500000  1
  Si  Si25  1  0.37500000  0.62500000  0.75000000  1
  Si  Si26  1  0.25000000  0.12500000  0.87500000  1
  Si  Si27  1  0.12500000  0.87500000  0.25000000  1
  Si  Si28  1  0.75000000  0.37500000  0.62500000  1
  Si  Si29  1  0.87500000  0.25000000  0.12500000  1
  Si  Si30  1  0.75000000  0.87500000  0.12500000  1
  Si  Si31  1  0.12500000  0.75000000  0.87500000  1
  O  O32  1  0.58215000  0.89506000  0.38269800  1
  O  O33  1  0.38269800  0.58215000  0.89506000  1
  O  O34  1  0.30054700  0.31290900  0.91785000  1
  O  O35  1  0.48763800  0.60494000  0.18709100  1
  O  O36  1  0.31290900  0.89506000  0.01236200  1
  O  O37  1  0.11730200  0.01236200  0.19945300  1
  O  O38  1  0.38269800  0.30054700  0.48763800  1
  O  O39  1  0.89506000  0.38269800  0.58215000  1
  O  O40  1  0.18709100  0.19945300  0.58215000  1
  O  O41  1  0.48763800  0.38269800  0.30054700  1
  O  O42  1  0.89506000  0.01236200  0.31290900  1
  O  O43  1  0.60494000  0.91785000  0.11730200  1
  O  O44  1  0.91785000  0.11730200  0.60494000  1
  O  O45  1  0.30054700  0.48763800  0.38269800  1
  O  O46  1  0.58215000  0.18709100  0.19945300  1
  O  O47  1  0.19945300  0.58215000  0.18709100  1
  O  O48  1  0.01236200  0.31290900  0.89506000  1
  O  O49  1  0.91785000  0.30054700  0.31290900  1
  O  O50  1  0.01236200  0.19945300  0.11730200  1
  O  O51  1  0.81290900  0.80054700  0.41785000  1
  O  O52  1  0.18709100  0.48763800  0.60494000  1
  O  O53  1  0.60494000  0.18709100  0.48763800  1
  O  O54  1  0.19945300  0.11730200  0.01236200  1
  O  O55  1  0.11730200  0.60494000  0.91785000  1
  O  O56  1  0.41785000  0.10494000  0.61730200  1
  O  O57  1  0.61730200  0.41785000  0.10494000  1
  O  O58  1  0.69945300  0.68709100  0.08215000  1
  O  O59  1  0.51236200  0.39506000  0.81290900  1
  O  O60  1  0.68709100  0.10494000  0.98763800  1
  O  O61  1  0.88269800  0.98763800  0.80054700  1
  O  O62  1  0.61730200  0.69945300  0.51236200  1
  O  O63  1  0.10494000  0.61730200  0.41785000  1
  O  O64  1  0.88269800  0.39506000  0.08215000  1
  O  O65  1  0.80054700  0.88269800  0.98763800  1
  O  O66  1  0.39506000  0.81290900  0.51236200  1
  O  O67  1  0.68709100  0.08215000  0.69945300  1
  O  O68  1  0.81290900  0.51236200  0.39506000  1
  O  O69  1  0.98763800  0.80054700  0.88269800  1
  O  O70  1  0.08215000  0.69945300  0.68709100  1
  O  O71  1  0.98763800  0.68709100  0.10494000  1
  O  O72  1  0.80054700  0.41785000  0.81290900  1
  O  O73  1  0.41785000  0.81290900  0.80054700  1
  O  O74  1  0.69945300  0.51236200  0.61730200  1
  O  O75  1  0.08215000  0.88269800  0.39506000  1
  O  O76  1  0.39506000  0.08215000  0.88269800  1
  O  O77  1  0.10494000  0.98763800  0.68709100  1
  O  O78  1  0.51236200  0.61730200  0.69945300  1
  O  O79  1  0.31290900  0.91785000  0.30054700  1
