# generated using pymatgen
data_SrMg6B
_symmetry_space_group_name_H-M   'P 1'
_cell_length_a   7.60657784
_cell_length_b   7.60657784
_cell_length_c   4.66552000
_cell_angle_alpha   90.00000000
_cell_angle_beta   90.00000000
_cell_angle_gamma   134.51911264
_symmetry_Int_Tables_number   1
_chemical_formula_structural   SrMg6B
_chemical_formula_sum   'Sr1 Mg6 B1'
_cell_volume   192.47677149
_cell_formula_units_Z   1
loop_
 _symmetry_equiv_pos_site_id
 _symmetry_equiv_pos_as_xyz
  1  'x, y, z'
loop_
 _atom_site_type_symbol
 _atom_site_label
 _atom_site_symmetry_multiplicity
 _atom_site_fract_x
 _atom_site_fract_y
 _atom_site_fract_z
 _atom_site_occupancy
  Sr  Sr0  1  0.79899000  0.20101000  0.50000000  1
  Mg  Mg1  1  0.30124000  0.19159400  0.50000000  1
  Mg  Mg2  1  0.80840600  0.69876000  0.50000000  1
  Mg  Mg3  1  0.18659300  0.34840000  0.00000000  1
  Mg  Mg4  1  0.65160000  0.81340700  0.00000000  1
  Mg  Mg5  1  0.63225200  0.36774800  0.00000000  1
  Mg  Mg6  1  0.20339400  0.79660600  0.00000000  1
  B  B7  1  0.41752400  0.58247600  0.50000000  1
