# generated using pymatgen
data_KCo(CO)4
_symmetry_space_group_name_H-M   'P 1'
_cell_length_a   5.73825200
_cell_length_b   11.35681686
_cell_length_c   12.15439749
_cell_angle_alpha   97.83149546
_cell_angle_beta   103.54278819
_cell_angle_gamma   104.57674144
_symmetry_Int_Tables_number   1
_chemical_formula_structural   KCo(CO)4
_chemical_formula_sum   'K4 Co4 C16 O16'
_cell_volume   729.05668227
_cell_formula_units_Z   4
loop_
 _symmetry_equiv_pos_site_id
 _symmetry_equiv_pos_as_xyz
  1  'x, y, z'
loop_
 _atom_site_type_symbol
 _atom_site_label
 _atom_site_symmetry_multiplicity
 _atom_site_fract_x
 _atom_site_fract_y
 _atom_site_fract_z
 _atom_site_occupancy
  K  K0  1  0.94252800  0.21453100  0.05868600  1
  K  K1  1  0.66460400  0.29024500  0.44471400  1
  K  K2  1  0.06618100  0.78645000  0.93903600  1
  K  K3  1  0.33622500  0.71372700  0.55590900  1
  Co  Co4  1  0.43460600  0.51115600  0.25570500  1
  Co  Co5  1  0.33265300  0.01019000  0.75584000  1
  Co  Co6  1  0.66695500  0.99155100  0.24461800  1
  Co  Co7  1  0.57225700  0.49027600  0.74384000  1
  C  C8  1  0.46347600  0.60096800  0.81229200  1
  C  C9  1  0.54346300  0.92155700  0.34629300  1
  C  C10  1  0.70955200  0.62420700  0.33860600  1
  C  C11  1  0.27766000  0.58104100  0.15456900  1
  C  C12  1  0.76545000  0.53726300  0.65759100  1
  C  C13  1  0.73935600  0.87566300  0.16194600  1
  C  C14  1  0.72784400  0.42064300  0.84568700  1
  C  C15  1  0.25204200  0.12423400  0.83709700  1
  C  C16  1  0.54530900  0.39983400  0.18946200  1
  C  C17  1  0.43281400  0.03839100  0.15978800  1
  C  C18  1  0.29846600  0.37554500  0.66296100  1
  C  C19  1  0.23153400  0.46250200  0.33719400  1
  C  C20  1  0.46057400  0.08003800  0.65529600  1
  C  C21  1  0.04507500  0.89984100  0.68785700  1
  C  C22  1  0.95620300  0.10158800  0.31071900  1
  C  C23  1  0.56696000  0.96206300  0.83907200  1
  O  O24  1  0.89767000  0.56082400  0.59729700  1
  O  O25  1  0.45884500  0.86911000  0.41118000  1
  O  O26  1  0.55035400  0.12988900  0.59043000  1
  O  O27  1  0.37555700  0.67128400  0.85604100  1
  O  O28  1  0.84193000  0.83108000  0.64428400  1
  O  O29  1  0.19123000  0.20084000  0.88839100  1
  O  O30  1  0.63482300  0.32887200  0.14758300  1
  O  O31  1  0.89908400  0.69956900  0.39074300  1
  O  O32  1  0.11029300  0.29983800  0.61002300  1
  O  O33  1  0.26359200  0.06101500  0.09884300  1
  O  O34  1  0.17070900  0.62976400  0.08933800  1
  O  O35  1  0.82113600  0.36883300  0.91223900  1
  O  O36  1  0.15966900  0.17110100  0.35209100  1
  O  O37  1  0.73467300  0.93530600  0.89646600  1
  O  O38  1  0.09332200  0.43576200  0.39433200  1
  O  O39  1  0.79400300  0.79787400  0.10865700  1
