# generated using pymatgen
data_InRe2C10BrO10
_symmetry_space_group_name_H-M   'P 1'
_cell_length_a   13.25672700
_cell_length_b   10.75726600
_cell_length_c   25.76883046
_cell_angle_alpha   82.57418315
_cell_angle_beta   90.00000000
_cell_angle_gamma   90.00000000
_symmetry_Int_Tables_number   1
_chemical_formula_structural   InRe2C10BrO10
_chemical_formula_sum   'In8 Re16 C80 Br8 O80'
_cell_volume   3643.97301938
_cell_formula_units_Z   8
loop_
 _symmetry_equiv_pos_site_id
 _symmetry_equiv_pos_as_xyz
  1  'x, y, z'
loop_
 _atom_site_type_symbol
 _atom_site_label
 _atom_site_symmetry_multiplicity
 _atom_site_fract_x
 _atom_site_fract_y
 _atom_site_fract_z
 _atom_site_occupancy
  In  In0  1  0.29363600  0.49045600  0.26838500  1
  In  In1  1  0.78005300  0.92991300  0.39054500  1
  In  In2  1  0.71994700  0.42991300  0.89054500  1
  In  In3  1  0.70636400  0.50954400  0.73161500  1
  In  In4  1  0.79363600  0.00954400  0.23161500  1
  In  In5  1  0.20636400  0.99045600  0.76838500  1
  In  In6  1  0.21994700  0.07008700  0.60945500  1
  In  In7  1  0.28005300  0.57008700  0.10945500  1
  Re  Re8  1  0.16694300  0.32132900  0.56763500  1
  Re  Re9  1  0.85923600  0.81143300  0.17512600  1
  Re  Re10  1  0.20983700  0.36854500  0.05748300  1
  Re  Re11  1  0.35923600  0.68856700  0.32487400  1
  Re  Re12  1  0.79016300  0.63145500  0.94251700  1
  Re  Re13  1  0.83305700  0.67867100  0.43236500  1
  Re  Re14  1  0.33305700  0.82132900  0.06763500  1
  Re  Re15  1  0.23604800  0.24438300  0.31560900  1
  Re  Re16  1  0.29016300  0.86854500  0.55748300  1
  Re  Re17  1  0.73604800  0.25561700  0.18439100  1
  Re  Re18  1  0.66694300  0.17867100  0.93236500  1
  Re  Re19  1  0.26395200  0.74438300  0.81560900  1
  Re  Re20  1  0.14076400  0.18856700  0.82487400  1
  Re  Re21  1  0.64076400  0.31143300  0.67512600  1
  Re  Re22  1  0.76395200  0.75561700  0.68439100  1
  Re  Re23  1  0.70983700  0.13145500  0.44251700  1
  C  C24  1  0.34233100  0.71515700  0.75199300  1
  C  C25  1  0.33999400  0.73451400  0.51970600  1
  C  C26  1  0.80092900  0.91489500  0.64356800  1
  C  C27  1  0.35919400  0.74996300  0.00108700  1
  C  C28  1  0.81807600  0.20758800  0.12510600  1
  C  C29  1  0.58833300  0.13124700  0.39629800  1
  C  C30  1  0.29489400  0.86643000  0.13819700  1
  C  C31  1  0.84233100  0.78484300  0.74800700  1
  C  C32  1  0.02900700  0.26932300  0.59423700  1
  C  C33  1  0.83895700  0.11439100  0.48278600  1
  C  C34  1  0.78088800  0.24535300  0.38632700  1
  C  C35  1  0.66000600  0.26548600  0.48029400  1
  C  C36  1  0.71911200  0.74535300  0.88632700  1
  C  C37  1  0.68192400  0.70758800  0.62510600  1
  C  C38  1  0.72486700  0.40090400  0.61794500  1
  C  C39  1  0.64080600  0.25003700  0.99891300  1
  C  C40  1  0.65005000  0.99291800  0.49195800  1
  C  C41  1  0.66104300  0.61439100  0.98278600  1
  C  C42  1  0.37526800  0.98983900  0.03806800  1
  C  C43  1  0.88210200  0.66113500  0.66056800  1
  C  C44  1  0.85710000  0.32415800  0.21791300  1
  C  C45  1  0.97099300  0.73067700  0.40576300  1
  C  C46  1  0.20510600  0.36643000  0.63819700  1
  C  C47  1  0.11789800  0.33886500  0.33943200  1
  C  C48  1  0.02441000  0.07325600  0.84505200  1
  C  C49  1  0.40367600  0.81191100  0.36943600  1
  C  C50  1  0.87526800  0.51016100  0.46193200  1
  C  C51  1  0.69907100  0.41489500  0.14356800  1
  C  C52  1  0.52900700  0.23067700  0.90576300  1
  C  C53  1  0.81144400  0.15289200  0.95402700  1
  C  C54  1  0.90367600  0.68808900  0.13056400  1
  C  C55  1  0.56704800  0.24273000  0.74066200  1
  C  C56  1  0.14080600  0.24996300  0.50108700  1
  C  C57  1  0.91166700  0.63124700  0.89629800  1
  C  C58  1  0.16104300  0.88560900  0.51721400  1
  C  C59  1  0.21911200  0.75464700  0.61367300  1
  C  C60  1  0.85919400  0.75003700  0.49891300  1
  C  C61  1  0.70510600  0.13357000  0.86180300  1
  C  C62  1  0.28088800  0.25464700  0.11367300  1
  C  C63  1  0.73848400  0.70965400  0.20221200  1
  C  C64  1  0.64290000  0.82415800  0.71791300  1
  C  C65  1  0.97559000  0.92674400  0.15494800  1
  C  C66  1  0.18192400  0.79241200  0.87489400  1
  C  C67  1  0.16000600  0.23451400  0.01970600  1
  C  C68  1  0.59632400  0.18808900  0.63056400  1
  C  C69  1  0.62473200  0.01016100  0.96193200  1
  C  C70  1  0.41166700  0.86875300  0.60370200  1
  C  C71  1  0.09632400  0.31191100  0.86943600  1
  C  C72  1  0.65766900  0.28484300  0.24800700  1
  C  C73  1  0.14290000  0.67584200  0.78208700  1
  C  C74  1  0.43295200  0.75727000  0.25933800  1
  C  C75  1  0.76151600  0.20965400  0.70221200  1
  C  C76  1  0.18855600  0.84710800  0.04597300  1
  C  C77  1  0.06704800  0.25727000  0.75933800  1
  C  C78  1  0.12473200  0.48983900  0.53806800  1
  C  C79  1  0.47559000  0.57325600  0.34505200  1
  C  C80  1  0.79489400  0.63357000  0.36180300  1
  C  C81  1  0.19907100  0.08510500  0.35643200  1
  C  C82  1  0.26151600  0.29034600  0.79778800  1
  C  C83  1  0.61789800  0.16113500  0.16056800  1
  C  C84  1  0.47099300  0.76932300  0.09423700  1
  C  C85  1  0.77513300  0.90090400  0.11794500  1
  C  C86  1  0.15005000  0.50708200  0.00804200  1
  C  C87  1  0.15766900  0.21515700  0.25199300  1
  C  C88  1  0.83999400  0.76548600  0.98029400  1
  C  C89  1  0.68855600  0.65289200  0.45402700  1
  C  C90  1  0.93295200  0.74273000  0.24066200  1
  C  C91  1  0.30092900  0.58510500  0.85643200  1
  C  C92  1  0.23848400  0.79034600  0.29778800  1
  C  C93  1  0.84995000  0.49291800  0.99195800  1
  C  C94  1  0.31807600  0.29241200  0.37489400  1
  C  C95  1  0.22486700  0.09909600  0.88205500  1
  C  C96  1  0.27513300  0.59909600  0.38205500  1
  C  C97  1  0.34995000  0.00708200  0.50804200  1
  C  C98  1  0.08833300  0.36875300  0.10370200  1
  C  C99  1  0.38210200  0.83886500  0.83943200  1
  C  C100  1  0.52441000  0.42674400  0.65494800  1
  C  C101  1  0.31144400  0.34710800  0.54597300  1
  C  C102  1  0.35710000  0.17584200  0.28208700  1
  C  C103  1  0.33895700  0.38560900  0.01721400  1
  Br  Br104  1  0.34758700  0.08494800  0.69407500  1
  Br  Br105  1  0.15241300  0.58494800  0.19407500  1
  Br  Br106  1  0.07668200  0.97755600  0.68405100  1
  Br  Br107  1  0.65241300  0.91505200  0.30592500  1
  Br  Br108  1  0.92331800  0.02244400  0.31594900  1
  Br  Br109  1  0.84758700  0.41505200  0.80592500  1
  Br  Br110  1  0.57668200  0.52244400  0.81594900  1
  Br  Br111  1  0.42331800  0.47755600  0.18405100  1
  O  O112  1  0.04950300  0.39538600  0.35229000  1
  O  O113  1  0.11646500  0.58902700  0.97949200  1
  O  O114  1  0.86675800  0.84708600  0.00269200  1
  O  O115  1  0.01888000  0.36520500  0.13086400  1
  O  O116  1  0.36675800  0.65291400  0.49730800  1
  O  O117  1  0.41397100  0.40010400  0.99380300  1
  O  O118  1  0.98112000  0.63479500  0.86913600  1
  O  O119  1  0.58602900  0.59989600  0.00619700  1
  O  O120  1  0.04325200  0.99216100  0.14186800  1
  O  O121  1  0.22948600  0.39602400  0.67802800  1
  O  O122  1  0.87286900  0.79053000  0.53784700  1
  O  O123  1  0.12713100  0.20947000  0.46215300  1
  O  O124  1  0.63747500  0.67571400  0.59036600  1
  O  O125  1  0.97372400  0.70257900  0.27905700  1
  O  O126  1  0.32258000  0.18913800  0.14618100  1
  O  O127  1  0.72583400  0.95406300  0.08483900  1
  O  O128  1  0.48112000  0.86520500  0.63086400  1
  O  O129  1  0.55129000  0.74277800  0.10915800  1
  O  O130  1  0.92795200  0.61627800  0.10281900  1
  O  O131  1  0.77416600  0.45406300  0.58483900  1
  O  O132  1  0.32157700  0.49298200  0.88324700  1
  O  O133  1  0.82258000  0.31086200  0.35381900  1
  O  O134  1  0.42441800  0.13325200  0.26164900  1
  O  O135  1  0.60356100  0.64569600  0.46510300  1
  O  O136  1  0.42795200  0.88372200  0.39718100  1
  O  O137  1  0.82944200  0.14967000  0.71918400  1
  O  O138  1  0.57558200  0.86674800  0.73835100  1
  O  O139  1  0.60029300  0.91007200  0.98029000  1
  O  O140  1  0.17842300  0.99298200  0.38324700  1
  O  O141  1  0.13324200  0.15291400  0.99730800  1
  O  O142  1  0.77051400  0.60397600  0.32197200  1
  O  O143  1  0.38353500  0.08902700  0.47949200  1
  O  O144  1  0.67742000  0.81086200  0.85381900  1
  O  O145  1  0.82157700  0.00701800  0.61675300  1
  O  O146  1  0.32944200  0.35033000  0.78081600  1
  O  O147  1  0.54950300  0.10461400  0.14771000  1
  O  O148  1  0.67842300  0.50701800  0.11675300  1
  O  O149  1  0.88353500  0.41097300  0.02050800  1
  O  O150  1  0.38667600  0.69416600  0.71520900  1
  O  O151  1  0.54325200  0.50783900  0.35813200  1
  O  O152  1  0.51888000  0.13479500  0.36913600  1
  O  O153  1  0.72948600  0.10397600  0.82197200  1
  O  O154  1  0.44871000  0.25722200  0.89084200  1
  O  O155  1  0.05129000  0.75722200  0.39084200  1
  O  O156  1  0.07558200  0.63325200  0.76164900  1
  O  O157  1  0.10029300  0.58992800  0.51971000  1
  O  O158  1  0.08602900  0.90010400  0.49380300  1
  O  O159  1  0.89643900  0.14569600  0.96510300  1
  O  O160  1  0.88667600  0.80583400  0.78479100  1
  O  O161  1  0.27051400  0.89602400  0.17802800  1
  O  O162  1  0.47372400  0.79742100  0.22094300  1
  O  O163  1  0.89970700  0.41007200  0.48029000  1
  O  O164  1  0.39970700  0.08992800  0.01971000  1
  O  O165  1  0.91397100  0.09989600  0.50619700  1
  O  O166  1  0.63324200  0.34708600  0.50269200  1
  O  O167  1  0.92441800  0.36674800  0.23835100  1
  O  O168  1  0.95049700  0.60461400  0.64771000  1
  O  O169  1  0.13747500  0.82428600  0.90963400  1
  O  O170  1  0.95674800  0.00783900  0.85813200  1
  O  O171  1  0.39643900  0.35430400  0.53489700  1
  O  O172  1  0.37286900  0.70947000  0.96215300  1
  O  O173  1  0.45674800  0.49216100  0.64186800  1
  O  O174  1  0.10356100  0.85430400  0.03489700  1
  O  O175  1  0.61646500  0.91097300  0.52050800  1
  O  O176  1  0.17055800  0.85033000  0.28081600  1
  O  O177  1  0.22583400  0.54593700  0.41516100  1
  O  O178  1  0.27416600  0.04593700  0.91516100  1
  O  O179  1  0.86252500  0.17571400  0.09036600  1
  O  O180  1  0.57204800  0.11627800  0.60281900  1
  O  O181  1  0.02627600  0.29742100  0.72094300  1
  O  O182  1  0.94871000  0.24277800  0.60915800  1
  O  O183  1  0.17742000  0.68913800  0.64618100  1
  O  O184  1  0.52627600  0.20257900  0.77905700  1
  O  O185  1  0.45049700  0.89538600  0.85229000  1
  O  O186  1  0.67055800  0.64967000  0.21918400  1
  O  O187  1  0.61332400  0.30583400  0.28479100  1
  O  O188  1  0.11332400  0.19416600  0.21520900  1
  O  O189  1  0.07204800  0.38372200  0.89718100  1
  O  O190  1  0.36252500  0.32428600  0.40963400  1
  O  O191  1  0.62713100  0.29053000  0.03784700  1
