# generated using pymatgen
data_Te2Ru4(CO)11
_symmetry_space_group_name_H-M   'P 1'
_cell_length_a   6.99037800
_cell_length_b   16.51006700
_cell_length_c   18.16450800
_cell_angle_alpha   90.00000000
_cell_angle_beta   90.00000000
_cell_angle_gamma   90.00000000
_symmetry_Int_Tables_number   1
_chemical_formula_structural   Te2Ru4(CO)11
_chemical_formula_sum   'Te8 Ru16 C44 O44'
_cell_volume   2096.39509743
_cell_formula_units_Z   4
loop_
 _symmetry_equiv_pos_site_id
 _symmetry_equiv_pos_as_xyz
  1  'x, y, z'
loop_
 _atom_site_type_symbol
 _atom_site_label
 _atom_site_symmetry_multiplicity
 _atom_site_fract_x
 _atom_site_fract_y
 _atom_site_fract_z
 _atom_site_occupancy
  Te  Te0  1  0.99508700  0.29210800  0.73548800  1
  Te  Te1  1  0.50491300  0.29210800  0.23548800  1
  Te  Te2  1  0.00491300  0.70789200  0.26451200  1
  Te  Te3  1  0.50491300  0.20789200  0.73548800  1
  Te  Te4  1  0.49508700  0.79210800  0.26451200  1
  Te  Te5  1  0.49508700  0.70789200  0.76451200  1
  Te  Te6  1  0.00491300  0.79210800  0.76451200  1
  Te  Te7  1  0.99508700  0.20789200  0.23548800  1
  Ru  Ru8  1  0.17337200  0.66953200  0.84943600  1
  Ru  Ru9  1  0.67106300  0.33482300  0.81109600  1
  Ru  Ru10  1  0.17337200  0.83046800  0.34943600  1
  Ru  Ru11  1  0.32893700  0.83482300  0.68890400  1
  Ru  Ru12  1  0.82662800  0.33046800  0.15056400  1
  Ru  Ru13  1  0.32893700  0.66517700  0.18890400  1
  Ru  Ru14  1  0.82893700  0.33482300  0.31109600  1
  Ru  Ru15  1  0.82662800  0.16953200  0.65056400  1
  Ru  Ru16  1  0.67337200  0.33046800  0.65056400  1
  Ru  Ru17  1  0.17106300  0.83482300  0.18890400  1
  Ru  Ru18  1  0.32662800  0.83046800  0.84943600  1
  Ru  Ru19  1  0.82893700  0.16517700  0.81109600  1
  Ru  Ru20  1  0.17106300  0.66517700  0.68890400  1
  Ru  Ru21  1  0.67337200  0.16953200  0.15056400  1
  Ru  Ru22  1  0.67106300  0.16517700  0.31109600  1
  Ru  Ru23  1  0.32662800  0.66953200  0.34943600  1
  C  C24  1  0.56021100  0.86070400  0.89341100  1
  C  C25  1  0.08841000  0.92965800  0.24112700  1
  C  C26  1  0.43978900  0.13929600  0.10658900  1
  C  C27  1  0.41159000  0.57034200  0.24112700  1
  C  C28  1  0.20552100  0.91907800  0.89515400  1
  C  C29  1  0.70552100  0.08092200  0.60484600  1
  C  C30  1  0.17333700  0.88709100  0.61769100  1
  C  C31  1  0.46789500  0.16907900  0.38014400  1
  C  C32  1  0.82666300  0.38709100  0.88230900  1
  C  C33  1  0.75000000  0.25000000  0.06793100  1
  C  C34  1  0.91159000  0.07034200  0.75887300  1
  C  C35  1  0.06021100  0.13929600  0.60658900  1
  C  C36  1  0.93978900  0.63929600  0.89341100  1
  C  C37  1  0.58841000  0.42965800  0.75887300  1
  C  C38  1  0.20552100  0.58092200  0.39515400  1
  C  C39  1  0.32666300  0.61290900  0.61769100  1
  C  C40  1  0.67333700  0.38709100  0.38230900  1
  C  C41  1  0.03210500  0.16907900  0.88014400  1
  C  C42  1  0.08841000  0.57034200  0.74112700  1
  C  C43  1  0.29447900  0.91907800  0.39515400  1
  C  C44  1  0.56021100  0.63929600  0.39341100  1
  C  C45  1  0.53210500  0.83092100  0.61985600  1
  C  C46  1  0.82666300  0.11290900  0.38230900  1
  C  C47  1  0.93978900  0.86070400  0.39341100  1
  C  C48  1  0.03210500  0.33092100  0.38014400  1
  C  C49  1  0.17333700  0.61290900  0.11769100  1
  C  C50  1  0.46789500  0.33092100  0.88014400  1
  C  C51  1  0.58841000  0.07034200  0.25887300  1
  C  C52  1  0.75000000  0.25000000  0.56793100  1
  C  C53  1  0.29447900  0.58092200  0.89515400  1
  C  C54  1  0.79447900  0.41907800  0.60484600  1
  C  C55  1  0.67333700  0.11290900  0.88230900  1
  C  C56  1  0.41159000  0.92965800  0.74112700  1
  C  C57  1  0.32666300  0.88709100  0.11769100  1
  C  C58  1  0.91159000  0.42965800  0.25887300  1
  C  C59  1  0.96789500  0.66907900  0.61985600  1
  C  C60  1  0.25000000  0.75000000  0.43206900  1
  C  C61  1  0.25000000  0.75000000  0.93206900  1
  C  C62  1  0.70552100  0.41907800  0.10484600  1
  C  C63  1  0.79447900  0.08092200  0.10484600  1
  C  C64  1  0.96789500  0.83092100  0.11985600  1
  C  C65  1  0.43978900  0.36070400  0.60658900  1
  C  C66  1  0.06021100  0.36070400  0.10658900  1
  C  C67  1  0.53210500  0.66907900  0.11985600  1
  O  O68  1  0.13161700  0.97383100  0.92354000  1
  O  O69  1  0.25000000  0.75000000  0.49728200  1
  O  O70  1  0.42175800  0.91938200  0.07441000  1
  O  O71  1  0.75000000  0.25000000  0.00271800  1
  O  O72  1  0.29546800  0.37897200  0.57941500  1
  O  O73  1  0.65223300  0.82851200  0.57593500  1
  O  O74  1  0.20453200  0.37897200  0.07941500  1
  O  O75  1  0.47345700  0.50532200  0.25116800  1
  O  O76  1  0.52654300  0.00532200  0.24883200  1
  O  O77  1  0.15223300  0.32851200  0.42406500  1
  O  O78  1  0.25000000  0.75000000  0.99728200  1
  O  O79  1  0.57824200  0.41938200  0.42559000  1
  O  O80  1  0.86838300  0.47383100  0.57646000  1
  O  O81  1  0.07824200  0.58061800  0.07441000  1
  O  O82  1  0.79546800  0.87897200  0.42058500  1
  O  O83  1  0.92175800  0.41938200  0.92559000  1
  O  O84  1  0.75000000  0.25000000  0.50271800  1
  O  O85  1  0.70453200  0.87897200  0.92058500  1
  O  O86  1  0.57824200  0.08061800  0.92559000  1
  O  O87  1  0.36838300  0.52616900  0.92354000  1
  O  O88  1  0.97345700  0.00532200  0.74883200  1
  O  O89  1  0.13161700  0.52616900  0.42354000  1
  O  O90  1  0.52654300  0.49467800  0.74883200  1
  O  O91  1  0.34776700  0.32851200  0.92406500  1
  O  O92  1  0.63161700  0.02616900  0.57646000  1
  O  O93  1  0.29546800  0.12102800  0.07941500  1
  O  O94  1  0.84776700  0.67148800  0.57593500  1
  O  O95  1  0.63161700  0.47383100  0.07646000  1
  O  O96  1  0.86838300  0.02616900  0.07646000  1
  O  O97  1  0.36838300  0.97383100  0.42354000  1
  O  O98  1  0.84776700  0.82851200  0.07593500  1
  O  O99  1  0.42175800  0.58061800  0.57441000  1
  O  O100  1  0.70453200  0.62102800  0.42058500  1
  O  O101  1  0.79546800  0.62102800  0.92058500  1
  O  O102  1  0.97345700  0.49467800  0.24883200  1
  O  O103  1  0.47345700  0.99467800  0.75116800  1
  O  O104  1  0.07824200  0.91938200  0.57441000  1
  O  O105  1  0.34776700  0.17148800  0.42406500  1
  O  O106  1  0.02654300  0.50532200  0.75116800  1
  O  O107  1  0.02654300  0.99467800  0.25116800  1
  O  O108  1  0.15223300  0.17148800  0.92406500  1
  O  O109  1  0.92175800  0.08061800  0.42559000  1
  O  O110  1  0.20453200  0.12102800  0.57941500  1
  O  O111  1  0.65223300  0.67148800  0.07593500  1
