# generated using pymatgen
data_CsXe3O3F13
_symmetry_space_group_name_H-M   'P 1'
_cell_length_a   14.37818800
_cell_length_b   14.37818800
_cell_length_c   14.37818800
_cell_angle_alpha   90.00000000
_cell_angle_beta   90.00000000
_cell_angle_gamma   90.00000000
_symmetry_Int_Tables_number   1
_chemical_formula_structural   CsXe3O3F13
_chemical_formula_sum   'Cs8 Xe24 O24 F104'
_cell_volume   2972.43573364
_cell_formula_units_Z   8
loop_
 _symmetry_equiv_pos_site_id
 _symmetry_equiv_pos_as_xyz
  1  'x, y, z'
loop_
 _atom_site_type_symbol
 _atom_site_label
 _atom_site_symmetry_multiplicity
 _atom_site_fract_x
 _atom_site_fract_y
 _atom_site_fract_z
 _atom_site_occupancy
  Cs  Cs0  1  0.50000000  0.50000000  0.50000000  1
  Cs  Cs1  1  0.00000000  0.00000000  0.00000000  1
  Cs  Cs2  1  0.00000000  0.50000000  0.50000000  1
  Cs  Cs3  1  0.50000000  0.50000000  0.00000000  1
  Cs  Cs4  1  0.50000000  0.00000000  0.00000000  1
  Cs  Cs5  1  0.00000000  0.00000000  0.50000000  1
  Cs  Cs6  1  0.50000000  0.00000000  0.50000000  1
  Cs  Cs7  1  0.00000000  0.50000000  0.00000000  1
  Xe  Xe8  1  0.02387200  0.74461700  0.25128400  1
  Xe  Xe9  1  0.74871600  0.97612800  0.25538300  1
  Xe  Xe10  1  0.74871600  0.52387200  0.75538300  1
  Xe  Xe11  1  0.74461700  0.25128400  0.02387200  1
  Xe  Xe12  1  0.24871600  0.97612800  0.24461700  1
  Xe  Xe13  1  0.97612800  0.25538300  0.74871600  1
  Xe  Xe14  1  0.52387200  0.75538300  0.74871600  1
  Xe  Xe15  1  0.24461700  0.25128400  0.47612800  1
  Xe  Xe16  1  0.74461700  0.24871600  0.52387200  1
  Xe  Xe17  1  0.47612800  0.25538300  0.75128400  1
  Xe  Xe18  1  0.25128400  0.47612800  0.24461700  1
  Xe  Xe19  1  0.75538300  0.75128400  0.02387200  1
  Xe  Xe20  1  0.25538300  0.75128400  0.47612800  1
  Xe  Xe21  1  0.47612800  0.24461700  0.25128400  1
  Xe  Xe22  1  0.75128400  0.02387200  0.75538300  1
  Xe  Xe23  1  0.24461700  0.24871600  0.97612800  1
  Xe  Xe24  1  0.25128400  0.02387200  0.74461700  1
  Xe  Xe25  1  0.02387200  0.75538300  0.75128400  1
  Xe  Xe26  1  0.75538300  0.74871600  0.52387200  1
  Xe  Xe27  1  0.25538300  0.74871600  0.97612800  1
  Xe  Xe28  1  0.75128400  0.47612800  0.25538300  1
  Xe  Xe29  1  0.97612800  0.24461700  0.24871600  1
  Xe  Xe30  1  0.24871600  0.52387200  0.74461700  1
  Xe  Xe31  1  0.52387200  0.74461700  0.24871600  1
  O  O32  1  0.10039200  0.25585200  0.77893400  1
  O  O33  1  0.25585200  0.72106600  0.60039200  1
  O  O34  1  0.75585200  0.72106600  0.89960800  1
  O  O35  1  0.22106600  0.89960800  0.74414800  1
  O  O36  1  0.60039200  0.24414800  0.22106600  1
  O  O37  1  0.39960800  0.74414800  0.27893400  1
  O  O38  1  0.27893400  0.10039200  0.24414800  1
  O  O39  1  0.27893400  0.39960800  0.74414800  1
  O  O40  1  0.60039200  0.25585200  0.72106600  1
  O  O41  1  0.72106600  0.89960800  0.75585200  1
  O  O42  1  0.77893400  0.10039200  0.25585200  1
  O  O43  1  0.22106600  0.60039200  0.24414800  1
  O  O44  1  0.24414800  0.22106600  0.60039200  1
  O  O45  1  0.10039200  0.24414800  0.27893400  1
  O  O46  1  0.25585200  0.77893400  0.10039200  1
  O  O47  1  0.89960800  0.75585200  0.72106600  1
  O  O48  1  0.75585200  0.77893400  0.39960800  1
  O  O49  1  0.74414800  0.22106600  0.89960800  1
  O  O50  1  0.77893400  0.39960800  0.75585200  1
  O  O51  1  0.74414800  0.27893400  0.39960800  1
  O  O52  1  0.89960800  0.74414800  0.22106600  1
  O  O53  1  0.39960800  0.75585200  0.77893400  1
  O  O54  1  0.24414800  0.27893400  0.10039200  1
  O  O55  1  0.72106600  0.60039200  0.25585200  1
  F  F56  1  0.50236600  0.31337900  0.37239000  1
  F  F57  1  0.67850200  0.45655600  0.13479200  1
  F  F58  1  0.48995100  0.12030800  0.32016200  1
  F  F59  1  0.95655600  0.13479200  0.82149800  1
  F  F60  1  0.67850200  0.04344400  0.63479200  1
  F  F61  1  0.37239000  0.50236600  0.31337900  1
  F  F62  1  0.45655600  0.36520800  0.17850200  1
  F  F63  1  0.63229200  0.05258300  0.82858300  1
  F  F64  1  0.62030800  0.32016200  0.01004900  1
  F  F65  1  0.05258300  0.67141700  0.13229200  1
  F  F66  1  0.04344400  0.86520800  0.17850200  1
  F  F67  1  0.95655600  0.36520800  0.32149800  1
  F  F68  1  0.12030800  0.32016200  0.48995100  1
  F  F69  1  0.30599100  0.30599100  0.30599100  1
  F  F70  1  0.82858300  0.86770800  0.55258300  1
  F  F71  1  0.51004900  0.87969200  0.67983800  1
  F  F72  1  0.44741700  0.17141700  0.13229200  1
  F  F73  1  0.62030800  0.17983800  0.51004900  1
  F  F74  1  0.94741700  0.17141700  0.36770800  1
  F  F75  1  0.55258300  0.82858300  0.86770800  1
  F  F76  1  0.19400900  0.69400900  0.80599100  1
  F  F77  1  0.82858300  0.63229200  0.05258300  1
  F  F78  1  0.18662100  0.87239000  0.50236600  1
  F  F79  1  0.17141700  0.13229200  0.44741700  1
  F  F80  1  0.86770800  0.55258300  0.82858300  1
  F  F81  1  0.31337900  0.37239000  0.50236600  1
  F  F82  1  0.05258300  0.82858300  0.63229200  1
  F  F83  1  0.94741700  0.32858300  0.86770800  1
  F  F84  1  0.12030800  0.17983800  0.98995100  1
  F  F85  1  0.49763400  0.81337900  0.12761000  1
  F  F86  1  0.86770800  0.94741700  0.32858300  1
  F  F87  1  0.81337900  0.37239000  0.99763400  1
  F  F88  1  0.82149800  0.54344400  0.63479200  1
  F  F89  1  0.80599100  0.30599100  0.19400900  1
  F  F90  1  0.87969200  0.67983800  0.51004900  1
  F  F91  1  0.87239000  0.99763400  0.68662100  1
  F  F92  1  0.69400900  0.80599100  0.19400900  1
  F  F93  1  0.54344400  0.86520800  0.32149800  1
  F  F94  1  0.00236600  0.18662100  0.62761000  1
  F  F95  1  0.17141700  0.36770800  0.94741700  1
  F  F96  1  0.99763400  0.81337900  0.37239000  1
  F  F97  1  0.49763400  0.68662100  0.62761000  1
  F  F98  1  0.30599100  0.19400900  0.80599100  1
  F  F99  1  0.63479200  0.82149800  0.54344400  1
  F  F100  1  0.63229200  0.44741700  0.32858300  1
  F  F101  1  0.19400900  0.80599100  0.30599100  1
  F  F102  1  0.68662100  0.62761000  0.49763400  1
  F  F103  1  0.36770800  0.55258300  0.67141700  1
  F  F104  1  0.86520800  0.32149800  0.54344400  1
  F  F105  1  0.67983800  0.51004900  0.87969200  1
  F  F106  1  0.62761000  0.49763400  0.68662100  1
  F  F107  1  0.82016200  0.01004900  0.87969200  1
  F  F108  1  0.00236600  0.31337900  0.12761000  1
  F  F109  1  0.98995100  0.12030800  0.17983800  1
  F  F110  1  0.67983800  0.98995100  0.37969200  1
  F  F111  1  0.36770800  0.94741700  0.17141700  1
  F  F112  1  0.62761000  0.00236600  0.18662100  1
  F  F113  1  0.68662100  0.87239000  0.99763400  1
  F  F114  1  0.45655600  0.13479200  0.67850200  1
  F  F115  1  0.87239000  0.50236600  0.18662100  1
  F  F116  1  0.98995100  0.37969200  0.67983800  1
  F  F117  1  0.12761000  0.49763400  0.81337900  1
  F  F118  1  0.32858300  0.86770800  0.94741700  1
  F  F119  1  0.86520800  0.17850200  0.04344400  1
  F  F120  1  0.82149800  0.95655600  0.13479200  1
  F  F121  1  0.69400900  0.69400900  0.69400900  1
  F  F122  1  0.04344400  0.63479200  0.67850200  1
  F  F123  1  0.44741700  0.32858300  0.63229200  1
  F  F124  1  0.13229200  0.44741700  0.17141700  1
  F  F125  1  0.12761000  0.00236600  0.31337900  1
  F  F126  1  0.37969200  0.67983800  0.98995100  1
  F  F127  1  0.87969200  0.82016200  0.01004900  1
  F  F128  1  0.13479200  0.67850200  0.45655600  1
  F  F129  1  0.50236600  0.18662100  0.87239000  1
  F  F130  1  0.54344400  0.63479200  0.82149800  1
  F  F131  1  0.13229200  0.05258300  0.67141700  1
  F  F132  1  0.17850200  0.45655600  0.36520800  1
  F  F133  1  0.37239000  0.99763400  0.81337900  1
  F  F134  1  0.17983800  0.51004900  0.62030800  1
  F  F135  1  0.32016200  0.48995100  0.12030800  1
  F  F136  1  0.63479200  0.67850200  0.04344400  1
  F  F137  1  0.01004900  0.62030800  0.32016200  1
  F  F138  1  0.81337900  0.12761000  0.49763400  1
  F  F139  1  0.36520800  0.17850200  0.45655600  1
  F  F140  1  0.17850200  0.04344400  0.86520800  1
  F  F141  1  0.32149800  0.54344400  0.86520800  1
  F  F142  1  0.01004900  0.87969200  0.82016200  1
  F  F143  1  0.67141700  0.36770800  0.55258300  1
  F  F144  1  0.51004900  0.62030800  0.17983800  1
  F  F145  1  0.80599100  0.19400900  0.69400900  1
  F  F146  1  0.99763400  0.68662100  0.87239000  1
  F  F147  1  0.37969200  0.82016200  0.48995100  1
  F  F148  1  0.18662100  0.62761000  0.00236600  1
  F  F149  1  0.32858300  0.63229200  0.44741700  1
  F  F150  1  0.82016200  0.48995100  0.37969200  1
  F  F151  1  0.55258300  0.67141700  0.36770800  1
  F  F152  1  0.32016200  0.01004900  0.62030800  1
  F  F153  1  0.31337900  0.12761000  0.00236600  1
  F  F154  1  0.32149800  0.95655600  0.36520800  1
  F  F155  1  0.36520800  0.32149800  0.95655600  1
  F  F156  1  0.17983800  0.98995100  0.12030800  1
  F  F157  1  0.13479200  0.82149800  0.95655600  1
  F  F158  1  0.48995100  0.37969200  0.82016200  1
  F  F159  1  0.67141700  0.13229200  0.05258300  1
