# generated using pymatgen
data_Cu2WO4
_symmetry_space_group_name_H-M   'P 1'
_cell_length_a   7.52000600
_cell_length_b   7.57158726
_cell_length_c   8.14207302
_cell_angle_alpha   97.57828453
_cell_angle_beta   96.78958417
_cell_angle_gamma   94.53014377
_symmetry_Int_Tables_number   1
_chemical_formula_structural   Cu2WO4
_chemical_formula_sum   'Cu8 W4 O16'
_cell_volume   454.21319848
_cell_formula_units_Z   4
loop_
 _symmetry_equiv_pos_site_id
 _symmetry_equiv_pos_as_xyz
  1  'x, y, z'
loop_
 _atom_site_type_symbol
 _atom_site_label
 _atom_site_symmetry_multiplicity
 _atom_site_fract_x
 _atom_site_fract_y
 _atom_site_fract_z
 _atom_site_occupancy
  Cu  Cu0  1  0.31241200  0.20762600  0.49885600  1
  Cu  Cu1  1  0.60855100  0.12748600  0.69593600  1
  Cu  Cu2  1  0.39144900  0.87251400  0.30406400  1
  Cu  Cu3  1  0.33889100  0.88264900  0.62884300  1
  Cu  Cu4  1  0.68758800  0.79237400  0.50114400  1
  Cu  Cu5  1  0.36291300  0.60087600  0.90135700  1
  Cu  Cu6  1  0.66110900  0.11735100  0.37115700  1
  Cu  Cu7  1  0.63708700  0.39912400  0.09864300  1
  W  W8  1  0.96786200  0.24525600  0.23770500  1
  W  W9  1  0.03213800  0.75474400  0.76229500  1
  W  W10  1  0.25808000  0.16025600  0.01141400  1
  W  W11  1  0.74192000  0.83974400  0.98858600  1
  O  O12  1  0.63559500  0.00161000  0.87493100  1
  O  O13  1  0.55979200  0.26229500  0.52875800  1
  O  O14  1  0.85642100  0.45019500  0.23818300  1
  O  O15  1  0.36440500  0.99839000  0.12506900  1
  O  O16  1  0.44020800  0.73770500  0.47124200  1
  O  O17  1  0.22660700  0.31459300  0.21413200  1
  O  O18  1  0.80182600  0.02092300  0.20174200  1
  O  O19  1  0.42489400  0.31903400  0.94385500  1
  O  O20  1  0.99855700  0.17613900  0.99344100  1
  O  O21  1  0.14357900  0.54980500  0.76181700  1
  O  O22  1  0.93658800  0.77854300  0.54993600  1
  O  O23  1  0.77339300  0.68540700  0.78586800  1
  O  O24  1  0.19817400  0.97907700  0.79825800  1
  O  O25  1  0.57510600  0.68096600  0.05614500  1
  O  O26  1  0.00144300  0.82386100  0.00655900  1
  O  O27  1  0.06341200  0.22145700  0.45006400  1
