# generated using pymatgen
data_Te4As2S5(OF6)2
_symmetry_space_group_name_H-M   'P 1'
_cell_length_a   15.62912500
_cell_length_b   10.92354300
_cell_length_c   13.25940084
_cell_angle_alpha   72.06198632
_cell_angle_beta   90.00000000
_cell_angle_gamma   90.00000000
_symmetry_Int_Tables_number   1
_chemical_formula_structural   Te4As2S5(OF6)2
_chemical_formula_sum   'Te16 As8 S20 O8 F48'
_cell_volume   2153.67811263
_cell_formula_units_Z   4
loop_
 _symmetry_equiv_pos_site_id
 _symmetry_equiv_pos_as_xyz
  1  'x, y, z'
loop_
 _atom_site_type_symbol
 _atom_site_label
 _atom_site_symmetry_multiplicity
 _atom_site_fract_x
 _atom_site_fract_y
 _atom_site_fract_z
 _atom_site_occupancy
  Te  Te0  1  0.40755900  0.75623100  0.25691700  1
  Te  Te1  1  0.90755900  0.24376900  0.24308300  1
  Te  Te2  1  0.03036800  0.07871500  0.14223600  1
  Te  Te3  1  0.59244100  0.24376900  0.74308300  1
  Te  Te4  1  0.46963200  0.07871500  0.64223600  1
  Te  Te5  1  0.09244100  0.75623100  0.75691700  1
  Te  Te6  1  0.62491300  0.59232100  0.36384800  1
  Te  Te7  1  0.62659900  0.83685300  0.11755300  1
  Te  Te8  1  0.87508700  0.59232100  0.86384800  1
  Te  Te9  1  0.37340100  0.16314700  0.88244700  1
  Te  Te10  1  0.96963200  0.92128500  0.85776400  1
  Te  Te11  1  0.37508700  0.40767900  0.63615200  1
  Te  Te12  1  0.87340100  0.83685300  0.61755300  1
  Te  Te13  1  0.12491300  0.40767900  0.13615200  1
  Te  Te14  1  0.53036800  0.92128500  0.35776400  1
  Te  Te15  1  0.12659900  0.16314700  0.38244700  1
  As  As16  1  0.38727000  0.25215300  0.19281100  1
  As  As17  1  0.80162200  0.18486100  0.94676700  1
  As  As18  1  0.69837800  0.18486100  0.44676700  1
  As  As19  1  0.88727000  0.74784700  0.30718900  1
  As  As20  1  0.30162200  0.81513900  0.55323300  1
  As  As21  1  0.61273000  0.74784700  0.80718900  1
  As  As22  1  0.19837800  0.81513900  0.05323300  1
  As  As23  1  0.11273000  0.25215300  0.69281100  1
  S  S24  1  0.10975200  0.26185100  0.03397800  1
  S  S25  1  0.02376200  0.82375800  0.58557400  1
  S  S26  1  0.47407500  0.55444400  0.35000600  1
  S  S27  1  0.89024800  0.73814900  0.96602200  1
  S  S28  1  0.97623800  0.17624200  0.41442600  1
  S  S29  1  0.97407600  0.44555600  0.14999400  1
  S  S30  1  0.16775200  0.56041900  0.40057700  1
  S  S31  1  0.39024800  0.26185100  0.53397800  1
  S  S32  1  0.52592500  0.44555600  0.64999400  1
  S  S33  1  0.66775200  0.43958100  0.09942300  1
  S  S34  1  0.60975200  0.73814900  0.46602200  1
  S  S35  1  0.47623800  0.82375800  0.08557400  1
  S  S36  1  0.33224800  0.56041900  0.90057700  1
  S  S37  1  0.02592500  0.55444400  0.85000600  1
  S  S38  1  0.88318300  0.00314100  0.70186400  1
  S  S39  1  0.83224800  0.43958100  0.59942300  1
  S  S40  1  0.61681700  0.00314100  0.20186400  1
  S  S41  1  0.11681700  0.99685900  0.29813600  1
  S  S42  1  0.38318300  0.99685900  0.79813600  1
  S  S43  1  0.52376200  0.17624200  0.91442600  1
  O  O44  1  0.26002700  0.54047900  0.40643900  1
  O  O45  1  0.23997300  0.54047900  0.90643900  1
  O  O46  1  0.73997300  0.45952100  0.59356100  1
  O  O47  1  0.11881800  0.48418900  0.34744800  1
  O  O48  1  0.76002700  0.45952100  0.09356100  1
  O  O49  1  0.38118200  0.48418900  0.84744800  1
  O  O50  1  0.61881800  0.51581100  0.15255200  1
  O  O51  1  0.88118200  0.51581100  0.65255200  1
  F  F52  1  0.05036500  0.22559600  0.80896600  1
  F  F53  1  0.71802900  0.08204300  0.93115000  1
  F  F54  1  0.82288600  0.72633500  0.42312000  1
  F  F55  1  0.87225600  0.04948700  0.98918300  1
  F  F56  1  0.12374100  0.41774400  0.67816200  1
  F  F57  1  0.72879500  0.15773600  0.58111100  1
  F  F58  1  0.33328800  0.78954100  0.68682900  1
  F  F59  1  0.78197100  0.08204300  0.43115000  1
  F  F60  1  0.28197100  0.91795700  0.06885000  1
  F  F61  1  0.62774400  0.04948700  0.48918300  1
  F  F62  1  0.51967000  0.71746100  0.88684200  1
  F  F63  1  0.79195400  0.77989900  0.22823700  1
  F  F64  1  0.21802900  0.91795700  0.56885000  1
  F  F65  1  0.87625900  0.58225600  0.32183800  1
  F  F66  1  0.94963500  0.77440400  0.19103400  1
  F  F67  1  0.55036500  0.77440400  0.69103400  1
  F  F68  1  0.29195400  0.22010100  0.27176300  1
  F  F69  1  0.98033000  0.71746100  0.38684200  1
  F  F70  1  0.62374100  0.58225600  0.82183800  1
  F  F71  1  0.39513100  0.08371300  0.20683300  1
  F  F72  1  0.76796800  0.31957300  0.40478300  1
  F  F73  1  0.16671200  0.78954100  0.18682900  1
  F  F74  1  0.67711400  0.72633500  0.92312000  1
  F  F75  1  0.66671200  0.21045900  0.31317100  1
  F  F76  1  0.20804600  0.22010100  0.77176300  1
  F  F77  1  0.37625900  0.41774400  0.17816200  1
  F  F78  1  0.37225600  0.95051300  0.51081700  1
  F  F79  1  0.12774400  0.95051300  0.01081700  1
  F  F80  1  0.77120500  0.15773600  0.08111100  1
  F  F81  1  0.11347000  0.71503300  0.03563100  1
  F  F82  1  0.01967000  0.28253900  0.61315800  1
  F  F83  1  0.61347000  0.28496700  0.46436900  1
  F  F84  1  0.88653000  0.28496700  0.96436900  1
  F  F85  1  0.22879500  0.84226400  0.91888900  1
  F  F86  1  0.60486900  0.91628700  0.79316700  1
  F  F87  1  0.23203200  0.68042700  0.59521700  1
  F  F88  1  0.38653000  0.71503300  0.53563100  1
  F  F89  1  0.44963500  0.22559600  0.30896600  1
  F  F90  1  0.27120500  0.84226400  0.41888900  1
  F  F91  1  0.10486900  0.08371300  0.70683300  1
  F  F92  1  0.17711400  0.27366500  0.57688000  1
  F  F93  1  0.89513100  0.91628700  0.29316700  1
  F  F94  1  0.48033000  0.28253900  0.11315800  1
  F  F95  1  0.83328800  0.21045900  0.81317100  1
  F  F96  1  0.70804600  0.77989900  0.72823700  1
  F  F97  1  0.32288600  0.27366500  0.07688000  1
  F  F98  1  0.73203200  0.31957300  0.90478300  1
  F  F99  1  0.26796800  0.68042700  0.09521700  1
