# generated using pymatgen
data_Sr2NdCu3(PbO4)2
_symmetry_space_group_name_H-M   'P 1'
_cell_length_a   3.86715600
_cell_length_b   3.86715600
_cell_length_c   16.05067700
_cell_angle_alpha   90.00000000
_cell_angle_beta   90.00000000
_cell_angle_gamma   90.00000000
_symmetry_Int_Tables_number   1
_chemical_formula_structural   Sr2NdCu3(PbO4)2
_chemical_formula_sum   'Sr2 Nd1 Cu3 Pb2 O8'
_cell_volume   240.03619769
_cell_formula_units_Z   1
loop_
 _symmetry_equiv_pos_site_id
 _symmetry_equiv_pos_as_xyz
  1  'x, y, z'
loop_
 _atom_site_type_symbol
 _atom_site_label
 _atom_site_symmetry_multiplicity
 _atom_site_fract_x
 _atom_site_fract_y
 _atom_site_fract_z
 _atom_site_occupancy
  Sr  Sr0  1  0.00000000  0.00000000  0.22261900  1
  Sr  Sr1  1  0.00000000  0.00000000  0.77738100  1
  Nd  Nd2  1  0.00000000  0.00000000  0.00000000  1
  Cu  Cu3  1  0.50000000  0.50000000  0.89116600  1
  Cu  Cu4  1  0.50000000  0.50000000  0.10883400  1
  Cu  Cu5  1  0.00000000  0.00000000  0.50000000  1
  Pb  Pb6  1  0.50000000  0.50000000  0.61291200  1
  Pb  Pb7  1  0.50000000  0.50000000  0.38708800  1
  O  O8  1  0.00000000  0.00000000  0.61592300  1
  O  O9  1  0.00000000  0.50000000  0.09783000  1
  O  O10  1  0.50000000  0.00000000  0.90217000  1
  O  O11  1  0.50000000  0.50000000  0.25159700  1
  O  O12  1  0.00000000  0.50000000  0.90217000  1
  O  O13  1  0.50000000  0.00000000  0.09783000  1
  O  O14  1  0.00000000  0.00000000  0.38407700  1
  O  O15  1  0.50000000  0.50000000  0.74840300  1
