# generated using pymatgen
data_BaZn(SeO3)2
_symmetry_space_group_name_H-M   'P 1'
_cell_length_a   14.52547600
_cell_length_b   5.61762800
_cell_length_c   9.87297008
_cell_angle_alpha   70.31943663
_cell_angle_beta   90.00000000
_cell_angle_gamma   90.00000000
_symmetry_Int_Tables_number   1
_chemical_formula_structural   BaZn(SeO3)2
_chemical_formula_sum   'Ba4 Zn4 Se8 O24'
_cell_volume   758.56120964
_cell_formula_units_Z   4
loop_
 _symmetry_equiv_pos_site_id
 _symmetry_equiv_pos_as_xyz
  1  'x, y, z'
loop_
 _atom_site_type_symbol
 _atom_site_label
 _atom_site_symmetry_multiplicity
 _atom_site_fract_x
 _atom_site_fract_y
 _atom_site_fract_z
 _atom_site_occupancy
  Ba  Ba0  1  0.26308700  0.30737100  0.84815800  1
  Ba  Ba1  1  0.23691300  0.30737100  0.34815800  1
  Ba  Ba2  1  0.73691300  0.69262900  0.15184200  1
  Ba  Ba3  1  0.76308700  0.69262900  0.65184200  1
  Zn  Zn4  1  0.57604100  0.24312300  0.50713400  1
  Zn  Zn5  1  0.42395900  0.75687700  0.49286600  1
  Zn  Zn6  1  0.07604100  0.75687700  0.99286600  1
  Zn  Zn7  1  0.92395900  0.24312300  0.00713400  1
  Se  Se8  1  0.54036400  0.15484500  0.21516700  1
  Se  Se9  1  0.04036400  0.84515500  0.28483300  1
  Se  Se10  1  0.36989900  0.84134900  0.16951100  1
  Se  Se11  1  0.95963600  0.15484500  0.71516700  1
  Se  Se12  1  0.63010100  0.15865100  0.83048900  1
  Se  Se13  1  0.86989900  0.15865100  0.33048900  1
  Se  Se14  1  0.45963600  0.84515500  0.78483300  1
  Se  Se15  1  0.13010100  0.84134900  0.66951100  1
  O  O16  1  0.65547900  0.31781000  0.64046700  1
  O  O17  1  0.60527200  0.89270400  0.51421400  1
  O  O18  1  0.39472800  0.10729600  0.48578600  1
  O  O19  1  0.57903200  0.36867100  0.29685200  1
  O  O20  1  0.42096800  0.63132900  0.70314800  1
  O  O21  1  0.07903200  0.63132900  0.20314800  1
  O  O22  1  0.34452100  0.68219000  0.35953300  1
  O  O23  1  0.32569500  0.14947700  0.13216900  1
  O  O24  1  0.92096800  0.36867100  0.79685200  1
  O  O25  1  0.86513000  0.11198800  0.62910200  1
  O  O26  1  0.67430500  0.85052300  0.86783100  1
  O  O27  1  0.89472800  0.89270400  0.01421400  1
  O  O28  1  0.63487000  0.11198800  0.12910200  1
  O  O29  1  0.55571500  0.83190400  0.40264100  1
  O  O30  1  0.84452100  0.31781000  0.14046700  1
  O  O31  1  0.13487000  0.88801200  0.37089800  1
  O  O32  1  0.10527200  0.10729600  0.98578600  1
  O  O33  1  0.82569500  0.85052300  0.36783100  1
  O  O34  1  0.94428500  0.83190400  0.90264100  1
  O  O35  1  0.44428500  0.16809600  0.59735900  1
  O  O36  1  0.05571500  0.16809600  0.09735900  1
  O  O37  1  0.36513000  0.88801200  0.87089800  1
  O  O38  1  0.17430500  0.14947700  0.63216900  1
  O  O39  1  0.15547900  0.68219000  0.85953300  1
