# generated using pymatgen
data_Mg3Fe2(SiO4)3
_symmetry_space_group_name_H-M   'P 1'
_cell_length_a   10.21093488
_cell_length_b   10.21093488
_cell_length_c   10.21093488
_cell_angle_alpha   109.47122063
_cell_angle_beta   109.47122063
_cell_angle_gamma   109.47122063
_symmetry_Int_Tables_number   1
_chemical_formula_structural   Mg3Fe2(SiO4)3
_chemical_formula_sum   'Mg12 Fe8 Si12 O48'
_cell_volume   819.54844080
_cell_formula_units_Z   4
loop_
 _symmetry_equiv_pos_site_id
 _symmetry_equiv_pos_as_xyz
  1  'x, y, z'
loop_
 _atom_site_type_symbol
 _atom_site_label
 _atom_site_symmetry_multiplicity
 _atom_site_fract_x
 _atom_site_fract_y
 _atom_site_fract_z
 _atom_site_occupancy
  Mg  Mg0  1  0.37500000  0.75000000  0.12500000  1
  Mg  Mg1  1  0.25000000  0.37500000  0.12500000  1
  Mg  Mg2  1  0.75000000  0.12500000  0.37500000  1
  Mg  Mg3  1  0.37500000  0.12500000  0.25000000  1
  Mg  Mg4  1  0.12500000  0.37500000  0.75000000  1
  Mg  Mg5  1  0.12500000  0.25000000  0.37500000  1
  Mg  Mg6  1  0.62500000  0.25000000  0.87500000  1
  Mg  Mg7  1  0.75000000  0.62500000  0.87500000  1
  Mg  Mg8  1  0.25000000  0.87500000  0.62500000  1
  Mg  Mg9  1  0.62500000  0.87500000  0.75000000  1
  Mg  Mg10  1  0.87500000  0.62500000  0.25000000  1
  Mg  Mg11  1  0.87500000  0.75000000  0.62500000  1
  Fe  Fe12  1  0.50000000  0.00000000  0.50000000  1
  Fe  Fe13  1  0.00000000  0.50000000  0.00000000  1
  Fe  Fe14  1  0.50000000  0.50000000  0.50000000  1
  Fe  Fe15  1  0.00000000  0.00000000  0.00000000  1
  Fe  Fe16  1  0.00000000  0.50000000  0.50000000  1
  Fe  Fe17  1  0.50000000  0.50000000  0.00000000  1
  Fe  Fe18  1  0.50000000  0.00000000  0.00000000  1
  Fe  Fe19  1  0.00000000  0.00000000  0.50000000  1
  Si  Si20  1  0.87500000  0.25000000  0.12500000  1
  Si  Si21  1  0.75000000  0.37500000  0.62500000  1
  Si  Si22  1  0.12500000  0.87500000  0.25000000  1
  Si  Si23  1  0.25000000  0.12500000  0.87500000  1
  Si  Si24  1  0.62500000  0.37500000  0.25000000  1
  Si  Si25  1  0.37500000  0.62500000  0.75000000  1
  Si  Si26  1  0.37500000  0.25000000  0.62500000  1
  Si  Si27  1  0.87500000  0.12500000  0.75000000  1
  Si  Si28  1  0.62500000  0.75000000  0.37500000  1
  Si  Si29  1  0.25000000  0.62500000  0.37500000  1
  Si  Si30  1  0.75000000  0.87500000  0.12500000  1
  Si  Si31  1  0.12500000  0.75000000  0.87500000  1
  O  O32  1  0.87594300  0.39650200  0.08847500  1
  O  O33  1  0.78746800  0.87594300  0.97944100  1
  O  O34  1  0.39650200  0.80802700  0.52055900  1
  O  O35  1  0.69197300  0.08847500  0.71253200  1
  O  O36  1  0.80802700  0.52055900  0.39650200  1
  O  O37  1  0.97944100  0.78746800  0.87594300  1
  O  O38  1  0.08847500  0.71253200  0.69197300  1
  O  O39  1  0.97944100  0.69197300  0.10349800  1
  O  O40  1  0.78746800  0.41152500  0.80802700  1
  O  O41  1  0.41152500  0.80802700  0.78746800  1
  O  O42  1  0.71253200  0.52055900  0.62405700  1
  O  O43  1  0.08847500  0.87594300  0.39650200  1
  O  O44  1  0.39650200  0.08847500  0.87594300  1
  O  O45  1  0.10349800  0.97944100  0.69197300  1
  O  O46  1  0.52055900  0.62405700  0.71253200  1
  O  O47  1  0.80802700  0.78746800  0.41152500  1
  O  O48  1  0.10349800  0.62405700  0.41152500  1
  O  O49  1  0.62405700  0.71253200  0.52055900  1
  O  O50  1  0.87594300  0.97944100  0.78746800  1
  O  O51  1  0.69197300  0.10349800  0.97944100  1
  O  O52  1  0.52055900  0.39650200  0.80802700  1
  O  O53  1  0.71253200  0.69197300  0.08847500  1
  O  O54  1  0.62405700  0.41152500  0.10349800  1
  O  O55  1  0.41152500  0.10349800  0.62405700  1
  O  O56  1  0.12405700  0.60349800  0.91152500  1
  O  O57  1  0.21253200  0.12405700  0.02055900  1
  O  O58  1  0.60349800  0.19197300  0.47944100  1
  O  O59  1  0.30802700  0.91152500  0.28746800  1
  O  O60  1  0.19197300  0.47944100  0.60349800  1
  O  O61  1  0.02055900  0.21253200  0.12405700  1
  O  O62  1  0.91152500  0.28746800  0.30802700  1
  O  O63  1  0.02055900  0.30802700  0.89650200  1
  O  O64  1  0.21253200  0.58847500  0.19197300  1
  O  O65  1  0.58847500  0.19197300  0.21253200  1
  O  O66  1  0.28746800  0.47944100  0.37594300  1
  O  O67  1  0.91152500  0.12405700  0.60349800  1
  O  O68  1  0.60349800  0.91152500  0.12405700  1
  O  O69  1  0.89650200  0.02055900  0.30802700  1
  O  O70  1  0.47944100  0.37594300  0.28746800  1
  O  O71  1  0.19197300  0.21253200  0.58847500  1
  O  O72  1  0.89650200  0.37594300  0.58847500  1
  O  O73  1  0.37594300  0.28746800  0.47944100  1
  O  O74  1  0.12405700  0.02055900  0.21253200  1
  O  O75  1  0.30802700  0.89650200  0.02055900  1
  O  O76  1  0.47944100  0.60349800  0.19197300  1
  O  O77  1  0.28746800  0.30802700  0.91152500  1
  O  O78  1  0.37594300  0.58847500  0.89650200  1
  O  O79  1  0.58847500  0.89650200  0.37594300  1
