# generated using pymatgen
data_Os3C8SO8
_symmetry_space_group_name_H-M   'P 1'
_cell_length_a   16.47632000
_cell_length_b   8.29147900
_cell_length_c   19.69647509
_cell_angle_alpha   87.31209718
_cell_angle_beta   90.00000000
_cell_angle_gamma   90.00000000
_symmetry_Int_Tables_number   1
_chemical_formula_structural   Os3C8SO8
_chemical_formula_sum   'Os24 C64 S8 O64'
_cell_volume   2687.83534108
_cell_formula_units_Z   8
loop_
 _symmetry_equiv_pos_site_id
 _symmetry_equiv_pos_as_xyz
  1  'x, y, z'
loop_
 _atom_site_type_symbol
 _atom_site_label
 _atom_site_symmetry_multiplicity
 _atom_site_fract_x
 _atom_site_fract_y
 _atom_site_fract_z
 _atom_site_occupancy
  Os  Os0  1  0.65883100  0.95717200  0.71023900  1
  Os  Os1  1  0.87814400  0.57525500  0.62919200  1
  Os  Os2  1  0.75732900  0.60090800  0.02865900  1
  Os  Os3  1  0.71346800  0.88398900  0.10915700  1
  Os  Os4  1  0.24267100  0.39909200  0.97134100  1
  Os  Os5  1  0.21346800  0.11601100  0.39084300  1
  Os  Os6  1  0.78653200  0.88398900  0.60915700  1
  Os  Os7  1  0.74267100  0.60090800  0.52865900  1
  Os  Os8  1  0.37814400  0.42474500  0.87080800  1
  Os  Os9  1  0.89902400  0.77871400  0.09583800  1
  Os  Os10  1  0.84116900  0.95717200  0.21023900  1
  Os  Os11  1  0.27752000  0.36437900  0.31241700  1
  Os  Os12  1  0.39902400  0.22128600  0.40416200  1
  Os  Os13  1  0.77752000  0.63562100  0.18758300  1
  Os  Os14  1  0.34116900  0.04282800  0.28976100  1
  Os  Os15  1  0.12185600  0.42474500  0.37080800  1
  Os  Os16  1  0.60097600  0.77871400  0.59583800  1
  Os  Os17  1  0.28653200  0.11601100  0.89084300  1
  Os  Os18  1  0.22248000  0.36437900  0.81241700  1
  Os  Os19  1  0.62185600  0.57525500  0.12919200  1
  Os  Os20  1  0.25732900  0.39909200  0.47134100  1
  Os  Os21  1  0.15883100  0.04282800  0.78976100  1
  Os  Os22  1  0.72248000  0.63562100  0.68758300  1
  Os  Os23  1  0.10097600  0.22128600  0.90416200  1
  C  C24  1  0.55696000  0.43302300  0.07953700  1
  C  C25  1  0.82129500  0.50642800  0.47220700  1
  C  C26  1  0.45860800  0.25625500  0.87582700  1
  C  C27  1  0.42160500  0.51969300  0.78943800  1
  C  C28  1  0.85020500  0.50931000  0.24229200  1
  C  C29  1  0.84725100  0.97224800  0.53381500  1
  C  C30  1  0.06013400  0.19075400  0.99440900  1
  C  C31  1  0.56575200  0.09161800  0.71824500  1
  C  C32  1  0.72286000  0.10381400  0.75833000  1
  C  C33  1  0.94304000  0.43302300  0.57953700  1
  C  C34  1  0.33990800  0.52128400  0.51316700  1
  C  C35  1  0.23363100  0.21529600  0.03450700  1
  C  C36  1  0.43424800  0.90838200  0.28175500  1
  C  C37  1  0.27714000  0.89618600  0.24167000  1
  C  C38  1  0.35020500  0.49069000  0.25770800  1
  C  C39  1  0.63369800  0.84012400  0.79350400  1
  C  C40  1  0.76636900  0.78470400  0.96549300  1
  C  C41  1  0.06516900  0.44029100  0.88938600  1
  C  C42  1  0.71538300  0.65640400  0.26584900  1
  C  C43  1  0.78461700  0.65640400  0.76584900  1
  C  C44  1  0.34725100  0.02775200  0.96618500  1
  C  C45  1  0.17870500  0.49357200  0.52779300  1
  C  C46  1  0.83990800  0.47871600  0.98683300  1
  C  C47  1  0.73363100  0.78470400  0.46549300  1
  C  C48  1  0.95860800  0.74374500  0.62417300  1
  C  C49  1  0.14580000  0.99575900  0.33685400  1
  C  C50  1  0.56516900  0.55970900  0.61061400  1
  C  C51  1  0.26636900  0.21529600  0.53450700  1
  C  C52  1  0.04139200  0.25625500  0.37582700  1
  C  C53  1  0.99950300  0.15157600  0.86972200  1
  C  C54  1  0.54139200  0.74374500  0.12417300  1
  C  C55  1  0.36630200  0.15987600  0.20649600  1
  C  C56  1  0.05696000  0.56697700  0.42046300  1
  C  C57  1  0.22286000  0.89618600  0.74167000  1
  C  C58  1  0.13369800  0.15987600  0.70649600  1
  C  C59  1  0.28461700  0.34359600  0.73415100  1
  C  C60  1  0.14979500  0.49069000  0.75770800  1
  C  C61  1  0.06575200  0.90838200  0.78175500  1
  C  C62  1  0.56013400  0.80924600  0.50559100  1
  C  C63  1  0.67870500  0.50642800  0.97220700  1
  C  C64  1  0.64580000  0.00424100  0.16314600  1
  C  C65  1  0.43483100  0.44029100  0.38938600  1
  C  C66  1  0.65274900  0.97224800  0.03381500  1
  C  C67  1  0.57839500  0.48030700  0.21056200  1
  C  C68  1  0.49950300  0.84842400  0.63027800  1
  C  C69  1  0.16009200  0.52128400  0.01316700  1
  C  C70  1  0.92160500  0.48030700  0.71056200  1
  C  C71  1  0.50049700  0.15157600  0.36972200  1
  C  C72  1  0.66009200  0.47871600  0.48683300  1
  C  C73  1  0.00049700  0.84842400  0.13027800  1
  C  C74  1  0.43986600  0.19075400  0.49440900  1
  C  C75  1  0.85420000  0.00424100  0.66314600  1
  C  C76  1  0.35420000  0.99575900  0.83685400  1
  C  C77  1  0.44304000  0.56697700  0.92046300  1
  C  C78  1  0.64979500  0.50931000  0.74229200  1
  C  C79  1  0.93483100  0.55970900  0.11061400  1
  C  C80  1  0.15274900  0.02775200  0.46618500  1
  C  C81  1  0.93424800  0.09161800  0.21824500  1
  C  C82  1  0.86630200  0.84012400  0.29350400  1
  C  C83  1  0.21538300  0.34359600  0.23415100  1
  C  C84  1  0.07839500  0.51969300  0.28943800  1
  C  C85  1  0.93986600  0.80924600  0.00559100  1
  C  C86  1  0.32129500  0.49357200  0.02779300  1
  C  C87  1  0.77714000  0.10381400  0.25833000  1
  S  S88  1  0.74226900  0.41133800  0.12475900  1
  S  S89  1  0.25773100  0.58866200  0.87524100  1
  S  S90  1  0.17006500  0.96134100  0.90886200  1
  S  S91  1  0.82993500  0.03865900  0.09113800  1
  S  S92  1  0.67006500  0.03865900  0.59113800  1
  S  S93  1  0.75773100  0.41133800  0.62475900  1
  S  S94  1  0.32993500  0.96134100  0.40886200  1
  S  S95  1  0.24226900  0.58866200  0.37524100  1
  O  O96  1  0.86367800  0.44664400  0.43349100  1
  O  O97  1  0.88879100  0.40127400  0.96104400  1
  O  O98  1  0.60167400  0.08102800  0.19540400  1
  O  O99  1  0.99213100  0.16976300  0.22225300  1
  O  O100  1  0.01903600  0.65953700  0.44954600  1
  O  O101  1  0.36367800  0.55335600  0.06650900  1
  O  O102  1  0.39085800  0.56895300  0.22043700  1
  O  O103  1  0.73861600  0.19221400  0.28921400  1
  O  O104  1  0.48096400  0.65953700  0.94954600  1
  O  O105  1  0.10914200  0.56895300  0.72043700  1
  O  O106  1  0.06543600  0.88217900  0.14744200  1
  O  O107  1  0.63632200  0.44664400  0.93349100  1
  O  O108  1  0.50786900  0.16976300  0.72225300  1
  O  O109  1  0.01247100  0.83417500  0.62063800  1
  O  O110  1  0.60914200  0.43104700  0.77956300  1
  O  O111  1  0.55365500  0.41823600  0.26031700  1
  O  O112  1  0.11365800  0.97114200  0.51046200  1
  O  O113  1  0.56543600  0.11782100  0.35255800  1
  O  O114  1  0.17950800  0.33183900  0.18332600  1
  O  O115  1  0.88634200  0.02885800  0.48953800  1
  O  O116  1  0.03143200  0.16785200  0.04785000  1
  O  O117  1  0.93456400  0.11782100  0.85255800  1
  O  O118  1  0.76138400  0.19221400  0.78921400  1
  O  O119  1  0.53992700  0.42901900  0.61785100  1
  O  O120  1  0.38739100  0.22239800  0.15532200  1
  O  O121  1  0.61260900  0.77760200  0.84467800  1
  O  O122  1  0.61120900  0.40127400  0.46104400  1
  O  O123  1  0.82049200  0.66816100  0.81667400  1
  O  O124  1  0.51903600  0.34046300  0.05045400  1
  O  O125  1  0.10167400  0.91897200  0.30459600  1
  O  O126  1  0.23861600  0.80778600  0.21078600  1
  O  O127  1  0.51247100  0.16582500  0.87936200  1
  O  O128  1  0.22656300  0.10977100  0.07502700  1
  O  O129  1  0.11260900  0.22239800  0.65532200  1
  O  O130  1  0.98096400  0.34046300  0.55045400  1
  O  O131  1  0.49213100  0.83023700  0.27774700  1
  O  O132  1  0.38879100  0.59872600  0.53895600  1
  O  O133  1  0.98752900  0.16582500  0.37936200  1
  O  O134  1  0.00786900  0.83023700  0.77774700  1
  O  O135  1  0.61365800  0.02885800  0.98953800  1
  O  O136  1  0.67950800  0.66816100  0.31667400  1
  O  O137  1  0.48752900  0.83417500  0.12063800  1
  O  O138  1  0.77343700  0.89022900  0.92497300  1
  O  O139  1  0.05365500  0.58176400  0.23968300  1
  O  O140  1  0.89085800  0.43104700  0.27956300  1
  O  O141  1  0.72656300  0.89022900  0.42497300  1
  O  O142  1  0.13632200  0.55335600  0.56650900  1
  O  O143  1  0.88739100  0.77760200  0.34467800  1
  O  O144  1  0.27343700  0.10977100  0.57502700  1
  O  O145  1  0.94634500  0.41823600  0.76031700  1
  O  O146  1  0.43456400  0.88217900  0.64744200  1
  O  O147  1  0.44634500  0.58176400  0.73968300  1
  O  O148  1  0.32049200  0.33183900  0.68332600  1
  O  O149  1  0.38634200  0.97114200  0.01046200  1
  O  O150  1  0.46007300  0.57098100  0.38214900  1
  O  O151  1  0.39832600  0.91897200  0.80459600  1
  O  O152  1  0.96007300  0.42901900  0.11785100  1
  O  O153  1  0.96856800  0.83214800  0.95215000  1
  O  O154  1  0.26138400  0.80778600  0.71078600  1
  O  O155  1  0.11120900  0.59872600  0.03895600  1
  O  O156  1  0.46856800  0.16785200  0.54785000  1
  O  O157  1  0.53143200  0.83214800  0.45215000  1
  O  O158  1  0.03992700  0.57098100  0.88214900  1
  O  O159  1  0.89832600  0.08102800  0.69540400  1
