# generated using pymatgen
data_Ce5C2Cl9
_symmetry_space_group_name_H-M   'P 1'
_cell_length_a   8.66068400
_cell_length_b   8.94532762
_cell_length_c   11.77699465
_cell_angle_alpha   94.42816722
_cell_angle_beta   94.38319255
_cell_angle_gamma   114.68680371
_symmetry_Int_Tables_number   1
_chemical_formula_structural   Ce5C2Cl9
_chemical_formula_sum   'Ce10 C4 Cl18'
_cell_volume   820.56259031
_cell_formula_units_Z   2
loop_
 _symmetry_equiv_pos_site_id
 _symmetry_equiv_pos_as_xyz
  1  'x, y, z'
loop_
 _atom_site_type_symbol
 _atom_site_label
 _atom_site_symmetry_multiplicity
 _atom_site_fract_x
 _atom_site_fract_y
 _atom_site_fract_z
 _atom_site_occupancy
  Ce  Ce0  1  0.16683800  0.85044300  0.99194700  1
  Ce  Ce1  1  0.83316200  0.14955700  0.00805300  1
  Ce  Ce2  1  0.34981600  0.12223000  0.30628100  1
  Ce  Ce3  1  0.15775700  0.25219400  0.77614400  1
  Ce  Ce4  1  0.75877100  0.36075000  0.76564800  1
  Ce  Ce5  1  0.86911500  0.17314300  0.48229900  1
  Ce  Ce6  1  0.13088500  0.82685700  0.51770100  1
  Ce  Ce7  1  0.24122900  0.63925000  0.23435200  1
  Ce  Ce8  1  0.84224300  0.74780600  0.22385600  1
  Ce  Ce9  1  0.65018400  0.87777000  0.69371900  1
  C  C10  1  0.86359900  0.15765800  0.68408900  1
  C  C11  1  0.85133800  0.14534100  0.80803900  1
  C  C12  1  0.13640100  0.84234200  0.31591100  1
  C  C13  1  0.14866200  0.85465900  0.19196100  1
  Cl  Cl14  1  0.60921500  0.98391600  0.24694100  1
  Cl  Cl15  1  0.40766400  0.70774600  0.02625200  1
  Cl  Cl16  1  0.75448000  0.41624100  0.52579900  1
  Cl  Cl17  1  0.81406100  0.81263900  0.98302900  1
  Cl  Cl18  1  0.39078500  0.01608400  0.75305900  1
  Cl  Cl19  1  0.18593900  0.18736100  0.01697100  1
  Cl  Cl20  1  0.21294600  0.18719700  0.53448200  1
  Cl  Cl21  1  0.48402100  0.47635800  0.26856500  1
  Cl  Cl22  1  0.59233600  0.29225400  0.97374800  1
  Cl  Cl23  1  0.24552000  0.58375900  0.47420100  1
  Cl  Cl24  1  0.97337100  0.84608100  0.73936000  1
  Cl  Cl25  1  0.02662900  0.15391900  0.26064000  1
  Cl  Cl26  1  0.00000000  0.50000000  0.00000000  1
  Cl  Cl27  1  0.51597900  0.52364200  0.73143500  1
  Cl  Cl28  1  0.78705400  0.81280300  0.46551800  1
  Cl  Cl29  1  0.50000000  0.00000000  0.50000000  1
  Cl  Cl30  1  0.88220500  0.44344900  0.25511300  1
  Cl  Cl31  1  0.11779500  0.55655100  0.74488700  1
