# generated using pymatgen
data_Re(SeCl6)2
_symmetry_space_group_name_H-M   'P 1'
_cell_length_a   12.72439110
_cell_length_b   12.50261267
_cell_length_c   8.86251990
_cell_angle_alpha   70.78095970
_cell_angle_beta   68.09581812
_cell_angle_gamma   41.12322218
_symmetry_Int_Tables_number   1
_chemical_formula_structural   Re(SeCl6)2
_chemical_formula_sum   'Re2 Se4 Cl24'
_cell_volume   857.65345586
_cell_formula_units_Z   2
loop_
 _symmetry_equiv_pos_site_id
 _symmetry_equiv_pos_as_xyz
  1  'x, y, z'
loop_
 _atom_site_type_symbol
 _atom_site_label
 _atom_site_symmetry_multiplicity
 _atom_site_fract_x
 _atom_site_fract_y
 _atom_site_fract_z
 _atom_site_occupancy
  Re  Re0  1  0.92010200  0.92010200  0.07989800  1
  Re  Re1  1  0.17010200  0.17010200  0.32989800  1
  Se  Se2  1  0.28753000  0.71753400  0.26614400  1
  Se  Se3  1  0.71753400  0.28753000  0.72879100  1
  Se  Se4  1  0.98385600  0.52120900  0.96247000  1
  Se  Se5  1  0.52120900  0.98385600  0.53246600  1
  Cl  Cl6  1  0.95869100  0.39496000  0.87954000  1
  Cl  Cl7  1  0.28211900  0.21322400  0.06493300  1
  Cl  Cl8  1  0.05406400  0.13718500  0.59666100  1
  Cl  Cl9  1  0.43271200  0.91017500  0.36873300  1
  Cl  Cl10  1  0.62482500  0.52886300  0.70146600  1
  Cl  Cl11  1  0.18506700  0.81027600  0.96788100  1
  Cl  Cl12  1  0.13718500  0.05406400  0.21209000  1
  Cl  Cl13  1  0.96162100  0.88126700  0.33982500  1
  Cl  Cl14  1  0.71517100  0.27954500  0.48579200  1
  Cl  Cl15  1  0.21322400  0.28211900  0.43972400  1
  Cl  Cl16  1  0.10515300  0.54853400  0.72113700  1
  Cl  Cl17  1  0.52886300  0.62482500  0.14484700  1
  Cl  Cl18  1  0.37046000  0.48319100  0.29130900  1
  Cl  Cl19  1  0.81027600  0.18506700  0.03677600  1
  Cl  Cl20  1  0.76420800  0.73050700  0.53482900  1
  Cl  Cl21  1  0.39496000  0.95869100  0.76680900  1
  Cl  Cl22  1  0.65333900  0.03791000  0.19593600  1
  Cl  Cl23  1  0.48319100  0.37046000  0.85504000  1
  Cl  Cl24  1  0.54853400  0.10515300  0.62517500  1
  Cl  Cl25  1  0.03791000  0.65333900  0.11281500  1
  Cl  Cl26  1  0.91017500  0.43271200  0.28837900  1
  Cl  Cl27  1  0.73050700  0.76420800  0.97045500  1
  Cl  Cl28  1  0.27954500  0.71517100  0.51949300  1
  Cl  Cl29  1  0.88126700  0.96162100  0.81728800  1
