# generated using pymatgen
data_BaNa4Cu3F12
_symmetry_space_group_name_H-M   'P 1'
_cell_length_a   14.07799984
_cell_length_b   14.07799984
_cell_length_c   14.07799984
_cell_angle_alpha   109.47122063
_cell_angle_beta   109.47122063
_cell_angle_gamma   109.47122063
_symmetry_Int_Tables_number   1
_chemical_formula_structural   BaNa4Cu3F12
_chemical_formula_sum   'Ba8 Na32 Cu24 F96'
_cell_volume   2147.83530832
_cell_formula_units_Z   8
loop_
 _symmetry_equiv_pos_site_id
 _symmetry_equiv_pos_as_xyz
  1  'x, y, z'
loop_
 _atom_site_type_symbol
 _atom_site_label
 _atom_site_symmetry_multiplicity
 _atom_site_fract_x
 _atom_site_fract_y
 _atom_site_fract_z
 _atom_site_occupancy
  Ba  Ba0  1  0.50000000  0.00000000  0.50000000  1
  Ba  Ba1  1  0.00000000  0.00000000  0.00000000  1
  Ba  Ba2  1  0.00000000  0.50000000  0.50000000  1
  Ba  Ba3  1  0.00000000  0.00000000  0.50000000  1
  Ba  Ba4  1  0.50000000  0.00000000  0.00000000  1
  Ba  Ba5  1  0.50000000  0.50000000  0.00000000  1
  Ba  Ba6  1  0.50000000  0.50000000  0.50000000  1
  Ba  Ba7  1  0.00000000  0.50000000  0.00000000  1
  Na  Na8  1  0.25189600  0.25189600  0.25189600  1
  Na  Na9  1  0.25000000  0.77446200  0.52446200  1
  Na  Na10  1  0.75189600  0.50000000  0.00000000  1
  Na  Na11  1  0.74810400  0.74810400  0.74810400  1
  Na  Na12  1  0.75000000  0.22553800  0.47553800  1
  Na  Na13  1  0.50446000  0.25446000  0.25000000  1
  Na  Na14  1  0.24810400  0.50000000  0.00000000  1
  Na  Na15  1  0.00000000  0.75189600  0.50000000  1
  Na  Na16  1  0.00446000  0.75446000  0.25000000  1
  Na  Na17  1  0.75446000  0.25000000  0.00446000  1
  Na  Na18  1  0.25000000  0.27446200  0.02446200  1
  Na  Na19  1  0.99554000  0.24554000  0.75000000  1
  Na  Na20  1  0.47553800  0.75000000  0.22553800  1
  Na  Na21  1  0.75000000  0.49554000  0.74554000  1
  Na  Na22  1  0.97553800  0.75000000  0.72553800  1
  Na  Na23  1  0.27446200  0.02446200  0.25000000  1
  Na  Na24  1  0.02446200  0.25000000  0.27446200  1
  Na  Na25  1  0.00000000  0.24810400  0.50000000  1
  Na  Na26  1  0.75000000  0.99554000  0.24554000  1
  Na  Na27  1  0.24554000  0.75000000  0.99554000  1
  Na  Na28  1  0.25446000  0.25000000  0.50446000  1
  Na  Na29  1  0.74554000  0.75000000  0.49554000  1
  Na  Na30  1  0.22553800  0.47553800  0.75000000  1
  Na  Na31  1  0.50000000  0.00000000  0.24810400  1
  Na  Na32  1  0.50000000  0.00000000  0.75189600  1
  Na  Na33  1  0.25000000  0.00446000  0.75446000  1
  Na  Na34  1  0.52446200  0.25000000  0.77446200  1
  Na  Na35  1  0.77446200  0.52446200  0.25000000  1
  Na  Na36  1  0.25000000  0.50446000  0.25446000  1
  Na  Na37  1  0.72553800  0.97553800  0.75000000  1
  Na  Na38  1  0.75000000  0.72553800  0.97553800  1
  Na  Na39  1  0.49554000  0.74554000  0.75000000  1
  Cu  Cu40  1  0.50114500  0.50141900  0.24991100  1
  Cu  Cu41  1  0.74876600  0.74991100  0.24849200  1
  Cu  Cu42  1  0.24991100  0.50114500  0.50141900  1
  Cu  Cu43  1  0.25123400  0.25008900  0.75150800  1
  Cu  Cu44  1  0.99885500  0.24876600  0.00027300  1
  Cu  Cu45  1  0.49885500  0.49858100  0.75008900  1
  Cu  Cu46  1  0.75123400  0.99972700  0.00114500  1
  Cu  Cu47  1  0.24876600  0.00027300  0.99885500  1
  Cu  Cu48  1  0.74849200  0.99858100  0.49972700  1
  Cu  Cu49  1  0.99972700  0.00114500  0.75123400  1
  Cu  Cu50  1  0.99858100  0.49972700  0.74849200  1
  Cu  Cu51  1  0.25150800  0.00141900  0.50027300  1
  Cu  Cu52  1  0.50027300  0.25150800  0.00141900  1
  Cu  Cu53  1  0.00027300  0.99885500  0.24876600  1
  Cu  Cu54  1  0.24849200  0.74876600  0.74991100  1
  Cu  Cu55  1  0.49972700  0.74849200  0.99858100  1
  Cu  Cu56  1  0.50141900  0.24991100  0.50114500  1
  Cu  Cu57  1  0.49858100  0.75008900  0.49885500  1
  Cu  Cu58  1  0.75008900  0.49885500  0.49858100  1
  Cu  Cu59  1  0.00114500  0.75123400  0.99972700  1
  Cu  Cu60  1  0.75150800  0.25123400  0.25008900  1
  Cu  Cu61  1  0.00141900  0.50027300  0.25150800  1
  Cu  Cu62  1  0.74991100  0.24849200  0.74876600  1
  Cu  Cu63  1  0.25008900  0.75150800  0.25123400  1
  F  F64  1  0.13876700  0.39212700  0.05183200  1
  F  F65  1  0.41306400  0.25336000  0.36123300  1
  F  F66  1  0.39212700  0.05183200  0.13876700  1
  F  F67  1  0.26225200  0.34775900  0.89565700  1
  F  F68  1  0.65438500  0.41676700  0.54818400  1
  F  F69  1  0.10787300  0.24664000  0.65970500  1
  F  F70  1  0.04789800  0.63340400  0.39565700  1
  F  F71  1  0.91622100  0.55476400  0.65918200  1
  F  F72  1  0.34081800  0.08377900  0.44523600  1
  F  F73  1  0.84561500  0.39379900  0.76238200  1
  F  F74  1  0.36145700  0.41622100  0.75703900  1
  F  F75  1  0.73761800  0.13141700  0.08323300  1
  F  F76  1  0.24296100  0.63854300  0.58377900  1
  F  F77  1  0.15970500  0.91306400  0.55183200  1
  F  F78  1  0.65224100  0.10434300  0.73774800  1
  F  F79  1  0.10434300  0.73774800  0.65224100  1
  F  F80  1  0.65918200  0.91622100  0.55476400  1
  F  F81  1  0.91676700  0.26238200  0.86858300  1
  F  F82  1  0.13141700  0.08323300  0.73761800  1
  F  F83  1  0.05183200  0.13876700  0.39212700  1
  F  F84  1  0.89558200  0.05476400  0.13854300  1
  F  F85  1  0.94816800  0.86123300  0.60787300  1
  F  F86  1  0.08377900  0.44523600  0.34081800  1
  F  F87  1  0.45210200  0.84775900  0.58550600  1
  F  F88  1  0.95210200  0.36659600  0.60434300  1
  F  F89  1  0.15224100  0.41449400  0.54789800  1
  F  F90  1  0.58550600  0.45210200  0.84775900  1
  F  F91  1  0.75336000  0.34029500  0.89212700  1
  F  F92  1  0.91449400  0.76225200  0.86659600  1
  F  F93  1  0.36123300  0.41306400  0.25336000  1
  F  F94  1  0.13854300  0.89558200  0.05476400  1
  F  F95  1  0.94523600  0.86145700  0.10441800  1
  F  F96  1  0.41676700  0.54818400  0.65438500  1
  F  F97  1  0.41622100  0.75703900  0.36145700  1
  F  F98  1  0.91306400  0.55183200  0.15970500  1
  F  F99  1  0.54818400  0.65438500  0.41676700  1
  F  F100  1  0.08323300  0.73761800  0.13141700  1
  F  F101  1  0.60441800  0.74296100  0.15918200  1
  F  F102  1  0.86659600  0.91449400  0.76225200  1
  F  F103  1  0.25336000  0.36123300  0.41306400  1
  F  F104  1  0.10441800  0.94523600  0.86145700  1
  F  F105  1  0.08693600  0.44816800  0.84029500  1
  F  F106  1  0.39558200  0.25703900  0.84081800  1
  F  F107  1  0.23761800  0.15438500  0.60620100  1
  F  F108  1  0.23774800  0.13340400  0.08550600  1
  F  F109  1  0.95181600  0.36858300  0.10620100  1
  F  F110  1  0.73774800  0.65224100  0.10434300  1
  F  F111  1  0.63141700  0.89379900  0.04818400  1
  F  F112  1  0.63854300  0.58377900  0.24296100  1
  F  F113  1  0.84775900  0.58550600  0.45210200  1
  F  F114  1  0.44523600  0.34081800  0.08377900  1
  F  F115  1  0.24664000  0.65970500  0.10787300  1
  F  F116  1  0.63340400  0.39565700  0.04789800  1
  F  F117  1  0.15438500  0.60620100  0.23761800  1
  F  F118  1  0.34775900  0.89565700  0.26225200  1
  F  F119  1  0.55183200  0.15970500  0.91306400  1
  F  F120  1  0.84081800  0.39558200  0.25703900  1
  F  F121  1  0.58693600  0.74664000  0.63876700  1
  F  F122  1  0.60620100  0.23761800  0.15438500  1
  F  F123  1  0.86123300  0.60787300  0.94816800  1
  F  F124  1  0.34029500  0.89212700  0.75336000  1
  F  F125  1  0.45181600  0.34561500  0.58323300  1
  F  F126  1  0.58377900  0.24296100  0.63854300  1
  F  F127  1  0.44816800  0.84029500  0.08693600  1
  F  F128  1  0.58323300  0.45181600  0.34561500  1
  F  F129  1  0.25703900  0.84081800  0.39558200  1
  F  F130  1  0.76225200  0.86659600  0.91449400  1
  F  F131  1  0.10620100  0.95181600  0.36858300  1
  F  F132  1  0.86145700  0.10441800  0.94523600  1
  F  F133  1  0.36659600  0.60434300  0.95210200  1
  F  F134  1  0.05476400  0.13854300  0.89558200  1
  F  F135  1  0.74664000  0.63876700  0.58693600  1
  F  F136  1  0.89565700  0.26225200  0.34775900  1
  F  F137  1  0.65970500  0.10787300  0.24664000  1
  F  F138  1  0.34561500  0.58323300  0.45181600  1
  F  F139  1  0.26238200  0.86858300  0.91676700  1
  F  F140  1  0.89212700  0.75336000  0.34029500  1
  F  F141  1  0.39379900  0.76238200  0.84561500  1
  F  F142  1  0.08550600  0.23774800  0.13340400  1
  F  F143  1  0.04818400  0.63141700  0.89379900  1
  F  F144  1  0.41449400  0.54789800  0.15224100  1
  F  F145  1  0.60434300  0.95210200  0.36659600  1
  F  F146  1  0.15918200  0.60441800  0.74296100  1
  F  F147  1  0.36858300  0.10620100  0.95181600  1
  F  F148  1  0.63876700  0.58693600  0.74664000  1
  F  F149  1  0.54789800  0.15224100  0.41449400  1
  F  F150  1  0.89379900  0.04818400  0.63141700  1
  F  F151  1  0.74296100  0.15918200  0.60441800  1
  F  F152  1  0.60787300  0.94816800  0.86123300  1
  F  F153  1  0.76238200  0.84561500  0.39379900  1
  F  F154  1  0.39565700  0.04789800  0.63340400  1
  F  F155  1  0.86858300  0.91676700  0.26238200  1
  F  F156  1  0.55476400  0.65918200  0.91622100  1
  F  F157  1  0.75703900  0.36145700  0.41622100  1
  F  F158  1  0.84029500  0.08693600  0.44816800  1
  F  F159  1  0.13340400  0.08550600  0.23774800  1
