# generated using pymatgen
data_SrIn
_symmetry_space_group_name_H-M   'P 1'
_cell_length_a   13.85719498
_cell_length_b   13.85719498
_cell_length_c   6.66984616
_cell_angle_alpha   78.71989524
_cell_angle_beta   78.71989524
_cell_angle_gamma   144.24180203
_symmetry_Int_Tables_number   1
_chemical_formula_structural   SrIn
_chemical_formula_sum   'Sr8 In8'
_cell_volume   576.85587917
_cell_formula_units_Z   8
loop_
 _symmetry_equiv_pos_site_id
 _symmetry_equiv_pos_as_xyz
  1  'x, y, z'
loop_
 _atom_site_type_symbol
 _atom_site_label
 _atom_site_symmetry_multiplicity
 _atom_site_fract_x
 _atom_site_fract_y
 _atom_site_fract_z
 _atom_site_occupancy
  Sr  Sr0  1  0.41983200  0.52887700  0.30150800  1
  Sr  Sr1  1  0.91052600  0.50455900  0.29877800  1
  Sr  Sr2  1  0.07452300  0.46487300  0.70341100  1
  Sr  Sr3  1  0.50455900  0.91052600  0.79877800  1
  Sr  Sr4  1  0.52887700  0.41983200  0.80150800  1
  Sr  Sr5  1  0.05734700  0.96201000  0.70384600  1
  Sr  Sr6  1  0.96201000  0.05734700  0.20384600  1
  Sr  Sr7  1  0.46487300  0.07452300  0.20341100  1
  In  In8  1  0.62685200  0.94853900  0.24523100  1
  In  In9  1  0.03755800  0.85472800  0.25001100  1
  In  In10  1  0.35520000  0.03378800  0.74960200  1
  In  In11  1  0.44691500  0.62182000  0.76044200  1
  In  In12  1  0.94853900  0.62685200  0.74523100  1
  In  In13  1  0.62182000  0.44691500  0.26044200  1
  In  In14  1  0.85472800  0.03755800  0.75001100  1
  In  In15  1  0.03378800  0.35520000  0.24960200  1
