# generated using pymatgen
data_MnC4IO4
_symmetry_space_group_name_H-M   'P 1'
_cell_length_a   12.42382700
_cell_length_b   9.90578400
_cell_length_c   13.19086153
_cell_angle_alpha   71.40899193
_cell_angle_beta   90.00000000
_cell_angle_gamma   90.00000000
_symmetry_Int_Tables_number   1
_chemical_formula_structural   MnC4IO4
_chemical_formula_sum   'Mn8 C32 I8 O32'
_cell_volume   1538.65967215
_cell_formula_units_Z   8
loop_
 _symmetry_equiv_pos_site_id
 _symmetry_equiv_pos_as_xyz
  1  'x, y, z'
loop_
 _atom_site_type_symbol
 _atom_site_label
 _atom_site_symmetry_multiplicity
 _atom_site_fract_x
 _atom_site_fract_y
 _atom_site_fract_z
 _atom_site_occupancy
  Mn  Mn0  1  0.86829500  0.89673300  0.31291300  1
  Mn  Mn1  1  0.36829500  0.10326700  0.18708700  1
  Mn  Mn2  1  0.63204300  0.32863000  0.70784600  1
  Mn  Mn3  1  0.86795700  0.32863000  0.20784600  1
  Mn  Mn4  1  0.13204300  0.67137000  0.79215400  1
  Mn  Mn5  1  0.63170500  0.89673300  0.81291300  1
  Mn  Mn6  1  0.36795700  0.67137000  0.29215400  1
  Mn  Mn7  1  0.13170500  0.10326700  0.68708700  1
  C  C8  1  0.21586600  0.53726300  0.88712900  1
  C  C9  1  0.21392200  0.24158400  0.71328900  1
  C  C10  1  0.95535800  0.76106700  0.40312100  1
  C  C11  1  0.04259900  0.09252400  0.80558700  1
  C  C12  1  0.22249800  0.10087100  0.57306000  1
  C  C13  1  0.54259900  0.90747600  0.69441300  1
  C  C14  1  0.45978900  0.68331500  0.40212200  1
  C  C15  1  0.95740100  0.90747600  0.19441300  1
  C  C16  1  0.04464200  0.23893300  0.59687900  1
  C  C17  1  0.54464200  0.76106700  0.90312100  1
  C  C18  1  0.95322200  0.46467300  0.23407000  1
  C  C19  1  0.78607800  0.75841600  0.28671100  1
  C  C20  1  0.78413400  0.46273700  0.11287100  1
  C  C21  1  0.45535800  0.23893300  0.09687900  1
  C  C22  1  0.28607800  0.24158400  0.21328900  1
  C  C23  1  0.71586600  0.46273700  0.61287100  1
  C  C24  1  0.54677800  0.46467300  0.73407000  1
  C  C25  1  0.72249800  0.89912900  0.92694000  1
  C  C26  1  0.04677800  0.53532700  0.76593000  1
  C  C27  1  0.77750200  0.89912900  0.42694000  1
  C  C28  1  0.04021100  0.68331500  0.90212200  1
  C  C29  1  0.28413400  0.53726300  0.38712900  1
  C  C30  1  0.45740100  0.09252400  0.30558700  1
  C  C31  1  0.71392200  0.75841600  0.78671100  1
  C  C32  1  0.95978900  0.31668500  0.09787800  1
  C  C33  1  0.22418500  0.67607300  0.67714000  1
  C  C34  1  0.72418500  0.32392700  0.82286000  1
  C  C35  1  0.27581500  0.67607300  0.17714000  1
  C  C36  1  0.77581500  0.32392700  0.32286000  1
  C  C37  1  0.54021100  0.31668500  0.59787800  1
  C  C38  1  0.27750200  0.10087100  0.07306000  1
  C  C39  1  0.45322200  0.53532700  0.26593000  1
  I  I40  1  0.98578400  0.11448900  0.34646900  1
  I  I41  1  0.74753300  0.11218300  0.17803400  1
  I  I42  1  0.25246700  0.88781700  0.82196600  1
  I  I43  1  0.24753300  0.88781700  0.32196600  1
  I  I44  1  0.75246700  0.11218300  0.67803400  1
  I  I45  1  0.48578400  0.88551100  0.15353100  1
  I  I46  1  0.51421600  0.11448900  0.84646900  1
  I  I47  1  0.01421600  0.88551100  0.65353100  1
  O  O48  1  0.51125000  0.08876700  0.37790000  1
  O  O49  1  0.71941200  0.32498000  0.39239500  1
  O  O50  1  0.78058800  0.32498000  0.89239500  1
  O  O51  1  0.73250300  0.54921600  0.05224300  1
  O  O52  1  0.98875000  0.08876700  0.87790000  1
  O  O53  1  0.98272600  0.68651100  0.97050400  1
  O  O54  1  0.21941200  0.67502000  0.10760500  1
  O  O55  1  0.50873300  0.32738300  0.04039400  1
  O  O56  1  0.26749700  0.45078400  0.94775700  1
  O  O57  1  0.72128400  0.89503400  0.49778500  1
  O  O58  1  0.77871600  0.89503400  0.99778500  1
  O  O59  1  0.76432400  0.66775000  0.77171100  1
  O  O60  1  0.99126700  0.32738300  0.54039400  1
  O  O61  1  0.49390400  0.55205000  0.75073700  1
  O  O62  1  0.99390400  0.44795000  0.74926300  1
  O  O63  1  0.76749700  0.54921600  0.55224300  1
  O  O64  1  0.73567600  0.66775000  0.27171100  1
  O  O65  1  0.23250300  0.45078400  0.44775700  1
  O  O66  1  0.22128400  0.10496600  0.00221500  1
  O  O67  1  0.28058800  0.67502000  0.60760500  1
  O  O68  1  0.01727400  0.31348900  0.02949600  1
  O  O69  1  0.00609600  0.55205000  0.25073700  1
  O  O70  1  0.23567600  0.33225000  0.22828900  1
  O  O71  1  0.48272600  0.31348900  0.52949600  1
  O  O72  1  0.51727400  0.68651100  0.47050400  1
  O  O73  1  0.00873300  0.67261700  0.45960600  1
  O  O74  1  0.50609600  0.44795000  0.24926300  1
  O  O75  1  0.48875000  0.91123300  0.62210000  1
  O  O76  1  0.49126700  0.67261700  0.95960600  1
  O  O77  1  0.27871600  0.10496600  0.50221500  1
  O  O78  1  0.01125000  0.91123300  0.12210000  1
  O  O79  1  0.26432400  0.33225000  0.72828900  1
