# generated using pymatgen
data_S
_symmetry_space_group_name_H-M   'P 1'
_cell_length_a   14.48037559
_cell_length_b   14.48037559
_cell_length_c   4.92590800
_cell_angle_alpha   90.00000000
_cell_angle_beta   90.00000000
_cell_angle_gamma   119.99999813
_symmetry_Int_Tables_number   1
_chemical_formula_structural   S
_chemical_formula_sum   S18
_cell_volume   894.49226548
_cell_formula_units_Z   18
loop_
 _symmetry_equiv_pos_site_id
 _symmetry_equiv_pos_as_xyz
  1  'x, y, z'
loop_
 _atom_site_type_symbol
 _atom_site_label
 _atom_site_symmetry_multiplicity
 _atom_site_fract_x
 _atom_site_fract_y
 _atom_site_fract_z
 _atom_site_occupancy
  S  S0  1  0.20207000  0.65303400  0.64294900  1
  S  S1  1  0.27403200  0.46454800  0.32469100  1
  S  S2  1  0.19051500  0.72596800  0.32469100  1
  S  S3  1  0.53545200  0.80948500  0.32469100  1
  S  S4  1  0.12078800  0.37892300  0.33676400  1
  S  S5  1  0.34696600  0.54903600  0.64294900  1
  S  S6  1  0.65004700  0.06238300  0.19418100  1
  S  S7  1  0.45096400  0.79793000  0.64294900  1
  S  S8  1  0.53611000  0.48066000  0.07439900  1
  S  S9  1  0.93761700  0.58766400  0.19418100  1
  S  S10  1  0.25813500  0.87921200  0.33676400  1
  S  S11  1  0.51934000  0.05545000  0.07439900  1
  S  S12  1  0.41233600  0.34995300  0.19418100  1
  S  S13  1  0.94455000  0.46389000  0.07439900  1
  S  S14  1  0.62107700  0.74186500  0.33676400  1
  S  S15  1  0.82732900  0.56915800  0.44101500  1
  S  S16  1  0.43084200  0.25817000  0.44101500  1
  S  S17  1  0.74183000  0.17267100  0.44101500  1
