# generated using pymatgen
data_Sc2H10S3O17
_symmetry_space_group_name_H-M   'P 1'
_cell_length_a   6.79736400
_cell_length_b   11.23958117
_cell_length_c   12.40332531
_cell_angle_alpha   91.82327986
_cell_angle_beta   94.85910005
_cell_angle_gamma   101.03964054
_symmetry_Int_Tables_number   1
_chemical_formula_structural   Sc2H10S3O17
_chemical_formula_sum   'Sc4 H20 S6 O34'
_cell_volume   925.61130504
_cell_formula_units_Z   2
loop_
 _symmetry_equiv_pos_site_id
 _symmetry_equiv_pos_as_xyz
  1  'x, y, z'
loop_
 _atom_site_type_symbol
 _atom_site_label
 _atom_site_symmetry_multiplicity
 _atom_site_fract_x
 _atom_site_fract_y
 _atom_site_fract_z
 _atom_site_occupancy
  Sc  Sc0  1  0.41350800  0.23489700  0.76108000  1
  Sc  Sc1  1  0.00000000  0.50000000  0.00000000  1
  Sc  Sc2  1  0.58649200  0.76510300  0.23892000  1
  Sc  Sc3  1  0.00000000  0.50000000  0.50000000  1
  H  H4  1  0.59540500  0.90617300  0.97930300  1
  H  H5  1  0.82338300  0.26331600  0.47919300  1
  H  H6  1  0.76997600  0.13449000  0.79538900  1
  H  H7  1  0.71996900  0.63588100  0.67722000  1
  H  H8  1  0.78601200  0.04767900  0.27749900  1
  H  H9  1  0.37408300  0.93492400  0.12284900  1
  H  H10  1  0.35302700  0.45791300  0.78329400  1
  H  H11  1  0.64697300  0.54208700  0.21670600  1
  H  H12  1  0.71243000  0.38056300  0.07861000  1
  H  H13  1  0.45481000  0.65826500  0.62196300  1
  H  H14  1  0.20353000  0.61397600  0.87581800  1
  H  H15  1  0.62591700  0.06507600  0.87715100  1
  H  H16  1  0.28757000  0.61943700  0.92139000  1
  H  H17  1  0.54519000  0.34173500  0.37803700  1
  H  H18  1  0.17661700  0.73668400  0.52080700  1
  H  H19  1  0.28003100  0.36411900  0.32278000  1
  H  H20  1  0.21398800  0.95232100  0.72250100  1
  H  H21  1  0.23002400  0.86551000  0.20461100  1
  H  H22  1  0.40459500  0.09382700  0.02069700  1
  H  H23  1  0.79647000  0.38602400  0.12418200  1
  S  S24  1  0.15825600  0.23502500  0.96838000  1
  S  S25  1  0.18557900  0.24884800  0.50547800  1
  S  S26  1  0.79500300  0.46741000  0.73167900  1
  S  S27  1  0.81442100  0.75115200  0.49452200  1
  S  S28  1  0.84174400  0.76497500  0.03162000  1
  S  S29  1  0.20499700  0.53259000  0.26832100  1
  O  O30  1  0.39626900  0.00305500  0.01056700  1
  O  O31  1  0.02238600  0.81958400  0.51477000  1
  O  O32  1  0.97700000  0.17153000  0.01013400  1
  O  O33  1  0.17403800  0.18360600  0.85408300  1
  O  O34  1  0.28741200  0.20294000  0.60371700  1
  O  O35  1  0.13594800  0.36800000  0.95749000  1
  O  O36  1  0.58098400  0.60583800  0.18921700  1
  O  O37  1  0.30063300  0.65642000  0.30331900  1
  O  O38  1  0.81470000  0.61855800  0.46682100  1
  O  O39  1  0.30898500  0.64419200  0.62943500  1
  O  O40  1  0.62934000  0.11872000  0.81188000  1
  O  O41  1  0.84925800  0.48047900  0.84901200  1
  O  O42  1  0.41901600  0.39416200  0.81078300  1
  O  O43  1  0.97103800  0.51165900  0.67186000  1
  O  O44  1  0.34926200  0.44223700  0.29285600  1
  O  O45  1  0.34971200  0.23466600  0.03350900  1
  O  O46  1  0.86405200  0.63200000  0.04251000  1
  O  O47  1  0.15074200  0.51952100  0.15098800  1
  O  O48  1  0.69101500  0.35580800  0.37056500  1
  O  O49  1  0.76213400  0.34078800  0.48314000  1
  O  O50  1  0.65028800  0.76533400  0.96649100  1
  O  O51  1  0.69640900  0.75510900  0.58841100  1
  O  O52  1  0.02896200  0.48834100  0.32814000  1
  O  O53  1  0.02300000  0.82847000  0.98986600  1
  O  O54  1  0.23786600  0.65921200  0.51686000  1
  O  O55  1  0.71258800  0.79706000  0.39628300  1
  O  O56  1  0.69936700  0.34358000  0.69668100  1
  O  O57  1  0.65073800  0.55776300  0.70714400  1
  O  O58  1  0.82596200  0.81639400  0.14591700  1
  O  O59  1  0.60373100  0.99694500  0.98943300  1
  O  O60  1  0.18530000  0.38144200  0.53317900  1
  O  O61  1  0.30359100  0.24489100  0.41158900  1
  O  O62  1  0.37066000  0.88128000  0.18812000  1
  O  O63  1  0.97761400  0.18041600  0.48523000  1
