# generated using pymatgen
data_BaCu2(PO4)2
_symmetry_space_group_name_H-M   'P 1'
_cell_length_a   9.35421997
_cell_length_b   9.38852575
_cell_length_c   10.70157718
_cell_angle_alpha   106.92935782
_cell_angle_beta   101.71213901
_cell_angle_gamma   115.37064051
_symmetry_Int_Tables_number   1
_chemical_formula_structural   BaCu2(PO4)2
_chemical_formula_sum   'Ba4 Cu8 P8 O32'
_cell_volume   751.72739162
_cell_formula_units_Z   4
loop_
 _symmetry_equiv_pos_site_id
 _symmetry_equiv_pos_as_xyz
  1  'x, y, z'
loop_
 _atom_site_type_symbol
 _atom_site_label
 _atom_site_symmetry_multiplicity
 _atom_site_fract_x
 _atom_site_fract_y
 _atom_site_fract_z
 _atom_site_occupancy
  Ba  Ba0  1  0.75928400  0.75636200  0.00250900  1
  Ba  Ba1  1  0.24071600  0.24363800  0.99749100  1
  Ba  Ba2  1  0.73598500  0.75117900  0.51362500  1
  Ba  Ba3  1  0.26401500  0.24882100  0.48637500  1
  Cu  Cu4  1  0.09920400  0.76324300  0.29288100  1
  Cu  Cu5  1  0.02977000  0.68702200  0.80108100  1
  Cu  Cu6  1  0.36318000  0.70878100  0.68888300  1
  Cu  Cu7  1  0.48425500  0.83226300  0.19592200  1
  Cu  Cu8  1  0.90079600  0.23675700  0.70711900  1
  Cu  Cu9  1  0.97023000  0.31297800  0.19891900  1
  Cu  Cu10  1  0.51574500  0.16773700  0.80407800  1
  Cu  Cu11  1  0.63682000  0.29121900  0.31111700  1
  P  P12  1  0.21301100  0.94375700  0.13468400  1
  P  P13  1  0.28872600  0.57004700  0.86725200  1
  P  P14  1  0.19520000  0.91977700  0.62840200  1
  P  P15  1  0.29706800  0.57670000  0.35951300  1
  P  P16  1  0.80480000  0.08022300  0.37159800  1
  P  P17  1  0.70293200  0.42330000  0.64048700  1
  P  P18  1  0.71127400  0.42995300  0.13274800  1
  P  P19  1  0.78698900  0.05624300  0.86531600  1
  O  O20  1  0.27292000  0.10949100  0.74328900  1
  O  O21  1  0.63782200  0.87230200  0.81812700  1
  O  O22  1  0.86521900  0.40611100  0.65799000  1
  O  O23  1  0.26200800  0.80862000  0.14929700  1
  O  O24  1  0.74703400  0.28927600  0.16165300  1
  O  O25  1  0.64204200  0.09883700  0.34293800  1
  O  O26  1  0.35795800  0.90116300  0.65706200  1
  O  O27  1  0.89662000  0.05542200  0.77066400  1
  O  O28  1  0.10338000  0.94457800  0.22933600  1
  O  O29  1  0.73799200  0.19138000  0.85070300  1
  O  O30  1  0.90864900  0.11878300  0.01888100  1
  O  O31  1  0.78430300  0.61838700  0.74764300  1
  O  O32  1  0.13478100  0.59388900  0.34201000  1
  O  O33  1  0.04377200  0.78135000  0.64149200  1
  O  O34  1  0.09135100  0.88121700  0.98111900  1
  O  O35  1  0.86224500  0.07834100  0.51715100  1
  O  O36  1  0.62399500  0.41003900  0.49103800  1
  O  O37  1  0.21569700  0.38161300  0.25235700  1
  O  O38  1  0.55971000  0.29565600  0.66782700  1
  O  O39  1  0.44029000  0.70434400  0.33217300  1
  O  O40  1  0.95622800  0.21865000  0.35850800  1
  O  O41  1  0.13775500  0.92165900  0.48284900  1
  O  O42  1  0.35009600  0.51705400  0.74528500  1
  O  O43  1  0.37600500  0.58996100  0.50896200  1
  O  O44  1  0.25296600  0.71072400  0.83834700  1
  O  O45  1  0.86692300  0.58134700  0.13464400  1
  O  O46  1  0.64990400  0.48294600  0.25471500  1
  O  O47  1  0.13307700  0.41865300  0.86535600  1
  O  O48  1  0.56239400  0.34773200  0.98998800  1
  O  O49  1  0.72708000  0.89050900  0.25671100  1
  O  O50  1  0.43760600  0.65226800  0.01001200  1
  O  O51  1  0.36217800  0.12769800  0.18187300  1
