# generated using pymatgen
data_POs6C18ClO18
_symmetry_space_group_name_H-M   'P 1'
_cell_length_a   9.22224000
_cell_length_b   10.42822914
_cell_length_c   17.53574368
_cell_angle_alpha   91.50209840
_cell_angle_beta   90.87121922
_cell_angle_gamma   114.69370706
_symmetry_Int_Tables_number   1
_chemical_formula_structural   POs6C18ClO18
_chemical_formula_sum   'P2 Os12 C36 Cl2 O36'
_cell_volume   1531.06108259
_cell_formula_units_Z   2
loop_
 _symmetry_equiv_pos_site_id
 _symmetry_equiv_pos_as_xyz
  1  'x, y, z'
loop_
 _atom_site_type_symbol
 _atom_site_label
 _atom_site_symmetry_multiplicity
 _atom_site_fract_x
 _atom_site_fract_y
 _atom_site_fract_z
 _atom_site_occupancy
  P  P0  1  0.84038000  0.69778300  0.24883300  1
  P  P1  1  0.15962000  0.30221700  0.75116700  1
  Os  Os2  1  0.82734300  0.87499500  0.32796700  1
  Os  Os3  1  0.75572800  0.44962000  0.24904400  1
  Os  Os4  1  0.24427200  0.55038000  0.75095600  1
  Os  Os5  1  0.43022900  0.37519300  0.77668600  1
  Os  Os6  1  0.56977100  0.62480700  0.22331400  1
  Os  Os7  1  0.93839800  0.08938500  0.79820900  1
  Os  Os8  1  0.83003900  0.63918900  0.11796700  1
  Os  Os9  1  0.96657700  0.67012500  0.36917600  1
  Os  Os10  1  0.03342300  0.32987500  0.63082400  1
  Os  Os11  1  0.16996100  0.36081100  0.88203300  1
  Os  Os12  1  0.06160200  0.91061500  0.20179100  1
  Os  Os13  1  0.17265700  0.12500500  0.67203300  1
  C  C14  1  0.67631400  0.82591700  0.40783600  1
  C  C15  1  0.80140700  0.91279900  0.74988900  1
  C  C16  1  0.32368600  0.17408300  0.59216400  1
  C  C17  1  0.43432800  0.57456900  0.30928700  1
  C  C18  1  0.19859300  0.08720100  0.25011100  1
  C  C19  1  0.00490500  0.98413800  0.61190800  1
  C  C20  1  0.05257400  0.99910300  0.84684700  1
  C  C21  1  0.47790600  0.23755100  0.82799800  1
  C  C22  1  0.67772800  0.48726200  0.05640500  1
  C  C23  1  0.99509500  0.01586200  0.38809200  1
  C  C24  1  0.25593500  0.00122600  0.71387800  1
  C  C25  1  0.16958100  0.23293400  0.95820500  1
  C  C26  1  0.61249300  0.30078300  0.18235000  1
  C  C27  1  0.65508900  0.34516600  0.33599700  1
  C  C28  1  0.89565100  0.20443800  0.55240900  1
  C  C29  1  0.32227200  0.51273800  0.94359500  1
  C  C30  1  0.01340800  0.51215600  0.39221300  1
  C  C31  1  0.38750700  0.69921700  0.81765000  1
  C  C32  1  0.58166600  0.52596500  0.83841200  1
  C  C33  1  0.19247600  0.92334100  0.11444900  1
  C  C34  1  0.10434900  0.79556200  0.44759100  1
  C  C35  1  0.41833400  0.47403500  0.16158800  1
  C  C36  1  0.99078200  0.39585800  0.91032700  1
  C  C37  1  0.80752400  0.07665900  0.88555100  1
  C  C38  1  0.74406500  0.99877400  0.28612200  1
  C  C39  1  0.34491100  0.65483400  0.66400300  1
  C  C40  1  0.21047500  0.39602800  0.56664800  1
  C  C41  1  0.56567200  0.42543100  0.69071300  1
  C  C42  1  0.92805400  0.39587200  0.23530900  1
  C  C43  1  0.83041900  0.76706600  0.04179500  1
  C  C44  1  0.00921800  0.60414200  0.08967300  1
  C  C45  1  0.78952500  0.60397200  0.43335200  1
  C  C46  1  0.98659200  0.48784400  0.60778700  1
  C  C47  1  0.07194600  0.60412800  0.76469100  1
  C  C48  1  0.52209400  0.76244900  0.17200200  1
  C  C49  1  0.94742600  0.00089700  0.15315300  1
  Cl  Cl50  1  0.19137600  0.78235800  0.27844400  1
  Cl  Cl51  1  0.80862400  0.21764200  0.72155600  1
  O  O52  1  0.02875200  0.41381300  0.41371500  1
  O  O53  1  0.59348600  0.27756600  0.38771800  1
  O  O54  1  0.67866400  0.61847100  0.87430300  1
  O  O55  1  0.58751300  0.40149600  0.01468400  1
  O  O56  1  0.41842100  0.19799700  0.54540500  1
  O  O57  1  0.41248700  0.59850400  0.98531600  1
  O  O58  1  0.80904100  0.13250500  0.50465100  1
  O  O59  1  0.16736800  0.15836300  0.00692100  1
  O  O60  1  0.27890200  0.19749100  0.27736200  1
  O  O61  1  0.48729300  0.84168900  0.13924200  1
  O  O62  1  0.72109800  0.80250900  0.72263800  1
  O  O63  1  0.52574400  0.20375600  0.14546900  1
  O  O64  1  0.90118000  0.89697500  0.57626100  1
  O  O65  1  0.68244300  0.56117000  0.47386500  1
  O  O66  1  0.88187400  0.41894200  0.92697600  1
  O  O67  1  0.83263200  0.84163700  0.99307900  1
  O  O68  1  0.64996400  0.45870300  0.63924300  1
  O  O69  1  0.40651400  0.72243400  0.61228200  1
  O  O70  1  0.32133600  0.38152900  0.12569700  1
  O  O71  1  0.19095900  0.86749500  0.49534900  1
  O  O72  1  0.12126800  0.94088600  0.87566500  1
  O  O73  1  0.51270700  0.15831100  0.86075800  1
  O  O74  1  0.11812600  0.58105800  0.07302400  1
  O  O75  1  0.97013400  0.64083500  0.77375600  1
  O  O76  1  0.26328600  0.93497900  0.05921700  1
  O  O77  1  0.87873200  0.05911400  0.12433500  1
  O  O78  1  0.58157900  0.80200300  0.45459500  1
  O  O79  1  0.35003600  0.54129700  0.36075700  1
  O  O80  1  0.73671400  0.06502100  0.94078300  1
  O  O81  1  0.47425600  0.79624400  0.85453100  1
  O  O82  1  0.02986600  0.35916500  0.22624400  1
  O  O83  1  0.68865900  0.07347800  0.26446800  1
  O  O84  1  0.31134100  0.92652200  0.73553200  1
  O  O85  1  0.31755700  0.43883000  0.52613500  1
  O  O86  1  0.09882000  0.10302500  0.42373900  1
  O  O87  1  0.97124800  0.58618700  0.58628500  1
