# generated using pymatgen
data_La2InNi2
_symmetry_space_group_name_H-M   'P 1'
_cell_length_a   7.70306000
_cell_length_b   7.70306000
_cell_length_c   3.80016200
_cell_angle_alpha   90.00000000
_cell_angle_beta   90.00000000
_cell_angle_gamma   90.00000000
_symmetry_Int_Tables_number   1
_chemical_formula_structural   La2InNi2
_chemical_formula_sum   'La4 In2 Ni4'
_cell_volume   225.49071940
_cell_formula_units_Z   2
loop_
 _symmetry_equiv_pos_site_id
 _symmetry_equiv_pos_as_xyz
  1  'x, y, z'
loop_
 _atom_site_type_symbol
 _atom_site_label
 _atom_site_symmetry_multiplicity
 _atom_site_fract_x
 _atom_site_fract_y
 _atom_site_fract_z
 _atom_site_occupancy
  La  La0  1  0.67435200  0.17435200  0.50000000  1
  La  La1  1  0.32564800  0.82564800  0.50000000  1
  La  La2  1  0.17435200  0.32564800  0.50000000  1
  La  La3  1  0.82564800  0.67435200  0.50000000  1
  In  In4  1  0.50000000  0.50000000  0.00000000  1
  In  In5  1  0.00000000  0.00000000  0.00000000  1
  Ni  Ni6  1  0.12149200  0.62149200  0.00000000  1
  Ni  Ni7  1  0.87850800  0.37850800  0.00000000  1
  Ni  Ni8  1  0.62149200  0.87850800  0.00000000  1
  Ni  Ni9  1  0.37850800  0.12149200  0.00000000  1
