# generated using pymatgen
data_SiO2
_symmetry_space_group_name_H-M   'P 1'
_cell_length_a   8.55015700
_cell_length_b   12.56760500
_cell_length_c   29.31916700
_cell_angle_alpha   90.00000000
_cell_angle_beta   90.00000000
_cell_angle_gamma   90.00000000
_symmetry_Int_Tables_number   1
_chemical_formula_structural   SiO2
_chemical_formula_sum   'Si56 O112'
_cell_volume   3150.49096872
_cell_formula_units_Z   56
loop_
 _symmetry_equiv_pos_site_id
 _symmetry_equiv_pos_as_xyz
  1  'x, y, z'
loop_
 _atom_site_type_symbol
 _atom_site_label
 _atom_site_symmetry_multiplicity
 _atom_site_fract_x
 _atom_site_fract_y
 _atom_site_fract_z
 _atom_site_occupancy
  Si  Si0  1  0.18896000  0.72272400  0.29881300  1
  Si  Si1  1  0.31158700  0.03598700  0.70050000  1
  Si  Si2  1  0.31104000  0.72272400  0.20118700  1
  Si  Si3  1  0.18841300  0.96401300  0.20050000  1
  Si  Si4  1  0.81446900  0.96131500  0.60766600  1
  Si  Si5  1  0.68222100  0.79334000  0.53800700  1
  Si  Si6  1  0.31158700  0.96401300  0.29950000  1
  Si  Si7  1  0.81400500  0.43998400  0.45331900  1
  Si  Si8  1  0.18553100  0.03868500  0.39233400  1
  Si  Si9  1  0.18437400  0.38310700  0.88895400  1
  Si  Si10  1  0.68553100  0.03868500  0.10766600  1
  Si  Si11  1  0.18599500  0.43998400  0.45331900  1
  Si  Si12  1  0.31446900  0.03868500  0.10766600  1
  Si  Si13  1  0.81158700  0.96401300  0.20050000  1
  Si  Si14  1  0.68896000  0.72272400  0.20118700  1
  Si  Si15  1  0.68214800  0.18562200  0.94092400  1
  Si  Si16  1  0.81104000  0.27727600  0.70118700  1
  Si  Si17  1  0.68553100  0.96131500  0.89233400  1
  Si  Si18  1  0.68214800  0.81437800  0.05907600  1
  Si  Si19  1  0.81562600  0.61689300  0.11104600  1
  Si  Si20  1  0.81785200  0.81437800  0.44092400  1
  Si  Si21  1  0.31562600  0.61689300  0.38895400  1
  Si  Si22  1  0.18214800  0.81437800  0.44092400  1
  Si  Si23  1  0.81785200  0.18562200  0.55907600  1
  Si  Si24  1  0.81777900  0.20666000  0.03800700  1
  Si  Si25  1  0.31400500  0.43998400  0.04668100  1
  Si  Si26  1  0.68599500  0.43998400  0.04668100  1
  Si  Si27  1  0.18214800  0.18562200  0.55907600  1
  Si  Si28  1  0.18841300  0.03598700  0.79950000  1
  Si  Si29  1  0.18896000  0.27727600  0.70118700  1
  Si  Si30  1  0.18222100  0.79334000  0.96199300  1
  Si  Si31  1  0.81446900  0.03868500  0.39233400  1
  Si  Si32  1  0.18553100  0.96131500  0.60766600  1
  Si  Si33  1  0.81562600  0.38310700  0.88895400  1
  Si  Si34  1  0.31400500  0.56001600  0.95331900  1
  Si  Si35  1  0.68599500  0.56001600  0.95331900  1
  Si  Si36  1  0.31562600  0.38310700  0.61104600  1
  Si  Si37  1  0.18599500  0.56001600  0.54668100  1
  Si  Si38  1  0.31446900  0.96131500  0.89233400  1
  Si  Si39  1  0.81400500  0.56001600  0.54668100  1
  Si  Si40  1  0.31777900  0.79334000  0.53800700  1
  Si  Si41  1  0.81777900  0.79334000  0.96199300  1
  Si  Si42  1  0.31777900  0.20666000  0.46199300  1
  Si  Si43  1  0.31785200  0.81437800  0.05907600  1
  Si  Si44  1  0.68222100  0.20666000  0.46199300  1
  Si  Si45  1  0.68841300  0.96401300  0.29950000  1
  Si  Si46  1  0.68437400  0.38310700  0.61104600  1
  Si  Si47  1  0.18437400  0.61689300  0.11104600  1
  Si  Si48  1  0.18222100  0.20666000  0.03800700  1
  Si  Si49  1  0.31104000  0.27727600  0.79881300  1
  Si  Si50  1  0.31785200  0.18562200  0.94092400  1
  Si  Si51  1  0.81158700  0.03598700  0.79950000  1
  Si  Si52  1  0.68437400  0.61689300  0.38895400  1
  Si  Si53  1  0.68896000  0.27727600  0.79881300  1
  Si  Si54  1  0.81104000  0.72272400  0.29881300  1
  Si  Si55  1  0.68841300  0.03598700  0.70050000  1
  O  O56  1  0.00000000  0.02655300  0.80159400  1
  O  O57  1  0.00000000  0.73001600  0.29844700  1
  O  O58  1  0.28180100  0.32945700  0.44832900  1
  O  O59  1  0.74013800  0.50000000  0.00000000  1
  O  O60  1  0.27646700  0.51475000  0.09047000  1
  O  O61  1  0.00000000  0.06280300  0.39673300  1
  O  O62  1  0.78180100  0.32945700  0.05167100  1
  O  O63  1  0.25456500  0.64260300  0.16132100  1
  O  O64  1  0.28255200  0.86912200  0.58156500  1
  O  O65  1  0.75986200  0.50000000  0.50000000  1
  O  O66  1  0.70667000  0.71906100  0.42249100  1
  O  O67  1  0.00000000  0.58903200  0.11513300  1
  O  O68  1  0.21744800  0.13087800  0.08156500  1
  O  O69  1  0.73932200  0.84066100  0.30788400  1
  O  O70  1  0.50000000  0.78352500  0.06888700  1
  O  O71  1  0.22353300  0.48525000  0.59047000  1
  O  O72  1  0.72720200  0.07626400  0.91474900  1
  O  O73  1  0.23527200  0.03858000  0.33877700  1
  O  O74  1  0.29333000  0.28093900  0.57750900  1
  O  O75  1  0.25986200  0.50000000  0.00000000  1
  O  O76  1  0.78255200  0.86912200  0.91843500  1
  O  O77  1  0.25456500  0.35739700  0.83867900  1
  O  O78  1  0.24543500  0.64260300  0.33867900  1
  O  O79  1  0.50000000  0.41096800  0.61513300  1
  O  O80  1  0.71819900  0.32945700  0.44832900  1
  O  O81  1  0.29215900  0.82986900  0.00458700  1
  O  O82  1  0.50000000  0.80515100  0.52329200  1
  O  O83  1  0.27279800  0.92373600  0.08525100  1
  O  O84  1  0.25000000  0.32269000  0.75000000  1
  O  O85  1  0.23932200  0.84066100  0.19211600  1
  O  O86  1  0.00000000  0.41435800  0.45518600  1
  O  O87  1  0.26472800  0.96142000  0.83877700  1
  O  O88  1  0.75000000  0.32269000  0.75000000  1
  O  O89  1  0.75456500  0.35739700  0.66132100  1
  O  O90  1  0.00000000  0.80515100  0.97670800  1
  O  O91  1  0.00000000  0.41096800  0.88486700  1
  O  O92  1  0.25000000  0.67731000  0.25000000  1
  O  O93  1  0.50000000  0.06280300  0.10326700  1
  O  O94  1  0.70784100  0.82986900  0.00458700  1
  O  O95  1  0.70667000  0.28093900  0.57750900  1
  O  O96  1  0.50000000  0.19484900  0.47670800  1
  O  O97  1  0.27646700  0.48525000  0.90953000  1
  O  O98  1  0.71819900  0.67054300  0.55167100  1
  O  O99  1  0.75000000  0.00467600  0.25000000  1
  O  O100  1  0.77279800  0.07626400  0.58525100  1
  O  O101  1  0.76067800  0.84066100  0.19211600  1
  O  O102  1  0.20667000  0.28093900  0.92249100  1
  O  O103  1  0.72353300  0.51475000  0.09047000  1
  O  O104  1  0.50000000  0.97344700  0.30159400  1
  O  O105  1  0.79215900  0.82986900  0.49541300  1
  O  O106  1  0.28180100  0.67054300  0.55167100  1
  O  O107  1  0.78255200  0.13087800  0.08156500  1
  O  O108  1  0.73932200  0.15933900  0.69211600  1
  O  O109  1  0.50000000  0.58903200  0.38486700  1
  O  O110  1  0.21819900  0.32945700  0.05167100  1
  O  O111  1  0.74543500  0.35739700  0.83867900  1
  O  O112  1  0.76472800  0.03858000  0.33877700  1
  O  O113  1  0.75456500  0.64260300  0.33867900  1
  O  O114  1  0.50000000  0.02655300  0.69840600  1
  O  O115  1  0.79333000  0.28093900  0.92249100  1
  O  O116  1  0.25000000  0.99532400  0.75000000  1
  O  O117  1  0.50000000  0.93719700  0.89673300  1
  O  O118  1  0.70784100  0.17013100  0.99541300  1
  O  O119  1  0.79333000  0.71906100  0.07750900  1
  O  O120  1  0.50000000  0.41435800  0.04481400  1
  O  O121  1  0.50000000  0.21647500  0.93111300  1
  O  O122  1  0.20784100  0.82986900  0.49541300  1
  O  O123  1  0.20667000  0.71906100  0.07750900  1
  O  O124  1  0.77279800  0.92373600  0.41474900  1
  O  O125  1  0.29333000  0.71906100  0.42249100  1
  O  O126  1  0.24543500  0.35739700  0.66132100  1
  O  O127  1  0.73527200  0.96142000  0.83877700  1
  O  O128  1  0.76067800  0.15933900  0.80788400  1
  O  O129  1  0.50000000  0.58564200  0.95518600  1
  O  O130  1  0.50000000  0.26998400  0.79844700  1
  O  O131  1  0.21819900  0.67054300  0.94832900  1
  O  O132  1  0.29215900  0.17013100  0.99541300  1
  O  O133  1  0.23932200  0.15933900  0.80788400  1
  O  O134  1  0.23527200  0.96142000  0.66122300  1
  O  O135  1  0.26067800  0.15933900  0.69211600  1
  O  O136  1  0.71744800  0.13087800  0.41843500  1
  O  O137  1  0.71744800  0.86912200  0.58156500  1
  O  O138  1  0.00000000  0.97344700  0.19840600  1
  O  O139  1  0.77646700  0.48525000  0.59047000  1
  O  O140  1  0.20784100  0.17013100  0.50458700  1
  O  O141  1  0.26067800  0.84066100  0.30788400  1
  O  O142  1  0.73527200  0.03858000  0.16122300  1
  O  O143  1  0.22720200  0.07626400  0.58525100  1
  O  O144  1  0.00000000  0.26998400  0.70155300  1
  O  O145  1  0.00000000  0.58564200  0.54481400  1
  O  O146  1  0.00000000  0.19484900  0.02329200  1
  O  O147  1  0.22720200  0.92373600  0.41474900  1
  O  O148  1  0.79215900  0.17013100  0.50458700  1
  O  O149  1  0.50000000  0.73001600  0.20155300  1
  O  O150  1  0.27279800  0.07626400  0.91474900  1
  O  O151  1  0.77646700  0.51475000  0.40953000  1
  O  O152  1  0.75000000  0.67731000  0.25000000  1
  O  O153  1  0.72720200  0.92373600  0.08525100  1
  O  O154  1  0.72353300  0.48525000  0.90953000  1
  O  O155  1  0.22353300  0.51475000  0.40953000  1
  O  O156  1  0.25000000  0.00467600  0.25000000  1
  O  O157  1  0.74543500  0.64260300  0.16132100  1
  O  O158  1  0.28255200  0.13087800  0.41843500  1
  O  O159  1  0.00000000  0.21647500  0.56888700  1
  O  O160  1  0.76472800  0.96142000  0.66122300  1
  O  O161  1  0.26472800  0.03858000  0.16122300  1
  O  O162  1  0.21744800  0.86912200  0.91843500  1
  O  O163  1  0.75000000  0.99532400  0.75000000  1
  O  O164  1  0.00000000  0.78352500  0.43111300  1
  O  O165  1  0.00000000  0.93719700  0.60326700  1
  O  O166  1  0.24013800  0.50000000  0.50000000  1
  O  O167  1  0.78180100  0.67054300  0.94832900  1
