# generated using pymatgen
data_KB5O8
_symmetry_space_group_name_H-M   'P 1'
_cell_length_a   8.27606200
_cell_length_b   12.39026200
_cell_length_c   17.18323200
_cell_angle_alpha   90.00000000
_cell_angle_beta   90.00000000
_cell_angle_gamma   90.00000000
_symmetry_Int_Tables_number   1
_chemical_formula_structural   KB5O8
_chemical_formula_sum   'K8 B40 O64'
_cell_volume   1762.01288202
_cell_formula_units_Z   8
loop_
 _symmetry_equiv_pos_site_id
 _symmetry_equiv_pos_as_xyz
  1  'x, y, z'
loop_
 _atom_site_type_symbol
 _atom_site_label
 _atom_site_symmetry_multiplicity
 _atom_site_fract_x
 _atom_site_fract_y
 _atom_site_fract_z
 _atom_site_occupancy
  K  K0  1  0.55349500  0.09000500  0.80284200  1
  K  K1  1  0.44650500  0.90999500  0.19715800  1
  K  K2  1  0.05349500  0.09000500  0.69715800  1
  K  K3  1  0.94650500  0.90999500  0.30284200  1
  K  K4  1  0.94650500  0.59000500  0.80284200  1
  K  K5  1  0.44650500  0.59000500  0.69715800  1
  K  K6  1  0.05349500  0.40999500  0.19715800  1
  K  K7  1  0.55349500  0.40999500  0.30284200  1
  B  B8  1  0.54170600  0.07325800  0.55498100  1
  B  B9  1  0.42714000  0.77904500  0.98512800  1
  B  B10  1  0.77688600  0.44645000  0.48745300  1
  B  B11  1  0.70018200  0.86164500  0.98984500  1
  B  B12  1  0.29981800  0.36164500  0.51015500  1
  B  B13  1  0.69414500  0.23225300  0.20098600  1
  B  B14  1  0.92714000  0.77904500  0.51487200  1
  B  B15  1  0.69414500  0.26774700  0.70098600  1
  B  B16  1  0.22311400  0.94645000  0.01254700  1
  B  B17  1  0.72311400  0.55355000  0.98745300  1
  B  B18  1  0.70018200  0.63835500  0.48984500  1
  B  B19  1  0.45829400  0.92674100  0.44501900  1
  B  B20  1  0.29981800  0.13835500  0.01015500  1
  B  B21  1  0.54170600  0.42674100  0.05498100  1
  B  B22  1  0.07286000  0.22095500  0.48512800  1
  B  B23  1  0.42714000  0.72095500  0.48512800  1
  B  B24  1  0.79981800  0.13835500  0.48984500  1
  B  B25  1  0.95829400  0.92674100  0.05498100  1
  B  B26  1  0.79981800  0.36164500  0.98984500  1
  B  B27  1  0.27688600  0.05355000  0.51254700  1
  B  B28  1  0.19414500  0.26774700  0.79901400  1
  B  B29  1  0.04170600  0.42674100  0.44501900  1
  B  B30  1  0.27688600  0.44645000  0.01254700  1
  B  B31  1  0.95829400  0.57325900  0.55498100  1
  B  B32  1  0.72311400  0.94645000  0.48745300  1
  B  B33  1  0.20018200  0.63835500  0.01015500  1
  B  B34  1  0.20018200  0.86164500  0.51015500  1
  B  B35  1  0.04170600  0.07325800  0.94501900  1
  B  B36  1  0.19414500  0.23225300  0.29901400  1
  B  B37  1  0.77688600  0.05355000  0.98745300  1
  B  B38  1  0.30585500  0.76774700  0.79901400  1
  B  B39  1  0.30585500  0.73225300  0.29901400  1
  B  B40  1  0.80585500  0.76774700  0.70098600  1
  B  B41  1  0.92714000  0.72095500  0.01487200  1
  B  B42  1  0.07286000  0.27904500  0.98512800  1
  B  B43  1  0.57286000  0.27904500  0.51487200  1
  B  B44  1  0.57286000  0.22095500  0.01487200  1
  B  B45  1  0.22311400  0.55355000  0.51254700  1
  B  B46  1  0.80585500  0.73225300  0.20098600  1
  B  B47  1  0.45829400  0.57325900  0.94501900  1
  O  O48  1  0.83026700  0.86048800  0.50936900  1
  O  O49  1  0.59176700  0.78010500  0.99050000  1
  O  O50  1  0.87766000  0.47914300  0.55466000  1
  O  O51  1  0.73002800  0.68384600  0.67798000  1
  O  O52  1  0.23002800  0.68384600  0.82202000  1
  O  O53  1  0.39380400  0.65684200  0.27317500  1
  O  O54  1  0.88733200  0.08904700  0.92358000  1
  O  O55  1  0.90823300  0.21989500  0.49050000  1
  O  O56  1  0.90823300  0.28010500  0.99050000  1
  O  O57  1  0.12234000  0.52085700  0.44534000  1
  O  O58  1  0.26997200  0.18384600  0.82202000  1
  O  O59  1  0.36252700  0.66720000  0.97890900  1
  O  O60  1  0.67766600  0.53973200  0.46214300  1
  O  O61  1  0.83026700  0.63951200  0.00936900  1
  O  O62  1  0.09176700  0.78010500  0.50950000  1
  O  O63  1  0.17766600  0.53973200  0.03785700  1
  O  O64  1  0.86252700  0.66720000  0.52109100  1
  O  O65  1  0.16973300  0.13951200  0.49063100  1
  O  O66  1  0.60619600  0.34315800  0.72682500  1
  O  O67  1  0.60619600  0.15684200  0.22682500  1
  O  O68  1  0.11266800  0.58904700  0.57642000  1
  O  O69  1  0.67766600  0.96026800  0.96214300  1
  O  O70  1  0.37766000  0.47914300  0.94534000  1
  O  O71  1  0.32233400  0.03973200  0.03785700  1
  O  O72  1  0.62234000  0.97914300  0.55466000  1
  O  O73  1  0.89380400  0.65684200  0.22682500  1
  O  O74  1  0.36252700  0.83280000  0.47890900  1
  O  O75  1  0.87766000  0.02085700  0.05466000  1
  O  O76  1  0.13747300  0.16720000  0.97890900  1
  O  O77  1  0.66973300  0.13951200  0.00936900  1
  O  O78  1  0.39380400  0.84315800  0.77317500  1
  O  O79  1  0.61266800  0.91095300  0.42358000  1
  O  O80  1  0.16973300  0.36048800  0.99063100  1
  O  O81  1  0.89380400  0.84315800  0.72682500  1
  O  O82  1  0.10619600  0.34315800  0.77317500  1
  O  O83  1  0.32233400  0.46026800  0.53785700  1
  O  O84  1  0.10619600  0.15684200  0.27317500  1
  O  O85  1  0.76997200  0.18384600  0.67798000  1
  O  O86  1  0.26997200  0.31615400  0.32202000  1
  O  O87  1  0.17766600  0.96026800  0.53785700  1
  O  O88  1  0.86252700  0.83280000  0.02109100  1
  O  O89  1  0.37766000  0.02085700  0.44534000  1
  O  O90  1  0.40823300  0.21989500  0.00950000  1
  O  O91  1  0.38733200  0.08904700  0.57642000  1
  O  O92  1  0.12234000  0.97914300  0.94534000  1
  O  O93  1  0.63747300  0.33280000  0.02109100  1
  O  O94  1  0.09176700  0.71989500  0.00950000  1
  O  O95  1  0.76997200  0.31615400  0.17798000  1
  O  O96  1  0.82233400  0.03973200  0.46214300  1
  O  O97  1  0.33026700  0.63951200  0.49063100  1
  O  O98  1  0.61266800  0.58904700  0.92358000  1
  O  O99  1  0.40823300  0.28010500  0.50950000  1
  O  O100  1  0.66973300  0.36048800  0.50936900  1
  O  O101  1  0.73002800  0.81615400  0.17798000  1
  O  O102  1  0.23002800  0.81615400  0.32202000  1
  O  O103  1  0.13747300  0.33280000  0.47890900  1
  O  O104  1  0.62234000  0.52085700  0.05466000  1
  O  O105  1  0.33026700  0.86048800  0.99063100  1
  O  O106  1  0.38733200  0.41095300  0.07642000  1
  O  O107  1  0.82233400  0.46026800  0.96214300  1
  O  O108  1  0.11266800  0.91095300  0.07642000  1
  O  O109  1  0.88733200  0.41095300  0.42358000  1
  O  O110  1  0.59176700  0.71989500  0.49050000  1
  O  O111  1  0.63747300  0.16720000  0.52109100  1
