# generated using pymatgen
data_Ba3Ce2C5O15F2
_symmetry_space_group_name_H-M   'P 1'
_cell_length_a   5.32587500
_cell_length_b   13.96798600
_cell_length_c   21.20963557
_cell_angle_alpha   85.04857204
_cell_angle_beta   90.00000000
_cell_angle_gamma   90.00000000
_symmetry_Int_Tables_number   1
_chemical_formula_structural   Ba3Ce2C5O15F2
_chemical_formula_sum   'Ba12 Ce8 C20 O60 F8'
_cell_volume   1571.93377775
_cell_formula_units_Z   4
loop_
 _symmetry_equiv_pos_site_id
 _symmetry_equiv_pos_as_xyz
  1  'x, y, z'
loop_
 _atom_site_type_symbol
 _atom_site_label
 _atom_site_symmetry_multiplicity
 _atom_site_fract_x
 _atom_site_fract_y
 _atom_site_fract_z
 _atom_site_occupancy
  Ba  Ba0  1  0.99918700  0.59257300  0.81345000  1
  Ba  Ba1  1  0.99918700  0.40742700  0.18655000  1
  Ba  Ba2  1  0.98851800  0.89727100  0.69319800  1
  Ba  Ba3  1  0.49517800  0.90511200  0.19191800  1
  Ba  Ba4  1  0.98851800  0.10272900  0.30680200  1
  Ba  Ba5  1  0.47933400  0.59649800  0.31547900  1
  Ba  Ba6  1  0.49517800  0.09488800  0.80808200  1
  Ba  Ba7  1  0.51840500  0.50000000  0.00000000  1
  Ba  Ba8  1  0.00933200  0.50000000  0.50000000  1
  Ba  Ba9  1  0.48112600  0.00000000  0.50000000  1
  Ba  Ba10  1  0.47933400  0.40350200  0.68452100  1
  Ba  Ba11  1  0.99797600  0.00000000  0.00000000  1
  Ce  Ce12  1  0.99187800  0.79016000  0.39529500  1
  Ce  Ce13  1  0.49458100  0.21491100  0.10636000  1
  Ce  Ce14  1  0.99735300  0.68324100  0.09982400  1
  Ce  Ce15  1  0.50401900  0.68479000  0.60073800  1
  Ce  Ce16  1  0.49458100  0.78508900  0.89364000  1
  Ce  Ce17  1  0.99735300  0.31675900  0.90017600  1
  Ce  Ce18  1  0.99187800  0.20984000  0.60470500  1
  Ce  Ce19  1  0.50401900  0.31521000  0.39926200  1
  C  C20  1  0.49889300  0.22115000  0.24699600  1
  C  C21  1  0.49889300  0.77885000  0.75300400  1
  C  C22  1  0.00218400  0.39923400  0.33820200  1
  C  C23  1  0.00218400  0.60076600  0.66179800  1
  C  C24  1  0.99717600  0.30379800  0.04409600  1
  C  C25  1  0.99865900  0.22978200  0.74528500  1
  C  C26  1  0.00282800  0.14822100  0.45091000  1
  C  C27  1  0.49925000  0.40362200  0.83994800  1
  C  C28  1  0.50196300  0.29280400  0.54001300  1
  C  C29  1  0.99717600  0.69620200  0.95590400  1
  C  C30  1  0.99865900  0.77021800  0.25471500  1
  C  C31  1  0.50144900  0.03890100  0.65150700  1
  C  C32  1  0.49779300  0.85726900  0.04775700  1
  C  C33  1  0.99889000  0.04360200  0.14927900  1
  C  C34  1  0.50144900  0.96109900  0.34849300  1
  C  C35  1  0.50196300  0.70719600  0.45998700  1
  C  C36  1  0.99889000  0.95639800  0.85072100  1
  C  C37  1  0.49925000  0.59637800  0.16005200  1
  C  C38  1  0.00282800  0.85177900  0.54909000  1
  C  C39  1  0.49779300  0.14273100  0.95224300  1
  O  O40  1  0.70367600  0.78098100  0.78659500  1
  O  O41  1  0.29740400  0.94322300  0.38088800  1
  O  O42  1  0.71347900  0.69773100  0.49022100  1
  O  O43  1  0.78402400  0.93826800  0.87833600  1
  O  O44  1  0.70367600  0.21901900  0.21340500  1
  O  O45  1  0.99366300  0.27192400  0.10323000  1
  O  O46  1  0.28596000  0.22578600  0.21707300  1
  O  O47  1  0.71347900  0.30226900  0.50977900  1
  O  O48  1  0.50043200  0.63197900  0.10105500  1
  O  O49  1  0.50043200  0.36802100  0.89894500  1
  O  O50  1  0.00622000  0.99846200  0.20497100  1
  O  O51  1  0.70914200  0.57648200  0.18872700  1
  O  O52  1  0.78609700  0.24217100  0.71621900  1
  O  O53  1  0.28306800  0.84854000  0.07700400  1
  O  O54  1  0.50160400  0.25789800  0.59859900  1
  O  O55  1  0.78843500  0.68501100  0.98726100  1
  O  O56  1  0.28574500  0.58666700  0.18942900  1
  O  O57  1  0.71967400  0.06271400  0.62665900  1
  O  O58  1  0.00464400  0.36523600  0.39720100  1
  O  O59  1  0.01322300  0.77563200  0.19364600  1
  O  O60  1  0.20878800  0.31900100  0.01496100  1
  O  O61  1  0.19892400  0.21970500  0.71098700  1
  O  O62  1  0.28596000  0.77421400  0.78292700  1
  O  O63  1  0.79289900  0.16290800  0.42056800  1
  O  O64  1  0.70596300  0.15779600  0.92075000  1
  O  O65  1  0.70914200  0.42351800  0.81127300  1
  O  O66  1  0.50160400  0.74210200  0.40140100  1
  O  O67  1  0.29740400  0.05677700  0.61911200  1
  O  O68  1  0.19892400  0.78029500  0.28901300  1
  O  O69  1  0.00622000  0.00153800  0.79502900  1
  O  O70  1  0.78847300  0.58157200  0.68937800  1
  O  O71  1  0.00297400  0.88344900  0.48958500  1
  O  O72  1  0.78843500  0.31498900  0.01273900  1
  O  O73  1  0.49234900  0.99281100  0.70703100  1
  O  O74  1  0.20878800  0.68099900  0.98503900  1
  O  O75  1  0.00297400  0.11655100  0.51041500  1
  O  O76  1  0.29363700  0.68666000  0.48951100  1
  O  O77  1  0.50387600  0.88739300  0.98827500  1
  O  O78  1  0.78609700  0.75782900  0.28378100  1
  O  O79  1  0.21524600  0.15973300  0.42107900  1
  O  O80  1  0.29363700  0.31334000  0.51048900  1
  O  O81  1  0.28574500  0.41333300  0.81057100  1
  O  O82  1  0.21377300  0.58930300  0.69217200  1
  O  O83  1  0.20680700  0.93510100  0.88141500  1
  O  O84  1  0.78847300  0.41842800  0.31062200  1
  O  O85  1  0.71967400  0.93728600  0.37334100  1
  O  O86  1  0.51009700  0.78537200  0.69210600  1
  O  O87  1  0.78402400  0.06173200  0.12166400  1
  O  O88  1  0.21524600  0.84026700  0.57892100  1
  O  O89  1  0.20680700  0.06489900  0.11858500  1
  O  O90  1  0.00464400  0.63476400  0.60279900  1
  O  O91  1  0.70596300  0.84220400  0.07925000  1
  O  O92  1  0.99366300  0.72807600  0.89677000  1
  O  O93  1  0.51009700  0.21462800  0.30789400  1
  O  O94  1  0.79289900  0.83709200  0.57943200  1
  O  O95  1  0.01322300  0.22436800  0.80635400  1
  O  O96  1  0.49234900  0.00718900  0.29296900  1
  O  O97  1  0.28306800  0.15146000  0.92299600  1
  O  O98  1  0.21377300  0.41069700  0.30782800  1
  O  O99  1  0.50387600  0.11260700  0.01172500  1
  F  F100  1  0.48682100  0.38659800  0.12848400  1
  F  F101  1  0.49350300  0.48412400  0.42633300  1
  F  F102  1  0.00747700  0.38080100  0.62062800  1
  F  F103  1  0.49350300  0.51587600  0.57366700  1
  F  F104  1  0.99035200  0.52073200  0.07438200  1
  F  F105  1  0.48682100  0.61340200  0.87151600  1
  F  F106  1  0.00747700  0.61919900  0.37937200  1
  F  F107  1  0.99035200  0.47926800  0.92561800  1
