# generated using pymatgen
data_PRuC4(OF)3
_symmetry_space_group_name_H-M   'P 1'
_cell_length_a   10.62032600
_cell_length_b   10.49311400
_cell_length_c   28.98008911
_cell_angle_alpha   89.99498219
_cell_angle_beta   90.00000000
_cell_angle_gamma   90.00000000
_symmetry_Int_Tables_number   1
_chemical_formula_structural   PRuC4(OF)3
_chemical_formula_sum   'P16 Ru16 C64 O48 F48'
_cell_volume   3229.54956398
_cell_formula_units_Z   16
loop_
 _symmetry_equiv_pos_site_id
 _symmetry_equiv_pos_as_xyz
  1  'x, y, z'
loop_
 _atom_site_type_symbol
 _atom_site_label
 _atom_site_symmetry_multiplicity
 _atom_site_fract_x
 _atom_site_fract_y
 _atom_site_fract_z
 _atom_site_occupancy
  P  P0  1  0.09978600  0.28891100  0.34744500  1
  P  P1  1  0.59978600  0.71108900  0.15255500  1
  P  P2  1  0.21669500  0.37146000  0.91628800  1
  P  P3  1  0.40021400  0.28891100  0.84744500  1
  P  P4  1  0.78330500  0.62854000  0.08371200  1
  P  P5  1  0.23303100  0.09861000  0.40297400  1
  P  P6  1  0.90021400  0.71108900  0.65255500  1
  P  P7  1  0.13154200  0.24133000  0.83217700  1
  P  P8  1  0.86845800  0.75867000  0.16782300  1
  P  P9  1  0.28330500  0.37146000  0.41628800  1
  P  P10  1  0.26696900  0.09861000  0.90297400  1
  P  P11  1  0.71669500  0.62854000  0.58371200  1
  P  P12  1  0.36845800  0.24133000  0.33217700  1
  P  P13  1  0.63154200  0.75867000  0.66782300  1
  P  P14  1  0.73303100  0.90139000  0.09702600  1
  P  P15  1  0.76696900  0.90139000  0.59702600  1
  Ru  Ru16  1  0.23654700  0.44888600  0.83680600  1
  Ru  Ru17  1  0.08430800  0.26027900  0.43087400  1
  Ru  Ru18  1  0.44010700  0.19909000  0.41074000  1
  Ru  Ru19  1  0.55989300  0.80091000  0.58926000  1
  Ru  Ru20  1  0.76345300  0.55111400  0.16319400  1
  Ru  Ru21  1  0.94010700  0.80091000  0.08926000  1
  Ru  Ru22  1  0.80572000  0.90772200  0.68022000  1
  Ru  Ru23  1  0.41569200  0.26027900  0.93087400  1
  Ru  Ru24  1  0.30572000  0.09227800  0.81978000  1
  Ru  Ru25  1  0.73654700  0.55111400  0.66319400  1
  Ru  Ru26  1  0.91569200  0.73972100  0.56912600  1
  Ru  Ru27  1  0.69428000  0.90772200  0.18022000  1
  Ru  Ru28  1  0.05989300  0.19909000  0.91074000  1
  Ru  Ru29  1  0.58430800  0.73972100  0.06912600  1
  Ru  Ru30  1  0.19428000  0.09227800  0.31978000  1
  Ru  Ru31  1  0.26345300  0.44888600  0.33680600  1
  C  C32  1  0.62072700  0.77273100  0.00426200  1
  C  C33  1  0.91791600  0.45106900  0.16104700  1
  C  C34  1  0.26144900  0.45892000  0.77050800  1
  C  C35  1  0.46652900  0.95312400  0.60672800  1
  C  C36  1  0.31747800  0.50120900  0.45998800  1
  C  C37  1  0.04926900  0.17229400  0.97716900  1
  C  C38  1  0.08208400  0.54893100  0.83895300  1
  C  C39  1  0.65310200  0.40921900  0.14952000  1
  C  C40  1  0.06428400  0.84697100  0.57239100  1
  C  C41  1  0.68252200  0.49879100  0.54001200  1
  C  C42  1  0.05449600  0.67006400  0.68113100  1
  C  C43  1  0.32466300  0.13406600  0.75461100  1
  C  C44  1  0.50950000  0.41687600  0.94049400  1
  C  C45  1  0.29692400  0.94363200  0.30877500  1
  C  C46  1  0.79692400  0.05636800  0.19122500  1
  C  C47  1  0.41791600  0.54893100  0.33895300  1
  C  C48  1  0.77886800  0.06235100  0.56786600  1
  C  C49  1  0.58520900  0.31171500  0.40746400  1
  C  C50  1  0.84689800  0.40921900  0.64952000  1
  C  C51  1  0.96652900  0.04687600  0.89327200  1
  C  C52  1  0.70307600  0.05636800  0.69122500  1
  C  C53  1  0.23855100  0.45892000  0.27050800  1
  C  C54  1  0.49050000  0.58312400  0.05950600  1
  C  C55  1  0.76144900  0.54108000  0.72949200  1
  C  C56  1  0.55449600  0.32993600  0.81886900  1
  C  C57  1  0.00147800  0.23477800  0.78779200  1
  C  C58  1  0.56428400  0.15302900  0.92760900  1
  C  C59  1  0.87927300  0.77273100  0.50426200  1
  C  C60  1  0.58208400  0.45106900  0.66104700  1
  C  C61  1  0.91479100  0.31171500  0.90746400  1
  C  C62  1  0.18252200  0.50120900  0.95998800  1
  C  C63  1  0.15310200  0.59078100  0.35048000  1
  C  C64  1  0.12072700  0.22726900  0.49573800  1
  C  C65  1  0.99050000  0.41687600  0.44049400  1
  C  C66  1  0.27886800  0.93764900  0.93213400  1
  C  C67  1  0.43571600  0.84697100  0.07239100  1
  C  C68  1  0.94550400  0.32993600  0.31886900  1
  C  C69  1  0.96285400  0.00225100  0.67501500  1
  C  C70  1  0.73855100  0.54108000  0.22949200  1
  C  C71  1  0.50147800  0.76522200  0.71220800  1
  C  C72  1  0.82466300  0.86593400  0.74538900  1
  C  C73  1  0.49852200  0.23477800  0.28779200  1
  C  C74  1  0.93571600  0.15302900  0.42760900  1
  C  C75  1  0.03347100  0.95312400  0.10672800  1
  C  C76  1  0.67533700  0.86593400  0.24538900  1
  C  C77  1  0.20307600  0.94363200  0.80877500  1
  C  C78  1  0.08520900  0.68828500  0.09253600  1
  C  C79  1  0.95073100  0.82770600  0.02283100  1
  C  C80  1  0.53714600  0.00225100  0.17501500  1
  C  C81  1  0.46285400  0.99774900  0.82498500  1
  C  C82  1  0.81747800  0.49879100  0.04001200  1
  C  C83  1  0.03714600  0.99774900  0.32498500  1
  C  C84  1  0.00950000  0.58312400  0.55950600  1
  C  C85  1  0.45073100  0.17229400  0.47716900  1
  C  C86  1  0.22113200  0.93764900  0.43213400  1
  C  C87  1  0.37927300  0.22726900  0.99573800  1
  C  C88  1  0.41479100  0.68828500  0.59253600  1
  C  C89  1  0.53347100  0.04687600  0.39327200  1
  C  C90  1  0.17533700  0.13406600  0.25461100  1
  C  C91  1  0.99852200  0.76522200  0.21220800  1
  C  C92  1  0.34689800  0.59078100  0.85048000  1
  C  C93  1  0.54926900  0.82770600  0.52283100  1
  C  C94  1  0.72113200  0.06235100  0.06786600  1
  C  C95  1  0.44550400  0.67006400  0.18113100  1
  O  O96  1  0.58712300  0.95622800  0.38221500  1
  O  O97  1  0.94307900  0.94353300  0.32876700  1
  O  O98  1  0.91287700  0.95622800  0.88221500  1
  O  O99  1  0.16475900  0.16076800  0.21616900  1
  O  O100  1  0.08570500  0.67498600  0.35747100  1
  O  O101  1  0.82942200  0.37993600  0.90655000  1
  O  O102  1  0.35377800  0.20719500  0.03377100  1
  O  O103  1  0.65333800  0.09027500  0.92458300  1
  O  O104  1  0.72174900  0.54176600  0.26884500  1
  O  O105  1  0.35552100  0.85287700  0.30160000  1
  O  O106  1  0.14447900  0.85287700  0.80160000  1
  O  O107  1  0.64622200  0.79280500  0.96622900  1
  O  O108  1  0.64447900  0.14712300  0.69840000  1
  O  O109  1  0.27825100  0.45823400  0.73115500  1
  O  O110  1  0.41429500  0.67498600  0.85747100  1
  O  O111  1  0.55692100  0.94353300  0.82876700  1
  O  O112  1  0.49030800  0.39277700  0.65869900  1
  O  O113  1  0.04457800  0.15801200  0.01669200  1
  O  O114  1  0.17057800  0.62006400  0.09345000  1
  O  O115  1  0.14622200  0.20719500  0.53377100  1
  O  O116  1  0.95542200  0.84198800  0.98330800  1
  O  O117  1  0.84666200  0.09027500  0.42458300  1
  O  O118  1  0.34666200  0.90972500  0.07541700  1
  O  O119  1  0.00969200  0.39277700  0.15869900  1
  O  O120  1  0.66475900  0.83923200  0.28383100  1
  O  O121  1  0.32942200  0.62006400  0.59345000  1
  O  O122  1  0.85377800  0.79280500  0.46622900  1
  O  O123  1  0.41287700  0.04377200  0.61778500  1
  O  O124  1  0.05692100  0.05646700  0.67123300  1
  O  O125  1  0.54457800  0.84198800  0.48330800  1
  O  O126  1  0.85552100  0.14712300  0.19840000  1
  O  O127  1  0.56434200  0.51093900  0.94553800  1
  O  O128  1  0.15333800  0.90972500  0.57541700  1
  O  O129  1  0.44307900  0.05646700  0.17123300  1
  O  O130  1  0.45542200  0.15801200  0.51669200  1
  O  O131  1  0.67057800  0.37993600  0.40655000  1
  O  O132  1  0.06434200  0.48906100  0.55446200  1
  O  O133  1  0.99030800  0.60722300  0.84130100  1
  O  O134  1  0.33524100  0.16076800  0.71616900  1
  O  O135  1  0.93565800  0.51093900  0.44553800  1
  O  O136  1  0.50969200  0.60722300  0.34130100  1
  O  O137  1  0.43565800  0.48906100  0.05446200  1
  O  O138  1  0.83524100  0.83923200  0.78383100  1
  O  O139  1  0.08712300  0.04377200  0.11778500  1
  O  O140  1  0.58570500  0.32501400  0.14252900  1
  O  O141  1  0.91429500  0.32501400  0.64252900  1
  O  O142  1  0.22174900  0.45823400  0.23115500  1
  O  O143  1  0.77825100  0.54176600  0.76884500  1
  F  F144  1  0.72313200  0.40940500  0.03828300  1
  F  F145  1  0.33007900  0.45293100  0.50352000  1
  F  F146  1  0.16992100  0.45293100  0.00352000  1
  F  F147  1  0.14158700  0.76536400  0.67594800  1
  F  F148  1  0.90543100  0.31540100  0.79930400  1
  F  F149  1  0.35841300  0.76536400  0.17594800  1
  F  F150  1  0.45920200  0.64975600  0.22765100  1
  F  F151  1  0.09456900  0.68459900  0.20069600  1
  F  F152  1  0.45060200  0.88500700  0.71691400  1
  F  F153  1  0.10189600  0.88874500  0.42990900  1
  F  F154  1  0.04242900  0.26984700  0.74487900  1
  F  F155  1  0.69984100  0.15069700  0.58705500  1
  F  F156  1  0.95920200  0.35024400  0.27234900  1
  F  F157  1  0.80015900  0.15069700  0.08705500  1
  F  F158  1  0.45757100  0.26984700  0.24487900  1
  F  F159  1  0.19984100  0.84930300  0.91294500  1
  F  F160  1  0.39810400  0.88874500  0.92990900  1
  F  F161  1  0.95060200  0.11499300  0.78308600  1
  F  F162  1  0.39467100  0.56201700  0.16280600  1
  F  F163  1  0.85841300  0.23463600  0.32405200  1
  F  F164  1  0.57418100  0.43448500  0.55014900  1
  F  F165  1  0.54939800  0.11499300  0.28308600  1
  F  F166  1  0.30015900  0.84930300  0.41294500  1
  F  F167  1  0.54242900  0.73015300  0.75512100  1
  F  F168  1  0.64158700  0.23463600  0.82405200  1
  F  F169  1  0.25201300  0.94599700  0.47798600  1
  F  F170  1  0.66992100  0.54706900  0.49648000  1
  F  F171  1  0.89467100  0.43798300  0.33719400  1
  F  F172  1  0.77686800  0.40940500  0.53828300  1
  F  F173  1  0.95757100  0.73015300  0.25512100  1
  F  F174  1  0.04939800  0.88500700  0.21691400  1
  F  F175  1  0.04079800  0.64975600  0.72765100  1
  F  F176  1  0.24798700  0.94599700  0.97798600  1
  F  F177  1  0.22313200  0.59059500  0.46171700  1
  F  F178  1  0.74798700  0.05400300  0.52201400  1
  F  F179  1  0.60189600  0.11125500  0.07009100  1
  F  F180  1  0.89810400  0.11125500  0.57009100  1
  F  F181  1  0.40543100  0.68459900  0.70069600  1
  F  F182  1  0.75201300  0.05400300  0.02201400  1
  F  F183  1  0.07418100  0.56551500  0.94985100  1
  F  F184  1  0.60532900  0.43798300  0.83719400  1
  F  F185  1  0.27686800  0.59059500  0.96171700  1
  F  F186  1  0.10532900  0.56201700  0.66280600  1
  F  F187  1  0.59456900  0.31540100  0.29930400  1
  F  F188  1  0.42581900  0.56551500  0.44985100  1
  F  F189  1  0.92581900  0.43448500  0.05014900  1
  F  F190  1  0.54079800  0.35024400  0.77234900  1
  F  F191  1  0.83007900  0.54706900  0.99648000  1
