# generated using pymatgen
data_In10(Pb2S7)3
_symmetry_space_group_name_H-M   'P 1'
_cell_length_a   3.89257900
_cell_length_b   14.15125282
_cell_length_c   15.97614251
_cell_angle_alpha   95.23670887
_cell_angle_beta   90.01571531
_cell_angle_gamma   97.83310959
_symmetry_Int_Tables_number   1
_chemical_formula_structural   In10(Pb2S7)3
_chemical_formula_sum   'In10 Pb6 S21'
_cell_volume   868.12124517
_cell_formula_units_Z   1
loop_
 _symmetry_equiv_pos_site_id
 _symmetry_equiv_pos_as_xyz
  1  'x, y, z'
loop_
 _atom_site_type_symbol
 _atom_site_label
 _atom_site_symmetry_multiplicity
 _atom_site_fract_x
 _atom_site_fract_y
 _atom_site_fract_z
 _atom_site_occupancy
  In  In0  1  0.68732500  0.37744400  0.48535200  1
  In  In1  1  0.50901000  0.02642200  0.12869000  1
  In  In2  1  0.22025000  0.42936200  0.69243200  1
  In  In3  1  0.78679800  0.57067900  0.30596000  1
  In  In4  1  0.90362900  0.79934500  0.01763500  1
  In  In5  1  0.73173900  0.46873500  0.89249000  1
  In  In6  1  0.31143500  0.62452300  0.51378400  1
  In  In7  1  0.26206400  0.52800600  0.10653300  1
  In  In8  1  0.09647700  0.19714700  0.98110600  1
  In  In9  1  0.48141200  0.97314400  0.87076900  1
  Pb  Pb10  1  0.07010700  0.14787200  0.70560900  1
  Pb  Pb11  1  0.13033300  0.27314600  0.24133500  1
  Pb  Pb12  1  0.93228600  0.85086100  0.29570400  1
  Pb  Pb13  1  0.86557700  0.72263400  0.75662900  1
  Pb  Pb14  1  0.04148400  0.10070200  0.43015000  1
  Pb  Pb15  1  0.95211100  0.90197600  0.56852000  1
  S  S16  1  0.47186200  0.93034400  0.40766900  1
  S  S17  1  0.59864400  0.20358700  0.09568900  1
  S  S18  1  0.53382600  0.07079500  0.59221000  1
  S  S19  1  0.32745600  0.65495400  0.23646700  1
  S  S20  1  0.27891100  0.56143700  0.81230300  1
  S  S21  1  0.22786300  0.47274300  0.40176100  1
  S  S22  1  0.71740100  0.43722800  0.18716800  1
  S  S23  1  0.57872400  0.15731700  0.87350600  1
  S  S24  1  0.61458100  0.23814500  0.36778400  1
  S  S25  1  0.80160200  0.60726200  0.02244700  1
  S  S26  1  0.02294400  0.05183700  0.23632400  1
  S  S27  1  0.67648800  0.34427900  0.76122500  1
  S  S28  1  0.19270800  0.38984900  0.97636000  1
  S  S29  1  0.39742600  0.79581700  0.90328400  1
  S  S30  1  0.00569500  0.00043200  0.99989900  1
  S  S31  1  0.84801300  0.69820300  0.43308800  1
  S  S32  1  0.38203700  0.76263000  0.63152400  1
  S  S33  1  0.96975400  0.94814900  0.76357600  1
  S  S34  1  0.42711300  0.84231500  0.12494900  1
  S  S35  1  0.15027400  0.30270500  0.56492100  1
  S  S36  1  0.75688800  0.52900700  0.59801800  1
