# generated using pymatgen
data_Os6C19SO19
_symmetry_space_group_name_H-M   'P 1'
_cell_length_a   11.24855300
_cell_length_b   11.51449908
_cell_length_c   13.06719734
_cell_angle_alpha   104.53398180
_cell_angle_beta   91.09686099
_cell_angle_gamma   108.98733732
_symmetry_Int_Tables_number   1
_chemical_formula_structural   Os6C19SO19
_chemical_formula_sum   'Os12 C38 S2 O38'
_cell_volume   1539.75994500
_cell_formula_units_Z   2
loop_
 _symmetry_equiv_pos_site_id
 _symmetry_equiv_pos_as_xyz
  1  'x, y, z'
loop_
 _atom_site_type_symbol
 _atom_site_label
 _atom_site_symmetry_multiplicity
 _atom_site_fract_x
 _atom_site_fract_y
 _atom_site_fract_z
 _atom_site_occupancy
  Os  Os0  1  0.05418200  0.20977900  0.36791600  1
  Os  Os1  1  0.78546200  0.80120400  0.80135700  1
  Os  Os2  1  0.19833300  0.36269100  0.06815500  1
  Os  Os3  1  0.62494900  0.94404000  0.77323300  1
  Os  Os4  1  0.82820000  0.56778600  0.70570300  1
  Os  Os5  1  0.37505100  0.05596000  0.22676700  1
  Os  Os6  1  0.68745200  0.77993200  0.59014300  1
  Os  Os7  1  0.94581800  0.79022100  0.63208400  1
  Os  Os8  1  0.31254800  0.22006800  0.40985700  1
  Os  Os9  1  0.17180000  0.43221400  0.29429700  1
  Os  Os10  1  0.21453800  0.19879600  0.19864300  1
  Os  Os11  1  0.80166700  0.63730900  0.93184500  1
  C  C12  1  0.98862900  0.55870700  0.74773100  1
  C  C13  1  0.52669300  0.00772200  0.69565600  1
  C  C14  1  0.01137100  0.44129300  0.25226900  1
  C  C15  1  0.16875000  0.50582500  0.04131800  1
  C  C16  1  0.26116600  0.60034200  0.28307300  1
  C  C17  1  0.28174500  0.32294100  0.53958100  1
  C  C18  1  0.48631200  0.25832900  0.45675500  1
  C  C19  1  0.60947600  0.05037800  0.90676100  1
  C  C20  1  0.15601600  0.49028600  0.44226400  1
  C  C21  1  0.10443200  0.80911600  0.69991600  1
  C  C22  1  0.21809400  0.29244100  0.92172200  1
  C  C23  1  0.39052400  0.94962200  0.09323900  1
  C  C24  1  0.93803300  0.93769100  0.85308300  1
  C  C25  1  0.38150800  0.45531900  0.10592700  1
  C  C26  1  0.71638800  0.84709400  0.93279200  1
  C  C27  1  0.99800400  0.25918800  0.50172600  1
  C  C28  1  0.89556800  0.19088400  0.30008400  1
  C  C29  1  0.47925500  0.79198500  0.77875400  1
  C  C30  1  0.00037600  0.96117600  0.62576600  1
  C  C31  1  0.61849200  0.54468100  0.89407300  1
  C  C32  1  0.98146300  0.74213200  0.94695900  1
  C  C33  1  0.21322800  0.92564100  0.23047100  1
  C  C34  1  0.78677200  0.07435900  0.76952900  1
  C  C35  1  0.83125000  0.49417500  0.95868200  1
  C  C36  1  0.26071800  0.06968300  0.45853500  1
  C  C37  1  0.00199600  0.74081200  0.49827400  1
  C  C38  1  0.73883400  0.39965800  0.71692700  1
  C  C39  1  0.84398400  0.50971400  0.55773600  1
  C  C40  1  0.28361200  0.15290600  0.06720800  1
  C  C41  1  0.06196700  0.06230900  0.14691700  1
  C  C42  1  0.51368800  0.74167100  0.54324500  1
  C  C43  1  0.01853700  0.25786800  0.05304100  1
  C  C44  1  0.47330700  0.99227800  0.30434400  1
  C  C45  1  0.52074500  0.20801500  0.22124600  1
  C  C46  1  0.78190600  0.70755900  0.07827800  1
  C  C47  1  0.71825500  0.67705900  0.46041900  1
  C  C48  1  0.73928200  0.93031700  0.54146500  1
  C  C49  1  0.99962400  0.03882400  0.37423400  1
  S  S50  1  0.36845300  0.38655400  0.31477100  1
  S  S51  1  0.63154700  0.61344600  0.68522900  1
  O  O52  1  0.12111900  0.84114400  0.22660700  1
  O  O53  1  0.96732600  0.97683400  0.11242100  1
  O  O54  1  0.23258000  0.25540400  0.83383700  1
  O  O55  1  0.76742000  0.74459600  0.16616300  1
  O  O56  1  0.40943400  0.71564300  0.50867100  1
  O  O57  1  0.91219400  0.19705100  0.04051600  1
  O  O58  1  0.60302500  0.12117600  0.98519400  1
  O  O59  1  0.08220600  0.54569800  0.77280500  1
  O  O60  1  0.68519200  0.29555500  0.71976100  1
  O  O61  1  0.15112900  0.59568000  0.02932700  1
  O  O62  1  0.68148500  0.88487000  0.01458600  1
  O  O63  1  0.72556100  0.61747400  0.37606600  1
  O  O64  1  0.27443900  0.38252600  0.62393400  1
  O  O65  1  0.53375600  0.95815300  0.35508000  1
  O  O66  1  0.79489800  0.16838400  0.25923200  1
  O  O67  1  0.95674700  0.93196300  0.37335100  1
  O  O68  1  0.48878300  0.51236300  0.12170000  1
  O  O69  1  0.39351800  0.70650300  0.78500100  1
  O  O70  1  0.59056600  0.28435700  0.49132900  1
  O  O71  1  0.87888100  0.15885600  0.77339300  1
  O  O72  1  0.04325300  0.06803700  0.62664900  1
  O  O73  1  0.46624400  0.04184700  0.64492000  1
  O  O74  1  0.03357700  0.70718000  0.41513400  1
  O  O75  1  0.84887100  0.40432000  0.97067300  1
  O  O76  1  0.20510200  0.83161600  0.74076800  1
  O  O77  1  0.96642300  0.29282000  0.58486600  1
  O  O78  1  0.76447100  0.01952200  0.50851500  1
  O  O79  1  0.03267400  0.02316600  0.88757900  1
  O  O80  1  0.31851500  0.11513000  0.98541400  1
  O  O81  1  0.14888500  0.54218200  0.52969500  1
  O  O82  1  0.39697500  0.87882400  0.01480600  1
  O  O83  1  0.91779400  0.45430200  0.22719500  1
  O  O84  1  0.60648200  0.29349700  0.21499900  1
  O  O85  1  0.23552900  0.98047800  0.49148500  1
  O  O86  1  0.85111500  0.45781800  0.47030500  1
  O  O87  1  0.31480800  0.70444500  0.28023900  1
  O  O88  1  0.51121700  0.48763700  0.87830000  1
  O  O89  1  0.08780600  0.80294900  0.95948400  1
