# generated using pymatgen
data_Ce3NCl6
_symmetry_space_group_name_H-M   'P 1'
_cell_length_a   10.65817981
_cell_length_b   11.25835733
_cell_length_c   16.52225887
_cell_angle_alpha   90.00000000
_cell_angle_beta   90.00000000
_cell_angle_gamma   90.00000000
_symmetry_Int_Tables_number   1
_chemical_formula_structural   Ce3NCl6
_chemical_formula_sum   'Ce24 N8 Cl48'
_cell_volume   1982.56526888
_cell_formula_units_Z   8
loop_
 _symmetry_equiv_pos_site_id
 _symmetry_equiv_pos_as_xyz
  1  'x, y, z'
loop_
 _atom_site_type_symbol
 _atom_site_label
 _atom_site_symmetry_multiplicity
 _atom_site_fract_x
 _atom_site_fract_y
 _atom_site_fract_z
 _atom_site_occupancy
  Ce  Ce0  1  0.51314675  0.21207243  0.45187792  1
  Ce  Ce1  1  0.65737888  0.46410986  0.32410709  1
  Ce  Ce2  1  0.36078816  0.97820280  0.93752674  1
  Ce  Ce3  1  0.65737888  0.03589014  0.82410709  1
  Ce  Ce4  1  0.15737888  0.03589014  0.67589291  1
  Ce  Ce5  1  0.01314675  0.21207243  0.04812208  1
  Ce  Ce6  1  0.98685325  0.78792757  0.95187792  1
  Ce  Ce7  1  0.48685325  0.78792757  0.54812208  1
  Ce  Ce8  1  0.63921184  0.47820280  0.56247326  1
  Ce  Ce9  1  0.34262112  0.53589014  0.67589291  1
  Ce  Ce10  1  0.86078816  0.52179720  0.06247326  1
  Ce  Ce11  1  0.01314675  0.28792757  0.54812208  1
  Ce  Ce12  1  0.34262112  0.96410986  0.17589291  1
  Ce  Ce13  1  0.15737888  0.46410986  0.17589291  1
  Ce  Ce14  1  0.13921184  0.02179720  0.43752674  1
  Ce  Ce15  1  0.84262112  0.96410986  0.32410709  1
  Ce  Ce16  1  0.36078816  0.52179720  0.43752674  1
  Ce  Ce17  1  0.51314675  0.28792757  0.95187792  1
  Ce  Ce18  1  0.98685325  0.71207243  0.45187792  1
  Ce  Ce19  1  0.13921184  0.47820280  0.93752674  1
  Ce  Ce20  1  0.86078816  0.97820280  0.56247326  1
  Ce  Ce21  1  0.84262112  0.53589014  0.82410709  1
  Ce  Ce22  1  0.63921184  0.02179720  0.06247326  1
  Ce  Ce23  1  0.48685325  0.71207243  0.04812208  1
  N  N24  1  0.94989709  0.59095670  0.93994079  1
  N  N25  1  0.05010291  0.40904330  0.06005921  1
  N  N26  1  0.55010291  0.09095670  0.93994079  1
  N  N27  1  0.94989709  0.90904330  0.43994079  1
  N  N28  1  0.44989709  0.90904330  0.06005921  1
  N  N29  1  0.05010291  0.09095670  0.56005921  1
  N  N30  1  0.55010291  0.40904330  0.43994079  1
  N  N31  1  0.44989709  0.59095670  0.56005921  1
  Cl  Cl32  1  0.62981090  0.56103353  0.16021797  1
  Cl  Cl33  1  0.87018910  0.06103353  0.16021797  1
  Cl  Cl34  1  0.66727856  0.21400178  0.31376264  1
  Cl  Cl35  1  0.66727856  0.28599822  0.81376264  1
  Cl  Cl36  1  0.14336209  0.53024820  0.55300842  1
  Cl  Cl37  1  0.89718472  0.42071638  0.22597472  1
  Cl  Cl38  1  0.35663791  0.03024820  0.55300842  1
  Cl  Cl39  1  0.16727856  0.28599822  0.68623736  1
  Cl  Cl40  1  0.46943924  0.18592567  0.12349384  1
  Cl  Cl41  1  0.24895006  0.28383098  0.45450162  1
  Cl  Cl42  1  0.03056076  0.68592567  0.12349384  1
  Cl  Cl43  1  0.25104994  0.78383098  0.45450162  1
  Cl  Cl44  1  0.10281528  0.92071638  0.27402528  1
  Cl  Cl45  1  0.96943924  0.31407433  0.87650616  1
  Cl  Cl46  1  0.37018910  0.43896647  0.83978203  1
  Cl  Cl47  1  0.96943924  0.18592567  0.37650616  1
  Cl  Cl48  1  0.16727856  0.21400178  0.18623736  1
  Cl  Cl49  1  0.12981090  0.93896647  0.83978203  1
  Cl  Cl50  1  0.33272144  0.71400178  0.18623736  1
  Cl  Cl51  1  0.03056076  0.81407433  0.62349384  1
  Cl  Cl52  1  0.14336209  0.96975180  0.05300842  1
  Cl  Cl53  1  0.25104994  0.71616902  0.95450162  1
  Cl  Cl54  1  0.62981090  0.93896647  0.66021797  1
  Cl  Cl55  1  0.64336209  0.96975180  0.44699158  1
  Cl  Cl56  1  0.12981090  0.56103353  0.33978203  1
  Cl  Cl57  1  0.89718472  0.07928362  0.72597472  1
  Cl  Cl58  1  0.60281528  0.57928362  0.72597472  1
  Cl  Cl59  1  0.39718472  0.42071638  0.27402528  1
  Cl  Cl60  1  0.75104994  0.78383098  0.04549838  1
  Cl  Cl61  1  0.24895006  0.21616902  0.95450162  1
  Cl  Cl62  1  0.39718472  0.07928362  0.77402528  1
  Cl  Cl63  1  0.83272144  0.78599822  0.81376264  1
  Cl  Cl64  1  0.85663791  0.46975180  0.44699158  1
  Cl  Cl65  1  0.64336209  0.53024820  0.94699158  1
  Cl  Cl66  1  0.33272144  0.78599822  0.68623736  1
  Cl  Cl67  1  0.35663791  0.46975180  0.05300842  1
  Cl  Cl68  1  0.10281528  0.57928362  0.77402528  1
  Cl  Cl69  1  0.60281528  0.92071638  0.22597472  1
  Cl  Cl70  1  0.53056076  0.81407433  0.87650616  1
  Cl  Cl71  1  0.53056076  0.68592567  0.37650616  1
  Cl  Cl72  1  0.83272144  0.71400178  0.31376264  1
  Cl  Cl73  1  0.37018910  0.06103353  0.33978203  1
  Cl  Cl74  1  0.87018910  0.43896647  0.66021797  1
  Cl  Cl75  1  0.75104994  0.71616902  0.54549838  1
  Cl  Cl76  1  0.74895006  0.21616902  0.54549838  1
  Cl  Cl77  1  0.85663791  0.03024820  0.94699158  1
  Cl  Cl78  1  0.74895006  0.28383098  0.04549838  1
  Cl  Cl79  1  0.46943924  0.31407433  0.62349384  1
