# generated using pymatgen
data_NbTeCl9
_symmetry_space_group_name_H-M   'P 1'
_cell_length_a   11.81085462
_cell_length_b   11.81085462
_cell_length_c   20.07569989
_cell_angle_alpha   73.54070099
_cell_angle_beta   73.54070099
_cell_angle_gamma   32.79899974
_symmetry_Int_Tables_number   1
_chemical_formula_structural   NbTeCl9
_chemical_formula_sum   'Nb4 Te4 Cl36'
_cell_volume   1449.32999816
_cell_formula_units_Z   4
loop_
 _symmetry_equiv_pos_site_id
 _symmetry_equiv_pos_as_xyz
  1  'x, y, z'
loop_
 _atom_site_type_symbol
 _atom_site_label
 _atom_site_symmetry_multiplicity
 _atom_site_fract_x
 _atom_site_fract_y
 _atom_site_fract_z
 _atom_site_occupancy
  Nb  Nb0  1  0.55902500  0.14963200  0.37510800  1
  Nb  Nb1  1  0.44097500  0.85036800  0.62489200  1
  Nb  Nb2  1  0.85036800  0.44097500  0.12489200  1
  Nb  Nb3  1  0.14963200  0.55902500  0.87510800  1
  Te  Te4  1  0.72225500  0.11371400  0.16122100  1
  Te  Te5  1  0.27774500  0.88628600  0.83877900  1
  Te  Te6  1  0.88628600  0.27774500  0.33877900  1
  Te  Te7  1  0.11371400  0.72225500  0.66122100  1
  Cl  Cl8  1  0.88356700  0.94358600  0.29400800  1
  Cl  Cl9  1  0.49265500  0.59814300  0.64023500  1
  Cl  Cl10  1  0.76821300  0.62356500  0.56562500  1
  Cl  Cl11  1  0.78144900  0.86320300  0.17501700  1
  Cl  Cl12  1  0.05641400  0.11643300  0.20599200  1
  Cl  Cl13  1  0.52116100  0.30165000  0.06456900  1
  Cl  Cl14  1  0.25976500  0.01596900  0.52866100  1
  Cl  Cl15  1  0.50734500  0.40185700  0.35976500  1
  Cl  Cl16  1  0.11643300  0.05641400  0.70599200  1
  Cl  Cl17  1  0.01596900  0.25976500  0.02866100  1
  Cl  Cl18  1  0.05135200  0.89588500  0.09678300  1
  Cl  Cl19  1  0.47883900  0.69835000  0.93543100  1
  Cl  Cl20  1  0.69835000  0.47883900  0.43543100  1
  Cl  Cl21  1  0.94358600  0.88356700  0.79400800  1
  Cl  Cl22  1  0.59814300  0.49265500  0.14023500  1
  Cl  Cl23  1  0.62029500  0.67159300  0.73622600  1
  Cl  Cl24  1  0.86320300  0.78144900  0.67501700  1
  Cl  Cl25  1  0.67159300  0.62029500  0.23622600  1
  Cl  Cl26  1  0.21855100  0.13679700  0.82498300  1
  Cl  Cl27  1  0.37970500  0.32840700  0.26377400  1
  Cl  Cl28  1  0.74023500  0.98403100  0.47133900  1
  Cl  Cl29  1  0.62356500  0.76821300  0.06562500  1
  Cl  Cl30  1  0.10411500  0.94864800  0.40321700  1
  Cl  Cl31  1  0.40185700  0.50734500  0.85976500  1
  Cl  Cl32  1  0.32840700  0.37970500  0.76377400  1
  Cl  Cl33  1  0.98403100  0.74023500  0.97133900  1
  Cl  Cl34  1  0.89588500  0.05135200  0.59678300  1
  Cl  Cl35  1  0.36184100  0.10762400  0.62769900  1
  Cl  Cl36  1  0.10762400  0.36184100  0.12769900  1
  Cl  Cl37  1  0.94864800  0.10411500  0.90321700  1
  Cl  Cl38  1  0.37643500  0.23178700  0.93437500  1
  Cl  Cl39  1  0.30165000  0.52116100  0.56456900  1
  Cl  Cl40  1  0.63815900  0.89237600  0.37230100  1
  Cl  Cl41  1  0.13679700  0.21855100  0.32498300  1
  Cl  Cl42  1  0.23178700  0.37643500  0.43437500  1
  Cl  Cl43  1  0.89237600  0.63815900  0.87230100  1
