# generated using pymatgen
data_CeP4(ClO)13
_symmetry_space_group_name_H-M   'P 1'
_cell_length_a   14.94583700
_cell_length_b   11.33503300
_cell_length_c   19.27949598
_cell_angle_alpha   61.04922395
_cell_angle_beta   90.00000000
_cell_angle_gamma   90.00000000
_symmetry_Int_Tables_number   1
_chemical_formula_structural   CeP4(ClO)13
_chemical_formula_sum   'Ce4 P16 Cl52 O52'
_cell_volume   2858.01546540
_cell_formula_units_Z   4
loop_
 _symmetry_equiv_pos_site_id
 _symmetry_equiv_pos_as_xyz
  1  'x, y, z'
loop_
 _atom_site_type_symbol
 _atom_site_label
 _atom_site_symmetry_multiplicity
 _atom_site_fract_x
 _atom_site_fract_y
 _atom_site_fract_z
 _atom_site_occupancy
  Ce  Ce0  1  0.20194700  0.40070900  0.53483900  1
  Ce  Ce1  1  0.70194700  0.59929100  0.96516100  1
  Ce  Ce2  1  0.79805300  0.59929100  0.46516100  1
  Ce  Ce3  1  0.29805300  0.40070900  0.03483900  1
  P  P4  1  0.35305100  0.58131200  0.34090300  1
  P  P5  1  0.88750500  0.77310400  0.58440700  1
  P  P6  1  0.53790600  0.34524800  0.12134100  1
  P  P7  1  0.03790600  0.65475200  0.37865900  1
  P  P8  1  0.96209400  0.34524800  0.62134100  1
  P  P9  1  0.38750500  0.22689600  0.91559300  1
  P  P10  1  0.61249500  0.77310400  0.08440700  1
  P  P11  1  0.89446800  0.85537900  0.95023200  1
  P  P12  1  0.14694900  0.58131200  0.84090300  1
  P  P13  1  0.64694900  0.41868800  0.65909700  1
  P  P14  1  0.11249500  0.22689600  0.41559300  1
  P  P15  1  0.85305100  0.41868800  0.15909700  1
  P  P16  1  0.46209400  0.65475200  0.87865900  1
  P  P17  1  0.10553200  0.14462100  0.04976800  1
  P  P18  1  0.39446800  0.14462100  0.54976800  1
  P  P19  1  0.60553200  0.85537900  0.45023200  1
  Cl  Cl20  1  0.54440100  0.32668700  0.23168100  1
  Cl  Cl21  1  0.49144200  0.89745100  0.38995100  1
  Cl  Cl22  1  0.35867200  0.35433400  0.80342400  1
  Cl  Cl23  1  0.42799400  0.18470300  0.43961700  1
  Cl  Cl24  1  0.77906600  0.84186300  0.28319300  1
  Cl  Cl25  1  0.97977100  0.42845000  0.12404900  1
  Cl  Cl26  1  0.99144200  0.10254900  0.11004900  1
  Cl  Cl27  1  0.14132800  0.35433400  0.30342400  1
  Cl  Cl28  1  0.28696900  0.64802300  0.55585300  1
  Cl  Cl29  1  0.31893200  0.77552600  0.29220500  1
  Cl  Cl30  1  0.93484100  0.15612900  0.64227900  1
  Cl  Cl31  1  0.92799400  0.81529700  0.06038300  1
  Cl  Cl32  1  0.35680300  0.53776200  0.25249800  1
  Cl  Cl33  1  0.06515900  0.84387100  0.35772100  1
  Cl  Cl34  1  0.71303100  0.35197700  0.44414700  1
  Cl  Cl35  1  0.56515900  0.15612900  0.14227900  1
  Cl  Cl36  1  0.97928200  0.22450400  0.42182400  1
  Cl  Cl37  1  0.32973200  0.96931500  0.59412100  1
  Cl  Cl38  1  0.07200600  0.18470300  0.93961700  1
  Cl  Cl39  1  0.47928200  0.77549600  0.07817600  1
  Cl  Cl40  1  0.52022900  0.42845000  0.62404900  1
  Cl  Cl41  1  0.02071800  0.77549600  0.57817600  1
  Cl  Cl42  1  0.50855800  0.10254900  0.61004900  1
  Cl  Cl43  1  0.52071800  0.22450400  0.92182400  1
  Cl  Cl44  1  0.21303100  0.64802300  0.05585300  1
  Cl  Cl45  1  0.85680300  0.46223800  0.24750200  1
  Cl  Cl46  1  0.81893200  0.22447400  0.20779500  1
  Cl  Cl47  1  0.82973200  0.03068500  0.90587900  1
  Cl  Cl48  1  0.67026800  0.03068500  0.40587900  1
  Cl  Cl49  1  0.14319700  0.53776200  0.75249800  1
  Cl  Cl50  1  0.68106800  0.22447400  0.70779500  1
  Cl  Cl51  1  0.27906600  0.15813700  0.21680700  1
  Cl  Cl52  1  0.22093400  0.15813700  0.71680700  1
  Cl  Cl53  1  0.02022900  0.57155000  0.87595100  1
  Cl  Cl54  1  0.57200600  0.81529700  0.56038300  1
  Cl  Cl55  1  0.95559900  0.32668700  0.73168100  1
  Cl  Cl56  1  0.17026800  0.96931500  0.09412100  1
  Cl  Cl57  1  0.34849400  0.04716400  0.93239700  1
  Cl  Cl58  1  0.00855800  0.89745100  0.88995100  1
  Cl  Cl59  1  0.45559900  0.67331300  0.76831900  1
  Cl  Cl60  1  0.64319700  0.46223800  0.74750200  1
  Cl  Cl61  1  0.04440100  0.67331300  0.26831900  1
  Cl  Cl62  1  0.18106800  0.77552600  0.79220500  1
  Cl  Cl63  1  0.72093400  0.84186300  0.78319300  1
  Cl  Cl64  1  0.15150600  0.04716400  0.43239700  1
  Cl  Cl65  1  0.78696900  0.35197700  0.94414700  1
  Cl  Cl66  1  0.47977100  0.57155000  0.37595100  1
  Cl  Cl67  1  0.65150600  0.95283600  0.06760300  1
  Cl  Cl68  1  0.64132800  0.64566600  0.19657600  1
  Cl  Cl69  1  0.84849400  0.95283600  0.56760300  1
  Cl  Cl70  1  0.85867200  0.64566600  0.69657600  1
  Cl  Cl71  1  0.43484100  0.84387100  0.85772100  1
  O  O72  1  0.65612100  0.74372300  0.44925000  1
  O  O73  1  0.17302700  0.63322700  0.12756600  1
  O  O74  1  0.34299400  0.12397000  0.27945800  1
  O  O75  1  0.34387900  0.25627700  0.55075000  1
  O  O76  1  0.21016300  0.78594000  0.99375500  1
  O  O77  1  0.25481200  0.30475500  0.18066300  1
  O  O78  1  0.69264400  0.40140900  0.92978100  1
  O  O79  1  0.88708100  0.43632300  0.57350200  1
  O  O80  1  0.69951800  0.92327900  0.25497600  1
  O  O81  1  0.33321200  0.55921600  0.52944400  1
  O  O82  1  0.38708100  0.56367700  0.92649800  1
  O  O83  1  0.65700600  0.87603000  0.72054200  1
  O  O84  1  0.79164200  0.50957000  0.09519800  1
  O  O85  1  0.11291900  0.56367700  0.42649800  1
  O  O86  1  0.71016300  0.21406000  0.50624500  1
  O  O87  1  0.19264400  0.59859100  0.57021900  1
  O  O88  1  0.44382400  0.38111800  0.09132100  1
  O  O89  1  0.30048200  0.07672100  0.74502400  1
  O  O90  1  0.15700600  0.12397000  0.77945800  1
  O  O91  1  0.80735600  0.40140900  0.42978100  1
  O  O92  1  0.18060500  0.14475500  0.65046700  1
  O  O93  1  0.19951800  0.07672100  0.24502400  1
  O  O94  1  0.67302700  0.36677300  0.37243400  1
  O  O95  1  0.83321200  0.44078400  0.97055600  1
  O  O96  1  0.34602900  0.26048500  0.97382900  1
  O  O97  1  0.30735600  0.59859100  0.07021900  1
  O  O98  1  0.65397100  0.73951500  0.02617100  1
  O  O99  1  0.74518800  0.69524500  0.81933700  1
  O  O100  1  0.28983700  0.78594000  0.49375500  1
  O  O101  1  0.66678800  0.44078400  0.47055600  1
  O  O102  1  0.78983700  0.21406000  0.00624500  1
  O  O103  1  0.80048200  0.92327900  0.75497600  1
  O  O104  1  0.75481200  0.69524500  0.31933700  1
  O  O105  1  0.70835800  0.50957000  0.59519800  1
  O  O106  1  0.84387900  0.74372300  0.94925000  1
  O  O107  1  0.15397100  0.26048500  0.47382900  1
  O  O108  1  0.16678800  0.55921600  0.02944400  1
  O  O109  1  0.24518800  0.30475500  0.68066300  1
  O  O110  1  0.05617600  0.38111800  0.59132100  1
  O  O111  1  0.31939500  0.14475500  0.15046700  1
  O  O112  1  0.15612100  0.25627700  0.05075000  1
  O  O113  1  0.29164200  0.49043000  0.40480200  1
  O  O114  1  0.82697300  0.36677300  0.87243400  1
  O  O115  1  0.20835800  0.49043000  0.90480200  1
  O  O116  1  0.84299400  0.87603000  0.22054200  1
  O  O117  1  0.32697300  0.63322700  0.62756600  1
  O  O118  1  0.55617600  0.61888200  0.90867900  1
  O  O119  1  0.81939500  0.85524500  0.34953300  1
  O  O120  1  0.84602900  0.73951500  0.52617100  1
  O  O121  1  0.68060500  0.85524500  0.84953300  1
  O  O122  1  0.94382400  0.61888200  0.40867900  1
  O  O123  1  0.61291900  0.43632300  0.07350200  1
