# generated using pymatgen
data_TeAs(SeF3)2
_symmetry_space_group_name_H-M   'P 1'
_cell_length_a   9.13120800
_cell_length_b   13.64447200
_cell_length_c   16.16164100
_cell_angle_alpha   90.00000000
_cell_angle_beta   90.00000000
_cell_angle_gamma   90.00000000
_symmetry_Int_Tables_number   1
_chemical_formula_structural   TeAs(SeF3)2
_chemical_formula_sum   'Te8 As8 Se16 F48'
_cell_volume   2013.58712505
_cell_formula_units_Z   8
loop_
 _symmetry_equiv_pos_site_id
 _symmetry_equiv_pos_as_xyz
  1  'x, y, z'
loop_
 _atom_site_type_symbol
 _atom_site_label
 _atom_site_symmetry_multiplicity
 _atom_site_fract_x
 _atom_site_fract_y
 _atom_site_fract_z
 _atom_site_occupancy
  Te  Te0  1  0.50455700  0.78188300  0.11004600  1
  Te  Te1  1  0.99544300  0.21811700  0.61004600  1
  Te  Te2  1  0.00455700  0.71811700  0.88995400  1
  Te  Te3  1  0.18511100  0.82233000  0.77408500  1
  Te  Te4  1  0.49544300  0.28188300  0.38995400  1
  Te  Te5  1  0.81488900  0.32233000  0.72591500  1
  Te  Te6  1  0.31488900  0.17767000  0.27408500  1
  Te  Te7  1  0.68511100  0.67767000  0.22591500  1
  As  As8  1  0.72254700  0.72819100  0.70895100  1
  As  As9  1  0.27745300  0.22819100  0.79104900  1
  As  As10  1  0.73511700  0.53867700  0.99514800  1
  As  As11  1  0.26488300  0.03867700  0.50485200  1
  As  As12  1  0.23511700  0.96132300  0.00485200  1
  As  As13  1  0.77745300  0.27180900  0.20895100  1
  As  As14  1  0.22254700  0.77180900  0.29104900  1
  As  As15  1  0.76488300  0.46132300  0.49514800  1
  Se  Se16  1  0.86483800  0.91640800  0.18273400  1
  Se  Se17  1  0.71720900  0.86033000  0.29699300  1
  Se  Se18  1  0.13869400  0.54673000  0.87477100  1
  Se  Se19  1  0.13516200  0.41640800  0.31726600  1
  Se  Se20  1  0.21720900  0.63967000  0.70300700  1
  Se  Se21  1  0.78279100  0.13967000  0.79699300  1
  Se  Se22  1  0.86130600  0.04673000  0.62522900  1
  Se  Se23  1  0.36130600  0.45327000  0.37477100  1
  Se  Se24  1  0.17819900  0.24430500  0.10382800  1
  Se  Se25  1  0.63516200  0.08359200  0.68273400  1
  Se  Se26  1  0.63869400  0.95327000  0.12522900  1
  Se  Se27  1  0.28279100  0.36033000  0.20300700  1
  Se  Se28  1  0.32180100  0.75569500  0.60382800  1
  Se  Se29  1  0.67819900  0.25569500  0.89617200  1
  Se  Se30  1  0.36483800  0.58359200  0.81726600  1
  Se  Se31  1  0.82180100  0.74430500  0.39617200  1
  F  F32  1  0.82331100  0.83825400  0.70170000  1
  F  F33  1  0.40945700  0.23227800  0.49333800  1
  F  F34  1  0.43465800  0.28806000  0.83511200  1
  F  F35  1  0.16545900  0.73727900  0.19042700  1
  F  F36  1  0.56534200  0.78806000  0.66488800  1
  F  F37  1  0.14340900  0.93514900  0.85675200  1
  F  F38  1  0.12017700  0.88151500  0.28176600  1
  F  F39  1  0.85659100  0.43514900  0.64324800  1
  F  F40  1  0.26937800  0.97152200  0.11447500  1
  F  F41  1  0.87982300  0.38151500  0.21823400  1
  F  F42  1  0.33454100  0.26272100  0.69042700  1
  F  F43  1  0.38070900  0.83279400  0.24379600  1
  F  F44  1  0.37982300  0.11848500  0.78176600  1
  F  F45  1  0.40874300  0.95167100  0.50851500  1
  F  F46  1  0.35659100  0.06485100  0.35675200  1
  F  F47  1  0.90874300  0.54832900  0.49148500  1
  F  F48  1  0.67668900  0.16174600  0.20170000  1
  F  F49  1  0.23062200  0.02847800  0.61447500  1
  F  F50  1  0.14358400  0.75052800  0.55649200  1
  F  F51  1  0.64340900  0.56485100  0.14324800  1
  F  F52  1  0.59054300  0.73227800  0.00666200  1
  F  F53  1  0.90945700  0.26772200  0.50666200  1
  F  F54  1  0.59125700  0.45167100  0.99148500  1
  F  F55  1  0.37831600  0.04290200  0.97916400  1
  F  F56  1  0.21338500  0.19233400  0.88808800  1
  F  F57  1  0.09054300  0.76772200  0.99333800  1
  F  F58  1  0.62017700  0.61848500  0.71823400  1
  F  F59  1  0.88070900  0.66720600  0.75620400  1
  F  F60  1  0.28661500  0.80766600  0.38808800  1
  F  F61  1  0.61929100  0.33279400  0.25620400  1
  F  F62  1  0.71338500  0.30766600  0.11191200  1
  F  F63  1  0.12168400  0.95709800  0.47916400  1
  F  F64  1  0.64358400  0.74947200  0.44350800  1
  F  F65  1  0.06534200  0.71194000  0.33511200  1
  F  F66  1  0.66545900  0.76272100  0.80957300  1
  F  F67  1  0.11929100  0.16720600  0.74379600  1
  F  F68  1  0.17668900  0.33825400  0.79830000  1
  F  F69  1  0.32331100  0.66174600  0.29830000  1
  F  F70  1  0.09125700  0.04832900  0.00851500  1
  F  F71  1  0.93465800  0.21194000  0.16488800  1
  F  F72  1  0.35641600  0.24947200  0.05649200  1
  F  F73  1  0.73062200  0.47152200  0.38552500  1
  F  F74  1  0.83454100  0.23727900  0.30957300  1
  F  F75  1  0.78661500  0.69233400  0.61191200  1
  F  F76  1  0.85641600  0.25052800  0.94350800  1
  F  F77  1  0.87831600  0.45709800  0.02083600  1
  F  F78  1  0.76937800  0.52847800  0.88552500  1
  F  F79  1  0.62168400  0.54290200  0.52083600  1
