# generated using pymatgen
data_CaCeC2O6F
_symmetry_space_group_name_H-M   'P 1'
_cell_length_a   7.24780811
_cell_length_b   7.24780811
_cell_length_c   18.86388812
_cell_angle_alpha   78.87699057
_cell_angle_beta   78.87699057
_cell_angle_gamma   59.89319119
_symmetry_Int_Tables_number   1
_chemical_formula_structural   CaCeC2O6F
_chemical_formula_sum   'Ca6 Ce6 C12 O36 F6'
_cell_volume   835.73219132
_cell_formula_units_Z   6
loop_
 _symmetry_equiv_pos_site_id
 _symmetry_equiv_pos_as_xyz
  1  'x, y, z'
loop_
 _atom_site_type_symbol
 _atom_site_label
 _atom_site_symmetry_multiplicity
 _atom_site_fract_x
 _atom_site_fract_y
 _atom_site_fract_z
 _atom_site_occupancy
  Ca  Ca0  1  0.84197700  0.34408900  0.00016600  1
  Ca  Ca1  1  0.65591100  0.15802300  0.49983400  1
  Ca  Ca2  1  0.15802300  0.65591100  0.99983400  1
  Ca  Ca3  1  0.50000000  0.00000000  0.00000000  1
  Ca  Ca4  1  0.34408900  0.84197700  0.50016600  1
  Ca  Ca5  1  0.00000000  0.50000000  0.50000000  1
  Ce  Ce6  1  0.92583200  0.41385900  0.75033100  1
  Ce  Ce7  1  0.41385900  0.92583200  0.25033100  1
  Ce  Ce8  1  0.58614100  0.07416800  0.74966900  1
  Ce  Ce9  1  0.24202200  0.75797800  0.75000000  1
  Ce  Ce10  1  0.75797800  0.24202200  0.25000000  1
  Ce  Ce11  1  0.07416800  0.58614100  0.24966900  1
  C  C12  1  0.91953400  0.12992800  0.61455500  1
  C  C13  1  0.74857700  0.66763700  0.11829400  1
  C  C14  1  0.33236300  0.25142300  0.38170600  1
  C  C15  1  0.12992800  0.91953400  0.11455500  1
  C  C16  1  0.70028900  0.49810200  0.38625900  1
  C  C17  1  0.25142300  0.33236300  0.88170600  1
  C  C18  1  0.08046600  0.87007200  0.38544500  1
  C  C19  1  0.87007200  0.08046600  0.88544500  1
  C  C20  1  0.49810200  0.70028900  0.88625900  1
  C  C21  1  0.50189800  0.29971100  0.11374100  1
  C  C22  1  0.66763700  0.74857700  0.61829400  1
  C  C23  1  0.29971100  0.50189800  0.61374100  1
  O  O24  1  0.17318500  0.44961200  0.82267100  1
  O  O25  1  0.73651700  0.13234300  0.62016900  1
  O  O26  1  0.61609000  0.84819200  0.55434100  1
  O  O27  1  0.55038800  0.82681500  0.67732900  1
  O  O28  1  0.56550800  0.84304400  0.12222900  1
  O  O29  1  0.31402500  0.45941400  0.54799500  1
  O  O30  1  0.01535800  0.14790600  0.54972900  1
  O  O31  1  0.44961200  0.17318500  0.32267100  1
  O  O32  1  0.62211300  0.71763500  0.82930600  1
  O  O33  1  0.84819200  0.61609000  0.05434100  1
  O  O34  1  0.71763500  0.62211300  0.32930600  1
  O  O35  1  0.86765700  0.26348300  0.87983100  1
  O  O36  1  0.45941400  0.31402500  0.04799500  1
  O  O37  1  0.88895400  0.99962800  0.82699400  1
  O  O38  1  0.30389400  0.67410300  0.62093000  1
  O  O39  1  0.38391000  0.15180800  0.44565900  1
  O  O40  1  0.99962800  0.88895400  0.32699400  1
  O  O41  1  0.15180800  0.38391000  0.94565900  1
  O  O42  1  0.98464200  0.85209400  0.45027100  1
  O  O43  1  0.26348300  0.86765700  0.37983100  1
  O  O44  1  0.43449200  0.15695600  0.87777100  1
  O  O45  1  0.69610600  0.32589700  0.37907000  1
  O  O46  1  0.54058600  0.68597500  0.95200500  1
  O  O47  1  0.00037200  0.11104600  0.67300600  1
  O  O48  1  0.37788700  0.28236500  0.17069400  1
  O  O49  1  0.14790600  0.01535800  0.04972900  1
  O  O50  1  0.28236500  0.37788700  0.67069400  1
  O  O51  1  0.84304400  0.56550800  0.62222900  1
  O  O52  1  0.67410300  0.30389400  0.12093000  1
  O  O53  1  0.68597500  0.54058600  0.45200500  1
  O  O54  1  0.15695600  0.43449200  0.37777100  1
  O  O55  1  0.82681500  0.55038800  0.17732900  1
  O  O56  1  0.85209400  0.98464200  0.95027100  1
  O  O57  1  0.32589700  0.69610600  0.87907000  1
  O  O58  1  0.13234300  0.73651700  0.12016900  1
  O  O59  1  0.11104600  0.00037200  0.17300600  1
  F  F60  1  0.75625800  0.92598800  0.22610400  1
  F  F61  1  0.24374200  0.07401200  0.77389600  1
  F  F62  1  0.92598800  0.75625800  0.72610400  1
  F  F63  1  0.07401200  0.24374200  0.27389600  1
  F  F64  1  0.41481400  0.58518600  0.25000000  1
  F  F65  1  0.58518600  0.41481400  0.75000000  1
