# generated using pymatgen
data_BiTeIO3
_symmetry_space_group_name_H-M   'P 1'
_cell_length_a   3.96901200
_cell_length_b   3.96901200
_cell_length_c   29.24748600
_cell_angle_alpha   90.00000000
_cell_angle_beta   90.00000000
_cell_angle_gamma   90.00000000
_symmetry_Int_Tables_number   1
_chemical_formula_structural   BiTeIO3
_chemical_formula_sum   'Bi4 Te4 I4 O12'
_cell_volume   460.73729231
_cell_formula_units_Z   4
loop_
 _symmetry_equiv_pos_site_id
 _symmetry_equiv_pos_as_xyz
  1  'x, y, z'
loop_
 _atom_site_type_symbol
 _atom_site_label
 _atom_site_symmetry_multiplicity
 _atom_site_fract_x
 _atom_site_fract_y
 _atom_site_fract_z
 _atom_site_occupancy
  Bi  Bi0  1  0.50000000  0.00000000  0.95706400  1
  Bi  Bi1  1  0.00000000  0.50000000  0.04293600  1
  Bi  Bi2  1  0.00000000  0.50000000  0.71075300  1
  Bi  Bi3  1  0.50000000  0.00000000  0.28924700  1
  Te  Te4  1  0.50000000  0.00000000  0.78788900  1
  Te  Te5  1  0.00000000  0.50000000  0.21211100  1
  Te  Te6  1  0.50000000  0.00000000  0.62494000  1
  Te  Te7  1  0.00000000  0.50000000  0.37506000  1
  I  I8  1  0.00000000  0.50000000  0.89280400  1
  I  I9  1  0.50000000  0.00000000  0.10719600  1
  I  I10  1  0.50000000  0.00000000  0.44403000  1
  I  I11  1  0.00000000  0.50000000  0.55597000  1
  O  O12  1  0.50000000  0.50000000  0.00000000  1
  O  O13  1  0.00000000  0.00000000  0.00000000  1
  O  O14  1  0.50000000  0.50000000  0.77257700  1
  O  O15  1  0.00000000  0.00000000  0.77257700  1
  O  O16  1  0.00000000  0.00000000  0.22742300  1
  O  O17  1  0.50000000  0.50000000  0.22742300  1
  O  O18  1  0.50000000  0.50000000  0.65536900  1
  O  O19  1  0.00000000  0.00000000  0.65536900  1
  O  O20  1  0.00000000  0.00000000  0.34463100  1
  O  O21  1  0.50000000  0.50000000  0.34463100  1
  O  O22  1  0.50000000  0.00000000  0.71998500  1
  O  O23  1  0.00000000  0.50000000  0.28001500  1
