# generated using pymatgen
data_USb2F15
_symmetry_space_group_name_H-M   'P 1'
_cell_length_a   15.59444800
_cell_length_b   8.85879100
_cell_length_c   10.50599267
_cell_angle_alpha   89.62114458
_cell_angle_beta   90.00000000
_cell_angle_gamma   90.00000000
_symmetry_Int_Tables_number   1
_chemical_formula_structural   USb2F15
_chemical_formula_sum   'U4 Sb8 F60'
_cell_volume   1451.34968039
_cell_formula_units_Z   4
loop_
 _symmetry_equiv_pos_site_id
 _symmetry_equiv_pos_as_xyz
  1  'x, y, z'
loop_
 _atom_site_type_symbol
 _atom_site_label
 _atom_site_symmetry_multiplicity
 _atom_site_fract_x
 _atom_site_fract_y
 _atom_site_fract_z
 _atom_site_occupancy
  U  U0  1  0.63247600  0.18766200  0.33596000  1
  U  U1  1  0.13247600  0.81233800  0.16404000  1
  U  U2  1  0.36752400  0.81233800  0.66404000  1
  U  U3  1  0.86752400  0.18766200  0.83596000  1
  Sb  Sb4  1  0.78619700  0.61940200  0.48551400  1
  Sb  Sb5  1  0.28619700  0.38059800  0.01448600  1
  Sb  Sb6  1  0.21380300  0.38059800  0.51448600  1
  Sb  Sb7  1  0.71380300  0.61940200  0.98551400  1
  Sb  Sb8  1  0.55936800  0.14943100  0.72702000  1
  Sb  Sb9  1  0.05936800  0.85056900  0.77298000  1
  Sb  Sb10  1  0.44063200  0.85056900  0.27298000  1
  Sb  Sb11  1  0.94063200  0.14943100  0.22702000  1
  F  F12  1  0.72537200  0.05561300  0.40577800  1
  F  F13  1  0.22537200  0.94438700  0.09422200  1
  F  F14  1  0.27462800  0.94438700  0.59422200  1
  F  F15  1  0.77462800  0.05561300  0.90577800  1
  F  F16  1  0.56632700  0.18176100  0.53357100  1
  F  F17  1  0.06632700  0.81823900  0.96642900  1
  F  F18  1  0.43367300  0.81823900  0.46642900  1
  F  F19  1  0.93367300  0.18176100  0.03357100  1
  F  F20  1  0.54187300  0.53006500  0.51726300  1
  F  F21  1  0.04187300  0.46993500  0.98273700  1
  F  F22  1  0.45812700  0.46993500  0.48273700  1
  F  F23  1  0.95812700  0.53006500  0.01726300  1
  F  F24  1  0.75302000  0.70616600  0.83026200  1
  F  F25  1  0.25302000  0.29383400  0.66973800  1
  F  F26  1  0.24698000  0.29383400  0.16973800  1
  F  F27  1  0.74698000  0.70616600  0.33026200  1
  F  F28  1  0.79936500  0.37941900  0.88863700  1
  F  F29  1  0.29936500  0.62058100  0.61136300  1
  F  F30  1  0.20063500  0.62058100  0.11136300  1
  F  F31  1  0.70063500  0.37941900  0.38863700  1
  F  F32  1  0.61111900  0.51958800  0.91984900  1
  F  F33  1  0.11111900  0.48041200  0.58015100  1
  F  F34  1  0.38888100  0.48041200  0.08015100  1
  F  F35  1  0.88888100  0.51958800  0.41984900  1
  F  F36  1  0.65625100  0.79337300  0.04874200  1
  F  F37  1  0.15625100  0.20662700  0.45125800  1
  F  F38  1  0.34374900  0.20662700  0.95125800  1
  F  F39  1  0.84374900  0.79337300  0.54874200  1
  F  F40  1  0.82367800  0.64493700  0.07528000  1
  F  F41  1  0.32367800  0.35506300  0.42472000  1
  F  F42  1  0.17632200  0.35506300  0.92472000  1
  F  F43  1  0.67632200  0.64493700  0.57528000  1
  F  F44  1  0.96169100  0.31506300  0.76470100  1
  F  F45  1  0.46169100  0.68493700  0.73529900  1
  F  F46  1  0.03830900  0.68493700  0.23529900  1
  F  F47  1  0.53830900  0.31506300  0.26470100  1
  F  F48  1  0.82280500  0.17046500  0.65657500  1
  F  F49  1  0.32280500  0.82953500  0.84342500  1
  F  F50  1  0.17719500  0.82953500  0.34342500  1
  F  F51  1  0.67719500  0.17046500  0.15657500  1
  F  F52  1  0.95291000  0.97521900  0.81290400  1
  F  F53  1  0.45291000  0.02478100  0.68709600  1
  F  F54  1  0.04709000  0.02478100  0.18709600  1
  F  F55  1  0.54709000  0.97521900  0.31290400  1
  F  F56  1  0.88069900  0.97002600  0.19086400  1
  F  F57  1  0.38069900  0.02997400  0.30913600  1
  F  F58  1  0.11930100  0.02997400  0.80913600  1
  F  F59  1  0.61930100  0.97002600  0.69086400  1
  F  F60  1  0.83969700  0.26693600  0.23684200  1
  F  F61  1  0.33969700  0.73306400  0.26315800  1
  F  F62  1  0.16030300  0.73306400  0.76315800  1
  F  F63  1  0.66030300  0.26693600  0.73684200  1
  F  F64  1  0.01603500  0.31501900  0.22797700  1
  F  F65  1  0.51603500  0.68498100  0.27202300  1
  F  F66  1  0.98396500  0.68498100  0.77202300  1
  F  F67  1  0.48396500  0.31501900  0.72797700  1
  F  F68  1  0.95215600  0.10384400  0.40087300  1
  F  F69  1  0.45215600  0.89615600  0.09912700  1
  F  F70  1  0.04784400  0.89615600  0.59912700  1
  F  F71  1  0.54784400  0.10384400  0.90087300  1
