# generated using pymatgen
data_Nd14Cl32O
_symmetry_space_group_name_H-M   'P 1'
_cell_length_a   12.37294019
_cell_length_b   12.37294019
_cell_length_c   12.37293993
_cell_angle_alpha   57.29129107
_cell_angle_beta   57.29129107
_cell_angle_gamma   57.29128894
_symmetry_Int_Tables_number   1
_chemical_formula_structural   Nd14Cl32O
_chemical_formula_sum   'Nd14 Cl32 O1'
_cell_volume   1255.84866133
_cell_formula_units_Z   1
loop_
 _symmetry_equiv_pos_site_id
 _symmetry_equiv_pos_as_xyz
  1  'x, y, z'
loop_
 _atom_site_type_symbol
 _atom_site_label
 _atom_site_symmetry_multiplicity
 _atom_site_fract_x
 _atom_site_fract_y
 _atom_site_fract_z
 _atom_site_occupancy
  Nd  Nd0  1  0.33454900  0.54576800  0.81173200  1
  Nd  Nd1  1  0.81173200  0.33454900  0.54576800  1
  Nd  Nd2  1  0.54576800  0.81173200  0.33454900  1
  Nd  Nd3  1  0.66545100  0.45423200  0.18826800  1
  Nd  Nd4  1  0.18826800  0.66545100  0.45423200  1
  Nd  Nd5  1  0.45423200  0.18826800  0.66545100  1
  Nd  Nd6  1  0.73582400  0.73582400  0.73582400  1
  Nd  Nd7  1  0.26417600  0.26417600  0.26417600  1
  Nd  Nd8  1  0.88147600  0.01591300  0.23231600  1
  Nd  Nd9  1  0.23231600  0.88147600  0.01591300  1
  Nd  Nd10  1  0.01591300  0.23231600  0.88147600  1
  Nd  Nd11  1  0.11852400  0.98408700  0.76768400  1
  Nd  Nd12  1  0.76768400  0.11852400  0.98408700  1
  Nd  Nd13  1  0.98408700  0.76768400  0.11852400  1
  Cl  Cl14  1  0.23645600  0.46633400  0.71033300  1
  Cl  Cl15  1  0.71033300  0.23645600  0.46633400  1
  Cl  Cl16  1  0.46633400  0.71033300  0.23645600  1
  Cl  Cl17  1  0.76354400  0.53366600  0.28966700  1
  Cl  Cl18  1  0.28966700  0.76354400  0.53366600  1
  Cl  Cl19  1  0.53366600  0.28966700  0.76354400  1
  Cl  Cl20  1  0.93702900  0.85112900  0.57885100  1
  Cl  Cl21  1  0.57885100  0.93702900  0.85112900  1
  Cl  Cl22  1  0.85112900  0.57885100  0.93702900  1
  Cl  Cl23  1  0.06297100  0.14887100  0.42114900  1
  Cl  Cl24  1  0.42114900  0.06297100  0.14887100  1
  Cl  Cl25  1  0.14887100  0.42114900  0.06297100  1
  Cl  Cl26  1  0.39297100  0.01541600  0.44660900  1
  Cl  Cl27  1  0.44660900  0.39297100  0.01541600  1
  Cl  Cl28  1  0.01541600  0.44660900  0.39297100  1
  Cl  Cl29  1  0.60702900  0.98458400  0.55339100  1
  Cl  Cl30  1  0.55339100  0.60702900  0.98458400  1
  Cl  Cl31  1  0.98458400  0.55339100  0.60702900  1
  Cl  Cl32  1  0.37513400  0.78171000  0.78653500  1
  Cl  Cl33  1  0.78653500  0.37513400  0.78171000  1
  Cl  Cl34  1  0.78171000  0.78653500  0.37513400  1
  Cl  Cl35  1  0.62486600  0.21829000  0.21346500  1
  Cl  Cl36  1  0.21346500  0.62486600  0.21829000  1
  Cl  Cl37  1  0.21829000  0.21346500  0.62486600  1
  Cl  Cl38  1  0.07213000  0.74270800  0.86510500  1
  Cl  Cl39  1  0.86510500  0.07213000  0.74270800  1
  Cl  Cl40  1  0.74270800  0.86510500  0.07213000  1
  Cl  Cl41  1  0.92787000  0.25729200  0.13489500  1
  Cl  Cl42  1  0.13489500  0.92787000  0.25729200  1
  Cl  Cl43  1  0.25729200  0.13489500  0.92787000  1
  Cl  Cl44  1  0.58885800  0.58885800  0.58885800  1
  Cl  Cl45  1  0.41114200  0.41114200  0.41114200  1
  O  O46  1  0.00000000  0.00000000  0.00000000  1
