# generated using pymatgen
data_KNbCl6
_symmetry_space_group_name_H-M   'P 1'
_cell_length_a   7.02413657
_cell_length_b   22.48606517
_cell_length_c   23.82055667
_cell_angle_alpha   90.00000000
_cell_angle_beta   91.10968049
_cell_angle_gamma   90.00000000
_symmetry_Int_Tables_number   1
_chemical_formula_structural   KNbCl6
_chemical_formula_sum   'K16 Nb16 Cl96'
_cell_volume   3761.63680496
_cell_formula_units_Z   16
loop_
 _symmetry_equiv_pos_site_id
 _symmetry_equiv_pos_as_xyz
  1  'x, y, z'
loop_
 _atom_site_type_symbol
 _atom_site_label
 _atom_site_symmetry_multiplicity
 _atom_site_fract_x
 _atom_site_fract_y
 _atom_site_fract_z
 _atom_site_occupancy
  K  K0  1  0.26236814  0.17077099  0.83704484  1
  K  K1  1  0.75100117  0.46532529  0.06610273  1
  K  K2  1  0.74899883  0.96532529  0.43389727  1
  K  K3  1  0.75122820  0.46810624  0.56843623  1
  K  K4  1  0.24877180  0.53189376  0.43156377  1
  K  K5  1  0.24899883  0.53467471  0.93389727  1
  K  K6  1  0.73763186  0.82922901  0.16295516  1
  K  K7  1  0.25122820  0.03189376  0.06843623  1
  K  K8  1  0.25100117  0.03467471  0.56610273  1
  K  K9  1  0.25070727  0.89889282  0.29876130  1
  K  K10  1  0.74929273  0.10110718  0.70123870  1
  K  K11  1  0.24929273  0.39889282  0.20123870  1
  K  K12  1  0.23763186  0.67077099  0.66295516  1
  K  K13  1  0.75070727  0.60110718  0.79876130  1
  K  K14  1  0.76236814  0.32922901  0.33704484  1
  K  K15  1  0.74877180  0.96810624  0.93156377  1
  Nb  Nb16  1  0.24866481  0.49005083  0.75185219  1
  Nb  Nb17  1  0.25371659  0.85974922  0.48206676  1
  Nb  Nb18  1  0.75133519  0.50994917  0.24814781  1
  Nb  Nb19  1  0.74866481  0.00994917  0.25185219  1
  Nb  Nb20  1  0.74628341  0.14025078  0.51793324  1
  Nb  Nb21  1  0.75076419  0.14160314  0.01804796  1
  Nb  Nb22  1  0.74923581  0.64160314  0.48195204  1
  Nb  Nb23  1  0.24427306  0.72604420  0.22459456  1
  Nb  Nb24  1  0.75371659  0.64025078  0.98206676  1
  Nb  Nb25  1  0.24628341  0.35974922  0.01793324  1
  Nb  Nb26  1  0.25076419  0.35839686  0.51804796  1
  Nb  Nb27  1  0.24923581  0.85839686  0.98195204  1
  Nb  Nb28  1  0.75572694  0.27395580  0.77540544  1
  Nb  Nb29  1  0.74427306  0.77395580  0.72459456  1
  Nb  Nb30  1  0.25133519  0.99005083  0.74814781  1
  Nb  Nb31  1  0.25572694  0.22604420  0.27540544  1
  Cl  Cl32  1  0.50352190  0.02486630  0.81022107  1
  Cl  Cl33  1  0.75343375  0.23235462  0.47461810  1
  Cl  Cl34  1  0.00707269  0.60437649  0.04054943  1
  Cl  Cl35  1  0.99078078  0.10460046  0.95443692  1
  Cl  Cl36  1  0.25343375  0.26764538  0.97461810  1
  Cl  Cl37  1  0.97617726  0.66956707  0.91367537  1
  Cl  Cl38  1  0.24944949  0.63601378  0.27283191  1
  Cl  Cl39  1  0.50707269  0.89562351  0.54054943  1
  Cl  Cl40  1  0.53132015  0.59575609  0.04425795  1
  Cl  Cl41  1  0.49262180  0.33588949  0.58439865  1
  Cl  Cl42  1  0.24020486  0.45979232  0.06536843  1
  Cl  Cl43  1  0.00921922  0.89539954  0.04556308  1
  Cl  Cl44  1  0.74020486  0.04020768  0.56536843  1
  Cl  Cl45  1  0.48888472  0.89385645  0.04940144  1
  Cl  Cl46  1  0.48348154  0.80092058  0.66509881  1
  Cl  Cl47  1  0.50472575  0.33669703  0.08024748  1
  Cl  Cl48  1  0.25409494  0.96158881  0.94506402  1
  Cl  Cl49  1  0.00073901  0.96959155  0.68300923  1
  Cl  Cl50  1  0.52382274  0.16956707  0.58632463  1
  Cl  Cl51  1  0.51651846  0.19907942  0.33490119  1
  Cl  Cl52  1  0.01111528  0.39385645  0.45059856  1
  Cl  Cl53  1  0.24894435  0.39637999  0.71326338  1
  Cl  Cl54  1  0.49014661  0.83464236  0.91841717  1
  Cl  Cl55  1  0.52467794  0.73228172  0.78952016  1
  Cl  Cl56  1  0.97609088  0.97194015  0.18657248  1
  Cl  Cl57  1  0.74894435  0.10362001  0.21326338  1
  Cl  Cl58  1  0.00737820  0.83588949  0.91560135  1
  Cl  Cl59  1  0.00985339  0.33464236  0.58158283  1
  Cl  Cl60  1  0.49292731  0.10437649  0.45945057  1
  Cl  Cl61  1  0.74681742  0.90715456  0.29225711  1
  Cl  Cl62  1  0.01972821  0.46633570  0.82031952  1
  Cl  Cl63  1  0.73730620  0.67388843  0.67861828  1
  Cl  Cl64  1  0.46867985  0.40424391  0.95574205  1
  Cl  Cl65  1  0.02390912  0.02805985  0.81342752  1
  Cl  Cl66  1  0.98888472  0.60614355  0.54940144  1
  Cl  Cl67  1  0.47609088  0.52805985  0.68657248  1
  Cl  Cl68  1  0.96137697  0.80467244  0.65597784  1
  Cl  Cl69  1  0.50499943  0.76429607  0.27997083  1
  Cl  Cl70  1  0.53862303  0.30467244  0.84402216  1
  Cl  Cl71  1  0.25344182  0.26570724  0.47617786  1
  Cl  Cl72  1  0.75344182  0.23429276  0.97617786  1
  Cl  Cl73  1  0.99292731  0.39562351  0.95945057  1
  Cl  Cl74  1  0.75105565  0.60362001  0.28673662  1
  Cl  Cl75  1  0.99527425  0.83669703  0.41975252  1
  Cl  Cl76  1  0.49500057  0.23570393  0.72002917  1
  Cl  Cl77  1  0.03862303  0.19532756  0.34402216  1
  Cl  Cl78  1  0.50073901  0.53040845  0.18300923  1
  Cl  Cl79  1  0.98348154  0.69907942  0.16509881  1
  Cl  Cl80  1  -0.00073901  0.03040845  0.31699077  1
  Cl  Cl81  1  0.49926099  0.46959155  0.81699077  1
  Cl  Cl82  1  0.75409494  0.53841119  0.44506402  1
  Cl  Cl83  1  0.24656625  0.76764538  0.52538190  1
  Cl  Cl84  1  0.51972821  0.03366430  0.32031952  1
  Cl  Cl85  1  0.23730620  0.82611157  0.17861828  1
  Cl  Cl86  1  0.99262180  0.16411051  0.08439865  1
  Cl  Cl87  1  0.25105565  0.89637999  0.78673662  1
  Cl  Cl88  1  0.75055051  0.36398622  0.72716809  1
  Cl  Cl89  1  0.47532206  0.26771828  0.21047984  1
  Cl  Cl90  1  0.00499943  0.73570393  0.77997083  1
  Cl  Cl91  1  0.49647810  0.97513370  0.18977893  1
  Cl  Cl92  1  0.76269380  0.17388843  0.82138172  1
  Cl  Cl93  1  0.96867985  0.09575609  0.45574205  1
  Cl  Cl94  1  0.49078078  0.39539954  0.45443692  1
  Cl  Cl95  1  0.24681742  0.59284544  0.79225711  1
  Cl  Cl96  1  0.50921922  0.60460046  0.54556308  1
  Cl  Cl97  1  0.50985339  0.16535764  0.08158283  1
  Cl  Cl98  1  0.02467794  0.76771828  0.28952016  1
  Cl  Cl99  1  0.99014661  0.66535764  0.41841717  1
  Cl  Cl100  1  0.98027179  0.53366430  0.17968048  1
  Cl  Cl101  1  0.03132015  0.90424391  0.54425795  1
  Cl  Cl102  1  0.25318258  0.09284544  0.70774289  1
  Cl  Cl103  1  0.99500057  0.26429607  0.22002917  1
  Cl  Cl104  1  0.00472575  0.16330297  0.58024748  1
  Cl  Cl105  1  0.24655818  0.76570724  0.02382214  1
  Cl  Cl106  1  0.47617726  0.83043293  0.41367537  1
  Cl  Cl107  1  0.25979514  0.95979232  0.43463157  1
  Cl  Cl108  1  0.25055051  0.13601378  0.22716809  1
  Cl  Cl109  1  0.00352190  0.47513370  0.31022107  1
  Cl  Cl110  1  0.52390912  0.47194015  0.31342752  1
  Cl  Cl111  1  0.48027179  0.96633570  0.67968048  1
  Cl  Cl112  1  0.75318258  0.40715456  0.20774289  1
  Cl  Cl113  1  0.99647810  0.52486630  0.68977893  1
  Cl  Cl114  1  0.97532206  0.23228172  0.71047984  1
  Cl  Cl115  1  0.51111528  0.10614355  0.95059856  1
  Cl  Cl116  1  0.49527425  0.66330297  0.91975252  1
  Cl  Cl117  1  0.50737820  0.66411051  0.41560135  1
  Cl  Cl118  1  0.02382274  0.33043293  0.08632463  1
  Cl  Cl119  1  0.46137697  0.69532756  0.15597784  1
  Cl  Cl120  1  0.75979514  0.54020768  0.93463157  1
  Cl  Cl121  1  0.74944949  0.86398622  0.77283191  1
  Cl  Cl122  1  0.74656625  0.73235462  0.02538190  1
  Cl  Cl123  1  0.26269380  0.32611157  0.32138172  1
  Cl  Cl124  1  0.01651846  0.30092058  0.83490119  1
  Cl  Cl125  1  0.24590506  0.46158881  0.55493598  1
  Cl  Cl126  1  0.74655818  0.73429276  0.52382214  1
  Cl  Cl127  1  0.74590506  0.03841119  0.05493598  1
