# generated using pymatgen
data_Cs
_symmetry_space_group_name_H-M   'P 1'
_cell_length_a   10.45180700
_cell_length_b   10.45180700
_cell_length_c   8.58961500
_cell_angle_alpha   90.00000000
_cell_angle_beta   90.00000000
_cell_angle_gamma   90.00000000
_symmetry_Int_Tables_number   1
_chemical_formula_structural   Cs
_chemical_formula_sum   Cs8
_cell_volume   938.33185806
_cell_formula_units_Z   8
loop_
 _symmetry_equiv_pos_site_id
 _symmetry_equiv_pos_as_xyz
  1  'x, y, z'
loop_
 _atom_site_type_symbol
 _atom_site_label
 _atom_site_symmetry_multiplicity
 _atom_site_fract_x
 _atom_site_fract_y
 _atom_site_fract_z
 _atom_site_occupancy
  Cs  Cs0  1  0.74593400  0.43832400  0.00000000  1
  Cs  Cs1  1  0.25406600  0.56167600  0.00000000  1
  Cs  Cs2  1  0.56167600  0.74593400  0.50000000  1
  Cs  Cs3  1  0.43832400  0.25406600  0.50000000  1
  Cs  Cs4  1  0.75406600  0.93832400  0.00000000  1
  Cs  Cs5  1  0.24593400  0.06167600  0.00000000  1
  Cs  Cs6  1  0.06167600  0.75406600  0.50000000  1
  Cs  Cs7  1  0.93832400  0.24593400  0.50000000  1
