# generated using pymatgen
data_Gd2S3
_symmetry_space_group_name_H-M   'P 1'
_cell_length_a   3.93229600
_cell_length_b   7.43110800
_cell_length_c   15.24843100
_cell_angle_alpha   90.00000000
_cell_angle_beta   90.00000000
_cell_angle_gamma   90.00000000
_symmetry_Int_Tables_number   1
_chemical_formula_structural   Gd2S3
_chemical_formula_sum   'Gd8 S12'
_cell_volume   445.57922478
_cell_formula_units_Z   4
loop_
 _symmetry_equiv_pos_site_id
 _symmetry_equiv_pos_as_xyz
  1  'x, y, z'
loop_
 _atom_site_type_symbol
 _atom_site_label
 _atom_site_symmetry_multiplicity
 _atom_site_fract_x
 _atom_site_fract_y
 _atom_site_fract_z
 _atom_site_occupancy
  Gd  Gd0  1  0.25000000  0.12741300  0.20797400  1
  Gd  Gd1  1  0.75000000  0.87258700  0.79202600  1
  Gd  Gd2  1  0.75000000  0.37258700  0.70797400  1
  Gd  Gd3  1  0.25000000  0.62741300  0.29202600  1
  Gd  Gd4  1  0.25000000  0.26694900  0.95935800  1
  Gd  Gd5  1  0.25000000  0.76694900  0.54064200  1
  Gd  Gd6  1  0.75000000  0.73305100  0.04064200  1
  Gd  Gd7  1  0.75000000  0.23305100  0.45935800  1
  S  S8  1  0.75000000  0.12072600  0.06960700  1
  S  S9  1  0.25000000  0.66001800  0.71885800  1
  S  S10  1  0.25000000  0.16001800  0.78114200  1
  S  S11  1  0.25000000  0.01042900  0.39326800  1
  S  S12  1  0.25000000  0.87927400  0.93039300  1
  S  S13  1  0.75000000  0.62072600  0.43039300  1
  S  S14  1  0.75000000  0.48957100  0.89326800  1
  S  S15  1  0.75000000  0.33998200  0.28114200  1
  S  S16  1  0.75000000  0.83998200  0.21885800  1
  S  S17  1  0.75000000  0.98957100  0.60673200  1
  S  S18  1  0.25000000  0.51042900  0.10673200  1
  S  S19  1  0.25000000  0.37927400  0.56960700  1
