# generated using pymatgen
data_PC2S2N3
_symmetry_space_group_name_H-M   'P 1'
_cell_length_a   8.19788800
_cell_length_b   10.51265910
_cell_length_c   11.98840332
_cell_angle_alpha   99.40581270
_cell_angle_beta   97.10780542
_cell_angle_gamma   95.81936910
_symmetry_Int_Tables_number   1
_chemical_formula_structural   PC2S2N3
_chemical_formula_sum   'P6 C12 S12 N18'
_cell_volume   1003.62132022
_cell_formula_units_Z   6
loop_
 _symmetry_equiv_pos_site_id
 _symmetry_equiv_pos_as_xyz
  1  'x, y, z'
loop_
 _atom_site_type_symbol
 _atom_site_label
 _atom_site_symmetry_multiplicity
 _atom_site_fract_x
 _atom_site_fract_y
 _atom_site_fract_z
 _atom_site_occupancy
  P  P0  1  0.81889700  0.15181200  0.36142500  1
  P  P1  1  0.03479900  0.74736900  0.80871300  1
  P  P2  1  0.91443300  0.98514300  0.18212300  1
  P  P3  1  0.18110300  0.84818800  0.63857500  1
  P  P4  1  0.08556700  0.01485700  0.81787700  1
  P  P5  1  0.96520100  0.25263100  0.19128700  1
  C  C6  1  0.80184300  0.14014900  0.79485800  1
  C  C7  1  0.26737700  0.40792800  0.27972400  1
  C  C8  1  0.49304700  0.14410500  0.41638400  1
  C  C9  1  0.99366300  0.26877900  0.56417900  1
  C  C10  1  0.81328400  0.42013000  0.06593300  1
  C  C11  1  0.73262300  0.59207200  0.72027600  1
  C  C12  1  0.18671600  0.57987000  0.93406700  1
  C  C13  1  0.19815700  0.85985100  0.20514200  1
  C  C14  1  0.50695300  0.85589500  0.58361600  1
  C  C15  1  0.66665600  0.86874400  0.00320000  1
  C  C16  1  0.00633700  0.73122100  0.43582100  1
  C  C17  1  0.33334400  0.13125600  0.99680000  1
  S  S18  1  0.42121400  0.49906700  0.34881800  1
  S  S19  1  0.57878600  0.50093300  0.65118200  1
  S  S20  1  0.10248700  0.37983800  0.65173100  1
  S  S21  1  0.37563200  0.81842400  0.22215500  1
  S  S22  1  0.53232300  0.83182400  0.89530200  1
  S  S23  1  0.89751300  0.62016200  0.34826900  1
  S  S24  1  0.46767700  0.16817600  0.10469800  1
  S  S25  1  0.67799600  0.86880100  0.53907100  1
  S  S26  1  0.27185900  0.46728800  0.97707500  1
  S  S27  1  0.32200400  0.13119900  0.46092900  1
  S  S28  1  0.72814100  0.53271200  0.02292500  1
  S  S29  1  0.62436800  0.18157600  0.77784500  1
  N  N30  1  0.62270000  0.15528200  0.37876900  1
  N  N31  1  0.87072300  0.27078200  0.30029300  1
  N  N32  1  0.02003900  0.89161300  0.86920200  1
  N  N33  1  0.84774700  0.66445600  0.77813000  1
  N  N34  1  0.84695200  0.01038600  0.30222800  1
  N  N35  1  0.97996100  0.10838700  0.13079800  1
  N  N36  1  0.23100000  0.10975400  0.91180300  1
  N  N37  1  0.12927700  0.72921800  0.69970700  1
  N  N38  1  0.91113200  0.17855700  0.49691100  1
  N  N39  1  0.87813700  0.32928900  0.09382800  1
  N  N40  1  0.12186300  0.67071100  0.90617200  1
  N  N41  1  0.76900000  0.89024600  0.08819700  1
  N  N42  1  0.15304800  0.98961400  0.69777200  1
  N  N43  1  0.05743800  0.88623900  0.19168000  1
  N  N44  1  0.37730000  0.84471800  0.62123100  1
  N  N45  1  0.94256200  0.11376100  0.80832000  1
  N  N46  1  0.08886800  0.82144300  0.50308900  1
  N  N47  1  0.15225300  0.33554400  0.22187000  1
