# generated using pymatgen
data_NbSe2
_symmetry_space_group_name_H-M   'P 1'
_cell_length_a   3.43764980
_cell_length_b   3.43764980
_cell_length_c   29.27351900
_cell_angle_alpha   90.00000000
_cell_angle_beta   90.00000000
_cell_angle_gamma   119.99999618
_symmetry_Int_Tables_number   1
_chemical_formula_structural   NbSe2
_chemical_formula_sum   'Nb4 Se8'
_cell_volume   299.59105734
_cell_formula_units_Z   4
loop_
 _symmetry_equiv_pos_site_id
 _symmetry_equiv_pos_as_xyz
  1  'x, y, z'
loop_
 _atom_site_type_symbol
 _atom_site_label
 _atom_site_symmetry_multiplicity
 _atom_site_fract_x
 _atom_site_fract_y
 _atom_site_fract_z
 _atom_site_occupancy
  Nb  Nb0  1  0.33333300  0.66666700  0.00000000  1
  Nb  Nb1  1  0.33333300  0.66666700  0.25444300  1
  Nb  Nb2  1  0.66666700  0.33333300  0.50000000  1
  Nb  Nb3  1  0.33333300  0.66666700  0.74555700  1
  Se  Se4  1  0.33333300  0.66666700  0.08245400  1
  Se  Se5  1  0.00000000  0.00000000  0.44179800  1
  Se  Se6  1  0.00000000  0.00000000  0.80375500  1
  Se  Se7  1  0.66666700  0.33333300  0.31276100  1
  Se  Se8  1  0.00000000  0.00000000  0.55820200  1
  Se  Se9  1  0.00000000  0.00000000  0.19624500  1
  Se  Se10  1  0.33333300  0.66666700  0.91754600  1
  Se  Se11  1  0.66666700  0.33333300  0.68723900  1
