# generated using pymatgen
data_Ga2Se3
_symmetry_space_group_name_H-M   'P 1'
_cell_length_a   7.87318151
_cell_length_b   7.87318151
_cell_length_c   10.38662866
_cell_angle_alpha   52.91971103
_cell_angle_beta   52.91971103
_cell_angle_gamma   53.71210472
_symmetry_Int_Tables_number   1
_chemical_formula_structural   Ga2Se3
_chemical_formula_sum   'Ga4 Se6'
_cell_volume   382.51011000
_cell_formula_units_Z   2
loop_
 _symmetry_equiv_pos_site_id
 _symmetry_equiv_pos_as_xyz
  1  'x, y, z'
loop_
 _atom_site_type_symbol
 _atom_site_label
 _atom_site_symmetry_multiplicity
 _atom_site_fract_x
 _atom_site_fract_y
 _atom_site_fract_z
 _atom_site_occupancy
  Ga  Ga0  1  0.29641300  0.47261800  0.41724300  1
  Ga  Ga1  1  0.47261800  0.29641300  0.91724300  1
  Ga  Ga2  1  0.98094800  0.00982300  0.52156000  1
  Ga  Ga3  1  0.00982300  0.98094800  0.02156000  1
  Se  Se4  1  0.24078900  0.93496700  0.13455900  1
  Se  Se5  1  0.62985500  0.04653000  0.16717500  1
  Se  Se6  1  0.93496700  0.24078900  0.63455900  1
  Se  Se7  1  0.04653000  0.62985500  0.66717500  1
  Se  Se8  1  0.24443500  0.98822300  0.72966300  1
  Se  Se9  1  0.98822300  0.24443500  0.22966300  1
