# generated using pymatgen
data_HgB(CN)4
_symmetry_space_group_name_H-M   'P 1'
_cell_length_a   5.76624000
_cell_length_b   7.55094200
_cell_length_c   33.25757100
_cell_angle_alpha   90.00000000
_cell_angle_beta   90.00000000
_cell_angle_gamma   90.00000000
_symmetry_Int_Tables_number   1
_chemical_formula_structural   HgB(CN)4
_chemical_formula_sum   'Hg8 B8 C32 N32'
_cell_volume   1448.05272674
_cell_formula_units_Z   8
loop_
 _symmetry_equiv_pos_site_id
 _symmetry_equiv_pos_as_xyz
  1  'x, y, z'
loop_
 _atom_site_type_symbol
 _atom_site_label
 _atom_site_symmetry_multiplicity
 _atom_site_fract_x
 _atom_site_fract_y
 _atom_site_fract_z
 _atom_site_occupancy
  Hg  Hg0  1  0.89276400  0.75000000  0.39620400  1
  Hg  Hg1  1  0.10723600  0.75000000  0.89620400  1
  Hg  Hg2  1  0.59263900  0.75000000  0.33748100  1
  Hg  Hg3  1  0.10723600  0.25000000  0.60379600  1
  Hg  Hg4  1  0.59263900  0.25000000  0.16251900  1
  Hg  Hg5  1  0.40736100  0.75000000  0.83748100  1
  Hg  Hg6  1  0.89276400  0.25000000  0.10379600  1
  Hg  Hg7  1  0.40736100  0.25000000  0.66251900  1
  B  B8  1  0.35584200  0.25000000  0.45503300  1
  B  B9  1  0.64415800  0.25000000  0.95503300  1
  B  B10  1  0.02593000  0.75000000  0.19579300  1
  B  B11  1  0.97407000  0.25000000  0.80420700  1
  B  B12  1  0.64415800  0.75000000  0.54496700  1
  B  B13  1  0.02593000  0.25000000  0.30420700  1
  B  B14  1  0.35584200  0.75000000  0.04496700  1
  B  B15  1  0.97407000  0.75000000  0.69579300  1
  C  C16  1  0.18985200  0.08098900  0.30770400  1
  C  C17  1  0.18985200  0.58098900  0.19229600  1
  C  C18  1  0.73084800  0.75000000  0.49929300  1
  C  C19  1  0.10899200  0.25000000  0.76244000  1
  C  C20  1  0.26026000  0.57943700  0.06803100  1
  C  C21  1  0.73974000  0.42056300  0.93196900  1
  C  C22  1  0.26026000  0.92056300  0.06803100  1
  C  C23  1  0.89100800  0.25000000  0.26244000  1
  C  C24  1  0.81014800  0.58098900  0.69229600  1
  C  C25  1  0.63013300  0.75000000  0.04326900  1
  C  C26  1  0.26915200  0.25000000  0.50070700  1
  C  C27  1  0.26026000  0.07943700  0.43196900  1
  C  C28  1  0.18985200  0.91901100  0.19229600  1
  C  C29  1  0.73974000  0.92056300  0.56803100  1
  C  C30  1  0.36986700  0.75000000  0.54326900  1
  C  C31  1  0.36986700  0.25000000  0.95673100  1
  C  C32  1  0.73974000  0.57943700  0.56803100  1
  C  C33  1  0.73974000  0.07943700  0.93196900  1
  C  C34  1  0.10899200  0.75000000  0.73756000  1
  C  C35  1  0.81014800  0.08098900  0.80770400  1
  C  C36  1  0.63013300  0.25000000  0.45673100  1
  C  C37  1  0.26026000  0.42056300  0.43196900  1
  C  C38  1  0.83445400  0.25000000  0.33838900  1
  C  C39  1  0.16554600  0.25000000  0.83838900  1
  C  C40  1  0.81014800  0.41901100  0.80770400  1
  C  C41  1  0.26915200  0.75000000  0.99929300  1
  C  C42  1  0.89100800  0.75000000  0.23756000  1
  C  C43  1  0.16554600  0.75000000  0.66161100  1
  C  C44  1  0.81014800  0.91901100  0.69229600  1
  C  C45  1  0.18985200  0.41901100  0.30770400  1
  C  C46  1  0.73084800  0.25000000  0.00070700  1
  C  C47  1  0.83445400  0.75000000  0.16161100  1
  N  N48  1  0.16909900  0.25000000  0.96036800  1
  N  N49  1  0.22422100  0.25000000  0.53473300  1
  N  N50  1  0.80967000  0.04272500  0.58563600  1
  N  N51  1  0.77921200  0.25000000  0.23324800  1
  N  N52  1  0.68545600  0.96050900  0.81071100  1
  N  N53  1  0.68192900  0.75000000  0.13854500  1
  N  N54  1  0.80967000  0.45727500  0.58563600  1
  N  N55  1  0.22422100  0.75000000  0.96526700  1
  N  N56  1  0.31454400  0.46050900  0.18928900  1
  N  N57  1  0.19033000  0.54272500  0.41436400  1
  N  N58  1  0.68545600  0.46050900  0.68928900  1
  N  N59  1  0.80967000  0.54272500  0.91436400  1
  N  N60  1  0.68545600  0.53949100  0.81071100  1
  N  N61  1  0.83090100  0.75000000  0.03963200  1
  N  N62  1  0.77577900  0.75000000  0.46526700  1
  N  N63  1  0.80967000  0.95727500  0.91436400  1
  N  N64  1  0.83090100  0.25000000  0.46036800  1
  N  N65  1  0.22078800  0.25000000  0.73324800  1
  N  N66  1  0.31807100  0.75000000  0.63854500  1
  N  N67  1  0.19033000  0.95727500  0.41436400  1
  N  N68  1  0.31454400  0.53949100  0.31071100  1
  N  N69  1  0.22078800  0.75000000  0.76675200  1
  N  N70  1  0.31454400  0.96050900  0.31071100  1
  N  N71  1  0.16909900  0.75000000  0.53963200  1
  N  N72  1  0.19033000  0.45727500  0.08563600  1
  N  N73  1  0.19033000  0.04272500  0.08563600  1
  N  N74  1  0.68192900  0.25000000  0.36145500  1
  N  N75  1  0.77921200  0.75000000  0.26675200  1
  N  N76  1  0.31807100  0.25000000  0.86145500  1
  N  N77  1  0.31454400  0.03949100  0.18928900  1
  N  N78  1  0.77577900  0.25000000  0.03473300  1
  N  N79  1  0.68545600  0.03949100  0.68928900  1
