# generated using pymatgen
data_Tb2YbS4
_symmetry_space_group_name_H-M   'P 1'
_cell_length_a   7.23858603
_cell_length_b   7.23858603
_cell_length_c   7.23858603
_cell_angle_alpha   109.42118269
_cell_angle_beta   109.42118269
_cell_angle_gamma   109.57134293
_symmetry_Int_Tables_number   1
_chemical_formula_structural   Tb2YbS4
_chemical_formula_sum   'Tb4 Yb2 S8'
_cell_volume   291.97007141
_cell_formula_units_Z   2
loop_
 _symmetry_equiv_pos_site_id
 _symmetry_equiv_pos_as_xyz
  1  'x, y, z'
loop_
 _atom_site_type_symbol
 _atom_site_label
 _atom_site_symmetry_multiplicity
 _atom_site_fract_x
 _atom_site_fract_y
 _atom_site_fract_z
 _atom_site_occupancy
  Tb  Tb0  1  0.12500000  0.50276100  0.87776100  1
  Tb  Tb1  1  0.49723900  0.37500000  0.62223900  1
  Tb  Tb2  1  0.62500000  0.24723900  0.12223900  1
  Tb  Tb3  1  0.75276100  0.87500000  0.37776100  1
  Yb  Yb4  1  0.00000000  0.00000000  0.00000000  1
  Yb  Yb5  1  0.25000000  0.75000000  0.50000000  1
  S  S6  1  0.87127500  0.62057600  0.10424200  1
  S  S7  1  0.87057600  0.62127500  0.60424200  1
  S  S8  1  0.37872500  0.98296700  0.24930100  1
  S  S9  1  0.01703300  0.26633400  0.39575800  1
  S  S10  1  0.23296700  0.12872500  0.74930100  1
  S  S11  1  0.51633400  0.76703300  0.89575800  1
  S  S12  1  0.37942400  0.48366600  0.25069900  1
  S  S13  1  0.73366600  0.12942400  0.75069900  1
