# generated using pymatgen
data_Mg5(AlSe4)2
_symmetry_space_group_name_H-M   'P 1'
_cell_length_a   9.76059000
_cell_length_b   9.86034483
_cell_length_c   17.07383377
_cell_angle_alpha   85.84259093
_cell_angle_beta   88.04786223
_cell_angle_gamma   86.19574596
_symmetry_Int_Tables_number   1
_chemical_formula_structural   Mg5(AlSe4)2
_chemical_formula_sum   'Mg20 Al8 Se32'
_cell_volume   1634.59135375
_cell_formula_units_Z   4
loop_
 _symmetry_equiv_pos_site_id
 _symmetry_equiv_pos_as_xyz
  1  'x, y, z'
loop_
 _atom_site_type_symbol
 _atom_site_label
 _atom_site_symmetry_multiplicity
 _atom_site_fract_x
 _atom_site_fract_y
 _atom_site_fract_z
 _atom_site_occupancy
  Mg  Mg0  1  0.97162900  0.98717700  0.97270900  1
  Mg  Mg1  1  0.10307600  0.06647900  0.16597500  1
  Mg  Mg2  1  0.12521200  0.99816800  0.70140700  1
  Mg  Mg3  1  0.40904800  0.98550200  0.28025000  1
  Mg  Mg4  1  0.51647600  0.95862400  0.80262900  1
  Mg  Mg5  1  0.50014400  0.97339400  0.00952700  1
  Mg  Mg6  1  0.59860100  0.91161600  0.48328600  1
  Mg  Mg7  1  0.43310800  0.29246900  0.15387300  1
  Mg  Mg8  1  0.43161200  0.19862500  0.60584700  1
  Mg  Mg9  1  0.44780500  0.52522600  0.35269200  1
  Mg  Mg10  1  0.46788700  0.49914300  0.75820200  1
  Mg  Mg11  1  0.57314900  0.53072700  0.53514100  1
  Mg  Mg12  1  0.56274500  0.52422300  0.96770900  1
  Mg  Mg13  1  0.96070800  0.50058800  0.49196900  1
  Mg  Mg14  1  0.89882200  0.87066100  0.29355100  1
  Mg  Mg15  1  0.12123500  0.46306400  0.98160700  1
  Mg  Mg16  1  0.95925600  0.53008200  0.29977300  1
  Mg  Mg17  1  0.91838900  0.45638600  0.76295900  1
  Mg  Mg18  1  0.01073900  0.70298100  0.15570000  1
  Mg  Mg19  1  0.97465600  0.77360100  0.59016600  1
  Al  Al20  1  0.18028000  0.74070800  0.37302700  1
  Al  Al21  1  0.20166000  0.72315800  0.85189000  1
  Al  Al22  1  0.26268700  0.74016900  0.59609800  1
  Al  Al23  1  0.33753400  0.67795600  0.11751400  1
  Al  Al24  1  0.61387700  0.20240400  0.88815900  1
  Al  Al25  1  0.69262400  0.22868800  0.36155700  1
  Al  Al26  1  0.79610000  0.14388100  0.63990200  1
  Al  Al27  1  0.82521200  0.22495000  0.09671700  1
  Se  Se28  1  0.91738500  0.26321200  0.27674500  1
  Se  Se29  1  0.59406200  0.17663900  0.72367100  1
  Se  Se30  1  0.85309700  0.98196300  0.14113500  1
  Se  Se31  1  0.87954500  0.92649300  0.69239700  1
  Se  Se32  1  0.71914000  0.47444300  0.40393100  1
  Se  Se33  1  0.68921300  0.42867000  0.84189000  1
  Se  Se34  1  0.94788400  0.76455600  0.44215500  1
  Se  Se35  1  0.98722800  0.60904400  0.86745400  1
  Se  Se36  1  0.56092300  0.71393300  0.06053000  1
  Se  Se37  1  0.63585200  0.74272600  0.60396800  1
  Se  Se38  1  0.79225800  0.41463500  0.17938000  1
  Se  Se39  1  0.81696900  0.54904100  0.62277400  1
  Se  Se40  1  0.65990100  0.97709800  0.33897100  1
  Se  Se41  1  0.72832100  0.97799700  0.91283100  1
  Se  Se42  1  0.61053300  0.27813600  0.03330800  1
  Se  Se43  1  0.66620900  0.15983900  0.51481500  1
  Se  Se44  1  0.38796600  0.73761600  0.45709300  1
  Se  Se45  1  0.15512200  0.79606200  0.03926300  1
  Se  Se46  1  0.22503800  0.46575600  0.12744300  1
  Se  Se47  1  0.36871600  0.45600900  0.62309700  1
  Se  Se48  1  0.13388300  0.99033400  0.32188000  1
  Se  Se49  1  0.13242900  0.95996000  0.85176800  1
  Se  Se50  1  0.46872000  0.28245900  0.30548800  1
  Se  Se51  1  0.38579300  0.12893100  0.89512700  1
  Se  Se52  1  0.03646500  0.22153600  0.02315400  1
  Se  Se53  1  0.98651100  0.29096000  0.64808400  1
  Se  Se54  1  0.36405800  0.05279500  0.13540400  1
  Se  Se55  1  0.27847100  0.01248300  0.57639500  1
  Se  Se56  1  0.16735200  0.48210900  0.39165600  1
  Se  Se57  1  0.33690300  0.51082600  0.89906500  1
  Se  Se58  1  0.36669000  0.72256800  0.25563800  1
  Se  Se59  1  0.38109200  0.76151800  0.74515500  1
