# generated using pymatgen
data_YNbO4
_symmetry_space_group_name_H-M   'P 1'
_cell_length_a   6.70852517
_cell_length_b   6.70852517
_cell_length_c   6.70852517
_cell_angle_alpha   133.84156525
_cell_angle_beta   133.84156525
_cell_angle_gamma   67.33557358
_symmetry_Int_Tables_number   1
_chemical_formula_structural   YNbO4
_chemical_formula_sum   'Y2 Nb2 O8'
_cell_volume   154.44827000
_cell_formula_units_Z   2
loop_
 _symmetry_equiv_pos_site_id
 _symmetry_equiv_pos_as_xyz
  1  'x, y, z'
loop_
 _atom_site_type_symbol
 _atom_site_label
 _atom_site_symmetry_multiplicity
 _atom_site_fract_x
 _atom_site_fract_y
 _atom_site_fract_z
 _atom_site_occupancy
  Y  Y0  1  0.75000000  0.25000000  0.50000000  1
  Y  Y1  1  0.00000000  0.00000000  0.00000000  1
  Nb  Nb2  1  0.25000000  0.75000000  0.50000000  1
  Nb  Nb3  1  0.50000000  0.50000000  0.00000000  1
  O  O4  1  0.33644500  0.40800400  0.42244500  1
  O  O5  1  0.98555900  0.91400000  0.57755500  1
  O  O6  1  0.66400000  0.58644500  0.42844000  1
  O  O7  1  0.15800400  0.23555900  0.57156000  1
  O  O8  1  0.41355500  0.84199600  0.07755500  1
  O  O9  1  0.76444100  0.33600000  0.92244500  1
  O  O10  1  0.08600000  0.66355500  0.07156000  1
  O  O11  1  0.59199600  0.01444100  0.92844000  1
