# generated using pymatgen
data_U2S3
_symmetry_space_group_name_H-M   'P 1'
_cell_length_a   3.91786700
_cell_length_b   10.41917300
_cell_length_c   11.61158500
_cell_angle_alpha   90.00000000
_cell_angle_beta   90.00000000
_cell_angle_gamma   90.00000000
_symmetry_Int_Tables_number   1
_chemical_formula_structural   U2S3
_chemical_formula_sum   'U8 S12'
_cell_volume   473.99574566
_cell_formula_units_Z   4
loop_
 _symmetry_equiv_pos_site_id
 _symmetry_equiv_pos_as_xyz
  1  'x, y, z'
loop_
 _atom_site_type_symbol
 _atom_site_label
 _atom_site_symmetry_multiplicity
 _atom_site_fract_x
 _atom_site_fract_y
 _atom_site_fract_z
 _atom_site_occupancy
  U  U0  1  0.75000000  0.98511900  0.35183800  1
  U  U1  1  0.75000000  0.32036100  0.50780800  1
  U  U2  1  0.25000000  0.17963900  0.00780800  1
  U  U3  1  0.25000000  0.67963900  0.49219200  1
  U  U4  1  0.25000000  0.01488100  0.64816200  1
  U  U5  1  0.25000000  0.51488100  0.85183800  1
  U  U6  1  0.75000000  0.82036100  0.99219200  1
  U  U7  1  0.75000000  0.48511900  0.14816200  1
  S  S8  1  0.75000000  0.85426100  0.55887700  1
  S  S9  1  0.75000000  0.35426100  0.94112300  1
  S  S10  1  0.25000000  0.82371800  0.29353000  1
  S  S11  1  0.25000000  0.64573900  0.05887700  1
  S  S12  1  0.25000000  0.95608500  0.88212600  1
  S  S13  1  0.25000000  0.14573900  0.44112300  1
  S  S14  1  0.75000000  0.67628200  0.79353000  1
  S  S15  1  0.75000000  0.54391500  0.38212600  1
  S  S16  1  0.25000000  0.45608500  0.61787400  1
  S  S17  1  0.75000000  0.04391500  0.11787400  1
  S  S18  1  0.75000000  0.17628200  0.70647000  1
  S  S19  1  0.25000000  0.32371800  0.20647000  1
