# generated using pymatgen
data_SNClO4
_symmetry_space_group_name_H-M   'P 1'
_cell_length_a   8.52972600
_cell_length_b   9.02274500
_cell_length_c   11.00623535
_cell_angle_alpha   72.09310844
_cell_angle_beta   90.00000000
_cell_angle_gamma   90.00000000
_symmetry_Int_Tables_number   1
_chemical_formula_structural   SNClO4
_chemical_formula_sum   'S4 N4 Cl4 O16'
_cell_volume   806.02323834
_cell_formula_units_Z   4
loop_
 _symmetry_equiv_pos_site_id
 _symmetry_equiv_pos_as_xyz
  1  'x, y, z'
loop_
 _atom_site_type_symbol
 _atom_site_label
 _atom_site_symmetry_multiplicity
 _atom_site_fract_x
 _atom_site_fract_y
 _atom_site_fract_z
 _atom_site_occupancy
  S  S0  1  0.08621000  0.04766900  0.80427400  1
  S  S1  1  0.58621000  0.45233100  0.19572600  1
  S  S2  1  0.91379000  0.95233100  0.19572600  1
  S  S3  1  0.41379000  0.54766900  0.80427400  1
  N  N4  1  0.65103900  0.13122400  0.55276800  1
  N  N5  1  0.84896100  0.63122400  0.55276800  1
  N  N6  1  0.34896100  0.86877600  0.44723200  1
  N  N7  1  0.15103900  0.36877600  0.44723200  1
  Cl  Cl8  1  0.73936700  0.29585000  0.52150700  1
  Cl  Cl9  1  0.76063300  0.79585000  0.52150700  1
  Cl  Cl10  1  0.23936700  0.20415000  0.47849300  1
  Cl  Cl11  1  0.26063300  0.70415000  0.47849300  1
  O  O12  1  0.11459500  0.24794800  0.16616300  1
  O  O13  1  0.88540500  0.75205200  0.83383700  1
  O  O14  1  0.02632900  0.35460100  0.10811800  1
  O  O15  1  0.61459500  0.25205200  0.83383700  1
  O  O16  1  0.47367100  0.85460100  0.10811800  1
  O  O17  1  0.50375700  0.68972300  0.78432000  1
  O  O18  1  0.17300500  0.98449700  0.92211000  1
  O  O19  1  0.32699500  0.48449700  0.92211000  1
  O  O20  1  0.52632900  0.14539900  0.89188200  1
  O  O21  1  0.38540500  0.74794800  0.16616300  1
  O  O22  1  0.49624300  0.31027700  0.21568000  1
  O  O23  1  0.00375700  0.81027700  0.21568000  1
  O  O24  1  0.67300500  0.51550300  0.07789000  1
  O  O25  1  0.97367100  0.64539900  0.89188200  1
  O  O26  1  0.99624300  0.18972300  0.78432000  1
  O  O27  1  0.82699500  0.01550300  0.07789000  1
