# generated using pymatgen
data_Dy(FeSn)6
_symmetry_space_group_name_H-M   'P 1'
_cell_length_a   23.56039964
_cell_length_b   23.56039964
_cell_length_c   9.00048100
_cell_angle_alpha   90.00000000
_cell_angle_beta   90.00000000
_cell_angle_gamma   166.81988907
_symmetry_Int_Tables_number   1
_chemical_formula_structural   Dy(FeSn)6
_chemical_formula_sum   'Dy5 Fe30 Sn30'
_cell_volume   1139.17498455
_cell_formula_units_Z   5
loop_
 _symmetry_equiv_pos_site_id
 _symmetry_equiv_pos_as_xyz
  1  'x, y, z'
loop_
 _atom_site_type_symbol
 _atom_site_label
 _atom_site_symmetry_multiplicity
 _atom_site_fract_x
 _atom_site_fract_y
 _atom_site_fract_z
 _atom_site_occupancy
  Dy  Dy0  1  0.39984500  0.60015500  0.50000000  1
  Dy  Dy1  1  0.60015500  0.39984500  0.50000000  1
  Dy  Dy2  1  0.19984500  0.80015500  0.00000000  1
  Dy  Dy3  1  0.80015500  0.19984500  0.00000000  1
  Dy  Dy4  1  0.00000000  0.00000000  0.50000000  1
  Fe  Fe5  1  0.39986500  0.09995200  0.75002900  1
  Fe  Fe6  1  0.69998700  0.30001300  0.24906400  1
  Fe  Fe7  1  0.60013500  0.90004800  0.24997100  1
  Fe  Fe8  1  0.69998700  0.30001300  0.75093600  1
  Fe  Fe9  1  0.50000000  0.00000000  0.75110100  1
  Fe  Fe10  1  0.90004800  0.60013500  0.24997100  1
  Fe  Fe11  1  0.60013500  0.90004800  0.75002900  1
  Fe  Fe12  1  0.80009900  0.70015000  0.74880100  1
  Fe  Fe13  1  0.29985000  0.19990100  0.74880100  1
  Fe  Fe14  1  0.70015000  0.80009900  0.25119900  1
  Fe  Fe15  1  0.30001300  0.69998700  0.75093600  1
  Fe  Fe16  1  0.19990100  0.29985000  0.74880100  1
  Fe  Fe17  1  0.10006100  0.89993900  0.74907600  1
  Fe  Fe18  1  0.10006100  0.89993900  0.25092400  1
  Fe  Fe19  1  0.50000000  0.50000000  0.25116400  1
  Fe  Fe20  1  0.80009900  0.70015000  0.25119900  1
  Fe  Fe21  1  0.00000000  0.50000000  0.24889900  1
  Fe  Fe22  1  0.00000000  0.50000000  0.75110100  1
  Fe  Fe23  1  0.90004800  0.60013500  0.75002900  1
  Fe  Fe24  1  0.39986500  0.09995200  0.24997100  1
  Fe  Fe25  1  0.70015000  0.80009900  0.74880100  1
  Fe  Fe26  1  0.89993900  0.10006100  0.74907600  1
  Fe  Fe27  1  0.89993900  0.10006100  0.25092400  1
  Fe  Fe28  1  0.19990100  0.29985000  0.25119900  1
  Fe  Fe29  1  0.09995200  0.39986500  0.75002900  1
  Fe  Fe30  1  0.29985000  0.19990100  0.25119900  1
  Fe  Fe31  1  0.50000000  0.00000000  0.24889900  1
  Fe  Fe32  1  0.30001300  0.69998700  0.24906400  1
  Fe  Fe33  1  0.50000000  0.50000000  0.74883600  1
  Fe  Fe34  1  0.09995200  0.39986500  0.24997100  1
  Sn  Sn35  1  0.06653400  0.93346600  0.00000000  1
  Sn  Sn36  1  0.79998700  0.20001300  0.66575300  1
  Sn  Sn37  1  0.06662300  0.93337700  0.50000000  1
  Sn  Sn38  1  0.33341500  0.66658500  0.00000000  1
  Sn  Sn39  1  0.13306700  0.86693300  0.00000000  1
  Sn  Sn40  1  0.66699900  0.33300100  0.50000000  1
  Sn  Sn41  1  0.66658500  0.33341500  0.00000000  1
  Sn  Sn42  1  0.53348300  0.46651700  0.00000000  1
  Sn  Sn43  1  0.93337700  0.06662300  0.50000000  1
  Sn  Sn44  1  0.40021600  0.59978400  0.83443200  1
  Sn  Sn45  1  0.59978400  0.40021600  0.83443200  1
  Sn  Sn46  1  0.33300100  0.66699900  0.50000000  1
  Sn  Sn47  1  0.20001300  0.79998700  0.66575300  1
  Sn  Sn48  1  0.20001300  0.79998700  0.33424700  1
  Sn  Sn49  1  0.40021600  0.59978400  0.16556800  1
  Sn  Sn50  1  0.26672700  0.73327300  0.00000000  1
  Sn  Sn51  1  0.93346600  0.06653400  0.00000000  1
  Sn  Sn52  1  0.73331200  0.26668800  0.50000000  1
  Sn  Sn53  1  0.86647200  0.13352800  0.50000000  1
  Sn  Sn54  1  0.13352800  0.86647200  0.50000000  1
  Sn  Sn55  1  0.00000000  0.00000000  0.83410400  1
  Sn  Sn56  1  0.79998700  0.20001300  0.33424700  1
  Sn  Sn57  1  0.00000000  0.00000000  0.16589600  1
  Sn  Sn58  1  0.73327300  0.26672700  0.00000000  1
  Sn  Sn59  1  0.26668800  0.73331200  0.50000000  1
  Sn  Sn60  1  0.59978400  0.40021600  0.16556800  1
  Sn  Sn61  1  0.46651700  0.53348300  0.00000000  1
  Sn  Sn62  1  0.53340100  0.46659900  0.50000000  1
  Sn  Sn63  1  0.46659900  0.53340100  0.50000000  1
  Sn  Sn64  1  0.86693300  0.13306700  0.00000000  1
