# generated using pymatgen
data_CuPO4
_symmetry_space_group_name_H-M   'P 1'
_cell_length_a   8.75528412
_cell_length_b   8.75528412
_cell_length_c   8.75528377
_cell_angle_alpha   108.62250501
_cell_angle_beta   108.62250501
_cell_angle_gamma   108.62249925
_symmetry_Int_Tables_number   1
_chemical_formula_structural   CuPO4
_chemical_formula_sum   'Cu6 P6 O24'
_cell_volume   532.25633982
_cell_formula_units_Z   6
loop_
 _symmetry_equiv_pos_site_id
 _symmetry_equiv_pos_as_xyz
  1  'x, y, z'
loop_
 _atom_site_type_symbol
 _atom_site_label
 _atom_site_symmetry_multiplicity
 _atom_site_fract_x
 _atom_site_fract_y
 _atom_site_fract_z
 _atom_site_occupancy
  Cu  Cu0  1  0.47276500  0.24190000  0.05625700  1
  Cu  Cu1  1  0.24190000  0.05625700  0.47276500  1
  Cu  Cu2  1  0.05625700  0.47276500  0.24190000  1
  Cu  Cu3  1  0.76764800  0.96395500  0.54708800  1
  Cu  Cu4  1  0.54708800  0.76764800  0.96395500  1
  Cu  Cu5  1  0.96395500  0.54708800  0.76764800  1
  P  P6  1  0.71647600  0.11999200  0.90616400  1
  P  P7  1  0.20814700  0.42999100  0.60987600  1
  P  P8  1  0.42999100  0.60987600  0.20814700  1
  P  P9  1  0.60987600  0.20814700  0.42999100  1
  P  P10  1  0.11999200  0.90616400  0.71647600  1
  P  P11  1  0.90616400  0.71647600  0.11999200  1
  O  O12  1  0.29736900  0.61867900  0.28686600  1
  O  O13  1  0.70033200  0.08117300  0.40810700  1
  O  O14  1  0.40810700  0.70033200  0.08117300  1
  O  O15  1  0.41123500  0.09195500  0.38201900  1
  O  O16  1  0.65959800  0.00520600  0.70466800  1
  O  O17  1  0.00244000  0.91838900  0.26772800  1
  O  O18  1  0.61867900  0.28686600  0.29736900  1
  O  O19  1  0.36653300  0.62694500  0.71153100  1
  O  O20  1  0.00520600  0.70466800  0.65959800  1
  O  O21  1  0.62694500  0.71153100  0.36653300  1
  O  O22  1  0.21586200  0.91428700  0.59482300  1
  O  O23  1  0.91838900  0.26772800  0.00244000  1
  O  O24  1  0.00134600  0.00216100  0.69262400  1
  O  O25  1  0.91428700  0.59482300  0.21586200  1
  O  O26  1  0.70466800  0.65959800  0.00520600  1
  O  O27  1  0.00216100  0.69262400  0.00134600  1
  O  O28  1  0.09195500  0.38201900  0.41123500  1
  O  O29  1  0.59482300  0.21586200  0.91428700  1
  O  O30  1  0.28686600  0.29736900  0.61867900  1
  O  O31  1  0.08117300  0.40810700  0.70033200  1
  O  O32  1  0.26772800  0.00244000  0.91838900  1
  O  O33  1  0.69262400  0.00134600  0.00216100  1
  O  O34  1  0.38201900  0.41123500  0.09195500  1
  O  O35  1  0.71153100  0.36653300  0.62694500  1
