# generated using pymatgen
data_Zn6Sb5
_symmetry_space_group_name_H-M   'P 1'
_cell_length_a   8.26978660
_cell_length_b   8.26978660
_cell_length_c   8.26978635
_cell_angle_alpha   95.67191490
_cell_angle_beta   95.67191490
_cell_angle_gamma   95.67191713
_symmetry_Int_Tables_number   1
_chemical_formula_structural   Zn6Sb5
_chemical_formula_sum   'Zn12 Sb10'
_cell_volume   556.66297151
_cell_formula_units_Z   2
loop_
 _symmetry_equiv_pos_site_id
 _symmetry_equiv_pos_as_xyz
  1  'x, y, z'
loop_
 _atom_site_type_symbol
 _atom_site_label
 _atom_site_symmetry_multiplicity
 _atom_site_fract_x
 _atom_site_fract_y
 _atom_site_fract_z
 _atom_site_occupancy
  Zn  Zn0  1  0.12290200  0.13197900  0.49973700  1
  Zn  Zn1  1  0.63197900  0.62290200  0.99973700  1
  Zn  Zn2  1  0.36802100  0.37709800  0.00026300  1
  Zn  Zn3  1  0.00026300  0.36802100  0.37709800  1
  Zn  Zn4  1  0.86802100  0.50026300  0.87709800  1
  Zn  Zn5  1  0.62290200  0.99973700  0.63197900  1
  Zn  Zn6  1  0.49973700  0.12290200  0.13197900  1
  Zn  Zn7  1  0.13197900  0.49973700  0.12290200  1
  Zn  Zn8  1  0.37709800  0.00026300  0.36802100  1
  Zn  Zn9  1  0.50026300  0.87709800  0.86802100  1
  Zn  Zn10  1  0.87709800  0.86802100  0.50026300  1
  Zn  Zn11  1  0.99973700  0.63197900  0.62290200  1
  Sb  Sb12  1  0.75000000  0.12064500  0.37935500  1
  Sb  Sb13  1  0.12064500  0.37935500  0.75000000  1
  Sb  Sb14  1  0.87534600  0.87534600  0.87534600  1
  Sb  Sb15  1  0.62465400  0.62465400  0.62465400  1
  Sb  Sb16  1  0.25000000  0.87935500  0.62064500  1
  Sb  Sb17  1  0.37534600  0.37534600  0.37534600  1
  Sb  Sb18  1  0.62064500  0.25000000  0.87935500  1
  Sb  Sb19  1  0.12465400  0.12465400  0.12465400  1
  Sb  Sb20  1  0.37935500  0.75000000  0.12064500  1
  Sb  Sb21  1  0.87935500  0.62064500  0.25000000  1
