# generated using pymatgen
data_YbIn4Ni
_symmetry_space_group_name_H-M   'P 1'
_cell_length_a   7.41762500
_cell_length_b   4.40481500
_cell_length_c   8.63826292
_cell_angle_alpha   75.30229609
_cell_angle_beta   90.00000000
_cell_angle_gamma   90.00000000
_symmetry_Int_Tables_number   1
_chemical_formula_structural   YbIn4Ni
_chemical_formula_sum   'Yb2 In8 Ni2'
_cell_volume   273.00477293
_cell_formula_units_Z   2
loop_
 _symmetry_equiv_pos_site_id
 _symmetry_equiv_pos_as_xyz
  1  'x, y, z'
loop_
 _atom_site_type_symbol
 _atom_site_label
 _atom_site_symmetry_multiplicity
 _atom_site_fract_x
 _atom_site_fract_y
 _atom_site_fract_z
 _atom_site_occupancy
  Yb  Yb0  1  0.74686600  0.12390400  0.74543200  1
  Yb  Yb1  1  0.24686600  0.87609600  0.25456800  1
  In  In2  1  0.75228100  0.93462500  0.14112600  1
  In  In3  1  0.54481900  0.32072100  0.36958000  1
  In  In4  1  0.25228100  0.06537500  0.85887400  1
  In  In5  1  0.94995200  0.31777200  0.37151000  1
  In  In6  1  0.44995200  0.68222800  0.62849000  1
  In  In7  1  0.99846500  0.50054600  0.99667500  1
  In  In8  1  0.49846500  0.49945400  0.00332500  1
  In  In9  1  0.04481900  0.67927900  0.63042000  1
  Ni  Ni10  1  0.74660300  0.77584500  0.45609400  1
  Ni  Ni11  1  0.24660300  0.22415500  0.54390600  1
