# generated using pymatgen
data_Co8(BiO4)5
_symmetry_space_group_name_H-M   'P 1'
_cell_length_a   7.93542100
_cell_length_b   7.98130884
_cell_length_c   8.29262106
_cell_angle_alpha   108.69690165
_cell_angle_beta   109.46910992
_cell_angle_gamma   107.22316007
_symmetry_Int_Tables_number   1
_chemical_formula_structural   Co8(BiO4)5
_chemical_formula_sum   'Co8 Bi5 O20'
_cell_volume   418.59531409
_cell_formula_units_Z   1
loop_
 _symmetry_equiv_pos_site_id
 _symmetry_equiv_pos_as_xyz
  1  'x, y, z'
loop_
 _atom_site_type_symbol
 _atom_site_label
 _atom_site_symmetry_multiplicity
 _atom_site_fract_x
 _atom_site_fract_y
 _atom_site_fract_z
 _atom_site_occupancy
  Co  Co0  1  0.42282800  0.75751200  0.59386100  1
  Co  Co1  1  0.10939400  0.77480600  0.27126000  1
  Co  Co2  1  0.78423800  0.28093700  0.11188900  1
  Co  Co3  1  0.29573200  0.09986300  0.77539900  1
  Co  Co4  1  0.00419000  0.02027200  0.02088700  1
  Co  Co5  1  0.71833600  0.88943300  0.21540000  1
  Co  Co6  1  0.22812500  0.73245900  0.89368600  1
  Co  Co7  1  0.88769200  0.21922300  0.72782800  1
  Bi  Bi8  1  0.65311500  0.52641800  0.85595500  1
  Bi  Bi9  1  0.10004900  0.29294600  0.46483400  1
  Bi  Bi10  1  0.84754500  0.68074700  0.52959300  1
  Bi  Bi11  1  0.32148400  0.46166800  0.11525600  1
  Bi  Bi12  1  0.48700400  0.13273900  0.33471200  1
  O  O13  1  0.32346900  0.69116100  0.33473100  1
  O  O14  1  0.56553400  0.26041700  0.91985700  1
  O  O15  1  0.93129300  0.24497200  0.97243200  1
  O  O16  1  0.05730600  0.77590500  0.01838200  1
  O  O17  1  0.33170800  0.28137600  0.67350400  1
  O  O18  1  0.26649700  0.89044300  0.56934200  1
  O  O19  1  0.91471400  0.55082700  0.21324200  1
  O  O20  1  0.34328000  0.65822300  0.73547600  1
  O  O21  1  0.00075800  0.96598200  0.30190600  1
  O  O22  1  0.03216700  0.05935300  0.75222500  1
  O  O23  1  0.11667800  0.46664100  0.82424100  1
  O  O24  1  0.67865200  0.34758700  0.29597300  1
  O  O25  1  0.76466700  0.03654600  0.08569900  1
  O  O26  1  0.66302400  0.68858800  0.28517300  1
  O  O27  1  0.79629800  0.10876400  0.46249600  1
  O  O28  1  0.26364400  0.27055300  0.27056400  1
  O  O29  1  0.71001400  0.34301700  0.65761500  1
  O  O30  1  0.44229400  0.80524900  0.12098200  1
  O  O31  1  0.29379800  0.98503700  0.93970400  1
  O  O32  1  0.64447400  0.70033600  0.65589600  1
