# generated using pymatgen
data_V5CoO15
_symmetry_space_group_name_H-M   'P 1'
_cell_length_a   9.86537600
_cell_length_b   9.86537600
_cell_length_c   9.40463775
_cell_angle_alpha   61.58972402
_cell_angle_beta   61.58972402
_cell_angle_gamma   55.72377540
_symmetry_Int_Tables_number   1
_chemical_formula_structural   V5CoO15
_chemical_formula_sum   'V10 Co2 O30'
_cell_volume   637.48180062
_cell_formula_units_Z   2
loop_
 _symmetry_equiv_pos_site_id
 _symmetry_equiv_pos_as_xyz
  1  'x, y, z'
loop_
 _atom_site_type_symbol
 _atom_site_label
 _atom_site_symmetry_multiplicity
 _atom_site_fract_x
 _atom_site_fract_y
 _atom_site_fract_z
 _atom_site_occupancy
  V  V0  1  0.03100600  0.00192800  0.65519100  1
  V  V1  1  0.17899300  0.22646500  0.23003500  1
  V  V2  1  0.32016700  0.27915100  0.63816600  1
  V  V3  1  0.46729600  0.48308100  0.69265200  1
  V  V4  1  0.51691900  0.53270400  0.30734800  1
  V  V5  1  0.72084900  0.67983300  0.36183400  1
  V  V6  1  0.14741800  0.54105600  0.34744200  1
  V  V7  1  0.45894400  0.85258200  0.65255800  1
  V  V8  1  0.77353500  0.82100700  0.76996500  1
  V  V9  1  0.99807200  0.96899400  0.34480900  1
  Co  Co10  1  0.03613800  0.63980200  0.98197900  1
  Co  Co11  1  0.36019800  0.96386200  0.01802100  1
  O  O12  1  0.36682600  0.08231600  0.12303100  1
  O  O13  1  0.06832000  0.09277300  0.40159600  1
  O  O14  1  0.13809200  0.02136400  0.13285400  1
  O  O15  1  0.23230000  0.30170500  0.31247200  1
  O  O16  1  0.81581200  0.08191200  0.30907800  1
  O  O17  1  0.91808800  0.18418800  0.69092200  1
  O  O18  1  0.06405100  0.41305900  0.09835600  1
  O  O19  1  0.12045700  0.63236900  0.11121800  1
  O  O20  1  0.43492000  0.09125900  0.58708300  1
  O  O21  1  0.56436200  0.30178200  0.81548400  1
  O  O22  1  0.69821800  0.43563800  0.18451600  1
  O  O23  1  0.90874100  0.56508000  0.41291700  1
  O  O24  1  0.25993000  0.22515700  0.84648500  1
  O  O25  1  0.36382300  0.48826800  0.28026600  1
  O  O26  1  0.44581900  0.39841400  0.55214600  1
  O  O27  1  0.60158600  0.55418100  0.44785400  1
  O  O28  1  0.51173200  0.63617700  0.71973400  1
  O  O29  1  0.77484300  0.74007000  0.15351500  1
  O  O30  1  0.13056600  0.42200200  0.56661600  1
  O  O31  1  0.25241300  0.57560300  0.79337400  1
  O  O32  1  0.42439700  0.74758700  0.20662600  1
  O  O33  1  0.57799800  0.86943400  0.43338400  1
  O  O34  1  0.91768400  0.63317400  0.87696900  1
  O  O35  1  0.06872300  0.74819400  0.36288000  1
  O  O36  1  0.25180600  0.93127700  0.63712000  1
  O  O37  1  0.69829500  0.76770000  0.68752800  1
  O  O38  1  0.97863600  0.86190800  0.86714600  1
  O  O39  1  0.90722700  0.93168000  0.59840400  1
  O  O40  1  0.58694100  0.93594900  0.90164400  1
  O  O41  1  0.36763100  0.87954300  0.88878200  1
