# generated using pymatgen
data_SiS2
_symmetry_space_group_name_H-M   'P 1'
_cell_length_a   8.08006600
_cell_length_b   5.94292300
_cell_length_c   6.71458626
_cell_angle_alpha   74.57377742
_cell_angle_beta   90.00000000
_cell_angle_gamma   90.00000000
_symmetry_Int_Tables_number   1
_chemical_formula_structural   SiS2
_chemical_formula_sum   'Si4 S8'
_cell_volume   310.81322075
_cell_formula_units_Z   4
loop_
 _symmetry_equiv_pos_site_id
 _symmetry_equiv_pos_as_xyz
  1  'x, y, z'
loop_
 _atom_site_type_symbol
 _atom_site_label
 _atom_site_symmetry_multiplicity
 _atom_site_fract_x
 _atom_site_fract_y
 _atom_site_fract_z
 _atom_site_occupancy
  Si  Si0  1  0.63514100  0.39055300  0.11515600  1
  Si  Si1  1  0.13514100  0.10944700  0.88484400  1
  Si  Si2  1  0.36485900  0.60944700  0.88484400  1
  Si  Si3  1  0.86485900  0.89055300  0.11515600  1
  S  S4  1  0.39852400  0.48800700  0.21272600  1
  S  S5  1  0.89852400  0.01199300  0.78727400  1
  S  S6  1  0.60147600  0.51199300  0.78727400  1
  S  S7  1  0.10147600  0.98800700  0.21272600  1
  S  S8  1  0.84799200  0.51741700  0.24212600  1
  S  S9  1  0.34799200  0.98258300  0.75787400  1
  S  S10  1  0.15200800  0.48258300  0.75787400  1
  S  S11  1  0.65200800  0.01741700  0.24212600  1
