# generated using pymatgen
data_BaGe5
_symmetry_space_group_name_H-M   'P 1'
_cell_length_a   8.53668023
_cell_length_b   8.53668023
_cell_length_c   8.53668023
_cell_angle_alpha   147.01321822
_cell_angle_beta   119.78266500
_cell_angle_gamma   70.39659295
_symmetry_Int_Tables_number   1
_chemical_formula_structural   BaGe5
_chemical_formula_sum   'Ba2 Ge10'
_cell_volume   289.60190412
_cell_formula_units_Z   2
loop_
 _symmetry_equiv_pos_site_id
 _symmetry_equiv_pos_as_xyz
  1  'x, y, z'
loop_
 _atom_site_type_symbol
 _atom_site_label
 _atom_site_symmetry_multiplicity
 _atom_site_fract_x
 _atom_site_fract_y
 _atom_site_fract_z
 _atom_site_occupancy
  Ba  Ba0  1  0.21701200  0.96701200  0.25000000  1
  Ba  Ba1  1  0.78298800  0.03298800  0.75000000  1
  Ge  Ge2  1  0.95973400  0.70973400  0.25000000  1
  Ge  Ge3  1  0.04026600  0.29026600  0.75000000  1
  Ge  Ge4  1  0.59530200  0.19254600  0.40275600  1
  Ge  Ge5  1  0.71021000  0.80745400  0.90275600  1
  Ge  Ge6  1  0.40469800  0.80745400  0.59724400  1
  Ge  Ge7  1  0.28979000  0.19254600  0.09724400  1
  Ge  Ge8  1  0.14499500  0.62087900  0.52411600  1
  Ge  Ge9  1  0.40323600  0.37912100  0.02411600  1
  Ge  Ge10  1  0.85500500  0.37912100  0.47588400  1
  Ge  Ge11  1  0.59676400  0.62087900  0.97588400  1
