# generated using pymatgen
data_GeF2
_symmetry_space_group_name_H-M   'P 1'
_cell_length_a   4.45775300
_cell_length_b   5.32741500
_cell_length_c   8.66085300
_cell_angle_alpha   90.00000000
_cell_angle_beta   90.00000000
_cell_angle_gamma   90.00000000
_symmetry_Int_Tables_number   1
_chemical_formula_structural   GeF2
_chemical_formula_sum   'Ge4 F8'
_cell_volume   205.68053702
_cell_formula_units_Z   4
loop_
 _symmetry_equiv_pos_site_id
 _symmetry_equiv_pos_as_xyz
  1  'x, y, z'
loop_
 _atom_site_type_symbol
 _atom_site_label
 _atom_site_symmetry_multiplicity
 _atom_site_fract_x
 _atom_site_fract_y
 _atom_site_fract_z
 _atom_site_occupancy
  Ge  Ge0  1  0.74812300  0.75000000  0.11328300  1
  Ge  Ge1  1  0.75187700  0.75000000  0.61328300  1
  Ge  Ge2  1  0.25187700  0.25000000  0.88671700  1
  Ge  Ge3  1  0.24812300  0.25000000  0.38671700  1
  F  F4  1  0.02242100  0.75000000  0.27413600  1
  F  F5  1  0.47757900  0.75000000  0.77413600  1
  F  F6  1  0.97757900  0.25000000  0.72586400  1
  F  F7  1  0.52242100  0.25000000  0.22586400  1
  F  F8  1  0.00000000  0.50000000  0.00000000  1
  F  F9  1  0.50000000  0.00000000  0.50000000  1
  F  F10  1  0.00000000  0.00000000  0.00000000  1
  F  F11  1  0.50000000  0.50000000  0.50000000  1
