# generated using pymatgen
data_H(WO3)2
_symmetry_space_group_name_H-M   'P 1'
_cell_length_a   7.72666525
_cell_length_b   5.50367875
_cell_length_c   5.42848320
_cell_angle_alpha   60.26479131
_cell_angle_beta   44.66669014
_cell_angle_gamma   45.77183988
_symmetry_Int_Tables_number   1
_chemical_formula_structural   H(WO3)2
_chemical_formula_sum   'H1 W2 O6'
_cell_volume   116.28529559
_cell_formula_units_Z   1
loop_
 _symmetry_equiv_pos_site_id
 _symmetry_equiv_pos_as_xyz
  1  'x, y, z'
loop_
 _atom_site_type_symbol
 _atom_site_label
 _atom_site_symmetry_multiplicity
 _atom_site_fract_x
 _atom_site_fract_y
 _atom_site_fract_z
 _atom_site_occupancy
  H  H0  1  0.50828500  0.98804800  0.99761500  1
  W  W1  1  0.27629200  0.46006700  0.50891900  1
  W  W2  1  0.77711300  0.46043500  0.50762900  1
  O  O3  1  0.99672600  0.00765600  0.49302900  1
  O  O4  1  0.98699500  0.51441900  0.99711500  1
  O  O5  1  0.99504600  0.50929600  0.49186800  1
  O  O6  1  0.49049000  0.00903600  0.50209500  1
  O  O7  1  0.49410500  0.50633600  0.99683200  1
  O  O8  1  0.49261700  0.50817800  0.49839200  1
