# generated using pymatgen
data_Yb3(Bi7Te12)2
_symmetry_space_group_name_H-M   'P 1'
_cell_length_a   8.33818082
_cell_length_b   8.29500937
_cell_length_c   25.48300292
_cell_angle_alpha   108.94888528
_cell_angle_beta   109.74088562
_cell_angle_gamma   108.79345200
_symmetry_Int_Tables_number   1
_chemical_formula_structural   Yb3(Bi7Te12)2
_chemical_formula_sum   'Yb3 Bi14 Te24'
_cell_volume   1372.08074326
_cell_formula_units_Z   1
loop_
 _symmetry_equiv_pos_site_id
 _symmetry_equiv_pos_as_xyz
  1  'x, y, z'
loop_
 _atom_site_type_symbol
 _atom_site_label
 _atom_site_symmetry_multiplicity
 _atom_site_fract_x
 _atom_site_fract_y
 _atom_site_fract_z
 _atom_site_occupancy
  Yb  Yb0  1  0.11593096  0.73863668  0.95530043  1
  Yb  Yb1  1  0.25786239  0.62542082  0.79846591  1
  Yb  Yb2  1  0.62556479  0.37852164  0.07614497  1
  Bi  Bi3  1  0.04868055  0.73957125  0.61110755  1
  Bi  Bi4  1  0.36108295  0.25086006  0.88129667  1
  Bi  Bi5  1  0.09918878  0.72644148  0.28676794  1
  Bi  Bi6  1  0.43887507  0.26931383  0.56507517  1
  Bi  Bi7  1  0.76206800  0.90279113  0.71971400  1
  Bi  Bi8  1  0.56828906  0.31672083  0.74597101  1
  Bi  Bi9  1  0.83574748  0.09486371  0.91349047  1
  Bi  Bi10  1  0.24741460  0.59680856  0.11321798  1
  Bi  Bi11  1  0.43602796  0.27987577  0.22570427  1
  Bi  Bi12  1  0.75225695  0.84449585  0.36612128  1
  Bi  Bi13  1  0.61351010  0.32386427  0.42479677  1
  Bi  Bi14  1  0.88552023  0.14680601  0.56830432  1
  Bi  Bi15  1  0.78014533  0.90865595  0.05038334  1
  Bi  Bi16  1  0.92254906  0.14993411  0.24825423  1
  Te  Te17  1  0.00701038  0.88139132  0.83626548  1
  Te  Te18  1  0.99752703  0.35746239  0.83262976  1
  Te  Te19  1  0.01709593  0.89453154  0.49848046  1
  Te  Te20  1  0.48633131  0.99960165  0.94881015  1
  Te  Te21  1  0.12800282  0.15036753  0.70650645  1
  Te  Te22  1  0.01325133  0.38177678  0.50569441  1
  Te  Te23  1  0.39467172  0.52010740  0.67517636  1
  Te  Te24  1  0.65577340  0.64693968  0.87949503  1
  Te  Te25  1  0.00350659  0.86762500  0.16371590  1
  Te  Te26  1  0.48607944  0.99249255  0.78726748  1
  Te  Te27  1  0.10742973  0.10753800  0.36778952  1
  Te  Te28  1  0.99084378  0.36193699  0.15904399  1
  Te  Te29  1  0.35054005  0.48921860  0.33294264  1
  Te  Te30  1  0.62594216  0.63362536  0.54052057  1
  Te  Te31  1  0.48742930  0.99497525  0.62329313  1
  Te  Te32  1  0.88564436  0.51525093  0.67033108  1
  Te  Te33  1  0.48463652  0.99940946  0.45613004  1
  Te  Te34  1  0.13956143  0.14211230  0.03902138  1
  Te  Te35  1  0.38618208  0.53807058  0.00237744  1
  Te  Te36  1  0.63982369  0.62066725  0.20761567  1
  Te  Te37  1  0.48099530  0.98334837  0.29182010  1
  Te  Te38  1  0.85055302  0.49038549  0.33586545  1
  Te  Te39  1  0.50317407  0.00140127  0.12639088  1
  Te  Te40  1  0.87728029  0.51118235  0.00436731  1
