# generated using pymatgen
data_Pr2PbSe4
_symmetry_space_group_name_H-M   'P 1'
_cell_length_a   7.88259672
_cell_length_b   7.88259672
_cell_length_c   7.88259672
_cell_angle_alpha   109.47295363
_cell_angle_beta   109.47295363
_cell_angle_gamma   109.46775470
_symmetry_Int_Tables_number   1
_chemical_formula_structural   Pr2PbSe4
_chemical_formula_sum   'Pr4 Pb2 Se8'
_cell_volume   377.03878920
_cell_formula_units_Z   2
loop_
 _symmetry_equiv_pos_site_id
 _symmetry_equiv_pos_as_xyz
  1  'x, y, z'
loop_
 _atom_site_type_symbol
 _atom_site_label
 _atom_site_symmetry_multiplicity
 _atom_site_fract_x
 _atom_site_fract_y
 _atom_site_fract_z
 _atom_site_occupancy
  Pr  Pr0  1  0.74292700  0.12500000  0.11792700  1
  Pr  Pr1  1  0.37500000  0.25707300  0.38207300  1
  Pr  Pr2  1  0.00707300  0.62500000  0.88207300  1
  Pr  Pr3  1  0.87500000  0.99292700  0.61792700  1
  Pb  Pb4  1  0.50000000  0.50000000  0.00000000  1
  Pb  Pb5  1  0.25000000  0.75000000  0.50000000  1
  Se  Se6  1  0.26786600  0.01954800  0.90172000  1
  Se  Se7  1  0.76954800  0.51786600  0.40172000  1
  Se  Se8  1  0.98045200  0.88217200  0.24831800  1
  Se  Se9  1  0.63385400  0.73213400  0.75168200  1
  Se  Se10  1  0.11614600  0.36782800  0.59828000  1
  Se  Se11  1  0.63217200  0.23045200  0.74831800  1
  Se  Se12  1  0.48213400  0.88385400  0.25168200  1
  Se  Se13  1  0.11782800  0.36614600  0.09828000  1
