# generated using pymatgen
data_Ca2SiO4
_symmetry_space_group_name_H-M   'P 1'
_cell_length_a   7.09132000
_cell_length_b   6.25131300
_cell_length_c   9.79329054
_cell_angle_alpha   56.62744428
_cell_angle_beta   90.00000000
_cell_angle_gamma   90.00000000
_symmetry_Int_Tables_number   1
_chemical_formula_structural   Ca2SiO4
_chemical_formula_sum   'Ca8 Si4 O16'
_cell_volume   362.55291547
_cell_formula_units_Z   4
loop_
 _symmetry_equiv_pos_site_id
 _symmetry_equiv_pos_as_xyz
  1  'x, y, z'
loop_
 _atom_site_type_symbol
 _atom_site_label
 _atom_site_symmetry_multiplicity
 _atom_site_fract_x
 _atom_site_fract_y
 _atom_site_fract_z
 _atom_site_occupancy
  Ca  Ca0  1  0.89234100  0.18197400  0.64813200  1
  Ca  Ca1  1  0.39234100  0.81802600  0.85186800  1
  Ca  Ca2  1  0.06461100  0.46346300  0.19501100  1
  Ca  Ca3  1  0.60765900  0.18197400  0.14813200  1
  Ca  Ca4  1  0.56461100  0.53653700  0.30498900  1
  Ca  Ca5  1  0.10765900  0.81802600  0.35186800  1
  Ca  Ca6  1  0.43538900  0.46346300  0.69501100  1
  Ca  Ca7  1  0.93538900  0.53653700  0.80498900  1
  Si  Si8  1  0.71233600  0.84145600  0.49823700  1
  Si  Si9  1  0.21233600  0.15854400  0.00176300  1
  Si  Si10  1  0.78766400  0.84145600  0.99823700  1
  Si  Si11  1  0.28766400  0.15854400  0.50176300  1
  O  O12  1  0.12469100  0.37602500  0.45873100  1
  O  O13  1  0.79074300  0.13687100  0.37336600  1
  O  O14  1  0.53443800  0.78408900  0.41354700  1
  O  O15  1  0.65662300  0.76750600  0.68365500  1
  O  O16  1  0.15662300  0.23249400  0.81634500  1
  O  O17  1  0.03443800  0.21591100  0.08645300  1
  O  O18  1  0.37530900  0.37602500  0.95873100  1
  O  O19  1  0.29074300  0.86312900  0.12663400  1
  O  O20  1  0.70925700  0.13687100  0.87336600  1
  O  O21  1  0.62469100  0.62397500  0.04126900  1
  O  O22  1  0.96556200  0.78408900  0.91354700  1
  O  O23  1  0.84337700  0.76750600  0.18365500  1
  O  O24  1  0.34337700  0.23249400  0.31634500  1
  O  O25  1  0.46556200  0.21591100  0.58645300  1
  O  O26  1  0.20925700  0.86312900  0.62663400  1
  O  O27  1  0.87530900  0.62397500  0.54126900  1
