# generated using pymatgen
data_Ce8Nd2O19
_symmetry_space_group_name_H-M   'P 1'
_cell_length_a   3.88096339
_cell_length_b   38.89138722
_cell_length_c   37.10695042
_cell_angle_alpha   5.20029998
_cell_angle_beta   58.49377315
_cell_angle_gamma   60.09166418
_symmetry_Int_Tables_number   1
_chemical_formula_structural   Ce8Nd2O19
_chemical_formula_sum   'Ce8 Nd2 O19'
_cell_volume   415.18468512
_cell_formula_units_Z   1
loop_
 _symmetry_equiv_pos_site_id
 _symmetry_equiv_pos_as_xyz
  1  'x, y, z'
loop_
 _atom_site_type_symbol
 _atom_site_label
 _atom_site_symmetry_multiplicity
 _atom_site_fract_x
 _atom_site_fract_y
 _atom_site_fract_z
 _atom_site_occupancy
  Ce  Ce0  1  0.99144500  0.19293300  0.00902400  1
  Ce  Ce1  1  0.00464300  0.39979900  0.00028000  1
  Ce  Ce2  1  0.00205200  0.29945400  0.00112300  1
  Ce  Ce3  1  0.00467400  0.50111500  0.99872400  1
  Ce  Ce4  1  0.00338400  0.59974400  0.99972800  1
  Ce  Ce5  1  0.00385700  0.80572300  0.99289300  1
  Ce  Ce6  1  0.00081700  0.70064400  0.99862300  1
  Ce  Ce7  1  0.01387900  0.90976200  0.98736200  1
  Nd  Nd8  1  0.03655400  0.02578600  0.96689900  1
  Nd  Nd9  1  0.96652000  0.07190300  0.03444200  1
  O  O10  1  0.25296900  0.09826400  0.25224700  1
  O  O11  1  0.25497500  0.19987200  0.25025300  1
  O  O12  1  0.25611800  0.30286000  0.24651100  1
  O  O13  1  0.25140300  0.39783800  0.25178600  1
  O  O14  1  0.25418300  0.50669600  0.24160000  1
  O  O15  1  0.74901400  0.00186300  0.74739000  1
  O  O16  1  0.25147800  0.60180200  0.24776000  1
  O  O17  1  0.28924400  0.72756000  0.21459500  1
  O  O18  1  0.76756400  0.11579800  0.73036600  1
  O  O19  1  0.74178200  0.18934800  0.76232700  1
  O  O20  1  0.74855900  0.29751000  0.75197900  1
  O  O21  1  0.21262500  0.87078700  0.28621100  1
  O  O22  1  0.76076600  0.40814500  0.73923800  1
  O  O23  1  0.25632000  0.00587700  0.24368400  1
  O  O24  1  0.74000600  0.49294700  0.76001900  1
  O  O25  1  0.75384600  0.59886400  0.75133800  1
  O  O26  1  0.75682900  0.70093300  0.74873400  1
  O  O27  1  0.75339800  0.79968200  0.75031300  1
  O  O28  1  0.75417400  0.89960000  0.74947000  1
