# generated using pymatgen
data_V4Ge13O36
_symmetry_space_group_name_H-M   'P 1'
_cell_length_a   2.90515400
_cell_length_b   4.59250200
_cell_length_c   39.52781565
_cell_angle_alpha   88.93450724
_cell_angle_beta   90.00000000
_cell_angle_gamma   90.00000000
_symmetry_Int_Tables_number   1
_chemical_formula_structural   V4Ge13O36
_chemical_formula_sum   'V4 Ge13 O36'
_cell_volume   527.28598637
_cell_formula_units_Z   1
loop_
 _symmetry_equiv_pos_site_id
 _symmetry_equiv_pos_as_xyz
  1  'x, y, z'
loop_
 _atom_site_type_symbol
 _atom_site_label
 _atom_site_symmetry_multiplicity
 _atom_site_fract_x
 _atom_site_fract_y
 _atom_site_fract_z
 _atom_site_occupancy
  V  V0  1  0.00000000  0.93195700  0.90297700  1
  V  V1  1  0.00000000  0.06804300  0.09702300  1
  V  V2  1  0.50000000  0.23736100  0.95637800  1
  V  V3  1  0.50000000  0.76263900  0.04362200  1
  Ge  Ge4  1  0.00000000  0.04999700  0.21263100  1
  Ge  Ge5  1  0.00000000  0.02503300  0.32692700  1
  Ge  Ge6  1  0.00000000  0.00663200  0.44217000  1
  Ge  Ge7  1  0.00000000  0.99336800  0.55783000  1
  Ge  Ge8  1  0.00000000  0.97496700  0.67307300  1
  Ge  Ge9  1  0.00000000  0.95000300  0.78736900  1
  Ge  Ge10  1  0.50000000  0.56793200  0.15567100  1
  Ge  Ge11  1  0.50000000  0.53769400  0.26961600  1
  Ge  Ge12  1  0.50000000  0.50000000  0.50000000  1
  Ge  Ge13  1  0.50000000  0.51534200  0.38450900  1
  Ge  Ge14  1  0.50000000  0.48465800  0.61549100  1
  Ge  Ge15  1  0.50000000  0.46230600  0.73038400  1
  Ge  Ge16  1  0.50000000  0.43206800  0.84432900  1
  O  O17  1  0.00000000  0.47150400  0.95170800  1
  O  O18  1  0.00000000  0.14393700  0.99219000  1
  O  O19  1  0.00000000  0.85606300  0.00781000  1
  O  O20  1  0.00000000  0.52849600  0.04829200  1
  O  O21  1  0.00000000  0.36103900  0.17613500  1
  O  O22  1  0.00000000  0.33816300  0.29128500  1
  O  O23  1  0.00000000  0.73545000  0.24802900  1
  O  O24  1  0.00000000  0.31993500  0.40658500  1
  O  O25  1  0.00000000  0.70878300  0.36248400  1
  O  O26  1  0.00000000  0.30612700  0.52203200  1
  O  O27  1  0.00000000  0.69387300  0.47796800  1
  O  O28  1  0.00000000  0.29121700  0.63751600  1
  O  O29  1  0.00000000  0.68006500  0.59341500  1
  O  O30  1  0.00000000  0.26455000  0.75197100  1
  O  O31  1  0.00000000  0.66183700  0.70871500  1
  O  O32  1  0.00000000  0.21004700  0.86234400  1
  O  O33  1  0.50000000  0.28043900  0.11798500  1
  O  O34  1  0.50000000  0.13704300  0.05465100  1
  O  O35  1  0.50000000  0.24231500  0.23385000  1
  O  O36  1  0.50000000  0.71956100  0.88201500  1
  O  O37  1  0.50000000  0.21148100  0.34899200  1
  O  O38  1  0.50000000  0.86295700  0.94534900  1
  O  O39  1  0.50000000  0.19438100  0.46428500  1
  O  O40  1  0.50000000  0.76381500  0.09012300  1
  O  O41  1  0.50000000  0.16251600  0.69456500  1
  O  O42  1  0.50000000  0.85910800  0.19182200  1
  O  O43  1  0.50000000  0.83748400  0.30543500  1
  O  O44  1  0.50000000  0.18028000  0.57961200  1
  O  O45  1  0.50000000  0.14089200  0.80817800  1
  O  O46  1  0.50000000  0.81972000  0.42038800  1
  O  O47  1  0.50000000  0.23618500  0.90987700  1
  O  O48  1  0.50000000  0.80561900  0.53571500  1
  O  O49  1  0.50000000  0.75768500  0.76615000  1
  O  O50  1  0.50000000  0.78851900  0.65100800  1
  O  O51  1  0.00000000  0.78995300  0.13765600  1
  O  O52  1  0.00000000  0.63896100  0.82386500  1
