# generated using pymatgen
data_Li11Mn11O26
_symmetry_space_group_name_H-M   'P 1'
_cell_length_a   5.15580424
_cell_length_b   5.15580447
_cell_length_c   68.21942611
_cell_angle_alpha   32.42721937
_cell_angle_beta   32.42721538
_cell_angle_gamma   32.08672817
_symmetry_Int_Tables_number   1
_chemical_formula_structural   Li11Mn11O26
_chemical_formula_sum   'Li11 Mn11 O26'
_cell_volume   460.59828965
_cell_formula_units_Z   1
loop_
 _symmetry_equiv_pos_site_id
 _symmetry_equiv_pos_as_xyz
  1  'x, y, z'
loop_
 _atom_site_type_symbol
 _atom_site_label
 _atom_site_symmetry_multiplicity
 _atom_site_fract_x
 _atom_site_fract_y
 _atom_site_fract_z
 _atom_site_occupancy
  Li  Li0  1  0.07798700  0.07798700  0.08981900  1
  Li  Li1  1  0.87466500  0.87466500  0.07429100  1
  Li  Li2  1  0.54214100  0.54214100  0.41594800  1
  Li  Li3  1  0.50843700  0.50843700  0.49852600  1
  Li  Li4  1  0.50543600  0.50543600  0.57648400  1
  Li  Li5  1  0.50995200  0.50995200  0.65234500  1
  Li  Li6  1  0.51988200  0.51988200  0.72708500  1
  Li  Li7  1  0.52736500  0.52736500  0.80218200  1
  Li  Li8  1  0.51427400  0.51427400  0.88061000  1
  Li  Li9  1  0.42865800  0.42865800  0.97144800  1
  Li  Li10  1  0.98495900  0.98495900  0.00415800  1
  Mn  Mn11  1  0.96169900  0.96169900  0.15584800  1
  Mn  Mn12  1  0.96921300  0.96921300  0.23552700  1
  Mn  Mn13  1  0.96797100  0.96797100  0.31273800  1
  Mn  Mn14  1  0.97047500  0.97047500  0.46614700  1
  Mn  Mn15  1  0.96453900  0.96453900  0.38908900  1
  Mn  Mn16  1  0.99309900  0.99309900  0.54010300  1
  Mn  Mn17  1  0.00781400  0.00781400  0.61451800  1
  Mn  Mn18  1  0.01687400  0.01687400  0.68935300  1
  Mn  Mn19  1  0.04641900  0.04641900  0.83715300  1
  Mn  Mn20  1  0.03914400  0.03914400  0.76222900  1
  Mn  Mn21  1  0.02516600  0.02516600  0.91752700  1
  O  O22  1  0.25250300  0.25250300  0.01879300  1
  O  O23  1  0.10490700  0.10490700  0.11461600  1
  O  O24  1  0.84934800  0.84934800  0.04845300  1
  O  O25  1  0.18470800  0.18470800  0.18560800  1
  O  O26  1  0.66779900  0.66779900  0.13897600  1
  O  O27  1  0.20800600  0.20800600  0.26078900  1
  O  O28  1  0.69397900  0.69397900  0.21505100  1
  O  O29  1  0.21349400  0.21349400  0.33640600  1
  O  O30  1  0.68936500  0.68936500  0.29393700  1
  O  O31  1  0.20824000  0.20824000  0.41263800  1
  O  O32  1  0.68787800  0.68787800  0.37094400  1
  O  O33  1  0.22792400  0.22792400  0.48649800  1
  O  O34  1  0.71570100  0.71570100  0.44499600  1
  O  O35  1  0.24925500  0.24925500  0.56040700  1
  O  O36  1  0.73474700  0.73474700  0.52023700  1
  O  O37  1  0.26752200  0.26752200  0.63414000  1
  O  O38  1  0.74627100  0.74627100  0.59526400  1
  O  O39  1  0.28219800  0.28219800  0.70776500  1
  O  O40  1  0.75891600  0.75891600  0.66952900  1
  O  O41  1  0.30000300  0.30000300  0.78146500  1
  O  O42  1  0.77476500  0.77476500  0.74364500  1
  O  O43  1  0.32164900  0.32164900  0.85445500  1
  O  O44  1  0.78904000  0.78904000  0.81704400  1
  O  O45  1  0.33811900  0.33811900  0.92926100  1
  O  O46  1  0.81021400  0.81021400  0.88944200  1
  O  O47  1  0.84428100  0.84428100  0.96243200  1
