# generated using pymatgen
data_WO3
_symmetry_space_group_name_H-M   'P 1'
_cell_length_a   7.30109800
_cell_length_b   7.44900605
_cell_length_c   10.24319145
_cell_angle_alpha   90.13587686
_cell_angle_beta   93.00423330
_cell_angle_gamma   93.50203487
_symmetry_Int_Tables_number   1
_chemical_formula_structural   WO3
_chemical_formula_sum   'W7 O21'
_cell_volume   555.27226775
_cell_formula_units_Z   7
loop_
 _symmetry_equiv_pos_site_id
 _symmetry_equiv_pos_as_xyz
  1  'x, y, z'
loop_
 _atom_site_type_symbol
 _atom_site_label
 _atom_site_symmetry_multiplicity
 _atom_site_fract_x
 _atom_site_fract_y
 _atom_site_fract_z
 _atom_site_occupancy
  W  W0  1  0.74965700  0.28077500  0.26872500  1
  W  W1  1  0.50208200  0.52026400  0.49592100  1
  W  W2  1  0.00105800  0.44331800  0.97543600  1
  W  W3  1  0.75274000  0.78595200  0.78101700  1
  W  W4  1  0.25088800  0.72541600  0.73215200  1
  W  W5  1  0.50470000  0.02013900  0.50938300  1
  W  W6  1  0.24597000  0.20982300  0.22899100  1
  O  O7  1  0.71437500  0.46448800  0.38209800  1
  O  O8  1  0.78880900  0.94817300  0.90315100  1
  O  O9  1  0.68458400  0.94750500  0.63776100  1
  O  O10  1  0.69071400  0.08373800  0.38281800  1
  O  O11  1  0.51289600  0.23874400  0.18950800  1
  O  O12  1  0.51080100  0.25864500  0.56264300  1
  O  O13  1  0.98878500  0.24762500  0.88488800  1
  O  O14  1  0.99978700  0.22534400  0.29643800  1
  O  O15  1  0.33675800  0.41937800  0.36723900  1
  O  O16  1  0.82497900  0.39681700  0.11347200  1
  O  O17  1  0.18670100  0.40875600  0.11195000  1
  O  O18  1  0.81960100  0.58630600  0.89297800  1
  O  O19  1  0.17992800  0.58625300  0.88031600  1
  O  O20  1  0.66272900  0.58053700  0.63911500  1
  O  O21  1  0.00129400  0.78380800  0.71532200  1
  O  O22  1  0.48452500  0.75467600  0.81517300  1
  O  O23  1  0.49631800  0.75846300  0.44243900  1
  O  O24  1  0.31612900  0.92994000  0.62746000  1
  O  O25  1  0.31918500  0.05682200  0.37480600  1
  O  O26  1  0.19130200  0.03608600  0.11705500  1
  O  O27  1  0.28270400  0.55221000  0.61044500  1
