# generated using pymatgen
data_Bi14SO24
_symmetry_space_group_name_H-M   'P 1'
_cell_length_a   8.82577600
_cell_length_b   8.85749574
_cell_length_c   10.60323229
_cell_angle_alpha   114.61780068
_cell_angle_beta   114.52354288
_cell_angle_gamma   90.14340300
_symmetry_Int_Tables_number   1
_chemical_formula_structural   Bi14SO24
_chemical_formula_sum   'Bi14 S1 O24'
_cell_volume   669.98636799
_cell_formula_units_Z   1
loop_
 _symmetry_equiv_pos_site_id
 _symmetry_equiv_pos_as_xyz
  1  'x, y, z'
loop_
 _atom_site_type_symbol
 _atom_site_label
 _atom_site_symmetry_multiplicity
 _atom_site_fract_x
 _atom_site_fract_y
 _atom_site_fract_z
 _atom_site_occupancy
  Bi  Bi0  1  0.05716600  0.86911700  0.33341100  1
  Bi  Bi1  1  0.52959500  0.93786500  0.66003500  1
  Bi  Bi2  1  0.65957500  0.65750100  0.31796900  1
  Bi  Bi3  1  0.12468900  0.72104400  0.66170000  1
  Bi  Bi4  1  0.55735000  0.78296600  0.00089400  1
  Bi  Bi5  1  0.27396800  0.46167400  0.33242100  1
  Bi  Bi6  1  0.72603200  0.53832600  0.66757900  1
  Bi  Bi7  1  0.20974700  0.56092400  0.00125600  1
  Bi  Bi8  1  0.87531100  0.27895600  0.33830000  1
  Bi  Bi9  1  0.34042500  0.34249900  0.68203100  1
  Bi  Bi10  1  0.79025300  0.43907600  0.99874400  1
  Bi  Bi11  1  0.47040500  0.06213500  0.33996500  1
  Bi  Bi12  1  0.94283400  0.13088300  0.66658900  1
  Bi  Bi13  1  0.44265000  0.21703400  0.99910600  1
  S  S14  1  0.00000000  0.00000000  0.00000000  1
  O  O15  1  0.66790700  0.99831200  0.49787600  1
  O  O16  1  0.45695400  0.76334000  0.15784500  1
  O  O17  1  0.76069500  0.70009100  0.15810400  1
  O  O18  1  0.99378100  0.82467500  0.49426000  1
  O  O19  1  0.93453200  0.91786600  0.81563900  1
  O  O20  1  0.37822900  0.88823100  0.76708400  1
  O  O21  1  0.11544800  0.61410600  0.23147900  1
  O  O22  1  0.49408900  0.66664200  0.49319200  1
  O  O23  1  0.01440200  0.81705800  0.99194300  1
  O  O24  1  0.39619000  0.45954300  0.15919000  1
  O  O25  1  0.69971200  0.39758700  0.15684000  1
  O  O26  1  0.17291600  0.49805600  0.50465400  1
  O  O27  1  0.82708400  0.50194400  0.49534600  1
  O  O28  1  0.30028800  0.60241300  0.84316000  1
  O  O29  1  0.60381000  0.54045700  0.84081000  1
  O  O30  1  0.50591100  0.33335800  0.50680800  1
  O  O31  1  0.88455200  0.38589400  0.76852100  1
  O  O32  1  0.62177100  0.11176900  0.23291600  1
  O  O33  1  0.06546800  0.08213400  0.18436100  1
  O  O34  1  0.00621900  0.17532500  0.50574000  1
  O  O35  1  0.23930500  0.29990900  0.84189600  1
  O  O36  1  0.54304600  0.23666000  0.84215500  1
  O  O37  1  0.33209300  0.00168800  0.50212400  1
  O  O38  1  0.98559800  0.18294200  0.00805700  1
