# generated using pymatgen
data_NaYF4
_symmetry_space_group_name_H-M   'P 1'
_cell_length_a   7.18817400
_cell_length_b   6.05094300
_cell_length_c   12.07656727
_cell_angle_alpha   59.95518606
_cell_angle_beta   90.00000000
_cell_angle_gamma   90.00000000
_symmetry_Int_Tables_number   1
_chemical_formula_structural   NaYF4
_chemical_formula_sum   'Na6 Y6 F24'
_cell_volume   454.69427496
_cell_formula_units_Z   6
loop_
 _symmetry_equiv_pos_site_id
 _symmetry_equiv_pos_as_xyz
  1  'x, y, z'
loop_
 _atom_site_type_symbol
 _atom_site_label
 _atom_site_symmetry_multiplicity
 _atom_site_fract_x
 _atom_site_fract_y
 _atom_site_fract_z
 _atom_site_occupancy
  Na  Na0  1  0.66269900  0.65091600  0.84321000  1
  Na  Na1  1  0.16256200  0.68341000  0.82474400  1
  Na  Na2  1  0.83743800  0.68341000  0.32474400  1
  Na  Na3  1  0.25352700  0.33114900  0.66834200  1
  Na  Na4  1  0.33730100  0.65091600  0.34321000  1
  Na  Na5  1  0.74647300  0.33114900  0.16834200  1
  Y  Y6  1  0.00227900  0.00171400  0.49906200  1
  Y  Y7  1  0.75217600  0.33464200  0.66537400  1
  Y  Y8  1  0.99772100  0.00171400  0.99906200  1
  Y  Y9  1  0.50038200  0.99818000  0.00089800  1
  Y  Y10  1  0.49961800  0.99818000  0.50089800  1
  Y  Y11  1  0.24782400  0.33464200  0.16537400  1
  F  F12  1  0.74763400  0.25141400  0.99483900  1
  F  F13  1  0.24942400  0.27600200  0.98487000  1
  F  F14  1  0.74978600  0.75195700  0.63524400  1
  F  F15  1  0.24939900  0.75899300  0.62921000  1
  F  F16  1  0.98098300  0.04790200  0.67844300  1
  F  F17  1  0.52510200  0.04597200  0.67951900  1
  F  F18  1  0.75057600  0.27600200  0.48487000  1
  F  F19  1  0.25236600  0.25141400  0.49483900  1
  F  F20  1  0.75173800  0.96982600  0.87746000  1
  F  F21  1  0.24904700  0.98994200  0.87974400  1
  F  F22  1  0.75060100  0.75899300  0.12921000  1
  F  F23  1  0.25021400  0.75195700  0.13524400  1
  F  F24  1  0.97839200  0.59675100  0.52164100  1
  F  F25  1  0.51886300  0.59548800  0.52236800  1
  F  F26  1  0.97802800  0.36082600  0.79751200  1
  F  F27  1  0.52458700  0.35491700  0.79752100  1
  F  F28  1  0.47489800  0.04597200  0.17951900  1
  F  F29  1  0.01901700  0.04790200  0.17844300  1
  F  F30  1  0.75095300  0.98994200  0.37974400  1
  F  F31  1  0.24826200  0.96982600  0.37746000  1
  F  F32  1  0.02160800  0.59675100  0.02164100  1
  F  F33  1  0.48113700  0.59548800  0.02236800  1
  F  F34  1  0.02197200  0.36082600  0.29751200  1
  F  F35  1  0.47541300  0.35491700  0.29752100  1
