# generated using pymatgen
data_Na4PtO4
_symmetry_space_group_name_H-M   'P 1'
_cell_length_a   5.83098168
_cell_length_b   5.83098168
_cell_length_c   9.97041143
_cell_angle_alpha   88.30496193
_cell_angle_beta   88.30496193
_cell_angle_gamma   45.82505478
_symmetry_Int_Tables_number   1
_chemical_formula_structural   Na4PtO4
_chemical_formula_sum   'Na8 Pt2 O8'
_cell_volume   243.00879261
_cell_formula_units_Z   2
loop_
 _symmetry_equiv_pos_site_id
 _symmetry_equiv_pos_as_xyz
  1  'x, y, z'
loop_
 _atom_site_type_symbol
 _atom_site_label
 _atom_site_symmetry_multiplicity
 _atom_site_fract_x
 _atom_site_fract_y
 _atom_site_fract_z
 _atom_site_occupancy
  Na  Na0  1  0.37232700  0.37232700  0.95588100  1
  Na  Na1  1  0.62767300  0.62767300  0.04411900  1
  Na  Na2  1  0.25783600  0.25783600  0.27331800  1
  Na  Na3  1  0.92748900  0.92748900  0.17729600  1
  Na  Na4  1  0.85343300  0.85343300  0.45263400  1
  Na  Na5  1  0.14656700  0.14656700  0.54736600  1
  Na  Na6  1  0.07251100  0.07251100  0.82270400  1
  Na  Na7  1  0.74216400  0.74216400  0.72668200  1
  Pt  Pt8  1  0.54810300  0.54810300  0.34506900  1
  Pt  Pt9  1  0.45189700  0.45189700  0.65493100  1
  O  O10  1  0.45648100  0.45648100  0.16373700  1
  O  O11  1  0.05579500  0.05579500  0.34186200  1
  O  O12  1  0.71830900  0.71830900  0.24472300  1
  O  O13  1  0.61822400  0.61822400  0.53563900  1
  O  O14  1  0.38177600  0.38177600  0.46436100  1
  O  O15  1  0.28169100  0.28169100  0.75527700  1
  O  O16  1  0.94420500  0.94420500  0.65813800  1
  O  O17  1  0.54351900  0.54351900  0.83626300  1
