# generated using pymatgen
data_Ba2Bi6O11
_symmetry_space_group_name_H-M   'P 1'
_cell_length_a   4.01327485
_cell_length_b   4.01327485
_cell_length_c   23.72315267
_cell_angle_alpha   88.03121304
_cell_angle_beta   88.03121304
_cell_angle_gamma   67.93602642
_symmetry_Int_Tables_number   1
_chemical_formula_structural   Ba2Bi6O11
_chemical_formula_sum   'Ba2 Bi6 O11'
_cell_volume   353.80739405
_cell_formula_units_Z   1
loop_
 _symmetry_equiv_pos_site_id
 _symmetry_equiv_pos_as_xyz
  1  'x, y, z'
loop_
 _atom_site_type_symbol
 _atom_site_label
 _atom_site_symmetry_multiplicity
 _atom_site_fract_x
 _atom_site_fract_y
 _atom_site_fract_z
 _atom_site_occupancy
  Ba  Ba0  1  0.79827000  0.79827000  0.56413000  1
  Ba  Ba1  1  0.20173000  0.20173000  0.43587000  1
  Bi  Bi2  1  0.21821100  0.21821100  0.17884200  1
  Bi  Bi3  1  0.73584000  0.73584000  0.06276200  1
  Bi  Bi4  1  0.23576900  0.23576900  0.68593700  1
  Bi  Bi5  1  0.26416000  0.26416000  0.93723800  1
  Bi  Bi6  1  0.78178900  0.78178900  0.82115800  1
  Bi  Bi7  1  0.76423100  0.76423100  0.31406300  1
  O  O8  1  0.61819300  0.61819300  0.15185400  1
  O  O9  1  0.50000000  0.50000000  0.00000000  1
  O  O10  1  0.93921200  0.93921200  0.23648200  1
  O  O11  1  0.14654500  0.14654500  0.08836800  1
  O  O12  1  0.85345500  0.85345500  0.91163200  1
  O  O13  1  0.38180700  0.38180700  0.84814600  1
  O  O14  1  0.06078800  0.06078800  0.76351800  1
  O  O15  1  0.63243700  0.63243700  0.67008700  1
  O  O16  1  0.16224000  0.16224000  0.57698100  1
  O  O17  1  0.83776000  0.83776000  0.42301900  1
  O  O18  1  0.36756300  0.36756300  0.32991300  1
