# generated using pymatgen
data_Tl6PbI10
_symmetry_space_group_name_H-M   'P 1'
_cell_length_a   10.88990133
_cell_length_b   10.88990133
_cell_length_c   13.53067400
_cell_angle_alpha   90.00000000
_cell_angle_beta   90.00000000
_cell_angle_gamma   119.99999591
_symmetry_Int_Tables_number   1
_chemical_formula_structural   Tl6PbI10
_chemical_formula_sum   'Tl12 Pb2 I20'
_cell_volume   1389.62612236
_cell_formula_units_Z   2
loop_
 _symmetry_equiv_pos_site_id
 _symmetry_equiv_pos_as_xyz
  1  'x, y, z'
loop_
 _atom_site_type_symbol
 _atom_site_label
 _atom_site_symmetry_multiplicity
 _atom_site_fract_x
 _atom_site_fract_y
 _atom_site_fract_z
 _atom_site_occupancy
  Tl  Tl0  1  0.03058300  0.64073600  0.25113200  1
  Tl  Tl1  1  0.99968600  0.36796400  0.99981400  1
  Tl  Tl2  1  0.00031400  0.36827800  0.49981400  1
  Tl  Tl3  1  0.61015300  0.96941700  0.25113200  1
  Tl  Tl4  1  0.35926400  0.38984700  0.25113200  1
  Tl  Tl5  1  0.38984700  0.35926400  0.75113200  1
  Tl  Tl6  1  0.63172200  0.63203600  0.49981400  1
  Tl  Tl7  1  0.63203600  0.63172200  0.99981400  1
  Tl  Tl8  1  0.36827800  0.00031400  0.99981400  1
  Tl  Tl9  1  0.36796400  0.99968600  0.49981400  1
  Tl  Tl10  1  0.64073600  0.03058300  0.75113200  1
  Tl  Tl11  1  0.96941700  0.61015300  0.75113200  1
  Pb  Pb12  1  0.00000000  0.00000000  0.37780000  1
  Pb  Pb13  1  0.00000000  0.00000000  0.87780000  1
  I  I14  1  0.99992900  0.74307200  0.99956300  1
  I  I15  1  0.00007100  0.74314300  0.49956300  1
  I  I16  1  0.25597600  0.99971600  0.75277800  1
  I  I17  1  0.00028400  0.25626000  0.75277800  1
  I  I18  1  0.33333300  0.66666700  0.10330400  1
  I  I19  1  0.33333300  0.66666700  0.39627600  1
  I  I20  1  0.33333300  0.66666700  0.85871500  1
  I  I21  1  0.33333300  0.66666700  0.64204600  1
  I  I22  1  0.25692800  0.25685700  0.99956300  1
  I  I23  1  0.25685700  0.25692800  0.49956300  1
  I  I24  1  0.25626000  0.00028400  0.25277800  1
  I  I25  1  0.74374000  0.74402400  0.75277800  1
  I  I26  1  0.74402400  0.74374000  0.25277800  1
  I  I27  1  0.66666700  0.33333300  0.35871500  1
  I  I28  1  0.66666700  0.33333300  0.60330400  1
  I  I29  1  0.66666700  0.33333300  0.14204600  1
  I  I30  1  0.66666700  0.33333300  0.89627600  1
  I  I31  1  0.74307200  0.99992900  0.49956300  1
  I  I32  1  0.74314300  0.00007100  0.99956300  1
  I  I33  1  0.99971600  0.25597600  0.25277800  1
