# generated using pymatgen
data_ErCuSe2
_symmetry_space_group_name_H-M   'P 1'
_cell_length_a   4.11808952
_cell_length_b   4.11808952
_cell_length_c   6.22269000
_cell_angle_alpha   90.00000000
_cell_angle_beta   90.00000000
_cell_angle_gamma   119.99999228
_symmetry_Int_Tables_number   1
_chemical_formula_structural   ErCuSe2
_chemical_formula_sum   'Er1 Cu1 Se2'
_cell_volume   91.39036202
_cell_formula_units_Z   1
loop_
 _symmetry_equiv_pos_site_id
 _symmetry_equiv_pos_as_xyz
  1  'x, y, z'
loop_
 _atom_site_type_symbol
 _atom_site_label
 _atom_site_symmetry_multiplicity
 _atom_site_fract_x
 _atom_site_fract_y
 _atom_site_fract_z
 _atom_site_occupancy
  Er  Er0  1  0.00000000  0.00000000  0.49319800  1
  Cu  Cu1  1  0.66666700  0.33333300  0.85716400  1
  Se  Se2  1  0.33333300  0.66666700  0.76722000  1
  Se  Se3  1  0.66666700  0.33333300  0.25441800  1
