# generated using pymatgen
data_Na5Mn3F14
_symmetry_space_group_name_H-M   'P 1'
_cell_length_a   10.33182400
_cell_length_b   10.59185700
_cell_length_c   10.85312600
_cell_angle_alpha   90.00000000
_cell_angle_beta   90.00000000
_cell_angle_gamma   90.00000000
_symmetry_Int_Tables_number   1
_chemical_formula_structural   Na5Mn3F14
_chemical_formula_sum   'Na20 Mn12 F56'
_cell_volume   1187.69233377
_cell_formula_units_Z   4
loop_
 _symmetry_equiv_pos_site_id
 _symmetry_equiv_pos_as_xyz
  1  'x, y, z'
loop_
 _atom_site_type_symbol
 _atom_site_label
 _atom_site_symmetry_multiplicity
 _atom_site_fract_x
 _atom_site_fract_y
 _atom_site_fract_z
 _atom_site_occupancy
  Na  Na0  1  0.65522000  0.12012700  0.22943800  1
  Na  Na1  1  0.38082800  0.21139100  0.04833700  1
  Na  Na2  1  0.58154500  0.03393400  0.53347000  1
  Na  Na3  1  0.89316800  0.15952900  0.62837100  1
  Na  Na4  1  0.97302400  0.21180800  0.28882600  1
  Na  Na5  1  0.47302400  0.28819200  0.71117400  1
  Na  Na6  1  0.39316800  0.34047100  0.37162900  1
  Na  Na7  1  0.08154500  0.46606600  0.46653000  1
  Na  Na8  1  0.88082800  0.28860900  0.95166300  1
  Na  Na9  1  0.15522000  0.37987300  0.77056200  1
  Na  Na10  1  0.34478000  0.62012700  0.27056200  1
  Na  Na11  1  0.61917200  0.71139100  0.45166300  1
  Na  Na12  1  0.41845500  0.53393400  0.96653000  1
  Na  Na13  1  0.02697600  0.71180800  0.21117400  1
  Na  Na14  1  0.10683200  0.65952900  0.87162900  1
  Na  Na15  1  0.60683200  0.84047100  0.12837100  1
  Na  Na16  1  0.52697600  0.78819200  0.78882600  1
  Na  Na17  1  0.91845500  0.96606600  0.03347000  1
  Na  Na18  1  0.11917200  0.78860900  0.54833700  1
  Na  Na19  1  0.84478000  0.87987300  0.72943800  1
  Mn  Mn20  1  0.31623300  0.95391800  0.27291300  1
  Mn  Mn21  1  0.22971900  0.13671400  0.50432800  1
  Mn  Mn22  1  0.85858500  0.93282300  0.40499600  1
  Mn  Mn23  1  0.35858500  0.56717700  0.59500400  1
  Mn  Mn24  1  0.72971900  0.36328600  0.49567200  1
  Mn  Mn25  1  0.81623300  0.54608200  0.72708700  1
  Mn  Mn26  1  0.68376700  0.45391800  0.22708700  1
  Mn  Mn27  1  0.77028100  0.63671400  0.99567200  1
  Mn  Mn28  1  0.14141500  0.43282300  0.09500400  1
  Mn  Mn29  1  0.64141500  0.06717700  0.90499600  1
  Mn  Mn30  1  0.27028100  0.86328600  0.00432800  1
  Mn  Mn31  1  0.18376700  0.04608200  0.77291300  1
  F  F32  1  0.93697300  0.99093100  0.25258700  1
  F  F33  1  0.11172900  0.88414900  0.77372500  1
  F  F34  1  0.81227800  0.09275600  0.80251800  1
  F  F35  1  0.76147100  0.12190200  0.03746100  1
  F  F36  1  0.06926800  0.09495400  0.89491400  1
  F  F37  1  0.28386800  0.19257400  0.78635800  1
  F  F38  1  0.23741000  0.00301500  0.11082400  1
  F  F39  1  0.40878000  0.18104400  0.52877100  1
  F  F40  1  0.33733700  0.97554900  0.88192700  1
  F  F41  1  0.52582800  0.03662500  0.06644400  1
  F  F42  1  0.18220700  0.26513900  0.40010300  1
  F  F43  1  0.10411900  0.19077000  0.63209600  1
  F  F44  1  0.29580700  0.40140300  0.57750200  1
  F  F45  1  0.55763800  0.22299300  0.89291300  1
  F  F46  1  0.05763800  0.27700700  0.10708700  1
  F  F47  1  0.79580700  0.09859700  0.42249800  1
  F  F48  1  0.68220700  0.23486100  0.59989700  1
  F  F49  1  0.60411900  0.30923000  0.36790400  1
  F  F50  1  0.02582800  0.46337500  0.93355600  1
  F  F51  1  0.83733700  0.52445100  0.11807300  1
  F  F52  1  0.90878000  0.31895600  0.47122900  1
  F  F53  1  0.73741000  0.49698500  0.88917600  1
  F  F54  1  0.78386800  0.30742600  0.21364200  1
  F  F55  1  0.56926800  0.40504600  0.10508600  1
  F  F56  1  0.26147100  0.37809800  0.96253900  1
  F  F57  1  0.31227800  0.40724400  0.19748200  1
  F  F58  1  0.43697300  0.50906900  0.74741300  1
  F  F59  1  0.61172900  0.61585100  0.22627500  1
  F  F60  1  0.06302700  0.49093100  0.24741300  1
  F  F61  1  0.88827100  0.38414900  0.72627500  1
  F  F62  1  0.23852900  0.62190200  0.46253900  1
  F  F63  1  0.18772200  0.59275600  0.69748200  1
  F  F64  1  0.93073200  0.59495400  0.60508600  1
  F  F65  1  0.76259000  0.50301500  0.38917600  1
  F  F66  1  0.71613200  0.69257400  0.71364200  1
  F  F67  1  0.59122000  0.68104400  0.97122900  1
  F  F68  1  0.47417200  0.53662500  0.43355600  1
  F  F69  1  0.66266300  0.47554900  0.61807300  1
  F  F70  1  0.81779300  0.76513900  0.09989700  1
  F  F71  1  0.89588100  0.69077000  0.86790400  1
  F  F72  1  0.70419300  0.90140300  0.92249800  1
  F  F73  1  0.44236200  0.72299300  0.60708700  1
  F  F74  1  0.94236200  0.77700700  0.39291300  1
  F  F75  1  0.20419300  0.59859700  0.07750200  1
  F  F76  1  0.31779300  0.73486100  0.90010300  1
  F  F77  1  0.39588100  0.80923000  0.13209600  1
  F  F78  1  0.16266300  0.02445100  0.38192700  1
  F  F79  1  0.97417200  0.96337500  0.56644400  1
  F  F80  1  0.09122000  0.81895600  0.02877100  1
  F  F81  1  0.21613200  0.80742600  0.28635800  1
  F  F82  1  0.26259000  0.99698500  0.61082400  1
  F  F83  1  0.43073200  0.90504600  0.39491400  1
  F  F84  1  0.68772200  0.90724400  0.30251800  1
  F  F85  1  0.73852900  0.87809800  0.53746100  1
  F  F86  1  0.38827100  0.11585100  0.27372500  1
  F  F87  1  0.56302700  0.00906900  0.75258700  1
