# generated using pymatgen
data_Pt4(O3F8)3
_symmetry_space_group_name_H-M   'P 1'
_cell_length_a   9.92629620
_cell_length_b   9.32298220
_cell_length_c   9.46130821
_cell_angle_alpha   108.53243018
_cell_angle_beta   107.29352417
_cell_angle_gamma   114.06680992
_symmetry_Int_Tables_number   1
_chemical_formula_structural   Pt4(O3F8)3
_chemical_formula_sum   'Pt4 O9 F24'
_cell_volume   659.44553153
_cell_formula_units_Z   1
loop_
 _symmetry_equiv_pos_site_id
 _symmetry_equiv_pos_as_xyz
  1  'x, y, z'
loop_
 _atom_site_type_symbol
 _atom_site_label
 _atom_site_symmetry_multiplicity
 _atom_site_fract_x
 _atom_site_fract_y
 _atom_site_fract_z
 _atom_site_occupancy
  Pt  Pt0  1  0.51052800  0.99875400  0.49193200  1
  Pt  Pt1  1  0.00709600  0.01479400  0.01591300  1
  Pt  Pt2  1  0.48999900  0.50046900  0.98709100  1
  Pt  Pt3  1  0.02505300  0.47153900  0.48650300  1
  O  O4  1  0.49659000  0.96141400  0.92893400  1
  O  O5  1  0.38954400  0.44222000  0.42379500  1
  O  O6  1  0.50936800  0.50727700  0.55846500  1
  O  O7  1  0.50653000  0.02802000  0.06628200  1
  O  O8  1  0.78971200  0.43145600  0.32976400  1
  O  O9  1  0.11954700  0.48786000  0.82773200  1
  O  O10  1  0.80149500  0.51333700  0.24897000  1
  O  O11  1  0.89723300  0.66439500  0.64449200  1
  O  O12  1  0.14662800  0.90689800  0.42533500  1
  F  F13  1  0.16005200  0.72623900  0.66897500  1
  F  F14  1  0.08424100  0.55788900  0.34209700  1
  F  F15  1  0.21711300  0.45821300  0.57418200  1
  F  F16  1  0.44246700  0.67836200  0.98476500  1
  F  F17  1  0.25324400  0.31439200  0.83122000  1
  F  F18  1  0.33596400  0.83566700  0.25844700  1
  F  F19  1  0.06095700  0.25684700  0.09622000  1
  F  F20  1  0.07675500  0.05677400  0.24534900  1
  F  F21  1  0.46828200  0.80203400  0.53482600  1
  F  F22  1  0.53450400  0.47092600  0.80022400  1
  F  F23  1  0.31629700  0.01907400  0.55641500  1
  F  F24  1  0.78039300  0.92684000  0.96990800  1
  F  F25  1  0.23109600  0.09314400  0.05588900  1
  F  F26  1  0.67750900  0.98539000  0.43919700  1
  F  F27  1  0.45547800  0.52165900  0.17864500  1
  F  F28  1  0.55536600  0.19998800  0.45381900  1
  F  F29  1  0.94609000  0.98369200  0.79220100  1
  F  F30  1  0.95171700  0.76959500  0.93233300  1
  F  F31  1  0.68224300  0.16580400  0.72702900  1
  F  F32  1  0.72505900  0.69277100  0.14057200  1
  F  F33  1  0.53532100  0.31946600  0.99193500  1
  F  F34  1  0.76862600  0.66281300  0.53806100  1
  F  F35  1  0.97538500  0.38461300  0.66253000  1
  F  F36  1  0.88852200  0.21757500  0.31215400  1
