# generated using pymatgen
data_AlPO4
_symmetry_space_group_name_H-M   'P 1'
_cell_length_a   8.99054802
_cell_length_b   8.99054802
_cell_length_c   9.73446500
_cell_angle_alpha   90.00000000
_cell_angle_beta   90.00000000
_cell_angle_gamma   121.86604830
_symmetry_Int_Tables_number   1
_chemical_formula_structural   AlPO4
_chemical_formula_sum   'Al6 P6 O24'
_cell_volume   668.24805770
_cell_formula_units_Z   6
loop_
 _symmetry_equiv_pos_site_id
 _symmetry_equiv_pos_as_xyz
  1  'x, y, z'
loop_
 _atom_site_type_symbol
 _atom_site_label
 _atom_site_symmetry_multiplicity
 _atom_site_fract_x
 _atom_site_fract_y
 _atom_site_fract_z
 _atom_site_occupancy
  Al  Al0  1  0.40847300  0.21708400  0.65173700  1
  Al  Al1  1  0.56425200  0.06425200  0.15645000  1
  Al  Al2  1  0.21708400  0.40847300  0.34826300  1
  Al  Al3  1  0.90847300  0.71708400  0.34826300  1
  Al  Al4  1  0.06425200  0.56425200  0.84355000  1
  Al  Al5  1  0.71708400  0.90847300  0.65173700  1
  P  P6  1  0.28307200  0.09241800  0.34440300  1
  P  P7  1  0.93720400  0.43720400  0.15778200  1
  P  P8  1  0.09241800  0.28307200  0.65559700  1
  P  P9  1  0.78307200  0.59241800  0.65559700  1
  P  P10  1  0.43720400  0.93720400  0.84221800  1
  P  P11  1  0.59241800  0.78307200  0.34440300  1
  O  O12  1  0.50249700  0.00249700  0.98723200  1
  O  O13  1  0.40603300  0.09091200  0.23647200  1
  O  O14  1  0.41202000  0.07251900  0.76755500  1
  O  O15  1  0.36869300  0.12261800  0.48738000  1
  O  O16  1  0.91552100  0.10854100  0.65642200  1
  O  O17  1  0.76263600  0.26263600  0.15264600  1
  O  O18  1  0.60854100  0.41552100  0.65642200  1
  O  O19  1  0.23838400  0.25009800  0.69333000  1
  O  O20  1  0.25009800  0.23838400  0.30667000  1
  O  O21  1  0.12261800  0.36869300  0.51262000  1
  O  O22  1  0.09091200  0.40603300  0.76352800  1
  O  O23  1  0.07251900  0.41202000  0.23244500  1
  O  O24  1  0.00249700  0.50249700  0.01276800  1
  O  O25  1  0.90603300  0.59091200  0.76352800  1
  O  O26  1  0.91202000  0.57251900  0.23244500  1
  O  O27  1  0.86869300  0.62261800  0.51262000  1
  O  O28  1  0.41552100  0.60854100  0.34357800  1
  O  O29  1  0.26263600  0.76263600  0.84735400  1
  O  O30  1  0.10854100  0.91552100  0.34357800  1
  O  O31  1  0.75009800  0.73838400  0.69333000  1
  O  O32  1  0.73838400  0.75009800  0.30667000  1
  O  O33  1  0.62261800  0.86869300  0.48738000  1
  O  O34  1  0.59091200  0.90603300  0.23647200  1
  O  O35  1  0.57251900  0.91202000  0.76755500  1
