# generated using pymatgen
data_Sm4Ag2Se7
_symmetry_space_group_name_H-M   'P 1'
_cell_length_a   12.42502800
_cell_length_b   7.40960600
_cell_length_c   7.78967375
_cell_angle_alpha   71.15975985
_cell_angle_beta   90.00000000
_cell_angle_gamma   90.00000000
_symmetry_Int_Tables_number   1
_chemical_formula_structural   Sm4Ag2Se7
_chemical_formula_sum   'Sm8 Ag4 Se14'
_cell_volume   678.72978012
_cell_formula_units_Z   2
loop_
 _symmetry_equiv_pos_site_id
 _symmetry_equiv_pos_as_xyz
  1  'x, y, z'
loop_
 _atom_site_type_symbol
 _atom_site_label
 _atom_site_symmetry_multiplicity
 _atom_site_fract_x
 _atom_site_fract_y
 _atom_site_fract_z
 _atom_site_occupancy
  Sm  Sm0  1  0.21558200  0.17373900  0.20799700  1
  Sm  Sm1  1  0.94479800  0.54189700  0.05148600  1
  Sm  Sm2  1  0.05520200  0.54189700  0.55148600  1
  Sm  Sm3  1  0.78441800  0.17373900  0.70799700  1
  Sm  Sm4  1  0.85707600  0.97842800  0.25804500  1
  Sm  Sm5  1  0.14292400  0.97842800  0.75804500  1
  Sm  Sm6  1  0.36797600  0.47916200  0.75406300  1
  Sm  Sm7  1  0.63202400  0.47916200  0.25406300  1
  Ag  Ag8  1  0.68071700  0.70334500  0.71047700  1
  Ag  Ag9  1  0.44881800  0.11601000  0.53922400  1
  Ag  Ag10  1  0.55118200  0.11601000  0.03922400  1
  Ag  Ag11  1  0.31928300  0.70334500  0.21047700  1
  Se  Se12  1  0.98816100  0.22655400  0.87423700  1
  Se  Se13  1  0.01183900  0.22655400  0.37423700  1
  Se  Se14  1  0.16770100  0.55485300  0.90890400  1
  Se  Se15  1  0.83229900  0.55485300  0.40890400  1
  Se  Se16  1  0.69978000  0.85404300  0.00703800  1
  Se  Se17  1  0.06902000  0.81938900  0.18184900  1
  Se  Se18  1  0.65981700  0.04895900  0.44598400  1
  Se  Se19  1  0.34018300  0.04895900  0.94598400  1
  Se  Se20  1  0.93098000  0.81938900  0.68184900  1
  Se  Se21  1  0.24810600  0.33987000  0.51035100  1
  Se  Se22  1  0.57599800  0.41375200  0.63434500  1
  Se  Se23  1  0.75189400  0.33987000  0.01035100  1
  Se  Se24  1  0.42400200  0.41375200  0.13434500  1
  Se  Se25  1  0.30022000  0.85404300  0.50703800  1
