# generated using pymatgen
data_Yb(YS2)2
_symmetry_space_group_name_H-M   'P 1'
_cell_length_a   7.23128933
_cell_length_b   7.23128933
_cell_length_c   7.23128933
_cell_angle_alpha   109.36028183
_cell_angle_beta   109.36028183
_cell_angle_gamma   109.69332681
_symmetry_Int_Tables_number   1
_chemical_formula_structural   Yb(YS2)2
_chemical_formula_sum   'Yb2 Y4 S8'
_cell_volume   291.08540318
_cell_formula_units_Z   2
loop_
 _symmetry_equiv_pos_site_id
 _symmetry_equiv_pos_as_xyz
  1  'x, y, z'
loop_
 _atom_site_type_symbol
 _atom_site_label
 _atom_site_symmetry_multiplicity
 _atom_site_fract_x
 _atom_site_fract_y
 _atom_site_fract_z
 _atom_site_occupancy
  Yb  Yb0  1  0.75000000  0.25000000  0.50000000  1
  Yb  Yb1  1  0.50000000  0.50000000  0.00000000  1
  Y  Y2  1  0.99757900  0.37500000  0.12257900  1
  Y  Y3  1  0.62500000  0.74757900  0.62257900  1
  Y  Y4  1  0.25242100  0.87500000  0.87742100  1
  Y  Y5  1  0.12500000  0.00242100  0.37742100  1
  S  S6  1  0.87993200  0.62946600  0.89471800  1
  S  S7  1  0.37053400  0.26525100  0.25046600  1
  S  S8  1  0.23521500  0.48474900  0.60528200  1
  S  S9  1  0.37006800  0.76478500  0.24953400  1
  S  S10  1  0.87946600  0.62993200  0.39471800  1
  S  S11  1  0.51525100  0.12053400  0.75046600  1
  S  S12  1  0.73474900  0.98521500  0.10528200  1
  S  S13  1  0.01478500  0.12006800  0.74953400  1
