# generated using pymatgen
data_Sr2V3O9
_symmetry_space_group_name_H-M   'P 1'
_cell_length_a   7.10910000
_cell_length_b   7.46608322
_cell_length_c   9.02945391
_cell_angle_alpha   103.40797504
_cell_angle_beta   101.80939530
_cell_angle_gamma   116.58041959
_symmetry_Int_Tables_number   1
_chemical_formula_structural   Sr2V3O9
_chemical_formula_sum   'Sr4 V6 O18'
_cell_volume   389.84059792
_cell_formula_units_Z   2
loop_
 _symmetry_equiv_pos_site_id
 _symmetry_equiv_pos_as_xyz
  1  'x, y, z'
loop_
 _atom_site_type_symbol
 _atom_site_label
 _atom_site_symmetry_multiplicity
 _atom_site_fract_x
 _atom_site_fract_y
 _atom_site_fract_z
 _atom_site_occupancy
  Sr  Sr0  1  0.12099400  0.87500600  0.75158500  1
  Sr  Sr1  1  0.30037200  0.55484500  0.09978800  1
  Sr  Sr2  1  0.69842800  0.45062700  0.90097100  1
  Sr  Sr3  1  0.87601700  0.12165400  0.24829500  1
  V  V4  1  0.09020100  0.34324600  0.68292200  1
  V  V5  1  0.66700700  0.91806000  0.84122900  1
  V  V6  1  0.49654400  0.52600200  0.49123000  1
  V  V7  1  0.33169000  0.08251900  0.15844900  1
  V  V8  1  0.50443500  0.03527000  0.50914600  1
  V  V9  1  0.91063000  0.65793800  0.31715500  1
  O  O10  1  0.04681700  0.52110700  0.81081500  1
  O  O11  1  0.17045900  0.88954200  0.44690300  1
  O  O12  1  0.07633300  0.86125200  0.03957400  1
  O  O13  1  0.21841500  0.44048500  0.54849200  1
  O  O14  1  0.26103600  0.28873800  0.80596400  1
  O  O15  1  0.53878000  0.82099200  0.96795400  1
  O  O16  1  0.48884700  0.00092900  0.27919300  1
  O  O17  1  0.47512700  0.71683700  0.42701500  1
  O  O18  1  0.29355800  0.28463800  0.27613100  1
  O  O19  1  0.70282700  0.71410700  0.72285600  1
  O  O20  1  0.54109000  0.28707300  0.57376600  1
  O  O21  1  0.50630600  0.99656200  0.72088200  1
  O  O22  1  0.46217200  0.17834700  0.03272400  1
  O  O23  1  0.73845900  0.70830400  0.19100400  1
  O  O24  1  0.77861300  0.56143400  0.44987100  1
  O  O25  1  0.92225300  0.13894300  0.95919200  1
  O  O26  1  0.82751600  0.11488700  0.55464100  1
  O  O27  1  0.95633400  0.47971900  0.19225400  1
