# generated using pymatgen
data_Ca2SiO4
_symmetry_space_group_name_H-M   'P 1'
_cell_length_a   8.73626462
_cell_length_b   8.73626462
_cell_length_c   10.05195991
_cell_angle_alpha   57.26673515
_cell_angle_beta   57.26673515
_cell_angle_gamma   36.56552954
_symmetry_Int_Tables_number   1
_chemical_formula_structural   Ca2SiO4
_chemical_formula_sum   'Ca8 Si4 O16'
_cell_volume   375.69583691
_cell_formula_units_Z   4
loop_
 _symmetry_equiv_pos_site_id
 _symmetry_equiv_pos_as_xyz
  1  'x, y, z'
loop_
 _atom_site_type_symbol
 _atom_site_label
 _atom_site_symmetry_multiplicity
 _atom_site_fract_x
 _atom_site_fract_y
 _atom_site_fract_z
 _atom_site_occupancy
  Ca  Ca0  1  0.30636100  0.87358700  0.34282500  1
  Ca  Ca1  1  0.87358700  0.30636100  0.84282500  1
  Ca  Ca2  1  0.50000000  0.00000000  0.50000000  1
  Ca  Ca3  1  0.25785800  0.74214200  0.75000000  1
  Ca  Ca4  1  0.12641300  0.69363900  0.15717500  1
  Ca  Ca5  1  0.00000000  0.50000000  0.00000000  1
  Ca  Ca6  1  0.74214200  0.25785800  0.25000000  1
  Ca  Ca7  1  0.69363900  0.12641300  0.65717500  1
  Si  Si8  1  0.60247700  0.10076700  0.07426800  1
  Si  Si9  1  0.89923300  0.39752300  0.42573200  1
  Si  Si10  1  0.10076700  0.60247700  0.57426800  1
  Si  Si11  1  0.39752300  0.89923300  0.92573200  1
  O  O12  1  0.88109200  0.96895000  0.93750100  1
  O  O13  1  0.03105000  0.11890800  0.56249900  1
  O  O14  1  0.07979000  0.44184200  0.35344300  1
  O  O15  1  0.55815800  0.92021000  0.14655700  1
  O  O16  1  0.90756700  0.34340500  0.28401400  1
  O  O17  1  0.65659500  0.09243300  0.21598600  1
  O  O18  1  0.36831400  0.41230900  0.98610800  1
  O  O19  1  0.58769100  0.63168600  0.51389200  1
  O  O20  1  0.41230900  0.36831400  0.48610800  1
  O  O21  1  0.63168600  0.58769100  0.01389200  1
  O  O22  1  0.34340500  0.90756700  0.78401400  1
  O  O23  1  0.09243300  0.65659500  0.71598600  1
  O  O24  1  0.44184200  0.07979000  0.85344300  1
  O  O25  1  0.92021000  0.55815800  0.64655700  1
  O  O26  1  0.96895000  0.88109200  0.43750100  1
  O  O27  1  0.11890800  0.03105000  0.06249900  1
