# generated using pymatgen
data_Ca(Bi2O3)2
_symmetry_space_group_name_H-M   'P 1'
_cell_length_a   10.32604225
_cell_length_b   10.32604225
_cell_length_c   10.10089293
_cell_angle_alpha   85.65959514
_cell_angle_beta   85.65959514
_cell_angle_gamma   142.09867426
_symmetry_Int_Tables_number   1
_chemical_formula_structural   Ca(Bi2O3)2
_chemical_formula_sum   'Ca3 Bi12 O18'
_cell_volume   643.40590216
_cell_formula_units_Z   3
loop_
 _symmetry_equiv_pos_site_id
 _symmetry_equiv_pos_as_xyz
  1  'x, y, z'
loop_
 _atom_site_type_symbol
 _atom_site_label
 _atom_site_symmetry_multiplicity
 _atom_site_fract_x
 _atom_site_fract_y
 _atom_site_fract_z
 _atom_site_occupancy
  Ca  Ca0  1  0.01897600  0.21169500  0.00504400  1
  Ca  Ca1  1  0.60022200  0.60022200  0.02712700  1
  Ca  Ca2  1  0.21169500  0.01897600  0.00504400  1
  Bi  Bi3  1  0.35605000  0.35605000  0.68061700  1
  Bi  Bi4  1  0.22500000  0.44499500  0.33447100  1
  Bi  Bi5  1  0.96935900  0.76694100  0.67062100  1
  Bi  Bi6  1  0.82839600  0.82839600  0.31433200  1
  Bi  Bi7  1  0.59461400  0.19145300  0.67763600  1
  Bi  Bi8  1  0.79029300  0.41424600  0.01424800  1
  Bi  Bi9  1  0.44499500  0.22500000  0.33447100  1
  Bi  Bi10  1  0.19145300  0.59461400  0.67763600  1
  Bi  Bi11  1  0.41424600  0.79029300  0.01424800  1
  Bi  Bi12  1  0.97664500  0.60521400  0.33538900  1
  Bi  Bi13  1  0.76694100  0.96935900  0.67062100  1
  Bi  Bi14  1  0.60521400  0.97664500  0.33538900  1
  O  O15  1  0.50917800  0.50917800  0.29825500  1
  O  O16  1  0.31850400  0.31850400  0.89057300  1
  O  O17  1  0.30050000  0.50551000  0.11237700  1
  O  O18  1  0.00269900  0.00269900  0.69354500  1
  O  O19  1  0.87293300  0.66527800  0.88843500  1
  O  O20  1  0.92241700  0.92241700  0.09778700  1
  O  O21  1  0.63516100  0.44212200  0.64458400  1
  O  O22  1  0.52156400  0.13839000  0.88971000  1
  O  O23  1  0.50551000  0.30050000  0.11237700  1
  O  O24  1  0.37224700  0.94903600  0.31176500  1
  O  O25  1  0.25657300  0.87071800  0.68642900  1
  O  O26  1  0.13839000  0.52156400  0.88971000  1
  O  O27  1  0.03537700  0.69269300  0.12067300  1
  O  O28  1  0.94903600  0.37224700  0.31176500  1
  O  O29  1  0.87071800  0.25657300  0.68642900  1
  O  O30  1  0.66527800  0.87293300  0.88843500  1
  O  O31  1  0.69269300  0.03537700  0.12067300  1
  O  O32  1  0.44212200  0.63516100  0.64458400  1
