# generated using pymatgen
data_Ba3(Ge2C)2
_symmetry_space_group_name_H-M   'P 1'
_cell_length_a   9.85171647
_cell_length_b   9.85171647
_cell_length_c   9.85171647
_cell_angle_alpha   126.78534648
_cell_angle_beta   125.39211169
_cell_angle_gamma   79.74742719
_symmetry_Int_Tables_number   1
_chemical_formula_structural   Ba3(Ge2C)2
_chemical_formula_sum   'Ba6 Ge8 C4'
_cell_volume   603.03883209
_cell_formula_units_Z   2
loop_
 _symmetry_equiv_pos_site_id
 _symmetry_equiv_pos_as_xyz
  1  'x, y, z'
loop_
 _atom_site_type_symbol
 _atom_site_label
 _atom_site_symmetry_multiplicity
 _atom_site_fract_x
 _atom_site_fract_y
 _atom_site_fract_z
 _atom_site_occupancy
  Ba  Ba0  1  0.68763800  0.23018100  0.91781900  1
  Ba  Ba1  1  0.75000000  0.75000000  0.00000000  1
  Ba  Ba2  1  0.18763800  0.26981900  0.45745700  1
  Ba  Ba3  1  0.81236200  0.73018100  0.54254300  1
  Ba  Ba4  1  0.25000000  0.25000000  0.00000000  1
  Ba  Ba5  1  0.31236200  0.76981900  0.08218100  1
  Ge  Ge6  1  0.79897300  0.30008900  0.71096700  1
  Ge  Ge7  1  0.29897300  0.58800500  0.49888300  1
  Ge  Ge8  1  0.08912200  0.80008900  0.50111700  1
  Ge  Ge9  1  0.41087800  0.91199500  0.71096700  1
  Ge  Ge10  1  0.58912200  0.08800500  0.28903300  1
  Ge  Ge11  1  0.91087800  0.19991100  0.49888300  1
  Ge  Ge12  1  0.70102700  0.41199500  0.50111700  1
  Ge  Ge13  1  0.20102700  0.69991100  0.28903300  1
  C  C14  1  0.94036500  0.03773400  0.97810000  1
  C  C15  1  0.44036500  0.46226600  0.90263100  1
  C  C16  1  0.55963500  0.53773400  0.09736900  1
  C  C17  1  0.05963500  0.96226600  0.02190000  1
