# generated using pymatgen
data_Sr4Nb2O9
_symmetry_space_group_name_H-M   'P 1'
_cell_length_a   10.45569073
_cell_length_b   10.45569073
_cell_length_c   10.44811469
_cell_angle_alpha   79.43548546
_cell_angle_beta   79.43548546
_cell_angle_gamma   118.05549367
_symmetry_Int_Tables_number   1
_chemical_formula_structural   Sr4Nb2O9
_chemical_formula_sum   'Sr16 Nb8 O36'
_cell_volume   941.84642690
_cell_formula_units_Z   4
loop_
 _symmetry_equiv_pos_site_id
 _symmetry_equiv_pos_as_xyz
  1  'x, y, z'
loop_
 _atom_site_type_symbol
 _atom_site_label
 _atom_site_symmetry_multiplicity
 _atom_site_fract_x
 _atom_site_fract_y
 _atom_site_fract_z
 _atom_site_occupancy
  Sr  Sr0  1  0.65985300  0.12862500  0.13663000  1
  Sr  Sr1  1  0.24772200  0.75227800  0.25000000  1
  Sr  Sr2  1  0.24140200  0.41716200  0.13557200  1
  Sr  Sr3  1  0.12862500  0.65985300  0.63663000  1
  Sr  Sr4  1  0.87137500  0.34014700  0.36337000  1
  Sr  Sr5  1  0.96106000  0.79273900  0.12128800  1
  Sr  Sr6  1  0.75227800  0.24772200  0.75000000  1
  Sr  Sr7  1  0.58283800  0.75859800  0.36442800  1
  Sr  Sr8  1  0.79273900  0.96106000  0.62128700  1
  Sr  Sr9  1  0.57636500  0.42363500  0.25000000  1
  Sr  Sr10  1  0.34014700  0.87137500  0.86337000  1
  Sr  Sr11  1  0.42363500  0.57636500  0.75000000  1
  Sr  Sr12  1  0.41716200  0.24140200  0.63557200  1
  Sr  Sr13  1  0.20726100  0.03894000  0.37871300  1
  Sr  Sr14  1  0.03894000  0.20726100  0.87871300  1
  Sr  Sr15  1  0.75859800  0.58283800  0.86442800  1
  Nb  Nb16  1  0.00000000  0.50000000  0.00000000  1
  Nb  Nb17  1  0.50000000  0.00000000  0.50000000  1
  Nb  Nb18  1  0.16484200  0.33503800  0.49590100  1
  Nb  Nb19  1  0.92361800  0.07638200  0.25000000  1
  Nb  Nb20  1  0.83515800  0.66496200  0.50409900  1
  Nb  Nb21  1  0.66496200  0.83515800  0.00409900  1
  Nb  Nb22  1  0.33503800  0.16484200  0.99590100  1
  Nb  Nb23  1  0.07638200  0.92361800  0.75000000  1
  O  O24  1  0.49921900  0.81692600  0.13218600  1
  O  O25  1  0.39611700  0.89913300  0.37593300  1
  O  O26  1  0.10754800  0.12009400  0.12214600  1
  O  O27  1  0.95512700  0.28924800  0.12735900  1
  O  O28  1  0.18307400  0.50078100  0.36781400  1
  O  O29  1  0.03085000  0.20337800  0.35745600  1
  O  O30  1  0.79662200  0.96915000  0.14254400  1
  O  O31  1  0.95371600  0.24447300  0.60073600  1
  O  O32  1  0.68775300  0.68301700  0.11940300  1
  O  O33  1  0.80013800  0.45206300  0.11184200  1
  O  O34  1  0.71075200  0.04487300  0.37264100  1
  O  O35  1  0.87990600  0.89245200  0.37785400  1
  O  O36  1  0.72309800  0.57147800  0.38926100  1
  O  O37  1  0.89913300  0.39611700  0.87593300  1
  O  O38  1  0.42852200  0.27690200  0.11073900  1
  O  O39  1  0.68301700  0.68775300  0.61940300  1
  O  O40  1  0.45206300  0.80013800  0.61184200  1
  O  O41  1  0.24447300  0.95371600  0.10073600  1
  O  O42  1  0.54793700  0.19986200  0.38815800  1
  O  O43  1  0.75552700  0.04628400  0.89926400  1
  O  O44  1  0.31698300  0.31224700  0.38059700  1
  O  O45  1  0.57147800  0.72309800  0.88926100  1
  O  O46  1  0.27690200  0.42852200  0.61073900  1
  O  O47  1  0.10086700  0.60388300  0.12406700  1
  O  O48  1  0.12009400  0.10754800  0.62214600  1
  O  O49  1  0.28924800  0.95512700  0.62735900  1
  O  O50  1  0.04628400  0.75552700  0.39926400  1
  O  O51  1  0.19986200  0.54793700  0.88815800  1
  O  O52  1  0.31224700  0.31698300  0.88059700  1
  O  O53  1  0.20337800  0.03085000  0.85745600  1
  O  O54  1  0.96915000  0.79662200  0.64254400  1
  O  O55  1  0.81692600  0.49921900  0.63218600  1
  O  O56  1  0.89245200  0.87990600  0.87785400  1
  O  O57  1  0.04487300  0.71075200  0.87264100  1
  O  O58  1  0.60388300  0.10086700  0.62406700  1
  O  O59  1  0.50078100  0.18307400  0.86781400  1
