# generated using pymatgen
data_Zr5Sc2O13
_symmetry_space_group_name_H-M   'P 1'
_cell_length_a   8.09928310
_cell_length_b   8.09928310
_cell_length_c   8.09928343
_cell_angle_alpha   73.39388961
_cell_angle_beta   73.39388961
_cell_angle_gamma   73.39389004
_symmetry_Int_Tables_number   1
_chemical_formula_structural   Zr5Sc2O13
_chemical_formula_sum   'Zr10 Sc4 O26'
_cell_volume   475.70064655
_cell_formula_units_Z   2
loop_
 _symmetry_equiv_pos_site_id
 _symmetry_equiv_pos_as_xyz
  1  'x, y, z'
loop_
 _atom_site_type_symbol
 _atom_site_label
 _atom_site_symmetry_multiplicity
 _atom_site_fract_x
 _atom_site_fract_y
 _atom_site_fract_z
 _atom_site_occupancy
  Zr  Zr0  1  0.00440700  0.00440700  0.00440700  1
  Zr  Zr1  1  0.28600400  0.13494900  0.54754600  1
  Zr  Zr2  1  0.54754600  0.28600400  0.13494900  1
  Zr  Zr3  1  0.60235100  0.09797200  0.78919600  1
  Zr  Zr4  1  0.13494900  0.54754600  0.28600400  1
  Zr  Zr5  1  0.78919600  0.60235100  0.09797200  1
  Zr  Zr6  1  0.86706200  0.44956400  0.71053200  1
  Zr  Zr7  1  0.09797200  0.78919600  0.60235100  1
  Zr  Zr8  1  0.44956400  0.71053200  0.86706200  1
  Zr  Zr9  1  0.71053200  0.86706200  0.44956400  1
  Sc  Sc10  1  0.90448200  0.21131200  0.39490600  1
  Sc  Sc11  1  0.21131200  0.39490600  0.90448200  1
  Sc  Sc12  1  0.50027500  0.50027500  0.50027500  1
  Sc  Sc13  1  0.39490600  0.90448200  0.21131200  1
  O  O14  1  0.17330300  0.02194200  0.40216000  1
  O  O15  1  0.50773100  0.04703500  0.33374900  1
  O  O16  1  0.40216000  0.17330300  0.02194200  1
  O  O17  1  0.86863100  0.04758000  0.25791100  1
  O  O18  1  0.02194200  0.40216000  0.17330300  1
  O  O19  1  0.04703500  0.33374900  0.50773100  1
  O  O20  1  0.04758000  0.25791100  0.86863100  1
  O  O21  1  0.35675000  0.35675000  0.35675000  1
  O  O22  1  0.38716600  0.28221200  0.68315600  1
  O  O23  1  0.33374900  0.50773100  0.04703500  1
  O  O24  1  0.74618400  0.12785400  0.95246400  1
  O  O25  1  0.68315600  0.38716600  0.28221200  1
  O  O26  1  0.71655100  0.31442700  0.61794000  1
  O  O27  1  0.28221200  0.68315600  0.38716600  1
  O  O28  1  0.31442700  0.61794000  0.71655100  1
  O  O29  1  0.25791100  0.86863100  0.04758000  1
  O  O30  1  0.66762300  0.48859200  0.95303500  1
  O  O31  1  0.61794000  0.71655100  0.31442700  1
  O  O32  1  0.64354100  0.64354100  0.64354100  1
  O  O33  1  0.95246400  0.74618400  0.12785400  1
  O  O34  1  0.95303500  0.66762300  0.48859200  1
  O  O35  1  0.97186900  0.60385500  0.82617800  1
  O  O36  1  0.12785400  0.95246400  0.74618400  1
  O  O37  1  0.60385500  0.82617800  0.97186900  1
  O  O38  1  0.48859200  0.95303500  0.66762300  1
  O  O39  1  0.82617800  0.97186900  0.60385500  1
