# generated using pymatgen
data_K2In12Se19
_symmetry_space_group_name_H-M   'P 1'
_cell_length_a   10.11725668
_cell_length_b   10.11725668
_cell_length_c   10.11725655
_cell_angle_alpha   88.01546268
_cell_angle_beta   88.01546268
_cell_angle_gamma   88.01546248
_symmetry_Int_Tables_number   1
_chemical_formula_structural   K2In12Se19
_chemical_formula_sum   'K2 In12 Se19'
_cell_volume   1033.76962535
_cell_formula_units_Z   1
loop_
 _symmetry_equiv_pos_site_id
 _symmetry_equiv_pos_as_xyz
  1  'x, y, z'
loop_
 _atom_site_type_symbol
 _atom_site_label
 _atom_site_symmetry_multiplicity
 _atom_site_fract_x
 _atom_site_fract_y
 _atom_site_fract_z
 _atom_site_occupancy
  K  K0  1  0.16454800  0.16454800  0.16454800  1
  K  K1  1  0.83545200  0.83545200  0.83545200  1
  In  In2  1  0.70110400  0.12447100  0.22325900  1
  In  In3  1  0.52054400  0.18611700  0.57280800  1
  In  In4  1  0.12447100  0.22325900  0.70110400  1
  In  In5  1  0.77674100  0.29889600  0.87552900  1
  In  In6  1  0.81388300  0.42719200  0.47945600  1
  In  In7  1  0.42719200  0.47945600  0.81388300  1
  In  In8  1  0.57280800  0.52054400  0.18611700  1
  In  In9  1  0.18611700  0.57280800  0.52054400  1
  In  In10  1  0.22325900  0.70110400  0.12447100  1
  In  In11  1  0.87552900  0.77674100  0.29889600  1
  In  In12  1  0.47945600  0.81388300  0.42719200  1
  In  In13  1  0.29889600  0.87552900  0.77674100  1
  Se  Se14  1  0.90527000  0.02359600  0.34002600  1
  Se  Se15  1  0.46345600  0.10258200  0.34240000  1
  Se  Se16  1  0.65997400  0.09473000  0.97640400  1
  Se  Se17  1  0.77270900  0.21244100  0.62495600  1
  Se  Se18  1  0.37504400  0.22729100  0.78755900  1
  Se  Se19  1  0.10258200  0.34240000  0.46345600  1
  Se  Se20  1  0.02359600  0.34002600  0.90527000  1
  Se  Se21  1  0.78755900  0.37504400  0.22729100  1
  Se  Se22  1  0.34240000  0.46345600  0.10258200  1
  Se  Se23  1  0.50000000  0.50000000  0.50000000  1
  Se  Se24  1  0.65760000  0.53654400  0.89741800  1
  Se  Se25  1  0.21244100  0.62495600  0.77270900  1
  Se  Se26  1  0.97640400  0.65997400  0.09473000  1
  Se  Se27  1  0.89741800  0.65760000  0.53654400  1
  Se  Se28  1  0.62495600  0.77270900  0.21244100  1
  Se  Se29  1  0.22729100  0.78755900  0.37504400  1
  Se  Se30  1  0.34002600  0.90527000  0.02359600  1
  Se  Se31  1  0.53654400  0.89741800  0.65760000  1
  Se  Se32  1  0.09473000  0.97640400  0.65997400  1
