# generated using pymatgen
data_Fe2SiO4
_symmetry_space_group_name_H-M   'P 1'
_cell_length_a   5.88560933
_cell_length_b   5.88560933
_cell_length_c   14.89682700
_cell_angle_alpha   90.00000000
_cell_angle_beta   90.00000000
_cell_angle_gamma   119.99999244
_symmetry_Int_Tables_number   1
_chemical_formula_structural   Fe2SiO4
_chemical_formula_sum   'Fe12 Si6 O24'
_cell_volume   446.89685834
_cell_formula_units_Z   6
loop_
 _symmetry_equiv_pos_site_id
 _symmetry_equiv_pos_as_xyz
  1  'x, y, z'
loop_
 _atom_site_type_symbol
 _atom_site_label
 _atom_site_symmetry_multiplicity
 _atom_site_fract_x
 _atom_site_fract_y
 _atom_site_fract_z
 _atom_site_occupancy
  Fe  Fe0  1  0.66666700  0.33333300  0.92746600  1
  Fe  Fe1  1  0.16572100  0.83427900  0.79311200  1
  Fe  Fe2  1  0.33333300  0.66666700  0.59173200  1
  Fe  Fe3  1  0.66855800  0.83427900  0.79311200  1
  Fe  Fe4  1  0.16572100  0.33144200  0.79311200  1
  Fe  Fe5  1  0.83439600  0.16560400  0.45194000  1
  Fe  Fe6  1  0.33120800  0.16560400  0.45194000  1
  Fe  Fe7  1  0.49882100  0.50117900  0.12876100  1
  Fe  Fe8  1  0.83439600  0.66879200  0.45194000  1
  Fe  Fe9  1  0.66666700  0.33333300  0.28790400  1
  Fe  Fe10  1  0.00235800  0.50117900  0.12876100  1
  Fe  Fe11  1  0.49882100  0.99764200  0.12876100  1
  Si  Si12  1  0.00000000  0.00000000  0.99568200  1
  Si  Si13  1  0.66666700  0.33333300  0.65609000  1
  Si  Si14  1  0.33333300  0.66666700  0.94541600  1
  Si  Si15  1  0.33333300  0.66666700  0.33146400  1
  Si  Si16  1  0.00000000  0.00000000  0.25138500  1
  Si  Si17  1  0.00000000  0.00000000  0.60778500  1
  O  O18  1  0.47825600  0.95651300  0.88942600  1
  O  O19  1  0.04348700  0.52174400  0.88942600  1
  O  O20  1  0.33333300  0.66666700  0.72301200  1
  O  O21  1  0.14285400  0.28570900  0.54686000  1
  O  O22  1  0.82850800  0.17149200  0.69423200  1
  O  O23  1  0.47825600  0.52174400  0.88942600  1
  O  O24  1  0.34298400  0.17149200  0.69423200  1
  O  O25  1  0.00000000  0.00000000  0.88250400  1
  O  O26  1  0.71429100  0.85714600  0.54686000  1
  O  O27  1  0.00000000  0.00000000  0.36249400  1
  O  O28  1  0.48712400  0.51287600  0.37019400  1
  O  O29  1  0.84629100  0.69258100  0.21391400  1
  O  O30  1  0.14285400  0.85714600  0.54686000  1
  O  O31  1  0.82850800  0.65701600  0.69423200  1
  O  O32  1  0.66666700  0.33333300  0.54549300  1
  O  O33  1  0.02575100  0.51287600  0.37019400  1
  O  O34  1  0.30741900  0.15370900  0.21391400  1
  O  O35  1  0.66666700  0.33333300  0.06079300  1
  O  O36  1  0.16038400  0.83961600  0.03190700  1
  O  O37  1  0.84629100  0.15370900  0.21391400  1
  O  O38  1  0.48712400  0.97424900  0.37019400  1
  O  O39  1  0.33333300  0.66666700  0.21799100  1
  O  O40  1  0.67923200  0.83961600  0.03190700  1
  O  O41  1  0.16038400  0.32076800  0.03190700  1
