# generated using pymatgen
data_Bi6W4O21
_symmetry_space_group_name_H-M   'P 1'
_cell_length_a   5.05780500
_cell_length_b   5.10072774
_cell_length_c   18.61962872
_cell_angle_alpha   87.45557980
_cell_angle_beta   86.26522441
_cell_angle_gamma   85.12147077
_symmetry_Int_Tables_number   1
_chemical_formula_structural   Bi6W4O21
_chemical_formula_sum   'Bi6 W4 O21'
_cell_volume   477.23673264
_cell_formula_units_Z   1
loop_
 _symmetry_equiv_pos_site_id
 _symmetry_equiv_pos_as_xyz
  1  'x, y, z'
loop_
 _atom_site_type_symbol
 _atom_site_label
 _atom_site_symmetry_multiplicity
 _atom_site_fract_x
 _atom_site_fract_y
 _atom_site_fract_z
 _atom_site_occupancy
  Bi  Bi0  1  0.54163500  0.45433900  0.92126200  1
  Bi  Bi1  1  0.45171200  0.49918300  0.69177100  1
  Bi  Bi2  1  0.95599600  0.00591100  0.40604300  1
  Bi  Bi3  1  0.92379800  0.99187700  0.59857900  1
  Bi  Bi4  1  0.69668000  0.56266700  0.10062600  1
  Bi  Bi5  1  0.55481400  0.53698100  0.32316100  1
  W  W6  1  0.95204300  0.96483100  0.78682600  1
  W  W7  1  0.07756900  0.03504800  0.02456100  1
  W  W8  1  0.45026600  0.50745900  0.50620600  1
  W  W9  1  0.12396700  0.08345200  0.20156200  1
  O  O10  1  0.72274400  0.12174000  0.85922200  1
  O  O11  1  0.38114900  0.81332600  0.02911600  1
  O  O12  1  0.19571000  0.82456200  0.51723000  1
  O  O13  1  0.66051500  0.64843400  0.58380700  1
  O  O14  1  0.16710100  0.81294500  0.68712200  1
  O  O15  1  0.11756200  0.85535700  0.28153400  1
  O  O16  1  0.17671100  0.74383100  0.83693200  1
  O  O17  1  0.26754200  0.44418200  0.42403900  1
  O  O18  1  0.87906700  0.76504500  0.00084800  1
  O  O19  1  0.70226600  0.67231900  0.42601700  1
  O  O20  1  0.19219400  0.23292400  0.94289300  1
  O  O21  1  0.27150400  0.33060300  0.58291800  1
  O  O22  1  0.69658200  0.26642200  0.01831800  1
  O  O23  1  0.68183200  0.82092400  0.74177800  1
  O  O24  1  0.09917400  0.30510200  0.09633000  1
  O  O25  1  0.07279500  0.27051500  0.74590200  1
  O  O26  1  0.94668000  0.38216900  0.23623600  1
  O  O27  1  0.62774000  0.13409200  0.34288000  1
  O  O28  1  0.71357700  0.20322000  0.49765300  1
  O  O29  1  0.99198600  0.86137700  0.13288800  1
  O  O30  1  0.47520900  0.11728300  0.18761900  1
