# generated using pymatgen
data_H(CO)2
_symmetry_space_group_name_H-M   'P 1'
_cell_length_a   11.47085100
_cell_length_b   6.09153700
_cell_length_c   6.09192113
_cell_angle_alpha   89.98798015
_cell_angle_beta   90.00000000
_cell_angle_gamma   90.00000000
_symmetry_Int_Tables_number   1
_chemical_formula_structural   H(CO)2
_chemical_formula_sum   'H8 C16 O16'
_cell_volume   425.67367002
_cell_formula_units_Z   8
loop_
 _symmetry_equiv_pos_site_id
 _symmetry_equiv_pos_as_xyz
  1  'x, y, z'
loop_
 _atom_site_type_symbol
 _atom_site_label
 _atom_site_symmetry_multiplicity
 _atom_site_fract_x
 _atom_site_fract_y
 _atom_site_fract_z
 _atom_site_occupancy
  H  H0  1  0.00000000  0.22686800  0.73750100  1
  H  H1  1  0.00000000  0.73357700  0.25918600  1
  H  H2  1  0.74999600  0.77115900  0.26613000  1
  H  H3  1  0.75001500  0.24080500  0.76907100  1
  H  H4  1  0.50000000  0.75900400  0.23096700  1
  H  H5  1  0.50000000  0.22896100  0.73423900  1
  H  H6  1  0.25000400  0.77115900  0.26613000  1
  H  H7  1  0.24998500  0.24080500  0.76907100  1
  C  C8  1  0.00000000  0.89798400  0.69184300  1
  C  C9  1  0.00000000  0.80166500  0.91067000  1
  C  C10  1  0.00000000  0.68204500  0.59324400  1
  C  C11  1  0.00000000  0.58054300  0.81206700  1
  C  C12  1  0.74996500  0.31790600  0.41335700  1
  C  C13  1  0.74986800  0.41666300  0.19156100  1
  C  C14  1  0.74999600  0.19721000  0.09651100  1
  C  C15  1  0.75008600  0.09973400  0.31187800  1
  C  C16  1  0.50000000  0.89994200  0.68824200  1
  C  C17  1  0.50000000  0.80234500  0.90354800  1
  C  C18  1  0.50000000  0.68170700  0.58676800  1
  C  C19  1  0.50000000  0.58287800  0.80853200  1
  C  C20  1  0.25013200  0.41666300  0.19156100  1
  C  C21  1  0.25003500  0.31790600  0.41335700  1
  C  C22  1  0.25000400  0.19721000  0.09651100  1
  C  C23  1  0.24991400  0.09973400  0.31187800  1
  O  O24  1  0.00000000  0.87850600  0.10292200  1
  O  O25  1  0.00000000  0.38945500  0.88879300  1
  O  O26  1  0.00000000  0.60484200  0.39799700  1
  O  O27  1  0.00000000  0.09311000  0.61257700  1
  O  O28  1  0.75004000  0.90396000  0.39063900  1
  O  O29  1  0.75001500  0.39452600  0.60475500  1
  O  O30  1  0.74988500  0.60777200  0.11405900  1
  O  O31  1  0.74999900  0.11701200  0.90127500  1
  O  O32  1  0.50000000  0.88270700  0.09881900  1
  O  O33  1  0.50000000  0.60518400  0.39533800  1
  O  O34  1  0.50000000  0.39180400  0.88595300  1
  O  O35  1  0.50000000  0.09567900  0.60962100  1
  O  O36  1  0.24996000  0.90396000  0.39063900  1
  O  O37  1  0.25011500  0.60777200  0.11405900  1
  O  O38  1  0.24998500  0.39452600  0.60475500  1
  O  O39  1  0.25000100  0.11701200  0.90127500  1
