# generated using pymatgen
data_CrHO2
_symmetry_space_group_name_H-M   'P 1'
_cell_length_a   4.83727278
_cell_length_b   19.34027670
_cell_length_c   9.17407264
_cell_angle_alpha   18.43167154
_cell_angle_beta   32.52027414
_cell_angle_gamma   36.87503373
_symmetry_Int_Tables_number   1
_chemical_formula_structural   CrHO2
_chemical_formula_sum   'Cr4 H4 O8'
_cell_volume   145.88430035
_cell_formula_units_Z   4
loop_
 _symmetry_equiv_pos_site_id
 _symmetry_equiv_pos_as_xyz
  1  'x, y, z'
loop_
 _atom_site_type_symbol
 _atom_site_label
 _atom_site_symmetry_multiplicity
 _atom_site_fract_x
 _atom_site_fract_y
 _atom_site_fract_z
 _atom_site_occupancy
  Cr  Cr0  1  0.01145200  0.00043400  0.99227500  1
  Cr  Cr1  1  0.01145200  0.24956600  0.99401300  1
  Cr  Cr2  1  0.98854800  0.50043400  0.00598700  1
  Cr  Cr3  1  0.98854800  0.74956600  0.00772500  1
  H  H4  1  0.49401200  0.25059400  0.48381300  1
  H  H5  1  0.50598800  0.49940600  0.51618700  1
  H  H6  1  0.50598800  0.75059400  0.51381300  1
  H  H7  1  0.49401200  0.99940600  0.48618700  1
  O  O8  1  0.59870600  0.00107500  0.58886000  1
  O  O9  1  0.41309000  0.25191800  0.40261100  1
  O  O10  1  0.59870600  0.24892500  0.59315800  1
  O  O11  1  0.40129400  0.50107500  0.40684200  1
  O  O12  1  0.58691000  0.49808200  0.59738900  1
  O  O13  1  0.40129400  0.74892500  0.41114000  1
  O  O14  1  0.58691000  0.75191800  0.58971700  1
  O  O15  1  0.41309000  0.99808200  0.41028300  1
