# generated using pymatgen
data_Sr24Ni19O54
_symmetry_space_group_name_H-M   'P 1'
_cell_length_a   9.56248200
_cell_length_b   9.60323416
_cell_length_c   15.62455829
_cell_angle_alpha   89.98705537
_cell_angle_beta   90.28066120
_cell_angle_gamma   119.85267095
_symmetry_Int_Tables_number   1
_chemical_formula_structural   Sr24Ni19O54
_chemical_formula_sum   'Sr24 Ni19 O54'
_cell_volume   1244.40784615
_cell_formula_units_Z   1
loop_
 _symmetry_equiv_pos_site_id
 _symmetry_equiv_pos_as_xyz
  1  'x, y, z'
loop_
 _atom_site_type_symbol
 _atom_site_label
 _atom_site_symmetry_multiplicity
 _atom_site_fract_x
 _atom_site_fract_y
 _atom_site_fract_z
 _atom_site_occupancy
  Sr  Sr0  1  0.66813300  0.69253600  0.87117900  1
  Sr  Sr1  1  0.66843900  0.69094200  0.37793700  1
  Sr  Sr2  1  0.66446300  0.00056500  0.74818400  1
  Sr  Sr3  1  0.67130000  0.01018900  0.26177200  1
  Sr  Sr4  1  0.02880700  0.33373400  0.87501800  1
  Sr  Sr5  1  0.02697200  0.33605200  0.37535200  1
  Sr  Sr6  1  0.97245300  0.30707100  0.62575800  1
  Sr  Sr7  1  0.95119800  0.29061500  0.12595000  1
  Sr  Sr8  1  0.31049200  0.97269900  0.87155800  1
  Sr  Sr9  1  0.30595100  0.97184600  0.37594800  1
  Sr  Sr10  1  0.00570500  0.64191400  0.00171200  1
  Sr  Sr11  1  0.00427900  0.64446300  0.50185400  1
  Sr  Sr12  1  0.00461700  0.66935300  0.75011900  1
  Sr  Sr13  1  0.99608000  0.66877900  0.25352900  1
  Sr  Sr14  1  0.64573900  0.01234900  0.99081100  1
  Sr  Sr15  1  0.63571900  0.99813700  0.50245400  1
  Sr  Sr16  1  0.69621700  0.66781300  0.62623300  1
  Sr  Sr17  1  0.70017700  0.66885000  0.12276100  1
  Sr  Sr18  1  0.32992700  0.01538500  0.62508300  1
  Sr  Sr19  1  0.32638100  0.03823700  0.12352000  1
  Sr  Sr20  1  0.36196200  0.35111300  0.98904400  1
  Sr  Sr21  1  0.36038100  0.35453200  0.49966200  1
  Sr  Sr22  1  0.33269600  0.32669200  0.74880200  1
  Sr  Sr23  1  0.32818200  0.31722500  0.26078200  1
  Ni  Ni24  1  0.00000100  0.99978800  0.82833200  1
  Ni  Ni25  1  0.99527200  0.99729000  0.32969300  1
  Ni  Ni26  1  0.33771200  0.61089500  0.62083100  1
  Ni  Ni27  1  0.42190000  0.78560500  0.12065400  1
  Ni  Ni28  1  0.33677200  0.67240100  0.78932900  1
  Ni  Ni29  1  0.32576400  0.66315800  0.28738300  1
  Ni  Ni30  1  0.33171900  0.66407300  0.95245200  1
  Ni  Ni31  1  0.99472700  0.99610700  0.99671300  1
  Ni  Ni32  1  0.33194200  0.67051600  0.45215200  1
  Ni  Ni33  1  0.99989700  0.00126000  0.66968100  1
  Ni  Ni34  1  0.99813200  0.00055200  0.50160400  1
  Ni  Ni35  1  0.99695000  0.00223000  0.16963300  1
  Ni  Ni36  1  0.29272600  0.52443300  0.12237000  1
  Ni  Ni37  1  0.66513100  0.33517200  0.04942700  1
  Ni  Ni38  1  0.67016600  0.33734000  0.87876800  1
  Ni  Ni39  1  0.66875000  0.33544200  0.54985700  1
  Ni  Ni40  1  0.66828600  0.33477000  0.38009500  1
  Ni  Ni41  1  0.66939100  0.33657300  0.71021000  1
  Ni  Ni42  1  0.66376100  0.33373000  0.21069000  1
  O  O43  1  0.85028200  0.85269700  0.74880200  1
  O  O44  1  0.84677400  0.84853500  0.24889300  1
  O  O45  1  0.83714400  0.99019800  0.59829700  1
  O  O46  1  0.83458700  0.98801900  0.09537100  1
  O  O47  1  0.48843500  0.68381600  0.03145300  1
  O  O48  1  0.49285500  0.68262500  0.52723800  1
  O  O49  1  0.49189500  0.68791700  0.71338300  1
  O  O50  1  0.48673400  0.68183400  0.20046400  1
  O  O51  1  0.35365100  0.51422800  0.86393700  1
  O  O52  1  0.35243600  0.51874100  0.37589600  1
  O  O53  1  0.15193200  0.16181600  0.59852600  1
  O  O54  1  0.15341500  0.17482800  0.10334600  1
  O  O55  1  0.48936000  0.82985400  0.86763100  1
  O  O56  1  0.48302200  0.82726000  0.37460100  1
  O  O57  1  0.18646000  0.50775900  0.52628200  1
  O  O58  1  0.16548600  0.47503100  0.02035000  1
  O  O59  1  0.18862900  0.51551400  0.71464400  1
  O  O60  1  0.16749100  0.48072800  0.22482000  1
  O  O61  1  0.00087700  0.15078100  0.74934300  1
  O  O62  1  0.99017600  0.14388200  0.25129600  1
  O  O63  1  0.31731400  0.83011800  0.73299900  1
  O  O64  1  0.33172500  0.83282900  0.21565400  1
  O  O65  1  0.31693500  0.83104100  0.51231500  1
  O  O66  1  0.33057600  0.83794700  0.02860200  1
  O  O67  1  0.84869900  0.01170400  0.89829600  1
  O  O68  1  0.84335300  0.00781500  0.40065700  1
  O  O69  1  0.17673900  0.65043500  0.87287100  1
  O  O70  1  0.16344200  0.64754900  0.37530000  1
  O  O71  1  0.81298500  0.31699900  0.97882600  1
  O  O72  1  0.81868200  0.32182700  0.47932900  1
  O  O73  1  0.82218200  0.33193800  0.78107200  1
  O  O74  1  0.81065600  0.31867000  0.28162000  1
  O  O75  1  0.14942900  0.00202700  0.74932900  1
  O  O76  1  0.14522100  0.00077800  0.25040600  1
  O  O77  1  0.82802300  0.48037900  0.62981600  1
  O  O78  1  0.82573400  0.47753800  0.13010500  1
  O  O79  1  0.00921000  0.84817400  0.59970600  1
  O  O80  1  0.01351200  0.85476700  0.09716300  1
  O  O81  1  0.98882100  0.83538000  0.89915000  1
  O  O82  1  0.98733500  0.83459700  0.39875100  1
  O  O83  1  0.65492200  0.17589800  0.62952400  1
  O  O84  1  0.64409800  0.17207900  0.12911800  1
  O  O85  1  0.68704100  0.50314300  0.97886700  1
  O  O86  1  0.68204700  0.49963400  0.48027400  1
  O  O87  1  0.67686400  0.49645200  0.77818200  1
  O  O88  1  0.67945400  0.49512500  0.28130000  1
  O  O89  1  0.51294700  0.18899800  0.78173200  1
  O  O90  1  0.50561800  0.18852400  0.28264000  1
  O  O91  1  0.50245200  0.19037000  0.97623900  1
  O  O92  1  0.50668200  0.18827500  0.47752500  1
  O  O93  1  0.52191800  0.34697200  0.62896600  1
  O  O94  1  0.52002200  0.35156300  0.12862600  1
  O  O95  1  0.16115100  0.14754500  0.90042400  1
  O  O96  1  0.16063100  0.15108800  0.39964900  1
