data_image0
_chemical_formula_structural       Lu2Ni2Si4
_chemical_formula_sum              "Lu2 Ni2 Si4"
_cell_length_a       3.91875
_cell_length_b       3.88114
_cell_length_c       8.47934
_cell_angle_alpha    76.7701
_cell_angle_beta     90
_cell_angle_gamma    90

_space_group_name_H-M_alt    "P 1"
_space_group_IT_number       1

loop_
  _space_group_symop_operation_xyz
  'x, y, z'

loop_
  _atom_site_type_symbol
  _atom_site_label
  _atom_site_symmetry_multiplicity
  _atom_site_fract_x
  _atom_site_fract_y
  _atom_site_fract_z
  _atom_site_occupancy
  Lu  Lu1       1.0  0.25000  0.89500  0.21000  1.0000
  Lu  Lu2       1.0  0.75000  0.10500  0.79000  1.0000
  Ni  Ni1       1.0  0.75000  0.32500  0.34900  1.0000
  Ni  Ni2       1.0  0.25000  0.67500  0.65100  1.0000
  Si  Si1       1.0  0.75000  0.46100  0.07870  1.0000
  Si  Si2       1.0  0.25000  0.25100  0.49800  1.0000
  Si  Si3       1.0  0.75000  0.74900  0.50200  1.0000
  Si  Si4       1.0  0.25000  0.53900  0.92100  1.0000
