# generated using pymatgen
data_Ca2NdF7
_symmetry_space_group_name_H-M   'P 1'
_cell_length_a   3.94554945
_cell_length_b   3.94554945
_cell_length_c   30.70899296
_cell_angle_alpha   89.30297308
_cell_angle_beta   89.30297308
_cell_angle_gamma   60.13265593
_symmetry_Int_Tables_number   1
_chemical_formula_structural   Ca2NdF7
_chemical_formula_sum   'Ca6 Nd3 F21'
_cell_volume   414.52169206
_cell_formula_units_Z   3
loop_
 _symmetry_equiv_pos_site_id
 _symmetry_equiv_pos_as_xyz
  1  'x, y, z'
loop_
 _atom_site_type_symbol
 _atom_site_label
 _atom_site_symmetry_multiplicity
 _atom_site_fract_x
 _atom_site_fract_y
 _atom_site_fract_z
 _atom_site_occupancy
  Ca  Ca0  1  0.01530600  0.01530600  0.98231200  1
  Ca  Ca1  1  0.70076300  0.70076300  0.87479200  1
  Ca  Ca2  1  0.38194700  0.38194700  0.77205200  1
  Ca  Ca3  1  0.06967200  0.06967200  0.66816800  1
  Ca  Ca4  1  0.75083700  0.75083700  0.56388100  1
  Ca  Ca5  1  0.35059800  0.35059800  0.08536700  1
  Nd  Nd6  1  0.36782100  0.36782100  0.44055900  1
  Nd  Nd7  1  0.68211200  0.68211200  0.19349900  1
  Nd  Nd8  1  0.01784000  0.01784000  0.31626400  1
  F  F9  1  0.02757900  0.02757900  0.90334000  1
  F  F10  1  0.36942500  0.36942500  0.85116800  1
  F  F11  1  0.71208600  0.71208600  0.79997400  1
  F  F12  1  0.05199700  0.05199700  0.74821200  1
  F  F13  1  0.41991100  0.41991100  0.59212900  1
  F  F14  1  0.39899200  0.39899200  0.69648200  1
  F  F15  1  0.74047700  0.74047700  0.64546300  1
  F  F16  1  0.03652300  0.03652300  0.43842800  1
  F  F17  1  0.08715300  0.08715300  0.54217100  1
  F  F18  1  0.72235100  0.72235100  0.48464800  1
  F  F19  1  0.68549600  0.68549600  0.31055600  1
  F  F20  1  0.70064400  0.70064400  0.40263600  1
  F  F21  1  0.36155700  0.36155700  0.36020600  1
  F  F22  1  0.34892300  0.34892300  0.18595500  1
  F  F23  1  0.35264800  0.35264800  0.27841800  1
  F  F24  1  0.01888600  0.01888600  0.23702900  1
  F  F25  1  0.01622900  0.01622900  0.06189900  1
  F  F26  1  0.01623000  0.01623000  0.15643700  1
  F  F27  1  0.68404600  0.68404600  0.11443400  1
  F  F28  1  0.67989100  0.67989100  0.01035500  1
  F  F29  1  0.34998500  0.34998500  0.96038700  1
