# generated using pymatgen
data_Sr11Ru10O33
_symmetry_space_group_name_H-M   'P 1'
_cell_length_a   8.89483200
_cell_length_b   8.94671272
_cell_length_c   9.73563474
_cell_angle_alpha   100.83128394
_cell_angle_beta   90.11182990
_cell_angle_gamma   113.48277771
_symmetry_Int_Tables_number   1
_chemical_formula_structural   Sr11Ru10O33
_chemical_formula_sum   'Sr11 Ru10 O33'
_cell_volume   695.38911207
_cell_formula_units_Z   1
loop_
 _symmetry_equiv_pos_site_id
 _symmetry_equiv_pos_as_xyz
  1  'x, y, z'
loop_
 _atom_site_type_symbol
 _atom_site_label
 _atom_site_symmetry_multiplicity
 _atom_site_fract_x
 _atom_site_fract_y
 _atom_site_fract_z
 _atom_site_occupancy
  Sr  Sr0  1  0.38500100  0.25667500  0.04295500  1
  Sr  Sr1  1  0.21356900  0.82813100  0.12734200  1
  Sr  Sr2  1  0.04351600  0.34184000  0.21192700  1
  Sr  Sr3  1  0.87259600  0.91530600  0.30032200  1
  Sr  Sr4  1  0.68114200  0.45629400  0.40895700  1
  Sr  Sr5  1  0.50000000  0.00000000  0.50000000  1
  Sr  Sr6  1  0.31885800  0.54370600  0.59104300  1
  Sr  Sr7  1  0.12740400  0.08469400  0.69967800  1
  Sr  Sr8  1  0.95648400  0.65816000  0.78807300  1
  Sr  Sr9  1  0.78643100  0.17186900  0.87265800  1
  Sr  Sr10  1  0.61499900  0.74332500  0.95704500  1
  Ru  Ru11  1  0.81577400  0.54485300  0.09075100  1
  Ru  Ru12  1  0.63683200  0.08978800  0.18280100  1
  Ru  Ru13  1  0.45187400  0.63574100  0.27134000  1
  Ru  Ru14  1  0.27051200  0.18100500  0.36652500  1
  Ru  Ru15  1  0.09057000  0.72445100  0.45204900  1
  Ru  Ru16  1  0.90943000  0.27554900  0.54795100  1
  Ru  Ru17  1  0.72948800  0.81899500  0.63347500  1
  Ru  Ru18  1  0.54812600  0.36425900  0.72866000  1
  Ru  Ru19  1  0.36316800  0.91021200  0.81719900  1
  Ru  Ru20  1  0.18422600  0.45514700  0.90924900  1
  O  O21  1  0.90488600  0.76181300  0.04954200  1
  O  O22  1  0.72355000  0.31123000  0.14059400  1
  O  O23  1  0.80836700  0.04594000  0.09566800  1
  O  O24  1  0.50000000  0.00000000  0.00000000  1
  O  O25  1  0.54110000  0.86122900  0.22758200  1
  O  O26  1  0.63351500  0.58577700  0.18258600  1
  O  O27  1  0.31747000  0.54689000  0.08788900  1
  O  O28  1  0.36236200  0.40767900  0.32053700  1
  O  O29  1  0.14250800  0.09559600  0.19332300  1
  O  O30  1  0.44917700  0.13790100  0.27917000  1
  O  O31  1  0.18305400  0.95562100  0.41293500  1
  O  O32  1  0.27347700  0.68192800  0.36466500  1
  O  O33  1  0.95145700  0.63194400  0.27248200  1
  O  O34  1  0.00000000  0.50000000  0.50000000  1
  O  O35  1  0.08982300  0.23085700  0.45870200  1
  O  O36  1  0.76814700  0.17954300  0.36687800  1
  O  O37  1  0.81694600  0.04437900  0.58706500  1
  O  O38  1  0.91017700  0.76914300  0.54129800  1
  O  O39  1  0.58637800  0.72264400  0.44887300  1
  O  O40  1  0.63763800  0.59232100  0.67946300  1
  O  O41  1  0.72652300  0.31807200  0.63533500  1
  O  O42  1  0.41362200  0.27735600  0.55112700  1
  O  O43  1  0.45890000  0.13877100  0.77241800  1
  O  O44  1  0.55082300  0.86209900  0.72083000  1
  O  O45  1  0.23185300  0.82045700  0.63312200  1
  O  O46  1  0.27645000  0.68877000  0.85940600  1
  O  O47  1  0.36648500  0.41422300  0.81741400  1
  O  O48  1  0.04854300  0.36805600  0.72751800  1
  O  O49  1  0.09511400  0.23818700  0.95045800  1
  O  O50  1  0.19163300  0.95406000  0.90433200  1
  O  O51  1  0.85749200  0.90440400  0.80667700  1
  O  O52  1  0.00000000  0.50000000  0.00000000  1
  O  O53  1  0.68253000  0.45311000  0.91211100  1
