# generated using pymatgen
data_ErPaO4
_symmetry_space_group_name_H-M   'P 1'
_cell_length_a   5.97463693
_cell_length_b   5.97463693
_cell_length_c   5.97463693
_cell_angle_alpha   133.38234864
_cell_angle_beta   133.38234864
_cell_angle_gamma   68.05432731
_symmetry_Int_Tables_number   1
_chemical_formula_structural   ErPaO4
_chemical_formula_sum   'Er2 Pa2 O8'
_cell_volume   110.69635374
_cell_formula_units_Z   2
loop_
 _symmetry_equiv_pos_site_id
 _symmetry_equiv_pos_as_xyz
  1  'x, y, z'
loop_
 _atom_site_type_symbol
 _atom_site_label
 _atom_site_symmetry_multiplicity
 _atom_site_fract_x
 _atom_site_fract_y
 _atom_site_fract_z
 _atom_site_occupancy
  Er  Er0  1  0.50000000  0.50000000  0.00000000  1
  Er  Er1  1  0.25000000  0.75000000  0.50000000  1
  Pa  Pa2  1  0.00000000  0.00000000  0.00000000  1
  Pa  Pa3  1  0.75000000  0.25000000  0.50000000  1
  O  O4  1  0.61999300  0.12500000  0.99499300  1
  O  O5  1  0.87500000  0.38000700  0.00500700  1
  O  O6  1  0.37500000  0.38000700  0.50500700  1
  O  O7  1  0.13000700  0.62500000  0.00500700  1
  O  O8  1  0.37500000  0.86999300  0.99499300  1
  O  O9  1  0.87500000  0.86999300  0.49499300  1
  O  O10  1  0.13000700  0.12500000  0.50500700  1
  O  O11  1  0.61999300  0.62500000  0.49499300  1
