# generated using pymatgen
data_Yb(DyS2)2
_symmetry_space_group_name_H-M   'P 1'
_cell_length_a   7.22533304
_cell_length_b   7.22533304
_cell_length_c   7.22533304
_cell_angle_alpha   109.40677767
_cell_angle_beta   109.40677767
_cell_angle_gamma   109.60018358
_symmetry_Int_Tables_number   1
_chemical_formula_structural   Yb(DyS2)2
_chemical_formula_sum   'Yb2 Dy4 S8'
_cell_volume   290.36887933
_cell_formula_units_Z   2
loop_
 _symmetry_equiv_pos_site_id
 _symmetry_equiv_pos_as_xyz
  1  'x, y, z'
loop_
 _atom_site_type_symbol
 _atom_site_label
 _atom_site_symmetry_multiplicity
 _atom_site_fract_x
 _atom_site_fract_y
 _atom_site_fract_z
 _atom_site_occupancy
  Yb  Yb0  1  0.75000000  0.25000000  0.50000000  1
  Yb  Yb1  1  0.50000000  0.50000000  0.00000000  1
  Dy  Dy2  1  0.99755000  0.37500000  0.12255000  1
  Dy  Dy3  1  0.62500000  0.74755000  0.62255000  1
  Dy  Dy4  1  0.25245000  0.87500000  0.87745000  1
  Dy  Dy5  1  0.12500000  0.00245000  0.37745000  1
  S  S6  1  0.51630200  0.11992500  0.75020300  1
  S  S7  1  0.01609900  0.11972300  0.74979700  1
  S  S8  1  0.88027700  0.63007500  0.89637700  1
  S  S9  1  0.36992500  0.26630200  0.25020300  1
  S  S10  1  0.23390100  0.48369800  0.60362300  1
  S  S11  1  0.36972300  0.76609900  0.24979700  1
  S  S12  1  0.88007500  0.63027700  0.39637700  1
  S  S13  1  0.73369800  0.98390100  0.10362300  1
