# generated using pymatgen
data_Na3Cr11Se20
_symmetry_space_group_name_H-M   'P 1'
_cell_length_a   12.96143723
_cell_length_b   12.96143723
_cell_length_c   19.46777889
_cell_angle_alpha   54.42716517
_cell_angle_beta   54.42716517
_cell_angle_gamma   16.32709830
_symmetry_Int_Tables_number   1
_chemical_formula_structural   Na3Cr11Se20
_chemical_formula_sum   'Na3 Cr11 Se20'
_cell_volume   743.89081905
_cell_formula_units_Z   1
loop_
 _symmetry_equiv_pos_site_id
 _symmetry_equiv_pos_as_xyz
  1  'x, y, z'
loop_
 _atom_site_type_symbol
 _atom_site_label
 _atom_site_symmetry_multiplicity
 _atom_site_fract_x
 _atom_site_fract_y
 _atom_site_fract_z
 _atom_site_occupancy
  Na  Na0  1  0.26472800  0.26472800  0.47506400  1
  Na  Na1  1  0.87304100  0.87304100  0.26500000  1
  Na  Na2  1  0.47198400  0.47198400  0.06054700  1
  Cr  Cr3  1  0.40571900  0.40571900  0.91227700  1
  Cr  Cr4  1  0.19304700  0.19304700  0.88946800  1
  Cr  Cr5  1  0.00704000  0.00704000  0.72484500  1
  Cr  Cr6  1  0.90073600  0.90073600  0.69836800  1
  Cr  Cr7  1  0.79099300  0.79099300  0.68126000  1
  Cr  Cr8  1  0.60459700  0.60459700  0.51199500  1
  Cr  Cr9  1  0.39493700  0.39493700  0.48631200  1
  Cr  Cr10  1  0.20650600  0.20650600  0.31830800  1
  Cr  Cr11  1  0.09167500  0.09167500  0.29976000  1
  Cr  Cr12  1  0.80564000  0.80564000  0.10813600  1
  Cr  Cr13  1  0.59491600  0.59491600  0.09151500  1
  Se  Se14  1  0.92262000  0.92262000  0.98682300  1
  Se  Se15  1  0.71112200  0.71112200  0.96112500  1
  Se  Se16  1  0.52450900  0.52450900  0.79210500  1
  Se  Se17  1  0.31504900  0.31504900  0.75871200  1
  Se  Se18  1  0.11885900  0.11885900  0.58921600  1
  Se  Se19  1  0.88588600  0.88588600  0.84080800  1
  Se  Se20  1  0.91362400  0.91362400  0.55888200  1
  Se  Se21  1  0.67979300  0.67979300  0.81040000  1
  Se  Se22  1  0.72327200  0.72327200  0.39132500  1
  Se  Se23  1  0.48552200  0.48552200  0.64224100  1
  Se  Se24  1  0.51479700  0.51479700  0.35103600  1
  Se  Se25  1  0.27713200  0.27713200  0.61107400  1
  Se  Se26  1  0.32244700  0.32244700  0.18739500  1
  Se  Se27  1  0.08776400  0.08776400  0.43683000  1
  Se  Se28  1  0.11898200  0.11898200  0.15510600  1
  Se  Se29  1  0.87589000  0.87589000  0.41680900  1
  Se  Se30  1  0.68491400  0.68491400  0.24257100  1
  Se  Se31  1  0.48394600  0.48394600  0.20795300  1
  Se  Se32  1  0.28622600  0.28622600  0.04046900  1
  Se  Se33  1  0.07982500  0.07982500  0.01308700  1
