# generated using pymatgen
data_Yb(GdS2)2
_symmetry_space_group_name_H-M   'P 1'
_cell_length_a   7.26570184
_cell_length_b   7.26570184
_cell_length_c   7.26570184
_cell_angle_alpha   109.58722892
_cell_angle_beta   109.58722892
_cell_angle_gamma   109.23945237
_symmetry_Int_Tables_number   1
_chemical_formula_structural   Yb(GdS2)2
_chemical_formula_sum   'Yb2 Gd4 S8'
_cell_volume   295.26059989
_cell_formula_units_Z   2
loop_
 _symmetry_equiv_pos_site_id
 _symmetry_equiv_pos_as_xyz
  1  'x, y, z'
loop_
 _atom_site_type_symbol
 _atom_site_label
 _atom_site_symmetry_multiplicity
 _atom_site_fract_x
 _atom_site_fract_y
 _atom_site_fract_z
 _atom_site_occupancy
  Yb  Yb0  1  0.50000000  0.50000000  0.00000000  1
  Yb  Yb1  1  0.25000000  0.75000000  0.50000000  1
  Gd  Gd2  1  0.00364400  0.62500000  0.87864400  1
  Gd  Gd3  1  0.87500000  0.99635600  0.62135600  1
  Gd  Gd4  1  0.74635600  0.12500000  0.12135600  1
  Gd  Gd5  1  0.37500000  0.25364400  0.37864400  1
  S  S6  1  0.12202300  0.37248500  0.10482900  1
  S  S7  1  0.12248500  0.37202300  0.60482900  1
  S  S8  1  0.48234400  0.87751500  0.24953800  1
  S  S9  1  0.76719400  0.51765600  0.39517100  1
  S  S10  1  0.62751500  0.73234400  0.74953800  1
  S  S11  1  0.26765600  0.01719400  0.89517100  1
  S  S12  1  0.98280600  0.87797700  0.25046200  1
  S  S13  1  0.62797700  0.23280600  0.75046200  1
