# generated using pymatgen
data_BaGeO3
_symmetry_space_group_name_H-M   'P 1'
_cell_length_a   7.77067300
_cell_length_b   9.18334896
_cell_length_c   9.37714430
_cell_angle_alpha   63.73189069
_cell_angle_beta   71.66486798
_cell_angle_gamma   78.27756830
_symmetry_Int_Tables_number   1
_chemical_formula_structural   BaGeO3
_chemical_formula_sum   'Ba6 Ge6 O18'
_cell_volume   567.98528332
_cell_formula_units_Z   6
loop_
 _symmetry_equiv_pos_site_id
 _symmetry_equiv_pos_as_xyz
  1  'x, y, z'
loop_
 _atom_site_type_symbol
 _atom_site_label
 _atom_site_symmetry_multiplicity
 _atom_site_fract_x
 _atom_site_fract_y
 _atom_site_fract_z
 _atom_site_occupancy
  Ba  Ba0  1  0.60174300  0.01221300  0.94462100  1
  Ba  Ba1  1  0.91140100  0.44459800  0.57979600  1
  Ba  Ba2  1  0.38219900  0.56230200  0.26811800  1
  Ba  Ba3  1  0.03170900  0.65298700  0.98639800  1
  Ba  Ba4  1  0.17499300  0.23826600  0.18845500  1
  Ba  Ba5  1  0.42043700  0.80365400  0.55665000  1
  Ge  Ge6  1  0.96258900  0.92350900  0.21460700  1
  Ge  Ge7  1  0.17567200  0.07929200  0.74884400  1
  Ge  Ge8  1  0.69875600  0.57082000  0.89277300  1
  Ge  Ge9  1  0.56719800  0.15068400  0.56653500  1
  Ge  Ge10  1  0.32610700  0.38494900  0.73784600  1
  Ge  Ge11  1  0.64629000  0.21532600  0.19661700  1
  O  O12  1  0.25275400  0.53977800  0.56860300  1
  O  O13  1  0.09980200  0.47809900  0.26792900  1
  O  O14  1  0.78759600  0.77992100  0.36820400  1
  O  O15  1  0.55886000  0.39927000  0.05809400  1
  O  O16  1  0.32044500  0.18196400  0.54079500  1
  O  O17  1  0.65287200  0.71463500  0.98358000  1
  O  O18  1  0.18166900  0.88625100  0.22235500  1
  O  O19  1  0.66487000  0.27987400  0.34473000  1
  O  O20  1  0.26193300  0.87536000  0.81205700  1
  O  O21  1  0.50140000  0.07062400  0.23870500  1
  O  O22  1  0.82021400  0.81078900  0.17983300  1
  O  O23  1  0.91816300  0.47946600  0.88404700  1
  O  O24  1  0.30410100  0.44687200  0.89192100  1
  O  O25  1  0.88216400  0.13016200  0.14404800  1
  O  O26  1  0.94236700  0.10888100  0.76565000  1
  O  O27  1  0.65491000  0.63499800  0.70121500  1
  O  O28  1  0.55929400  0.31405500  0.64690700  1
  O  O29  1  0.24109500  0.17840100  0.85386700  1
