# generated using pymatgen
data_K9(NbAs3)2
_symmetry_space_group_name_H-M   'P 1'
_cell_length_a   9.34210200
_cell_length_b   9.46802100
_cell_length_c   12.84298965
_cell_angle_alpha   83.69474690
_cell_angle_beta   90.00000000
_cell_angle_gamma   90.00000000
_symmetry_Int_Tables_number   1
_chemical_formula_structural   K9(NbAs3)2
_chemical_formula_sum   'K18 Nb4 As12'
_cell_volume   1129.10642057
_cell_formula_units_Z   2
loop_
 _symmetry_equiv_pos_site_id
 _symmetry_equiv_pos_as_xyz
  1  'x, y, z'
loop_
 _atom_site_type_symbol
 _atom_site_label
 _atom_site_symmetry_multiplicity
 _atom_site_fract_x
 _atom_site_fract_y
 _atom_site_fract_z
 _atom_site_occupancy
  K  K0  1  0.33865700  0.58557300  0.16611300  1
  K  K1  1  0.42063500  0.93186900  0.58654500  1
  K  K2  1  0.44057400  0.62442300  0.89289300  1
  K  K3  1  0.46834600  0.18219900  0.30032000  1
  K  K4  1  0.53165400  0.18219900  0.80032000  1
  K  K5  1  0.55942600  0.62442300  0.39289300  1
  K  K6  1  0.57936500  0.93186900  0.08654500  1
  K  K7  1  0.66134300  0.58557300  0.66611300  1
  K  K8  1  0.80385400  0.01383400  0.59388600  1
  K  K9  1  0.83428900  0.40702000  0.33618900  1
  K  K10  1  0.92426100  0.06998200  0.90471200  1
  K  K11  1  0.94416500  0.39570900  0.60939100  1
  K  K12  1  0.93010900  0.80250600  0.21755200  1
  K  K13  1  0.06989100  0.80250600  0.71755200  1
  K  K14  1  0.05583500  0.39570900  0.10939100  1
  K  K15  1  0.07573900  0.06998200  0.40471200  1
  K  K16  1  0.16571100  0.40702000  0.83618900  1
  K  K17  1  0.19614600  0.01383400  0.09388600  1
  Nb  Nb18  1  0.32532800  0.34337000  0.55403500  1
  Nb  Nb19  1  0.67467200  0.34337000  0.05403500  1
  Nb  Nb20  1  0.82936000  0.65714200  0.94550000  1
  Nb  Nb21  1  0.17064000  0.65714200  0.44550000  1
  As  As22  1  0.30635000  0.58950400  0.62054700  1
  As  As23  1  0.29764600  0.84403000  0.32464700  1
  As  As24  1  0.41448900  0.28321400  0.03277200  1
  As  As25  1  0.58551100  0.28321400  0.53277200  1
  As  As26  1  0.70235400  0.84403000  0.82464700  1
  As  As27  1  0.69365000  0.58950400  0.12054700  1
  As  As28  1  0.80630100  0.41076700  0.87867200  1
  As  As29  1  0.81199500  0.15457100  0.16618000  1
  As  As30  1  0.91507400  0.72248600  0.47714600  1
  As  As31  1  0.08492600  0.72248600  0.97714600  1
  As  As32  1  0.18800500  0.15457100  0.66618000  1
  As  As33  1  0.19369900  0.41076700  0.37867200  1
