# generated using pymatgen
data_Yb2Zr8O19
_symmetry_space_group_name_H-M   'P 1'
_cell_length_a   3.65677500
_cell_length_b   3.65677500
_cell_length_c   25.91534300
_cell_angle_alpha   90.00000000
_cell_angle_beta   90.00000000
_cell_angle_gamma   90.00000000
_symmetry_Int_Tables_number   1
_chemical_formula_structural   Yb2Zr8O19
_chemical_formula_sum   'Yb2 Zr8 O19'
_cell_volume   346.54005472
_cell_formula_units_Z   1
loop_
 _symmetry_equiv_pos_site_id
 _symmetry_equiv_pos_as_xyz
  1  'x, y, z'
loop_
 _atom_site_type_symbol
 _atom_site_label
 _atom_site_symmetry_multiplicity
 _atom_site_fract_x
 _atom_site_fract_y
 _atom_site_fract_z
 _atom_site_occupancy
  Yb  Yb0  1  0.00000000  0.50000000  0.94631100  1
  Yb  Yb1  1  0.50000000  0.00000000  0.05368900  1
  Zr  Zr2  1  0.00000000  0.50000000  0.14855100  1
  Zr  Zr3  1  0.50000000  0.00000000  0.24916500  1
  Zr  Zr4  1  0.00000000  0.50000000  0.34916400  1
  Zr  Zr5  1  0.50000000  0.00000000  0.44925600  1
  Zr  Zr6  1  0.00000000  0.50000000  0.55074400  1
  Zr  Zr7  1  0.50000000  0.00000000  0.65083600  1
  Zr  Zr8  1  0.00000000  0.50000000  0.75083500  1
  Zr  Zr9  1  0.50000000  0.00000000  0.85144900  1
  O  O10  1  0.50000000  0.50000000  0.40067600  1
  O  O11  1  0.00000000  0.00000000  0.50000000  1
  O  O12  1  0.50000000  0.50000000  0.59932400  1
  O  O13  1  0.00000000  0.00000000  0.69822300  1
  O  O14  1  0.50000000  0.50000000  0.79820800  1
  O  O15  1  0.00000000  0.00000000  0.89389400  1
  O  O16  1  0.50000000  0.50000000  0.89776300  1
  O  O17  1  0.00000000  0.00000000  0.00000000  1
  O  O18  1  0.00000000  0.00000000  0.10610600  1
  O  O19  1  0.50000000  0.50000000  0.10223700  1
  O  O20  1  0.50000000  0.50000000  0.20179200  1
  O  O21  1  0.00000000  0.00000000  0.20142500  1
  O  O22  1  0.00000000  0.00000000  0.30177700  1
  O  O23  1  0.50000000  0.50000000  0.30120700  1
  O  O24  1  0.00000000  0.00000000  0.39877800  1
  O  O25  1  0.50000000  0.50000000  0.50000000  1
  O  O26  1  0.00000000  0.00000000  0.60122200  1
  O  O27  1  0.50000000  0.50000000  0.69879300  1
  O  O28  1  0.00000000  0.00000000  0.79857500  1
