# generated using pymatgen
data_Yb10Ti6O27
_symmetry_space_group_name_H-M   'P 1'
_cell_length_a   7.34299000
_cell_length_b   7.44749126
_cell_length_c   11.82318453
_cell_angle_alpha   101.06475263
_cell_angle_beta   90.83384132
_cell_angle_gamma   119.06076060
_symmetry_Int_Tables_number   1
_chemical_formula_structural   Yb10Ti6O27
_chemical_formula_sum   'Yb10 Ti6 O27'
_cell_volume   550.27180366
_cell_formula_units_Z   1
loop_
 _symmetry_equiv_pos_site_id
 _symmetry_equiv_pos_as_xyz
  1  'x, y, z'
loop_
 _atom_site_type_symbol
 _atom_site_label
 _atom_site_symmetry_multiplicity
 _atom_site_fract_x
 _atom_site_fract_y
 _atom_site_fract_z
 _atom_site_occupancy
  Yb  Yb0  1  0.98042300  0.04186300  0.04945700  1
  Yb  Yb1  1  0.02877600  0.56927800  0.01550800  1
  Yb  Yb2  1  0.69152000  0.38581400  0.75404500  1
  Yb  Yb3  1  0.16076500  0.38947500  0.77440400  1
  Yb  Yb4  1  0.20714200  0.91757200  0.73908800  1
  Yb  Yb5  1  0.53171000  0.08104900  0.98189400  1
  Yb  Yb6  1  0.49235000  0.45274800  0.47092200  1
  Yb  Yb7  1  0.21528400  0.48841900  0.26559400  1
  Yb  Yb8  1  0.70752700  0.94694900  0.73151700  1
  Yb  Yb9  1  0.74987500  0.00467500  0.28837600  1
  Ti  Ti10  1  0.47359200  0.50216600  0.00635900  1
  Ti  Ti11  1  0.02376900  0.50655900  0.52457200  1
  Ti  Ti12  1  0.40818800  0.92848800  0.48961800  1
  Ti  Ti13  1  0.76737500  0.41042300  0.22153100  1
  Ti  Ti14  1  0.03492400  0.06043900  0.53040100  1
  Ti  Ti15  1  0.27395100  0.03106200  0.24281400  1
  O  O16  1  0.84305600  0.25727400  0.85921600  1
  O  O17  1  0.50553500  0.04572000  0.65146500  1
  O  O18  1  0.83264300  0.68489400  0.91741100  1
  O  O19  1  0.02260000  0.05040500  0.68315200  1
  O  O20  1  0.17212700  0.35894700  0.56997900  1
  O  O21  1  0.40302600  0.29778000  0.86202900  1
  O  O22  1  0.08026900  0.12211200  0.24601500  1
  O  O23  1  0.30216400  0.11514300  0.46269300  1
  O  O24  1  0.35736400  0.68304600  0.92992400  1
  O  O25  1  0.02110100  0.56221800  0.70048900  1
  O  O26  1  0.42669000  0.77380000  0.82812100  1
  O  O27  1  0.33715700  0.64424800  0.45706500  1
  O  O28  1  0.48672500  0.31501100  0.27699200  1
  O  O29  1  0.75868100  0.47219600  0.57389000  1
  O  O30  1  0.76903100  0.17605300  0.13473300  1
  O  O31  1  0.90424700  0.37040700  0.36535300  1
  O  O32  1  0.64559200  0.41817800  0.07279700  1
  O  O33  1  0.78481100  0.65524900  0.36622800  1
  O  O34  1  0.66512000  0.77550200  0.10043700  1
  O  O35  1  0.88789200  0.83317600  0.84980100  1
  O  O36  1  0.76485400  0.01154100  0.49523200  1
  O  O37  1  0.93536800  0.84530400  0.36478200  1
  O  O38  1  0.02204300  0.61867200  0.20239600  1
  O  O39  1  0.22754200  0.40788600  0.06652800  1
  O  O40  1  0.12364000  0.79709100  0.54093500  1
  O  O41  1  0.41685200  0.90845300  0.31595600  1
  O  O42  1  0.24420100  0.95771400  0.08278300  1
