data_image0
_chemical_formula_structural       Ga4Nd2Ni2
_chemical_formula_sum              "Ga4 Nd2 Ni2"
_cell_length_a       4.16456
_cell_length_b       4.2062
_cell_length_c       9.02474
_cell_angle_alpha    76.5241
_cell_angle_beta     90
_cell_angle_gamma    90

_space_group_name_H-M_alt    "P 1"
_space_group_IT_number       1

loop_
  _space_group_symop_operation_xyz
  'x, y, z'

loop_
  _atom_site_type_symbol
  _atom_site_label
  _atom_site_symmetry_multiplicity
  _atom_site_fract_x
  _atom_site_fract_y
  _atom_site_fract_z
  _atom_site_occupancy
  Ga  Ga1       1.0  0.50000  0.00000  0.00000  1.0000
  Ga  Ga2       1.0  0.00000  0.50000  0.00000  1.0000
  Ga  Ga3       1.0  0.50000  0.29100  0.41800  1.0000
  Ga  Ga4       1.0  0.50000  0.70900  0.58200  1.0000
  Nd  Nd1       1.0  0.00000  0.85800  0.28300  1.0000
  Nd  Nd2       1.0  0.00000  0.14200  0.71700  1.0000
  Ni  Ni1       1.0  0.50000  0.42700  0.14600  1.0000
  Ni  Ni2       1.0  0.50000  0.57300  0.85400  1.0000
