# generated using pymatgen
data_Ca3Yb2Zr3Ti8O28
_symmetry_space_group_name_H-M   'P 1'
_cell_length_a   8.66054000
_cell_length_b   8.84333007
_cell_length_c   9.01466087
_cell_angle_alpha   94.92165522
_cell_angle_beta   95.56652546
_cell_angle_gamma   116.18275074
_symmetry_Int_Tables_number   1
_chemical_formula_structural   Ca3Yb2Zr3Ti8O28
_chemical_formula_sum   'Ca3 Yb2 Zr3 Ti8 O28'
_cell_volume   610.22577928
_cell_formula_units_Z   1
loop_
 _symmetry_equiv_pos_site_id
 _symmetry_equiv_pos_as_xyz
  1  'x, y, z'
loop_
 _atom_site_type_symbol
 _atom_site_label
 _atom_site_symmetry_multiplicity
 _atom_site_fract_x
 _atom_site_fract_y
 _atom_site_fract_z
 _atom_site_occupancy
  Ca  Ca0  1  0.77357700  0.27754600  0.02002800  1
  Ca  Ca1  1  0.12661100  0.29655400  0.39390300  1
  Ca  Ca2  1  0.15360100  0.55264000  0.91723200  1
  Yb  Yb3  1  0.71211000  0.29670400  0.49461200  1
  Yb  Yb4  1  0.31732500  0.02241100  0.81946500  1
  Zr  Zr5  1  0.75830300  0.96870700  0.32837700  1
  Zr  Zr6  1  0.45815100  0.41599700  0.13659700  1
  Zr  Zr7  1  0.82638600  0.69546700  0.82774300  1
  Ti  Ti8  1  0.35722500  0.04098900  0.18592500  1
  Ti  Ti9  1  0.46165400  0.37725100  0.69301600  1
  Ti  Ti10  1  0.00637500  0.02165600  0.10179700  1
  Ti  Ti11  1  0.33439100  0.65984300  0.58454300  1
  Ti  Ti12  1  0.36539100  0.72004000  0.23853100  1
  Ti  Ti13  1  0.98768000  0.07402300  0.68153600  1
  Ti  Ti14  1  0.62987700  0.63549500  0.46798700  1
  Ti  Ti15  1  0.55524600  0.83906800  0.89121300  1
  O  O16  1  0.20381900  0.19551100  0.64518900  1
  O  O17  1  0.16116200  0.94421700  0.02489200  1
  O  O18  1  0.51090400  0.20782400  0.66028600  1
  O  O19  1  0.60811900  0.04275900  0.85914000  1
  O  O20  1  0.48478100  0.45522200  0.90036800  1
  O  O21  1  0.63225100  0.45433400  0.32955800  1
  O  O22  1  0.59040200  0.69607700  0.24538800  1
  O  O23  1  0.48760100  0.20525100  0.05248000  1
  O  O24  1  0.88066700  0.15472800  0.51535400  1
  O  O25  1  0.06929800  0.16576700  0.90583800  1
  O  O26  1  0.97531500  0.25247000  0.83341500  1
  O  O27  1  0.57768700  0.07160600  0.29701300  1
  O  O28  1  0.89469600  0.53886900  0.92901000  1
  O  O29  1  0.90112800  0.16349300  0.18566000  1
  O  O30  1  0.70419500  0.52247500  0.62772700  1
  O  O31  1  0.24952700  0.48925400  0.15538800  1
  O  O32  1  0.01339400  0.88059000  0.74417800  1
  O  O33  1  0.27703800  0.20420700  0.23607400  1
  O  O34  1  0.96842500  0.93317300  0.27128900  1
  O  O35  1  0.11958100  0.53664800  0.49747600  1
  O  O36  1  0.30763100  0.75170000  0.77023900  1
  O  O37  1  0.39405900  0.47318900  0.52179800  1
  O  O38  1  0.58726400  0.71971600  0.72247000  1
  O  O39  1  0.41766300  0.80580000  0.05487500  1
  O  O40  1  0.24244000  0.83536700  0.27083800  1
  O  O41  1  0.47796400  0.78304600  0.45194200  1
  O  O42  1  0.78139900  0.85426000  0.98687300  1
  O  O43  1  0.81368500  0.84606000  0.51273800  1
