# generated using pymatgen
data_Na3Al2P2O8F3
_symmetry_space_group_name_H-M   'P 1'
_cell_length_a   10.44684400
_cell_length_b   6.27212100
_cell_length_c   6.28109142
_cell_angle_alpha   89.83699060
_cell_angle_beta   90.00000000
_cell_angle_gamma   90.00000000
_symmetry_Int_Tables_number   1
_chemical_formula_structural   Na3Al2P2O8F3
_chemical_formula_sum   'Na6 Al4 P4 O16 F6'
_cell_volume   411.55974976
_cell_formula_units_Z   2
loop_
 _symmetry_equiv_pos_site_id
 _symmetry_equiv_pos_as_xyz
  1  'x, y, z'
loop_
 _atom_site_type_symbol
 _atom_site_label
 _atom_site_symmetry_multiplicity
 _atom_site_fract_x
 _atom_site_fract_y
 _atom_site_fract_z
 _atom_site_occupancy
  Na  Na0  1  0.00000000  0.85483800  0.75191100  1
  Na  Na1  1  0.50000000  0.35351200  0.24771400  1
  Na  Na2  1  0.00000000  0.23309300  0.20467700  1
  Na  Na3  1  0.00000000  0.76651700  0.21943100  1
  Na  Na4  1  0.50000000  0.75076600  0.64841200  1
  Na  Na5  1  0.50000000  0.27578300  0.72541400  1
  Al  Al6  1  0.81970100  0.49562200  0.50679000  1
  Al  Al7  1  0.31997300  0.99353700  0.00698700  1
  Al  Al8  1  0.68002700  0.99353700  0.00698700  1
  Al  Al9  1  0.18029900  0.49562200  0.50679000  1
  P  P10  1  0.74949000  0.00402900  0.49769600  1
  P  P11  1  0.24881300  0.50309400  0.99814600  1
  P  P12  1  0.75118700  0.50309400  0.99814600  1
  P  P13  1  0.25051000  0.00402900  0.49769600  1
  O  O14  1  0.65950200  0.00856100  0.30217200  1
  O  O15  1  0.84052800  0.19628800  0.49828300  1
  O  O16  1  0.83611300  0.80231800  0.49781100  1
  O  O17  1  0.66270800  0.00514500  0.69674500  1
  O  O18  1  0.16024400  0.51014300  0.80101400  1
  O  O19  1  0.83975600  0.51014300  0.80101400  1
  O  O20  1  0.33966100  0.69544300  0.00031200  1
  O  O21  1  0.33515900  0.30101900  0.99848500  1
  O  O22  1  0.66033900  0.69544300  0.00031200  1
  O  O23  1  0.66484100  0.30101900  0.99848500  1
  O  O24  1  0.16167700  0.50261200  0.19730700  1
  O  O25  1  0.83832300  0.50261200  0.19730700  1
  O  O26  1  0.34049800  0.00856100  0.30217200  1
  O  O27  1  0.15947200  0.19628800  0.49828300  1
  O  O28  1  0.16388700  0.80231800  0.49781100  1
  O  O29  1  0.33729200  0.00514500  0.69674500  1
  F  F30  1  0.00000000  0.50572600  0.49369500  1
  F  F31  1  0.64369100  0.49543800  0.50451400  1
  F  F32  1  0.50000000  0.00612200  0.99331200  1
  F  F33  1  0.14377300  0.99537700  0.00877100  1
  F  F34  1  0.85622700  0.99537700  0.00877100  1
  F  F35  1  0.35630900  0.49543800  0.50451400  1
