# generated using pymatgen
data_Sr18ThCl40
_symmetry_space_group_name_H-M   'P 1'
_cell_length_a   4.97431973
_cell_length_b   4.97431972
_cell_length_c   94.93835306
_cell_angle_alpha   60.14490021
_cell_angle_beta   60.14490032
_cell_angle_gamma   59.99889787
_symmetry_Int_Tables_number   1
_chemical_formula_structural   Sr18ThCl40
_chemical_formula_sum   'Sr18 Th1 Cl40'
_cell_volume   1664.70838848
_cell_formula_units_Z   1
loop_
 _symmetry_equiv_pos_site_id
 _symmetry_equiv_pos_as_xyz
  1  'x, y, z'
loop_
 _atom_site_type_symbol
 _atom_site_label
 _atom_site_symmetry_multiplicity
 _atom_site_fract_x
 _atom_site_fract_y
 _atom_site_fract_z
 _atom_site_occupancy
  Sr  Sr0  1  0.99624873  0.99624873  0.05322493  1
  Sr  Sr1  1  0.99729564  0.99729564  0.10568865  1
  Sr  Sr2  1  0.99995775  0.99995775  0.15790048  1
  Sr  Sr3  1  -0.00000508  -0.00000508  0.21052542  1
  Sr  Sr4  1  0.99999561  0.99999561  0.26315863  1
  Sr  Sr5  1  0.99999630  0.99999630  0.31579259  1
  Sr  Sr6  1  0.99998593  0.99998593  0.36842110  1
  Sr  Sr7  1  0.99998991  0.99998991  0.42105260  1
  Sr  Sr8  1  0.00000036  0.00000036  0.47368612  1
  Sr  Sr9  1  -0.00000036  -0.00000036  0.52631388  1
  Sr  Sr10  1  0.00001009  0.00001009  0.57894740  1
  Sr  Sr11  1  0.00001407  0.00001407  0.63157890  1
  Sr  Sr12  1  0.00000370  0.00000370  0.68420741  1
  Sr  Sr13  1  0.00000439  0.00000439  0.73684137  1
  Sr  Sr14  1  0.00000508  0.00000508  0.78947458  1
  Sr  Sr15  1  0.00004225  0.00004225  0.84209952  1
  Sr  Sr16  1  0.00270436  0.00270436  0.89431135  1
  Sr  Sr17  1  0.00375127  0.00375127  0.94677507  1
  Th  Th18  1  0.00000000  0.00000000  0.00000000  1
  Cl  Cl19  1  0.24826882  0.24826882  0.01342820  1
  Cl  Cl20  1  0.52039185  0.52039185  0.02309201  1
  Cl  Cl21  1  0.24156010  0.24156010  0.06712627  1
  Cl  Cl22  1  0.75316349  0.75316349  0.03897218  1
  Cl  Cl23  1  0.24842514  0.24842514  0.11867108  1
  Cl  Cl24  1  0.74875953  0.74875953  0.09230402  1
  Cl  Cl25  1  0.24955256  0.24955256  0.17112301  1
  Cl  Cl26  1  0.74935970  0.74935970  0.14484030  1
  Cl  Cl27  1  0.24954612  0.24954612  0.22375464  1
  Cl  Cl28  1  0.75045277  0.75045277  0.19729768  1
  Cl  Cl29  1  0.24955157  0.24955157  0.27638627  1
  Cl  Cl30  1  0.75043960  0.75043960  0.24993208  1
  Cl  Cl31  1  0.24957376  0.24957376  0.32901378  1
  Cl  Cl32  1  0.75047674  0.75047674  0.30255817  1
  Cl  Cl33  1  0.24951436  0.24951436  0.38164909  1
  Cl  Cl34  1  0.24952617  0.24952617  0.43428277  1
  Cl  Cl35  1  0.75045455  0.75045455  0.35518961  1
  Cl  Cl36  1  0.24954345  0.24954345  0.48691288  1
  Cl  Cl37  1  0.75042774  0.75042774  0.40782589  1
  Cl  Cl38  1  0.75044909  0.75044909  0.46045772  1
  Cl  Cl39  1  0.24955091  0.24955091  0.53954228  1
  Cl  Cl40  1  0.75045655  0.75045655  0.51308712  1
  Cl  Cl41  1  0.24957226  0.24957226  0.59217411  1
  Cl  Cl42  1  0.75047383  0.75047383  0.56571723  1
  Cl  Cl43  1  0.24954545  0.24954545  0.64481039  1
  Cl  Cl44  1  0.75048564  0.75048564  0.61835091  1
  Cl  Cl45  1  0.24952326  0.24952326  0.69744183  1
  Cl  Cl46  1  0.24956040  0.24956040  0.75006792  1
  Cl  Cl47  1  0.75042624  0.75042624  0.67098622  1
  Cl  Cl48  1  0.75044843  0.75044843  0.72361373  1
  Cl  Cl49  1  0.24954723  0.24954723  0.80270232  1
  Cl  Cl50  1  0.25064030  0.25064030  0.85515970  1
  Cl  Cl51  1  0.75045388  0.75045388  0.77624536  1
  Cl  Cl52  1  0.25124047  0.25124047  0.90769598  1
  Cl  Cl53  1  0.75044744  0.75044744  0.82887699  1
  Cl  Cl54  1  0.24683651  0.24683651  0.96102782  1
  Cl  Cl55  1  0.75157486  0.75157486  0.88132892  1
  Cl  Cl56  1  0.47960815  0.47960815  0.97690799  1
  Cl  Cl57  1  0.75843990  0.75843990  0.93287373  1
  Cl  Cl58  1  0.75173118  0.75173118  0.98657180  1
