# generated using pymatgen
data_Yb14Ti10O41
_symmetry_space_group_name_H-M   'P 1'
_cell_length_a   7.14308985
_cell_length_b   7.14308985
_cell_length_c   18.07168136
_cell_angle_alpha   89.94295476
_cell_angle_beta   89.94295476
_cell_angle_gamma   63.26245980
_symmetry_Int_Tables_number   1
_chemical_formula_structural   Yb14Ti10O41
_chemical_formula_sum   'Yb14 Ti10 O41'
_cell_volume   823.49183553
_cell_formula_units_Z   1
loop_
 _symmetry_equiv_pos_site_id
 _symmetry_equiv_pos_as_xyz
  1  'x, y, z'
loop_
 _atom_site_type_symbol
 _atom_site_label
 _atom_site_symmetry_multiplicity
 _atom_site_fract_x
 _atom_site_fract_y
 _atom_site_fract_z
 _atom_site_occupancy
  Yb  Yb0  1  0.03439700  0.03439700  0.01810300  1
  Yb  Yb1  1  0.34641400  0.85669900  0.81651800  1
  Yb  Yb2  1  0.51147100  0.51147100  0.01774700  1
  Yb  Yb3  1  0.33138000  0.33138000  0.84142600  1
  Yb  Yb4  1  0.35061400  0.35061400  0.33428900  1
  Yb  Yb5  1  0.53195500  0.96659300  0.49268600  1
  Yb  Yb6  1  0.84360800  0.84360800  0.83033100  1
  Yb  Yb7  1  0.96659300  0.53195500  0.49268600  1
  Yb  Yb8  1  0.15447800  0.15447800  0.66155700  1
  Yb  Yb9  1  0.99670300  0.99670300  0.48922000  1
  Yb  Yb10  1  0.85669900  0.34641400  0.81651800  1
  Yb  Yb11  1  0.14490200  0.65044300  0.16771100  1
  Yb  Yb12  1  0.65044300  0.14490200  0.16771100  1
  Yb  Yb13  1  0.83739800  0.83739800  0.32808600  1
  Ti  Ti14  1  0.51624200  0.02684000  0.99976800  1
  Ti  Ti15  1  0.65028500  0.65028500  0.66726500  1
  Ti  Ti16  1  0.19382700  0.64898100  0.68014700  1
  Ti  Ti17  1  0.02684000  0.51624200  0.99976800  1
  Ti  Ti18  1  0.32665700  0.84887300  0.34204400  1
  Ti  Ti19  1  0.84887300  0.32665700  0.34204400  1
  Ti  Ti20  1  0.50278100  0.50278100  0.51770900  1
  Ti  Ti21  1  0.64898100  0.19382700  0.68014700  1
  Ti  Ti22  1  0.63200100  0.63200100  0.21100600  1
  Ti  Ti23  1  0.15663200  0.15663200  0.16477700  1
  O  O24  1  0.68026100  0.68026100  0.76789500  1
  O  O25  1  0.83076100  0.34506900  0.94518600  1
  O  O26  1  0.66078200  0.17779500  0.78060800  1
  O  O27  1  0.47536800  0.47536800  0.63091600  1
  O  O28  1  0.34506900  0.83076100  0.94518600  1
  O  O29  1  0.31443600  0.31443600  0.47087200  1
  O  O30  1  0.32547100  0.32547100  0.69728900  1
  O  O31  1  0.53354200  0.98227700  0.89374500  1
  O  O32  1  0.60663700  0.95980300  0.64100100  1
  O  O33  1  0.31526300  0.31526300  0.97129700  1
  O  O34  1  0.17779500  0.66078200  0.78060800  1
  O  O35  1  0.98227700  0.53354200  0.89374500  1
  O  O36  1  0.17996400  0.17996400  0.77904600  1
  O  O37  1  0.36384200  0.73782000  0.44274400  1
  O  O38  1  0.34680300  0.82044800  0.68262900  1
  O  O39  1  0.95980300  0.60663700  0.64100100  1
  O  O40  1  0.05547700  0.05547700  0.36926900  1
  O  O41  1  0.20178900  0.66905800  0.53726900  1
  O  O42  1  0.00570000  0.00570000  0.14844500  1
  O  O43  1  0.19499600  0.69378100  0.29209800  1
  O  O44  1  0.94733300  0.94733300  0.65676400  1
  O  O45  1  0.73782000  0.36384200  0.44274400  1
  O  O46  1  0.01646300  0.01646300  0.88743400  1
  O  O47  1  0.82044800  0.34680300  0.68262900  1
  O  O48  1  0.66905800  0.20178900  0.53726900  1
  O  O49  1  0.83873900  0.83873900  0.44909300  1
  O  O50  1  0.02576100  0.35474200  0.08324900  1
  O  O51  1  0.00920700  0.46771600  0.36638600  1
  O  O52  1  0.77875000  0.77875000  0.19786500  1
  O  O53  1  0.69378100  0.19499600  0.29209800  1
  O  O54  1  0.71958700  0.71958700  0.01259500  1
  O  O55  1  0.89824900  0.35129000  0.23130700  1
  O  O56  1  0.61054800  0.61054800  0.31647800  1
  O  O57  1  0.46771600  0.00920700  0.36638600  1
  O  O58  1  0.64496100  0.64496100  0.55256600  1
  O  O59  1  0.35474200  0.02576100  0.08324900  1
  O  O60  1  0.35129000  0.89824900  0.23130700  1
  O  O61  1  0.51992300  0.51992300  0.14306000  1
  O  O62  1  0.68250200  0.13474500  0.03722700  1
  O  O63  1  0.29552600  0.29552600  0.21188400  1
  O  O64  1  0.13474500  0.68250200  0.03722700  1
