# generated using pymatgen
data_Ta2O5
_symmetry_space_group_name_H-M   'P 1'
_cell_length_a   9.51116184
_cell_length_b   9.51116184
_cell_length_c   5.98888130
_cell_angle_alpha   78.81016238
_cell_angle_beta   78.81016238
_cell_angle_gamma   19.01218532
_symmetry_Int_Tables_number   1
_chemical_formula_structural   Ta2O5
_chemical_formula_sum   'Ta2 O5'
_cell_volume   173.04095726
_cell_formula_units_Z   1
loop_
 _symmetry_equiv_pos_site_id
 _symmetry_equiv_pos_as_xyz
  1  'x, y, z'
loop_
 _atom_site_type_symbol
 _atom_site_label
 _atom_site_symmetry_multiplicity
 _atom_site_fract_x
 _atom_site_fract_y
 _atom_site_fract_z
 _atom_site_occupancy
  Ta  Ta0  1  0.37150800  0.37150800  0.93051400  1
  Ta  Ta1  1  0.81499500  0.81499500  0.50238400  1
  O  O2  1  0.86260500  0.86260500  0.17800500  1
  O  O3  1  0.38103000  0.38103000  0.56633500  1
  O  O4  1  0.25396300  0.25396300  0.47908200  1
  O  O5  1  0.80894400  0.80894400  0.84521900  1
  O  O6  1  0.46529200  0.46529200  0.87346100  1
