# generated using pymatgen
data_NaAlSi2H2O7
_symmetry_space_group_name_H-M   'P 1'
_cell_length_a   12.01084483
_cell_length_b   12.01084483
_cell_length_c   13.74691970
_cell_angle_alpha   55.31687960
_cell_angle_beta   55.31687960
_cell_angle_gamma   70.67360242
_symmetry_Int_Tables_number   1
_chemical_formula_structural   NaAlSi2H2O7
_chemical_formula_sum   'Na8 Al8 Si16 H16 O56'
_cell_volume   1340.91489655
_cell_formula_units_Z   8
loop_
 _symmetry_equiv_pos_site_id
 _symmetry_equiv_pos_as_xyz
  1  'x, y, z'
loop_
 _atom_site_type_symbol
 _atom_site_label
 _atom_site_symmetry_multiplicity
 _atom_site_fract_x
 _atom_site_fract_y
 _atom_site_fract_z
 _atom_site_occupancy
  Na  Na0  1  0.08744600  0.56851000  0.67704500  1
  Na  Na1  1  0.07404700  0.92595300  0.75000000  1
  Na  Na2  1  0.43149000  0.91255400  0.82295500  1
  Na  Na3  1  0.41963800  0.58036200  0.25000000  1
  Na  Na4  1  0.58036200  0.41963800  0.75000000  1
  Na  Na5  1  0.56851000  0.08744600  0.17704500  1
  Na  Na6  1  0.92595300  0.07404700  0.25000000  1
  Na  Na7  1  0.91255400  0.43149000  0.32295500  1
  Al  Al8  1  0.21348000  0.02449900  0.03519500  1
  Al  Al9  1  0.02449900  0.21348000  0.53519500  1
  Al  Al10  1  0.27484100  0.46039600  0.79941100  1
  Al  Al11  1  0.53960400  0.72515900  0.70058900  1
  Al  Al12  1  0.46039600  0.27484100  0.29941100  1
  Al  Al13  1  0.72515900  0.53960400  0.20058900  1
  Al  Al14  1  0.97550100  0.78652000  0.46480500  1
  Al  Al15  1  0.78652000  0.97550100  0.96480500  1
  Si  Si16  1  0.08105000  0.74585400  0.21469400  1
  Si  Si17  1  0.02535400  0.27513800  0.93582500  1
  Si  Si18  1  0.20914700  0.46511300  0.25721100  1
  Si  Si19  1  0.46511300  0.20914700  0.75721100  1
  Si  Si20  1  0.26130300  0.59799600  0.95448100  1
  Si  Si21  1  0.25414600  0.91895000  0.28530600  1
  Si  Si22  1  0.59799600  0.26130300  0.45448100  1
  Si  Si23  1  0.27513800  0.02535400  0.43582500  1
  Si  Si24  1  0.72486200  0.97464600  0.56417500  1
  Si  Si25  1  0.40200400  0.73869700  0.54551900  1
  Si  Si26  1  0.74585400  0.08105000  0.71469400  1
  Si  Si27  1  0.73869700  0.40200400  0.04551900  1
  Si  Si28  1  0.53488700  0.79085300  0.24278900  1
  Si  Si29  1  0.79085300  0.53488700  0.74278900  1
  Si  Si30  1  0.97464600  0.72486200  0.06417500  1
  Si  Si31  1  0.91895000  0.25414600  0.78530600  1
  H  H32  1  0.05050400  0.21360000  0.26295200  1
  H  H33  1  0.35427200  0.75711400  0.05969200  1
  H  H34  1  0.21360000  0.05050400  0.76295200  1
  H  H35  1  0.33054800  0.54252100  0.50649100  1
  H  H36  1  0.10857600  0.77655400  0.67019200  1
  H  H37  1  0.45747900  0.66945200  0.99350900  1
  H  H38  1  0.24288600  0.64572800  0.44030800  1
  H  H39  1  0.22344600  0.89142400  0.82980800  1
  H  H40  1  0.77655400  0.10857600  0.17019200  1
  H  H41  1  0.75711400  0.35427200  0.55969200  1
  H  H42  1  0.54252100  0.33054800  0.00649100  1
  H  H43  1  0.89142400  0.22344600  0.32980800  1
  H  H44  1  0.66945200  0.45747900  0.49350900  1
  H  H45  1  0.78640000  0.94949600  0.23704800  1
  H  H46  1  0.64572800  0.24288600  0.94030800  1
  H  H47  1  0.94949600  0.78640000  0.73704800  1
  O  O48  1  0.20863900  0.01253800  0.17071000  1
  O  O49  1  0.07301000  0.12680000  0.02340900  1
  O  O50  1  0.08382000  0.36062300  0.37707400  1
  O  O51  1  0.12193800  0.39761600  0.86034000  1
  O  O52  1  0.16783900  0.60621700  0.26583300  1
  O  O53  1  0.19483900  0.86028100  0.07498400  1
  O  O54  1  0.01742000  0.28298100  0.81612800  1
  O  O55  1  0.97608400  0.26157200  0.24392100  1
  O  O56  1  0.13971900  0.80516100  0.42501600  1
  O  O57  1  0.13142500  0.70658400  0.95316000  1
  O  O58  1  0.01253800  0.20863900  0.67071000  1
  O  O59  1  0.36062300  0.08382000  0.87707400  1
  O  O60  1  0.23095500  0.50296800  0.11228300  1
  O  O61  1  0.27267900  0.54942700  0.47409400  1
  O  O62  1  0.45057300  0.72732100  0.02590600  1
  O  O63  1  0.26157200  0.97608400  0.74392100  1
  O  O64  1  0.27875100  0.50325100  0.89881100  1
  O  O65  1  0.50296800  0.23095500  0.61228300  1
  O  O66  1  0.39322700  0.69286500  0.86170600  1
  O  O67  1  0.12680000  0.07301000  0.52340900  1
  O  O68  1  0.39378300  0.83216100  0.23416700  1
  O  O69  1  0.34621300  0.40889900  0.26710200  1
  O  O70  1  0.71701900  0.98258000  0.68387200  1
  O  O71  1  0.60238400  0.87806200  0.63966000  1
  O  O72  1  0.50325100  0.27875100  0.39881100  1
  O  O73  1  0.29341600  0.86857500  0.54684000  1
  O  O74  1  0.30713500  0.60677300  0.63829400  1
  O  O75  1  0.40889900  0.34621300  0.76710200  1
  O  O76  1  0.59110100  0.65378700  0.23289800  1
  O  O77  1  0.69286500  0.39322700  0.36170600  1
  O  O78  1  0.70658400  0.13142500  0.45316000  1
  O  O79  1  0.49674900  0.72124900  0.60118900  1
  O  O80  1  0.39761600  0.12193800  0.36034000  1
  O  O81  1  0.28298100  0.01742000  0.31612800  1
  O  O82  1  0.65378700  0.59110100  0.73289800  1
  O  O83  1  0.60621700  0.16783900  0.76583300  1
  O  O84  1  0.87320000  0.92699000  0.47659100  1
  O  O85  1  0.60677300  0.30713500  0.13829400  1
  O  O86  1  0.49703200  0.76904500  0.38771700  1
  O  O87  1  0.72124900  0.49674900  0.10118900  1
  O  O88  1  0.73842800  0.02391600  0.25607900  1
  O  O89  1  0.54942700  0.27267900  0.97409400  1
  O  O90  1  0.72732100  0.45057300  0.52590600  1
  O  O91  1  0.76904500  0.49703200  0.88771700  1
  O  O92  1  0.63937700  0.91618000  0.12292600  1
  O  O93  1  0.98746200  0.79136100  0.32929000  1
  O  O94  1  0.86857500  0.29341600  0.04684000  1
  O  O95  1  0.86028100  0.19483900  0.57498400  1
  O  O96  1  0.02391600  0.73842800  0.75607900  1
  O  O97  1  0.98258000  0.71701900  0.18387200  1
  O  O98  1  0.80516100  0.13971900  0.92501600  1
  O  O99  1  0.83216100  0.39378300  0.73416700  1
  O  O100  1  0.87806200  0.60238400  0.13966000  1
  O  O101  1  0.91618000  0.63937700  0.62292600  1
  O  O102  1  0.92699000  0.87320000  0.97659100  1
  O  O103  1  0.79136100  0.98746200  0.82929000  1
