# generated using pymatgen
data_NdPb6F15
_symmetry_space_group_name_H-M   'P 1'
_cell_length_a   24.60887965
_cell_length_b   24.60887965
_cell_length_c   24.94438892
_cell_angle_alpha   9.66001484
_cell_angle_beta   9.66001484
_cell_angle_gamma   9.82762691
_symmetry_Int_Tables_number   1
_chemical_formula_structural   NdPb6F15
_chemical_formula_sum   'Nd1 Pb6 F15'
_cell_volume   373.41547497
_cell_formula_units_Z   1
loop_
 _symmetry_equiv_pos_site_id
 _symmetry_equiv_pos_as_xyz
  1  'x, y, z'
loop_
 _atom_site_type_symbol
 _atom_site_label
 _atom_site_symmetry_multiplicity
 _atom_site_fract_x
 _atom_site_fract_y
 _atom_site_fract_z
 _atom_site_occupancy
  Nd  Nd0  1  0.40354000  0.40354000  0.35266800  1
  Pb  Pb1  1  0.97590500  0.97590500  0.06328100  1
  Pb  Pb2  1  0.58043100  0.58043100  0.70434300  1
  Pb  Pb3  1  0.15237100  0.15237100  0.41817500  1
  Pb  Pb4  1  0.72004000  0.72004000  0.13968000  1
  Pb  Pb5  1  0.88135000  0.88135000  0.53180700  1
  Pb  Pb6  1  0.28783700  0.28783700  0.86136600  1
  F  F7  1  0.22707600  0.22707600  0.37434100  1
  F  F8  1  0.93991000  0.93991000  0.02028100  1
  F  F9  1  0.79491600  0.79491600  0.09808700  1
  F  F10  1  0.51378000  0.51378000  0.73427100  1
  F  F11  1  0.36278500  0.36278500  0.81972500  1
  F  F12  1  0.07930200  0.07930200  0.45837600  1
  F  F13  1  0.93241100  0.93241100  0.53568800  1
  F  F14  1  0.64818500  0.64818500  0.17745500  1
  F  F15  1  0.47308600  0.47308600  0.31182900  1
  F  F16  1  0.03634800  0.03634800  0.03991600  1
  F  F17  1  0.21221300  0.21221300  0.91048900  1
  F  F18  1  0.08136100  0.08136100  0.04953000  1
  F  F19  1  0.73209900  0.73209900  0.69843700  1
  F  F20  1  0.62158200  0.62158200  0.74149900  1
  F  F21  1  0.33718900  0.33718900  0.38589800  1
