# generated using pymatgen
data_Cu7PSe6
_symmetry_space_group_name_H-M   'P 1'
_cell_length_a   10.11005200
_cell_length_b   10.14773893
_cell_length_c   10.17444567
_cell_angle_alpha   89.97532036
_cell_angle_beta   89.91297321
_cell_angle_gamma   89.87557543
_symmetry_Int_Tables_number   1
_chemical_formula_structural   Cu7PSe6
_chemical_formula_sum   'Cu28 P4 Se24'
_cell_volume   1043.83502966
_cell_formula_units_Z   4
loop_
 _symmetry_equiv_pos_site_id
 _symmetry_equiv_pos_as_xyz
  1  'x, y, z'
loop_
 _atom_site_type_symbol
 _atom_site_label
 _atom_site_symmetry_multiplicity
 _atom_site_fract_x
 _atom_site_fract_y
 _atom_site_fract_z
 _atom_site_occupancy
  Cu  Cu0  1  0.27204100  0.95659400  0.95339300  1
  Cu  Cu1  1  0.04600400  0.73119500  0.96552700  1
  Cu  Cu2  1  0.90000600  0.25911000  0.93268000  1
  Cu  Cu3  1  0.23833500  0.56682700  0.91055700  1
  Cu  Cu4  1  0.65512600  0.13833200  0.86675800  1
  Cu  Cu5  1  0.43407800  0.90262500  0.76580700  1
  Cu  Cu6  1  0.95169600  0.44721500  0.77537200  1
  Cu  Cu7  1  0.04185800  0.95387800  0.72706000  1
  Cu  Cu8  1  0.57260500  0.40546600  0.72717800  1
  Cu  Cu9  1  0.35707900  0.64133000  0.64174700  1
  Cu  Cu10  1  0.76921000  0.07573000  0.59088400  1
  Cu  Cu11  1  0.09323300  0.76376000  0.56588200  1
  Cu  Cu12  1  0.72426100  0.50726900  0.50628000  1
  Cu  Cu13  1  0.99494200  0.22449100  0.49061600  1
  Cu  Cu14  1  0.48492400  0.27567000  0.50119300  1
  Cu  Cu15  1  0.21930500  0.99877400  0.48820600  1
  Cu  Cu16  1  0.59882600  0.72938400  0.42317200  1
  Cu  Cu17  1  0.27177400  0.42388800  0.40226700  1
  Cu  Cu18  1  0.86330500  0.85444700  0.35261800  1
  Cu  Cu19  1  0.50021400  0.51253100  0.27566800  1
  Cu  Cu20  1  0.07326100  0.09049700  0.27748700  1
  Cu  Cu21  1  0.92737500  0.58847900  0.22241400  1
  Cu  Cu22  1  0.50394400  0.00966600  0.22492900  1
  Cu  Cu23  1  0.13866300  0.35647200  0.13664900  1
  Cu  Cu24  1  0.72231000  0.92576200  0.09136000  1
  Cu  Cu25  1  0.40555500  0.23470400  0.07589000  1
  Cu  Cu26  1  0.77802300  0.49599900  0.00785200  1
  Cu  Cu27  1  0.51288900  0.78188600  0.99874000  1
  P  P28  1  0.75476500  0.74750600  0.75356900  1
  P  P29  1  0.24387600  0.24604700  0.74718700  1
  P  P30  1  0.74654500  0.25275800  0.25300000  1
  P  P31  1  0.25254700  0.75357200  0.24660800  1
  Se  Se32  1  0.50544800  0.01802600  0.98985400  1
  Se  Se33  1  0.87330300  0.87372700  0.88718900  1
  Se  Se34  1  0.11184800  0.12506300  0.87441400  1
  Se  Se35  1  0.37628100  0.37203400  0.87329300  1
  Se  Se36  1  0.62450600  0.61175200  0.86901200  1
  Se  Se37  1  0.22654700  0.77035700  0.77309800  1
  Se  Se38  1  0.77122200  0.27174900  0.72684900  1
  Se  Se39  1  0.37225400  0.10929000  0.62907100  1
  Se  Se40  1  0.62779800  0.87514300  0.62237700  1
  Se  Se41  1  0.89026300  0.62513600  0.62853900  1
  Se  Se42  1  0.12654100  0.37495500  0.61307900  1
  Se  Se43  1  0.48757500  0.51116700  0.51095300  1
  Se  Se44  1  0.98211200  0.98778600  0.49365200  1
  Se  Se45  1  0.62859700  0.12682200  0.38979400  1
  Se  Se46  1  0.38879900  0.86910000  0.37513900  1
  Se  Se47  1  0.12493000  0.62185200  0.37171100  1
  Se  Se48  1  0.87437100  0.38965100  0.36810500  1
  Se  Se49  1  0.26787000  0.22812000  0.26921500  1
  Se  Se50  1  0.72999200  0.72697500  0.22420900  1
  Se  Se51  1  0.12673600  0.88984000  0.12821300  1
  Se  Se52  1  0.87434200  0.12055200  0.12815300  1
  Se  Se53  1  0.61119500  0.37048500  0.12435300  1
  Se  Se54  1  0.37354000  0.62807500  0.11076700  1
  Se  Se55  1  0.01415500  0.49608100  0.00480900  1
