# generated using pymatgen
data_TlPbCl3
_symmetry_space_group_name_H-M   'P 1'
_cell_length_a   12.10245801
_cell_length_b   11.68587727
_cell_length_c   11.57326289
_cell_angle_alpha   62.70674612
_cell_angle_beta   59.10192143
_cell_angle_gamma   58.19133245
_symmetry_Int_Tables_number   1
_chemical_formula_structural   TlPbCl3
_chemical_formula_sum   'Tl8 Pb8 Cl24'
_cell_volume   1153.25999934
_cell_formula_units_Z   8
loop_
 _symmetry_equiv_pos_site_id
 _symmetry_equiv_pos_as_xyz
  1  'x, y, z'
loop_
 _atom_site_type_symbol
 _atom_site_label
 _atom_site_symmetry_multiplicity
 _atom_site_fract_x
 _atom_site_fract_y
 _atom_site_fract_z
 _atom_site_occupancy
  Tl  Tl0  1  0.52574800  0.15539000  0.47425200  1
  Tl  Tl1  1  0.15539000  0.52574800  0.84461000  1
  Tl  Tl2  1  0.34870200  0.64957200  0.97491500  1
  Tl  Tl3  1  0.02508500  0.97318900  0.65129800  1
  Tl  Tl4  1  0.49735000  0.99595800  0.00404200  1
  Tl  Tl5  1  0.97318900  0.02508500  0.35042800  1
  Tl  Tl6  1  0.64957200  0.34870200  0.02681100  1
  Tl  Tl7  1  0.99595800  0.49735000  0.50265000  1
  Pb  Pb8  1  0.74720600  0.74720600  0.75279400  1
  Pb  Pb9  1  0.86575100  0.86575100  0.13424900  1
  Pb  Pb10  1  0.34216000  0.63858700  0.36141300  1
  Pb  Pb11  1  0.83932700  0.49235700  0.16067300  1
  Pb  Pb12  1  0.63858700  0.34216000  0.65784000  1
  Pb  Pb13  1  0.49235700  0.83932700  0.50764300  1
  Pb  Pb14  1  0.14967100  0.14967100  0.85032900  1
  Pb  Pb15  1  0.24720600  0.24720600  0.25279400  1
  Cl  Cl16  1  0.78522100  0.83999800  0.43867400  1
  Cl  Cl17  1  0.05899900  0.69966800  0.57324200  1
  Cl  Cl18  1  0.31346900  0.31346900  0.68653100  1
  Cl  Cl19  1  0.83999800  0.78522100  0.93610800  1
  Cl  Cl20  1  0.06389200  0.56132600  0.16000200  1
  Cl  Cl21  1  0.19740100  0.81470800  0.18529200  1
  Cl  Cl22  1  0.69966800  0.05899900  0.66809100  1
  Cl  Cl23  1  0.33190900  0.42675800  0.30033200  1
  Cl  Cl24  1  0.11103200  0.89008500  0.88896800  1
  Cl  Cl25  1  0.63660000  0.38420200  0.36340000  1
  Cl  Cl26  1  0.56132600  0.06389200  0.21477900  1
  Cl  Cl27  1  0.42675800  0.33190900  0.94100100  1
  Cl  Cl28  1  0.58578400  0.65539300  0.06556100  1
  Cl  Cl29  1  0.44144600  0.91978100  0.78216500  1
  Cl  Cl30  1  0.89008500  0.11103200  0.10991500  1
  Cl  Cl31  1  0.38420200  0.63660000  0.61579800  1
  Cl  Cl32  1  0.65539300  0.58578400  0.69326200  1
  Cl  Cl33  1  0.30673800  0.93443900  0.34460700  1
  Cl  Cl34  1  0.81470800  0.19740100  0.80259900  1
  Cl  Cl35  1  0.91978100  0.44144600  0.85660800  1
  Cl  Cl36  1  0.14339200  0.21783500  0.08021900  1
  Cl  Cl37  1  0.68666600  0.68666600  0.31333400  1
  Cl  Cl38  1  0.93443900  0.30673800  0.41421600  1
  Cl  Cl39  1  0.21783500  0.14339200  0.55855400  1
