# generated using pymatgen
data_Na5Ti7Al(PO4)12
_symmetry_space_group_name_H-M   'P 1'
_cell_length_a   8.84435303
_cell_length_b   8.84868656
_cell_length_c   17.69705918
_cell_angle_alpha   58.30121279
_cell_angle_beta   58.20834541
_cell_angle_gamma   58.25225359
_symmetry_Int_Tables_number   1
_chemical_formula_structural   Na5Ti7Al(PO4)12
_chemical_formula_sum   'Na5 Ti7 Al1 P12 O48'
_cell_volume   940.16227566
_cell_formula_units_Z   1
loop_
 _symmetry_equiv_pos_site_id
 _symmetry_equiv_pos_as_xyz
  1  'x, y, z'
loop_
 _atom_site_type_symbol
 _atom_site_label
 _atom_site_symmetry_multiplicity
 _atom_site_fract_x
 _atom_site_fract_y
 _atom_site_fract_z
 _atom_site_occupancy
  Na  Na0  1  0.01414200  0.98354400  0.99978900  1
  Na  Na1  1  0.50183100  0.49832200  0.24946200  1
  Na  Na2  1  0.00121600  0.99816000  0.50054700  1
  Na  Na3  1  0.49643900  0.51754600  0.74208100  1
  Na  Na4  1  0.61218600  0.24927400  0.94212400  1
  Ti  Ti5  1  0.14176100  0.14488000  0.07224200  1
  Ti  Ti6  1  0.35719900  0.35694800  0.17568200  1
  Ti  Ti7  1  0.14276700  0.14350600  0.57333500  1
  Ti  Ti8  1  0.35127500  0.35531500  0.68036500  1
  Ti  Ti9  1  0.64440600  0.64266700  0.32329400  1
  Ti  Ti10  1  0.85591400  0.85549100  0.42737600  1
  Ti  Ti11  1  0.64593200  0.65440400  0.82015800  1
  Al  Al12  1  0.85645500  0.84899300  0.92800500  1
  P  P13  1  0.03753200  0.74920000  0.23128600  1
  P  P14  1  0.46270900  0.03720100  0.37457500  1
  P  P15  1  0.74998600  0.46787300  0.01663600  1
  P  P16  1  0.24897700  0.53582700  0.48272100  1
  P  P17  1  0.53950300  0.95701600  0.12435100  1
  P  P18  1  0.03697400  0.75165100  0.73482700  1
  P  P19  1  0.96420600  0.24904900  0.26847500  1
  P  P20  1  0.46922200  0.04067300  0.87604700  1
  P  P21  1  0.74875600  0.46261300  0.51937100  1
  P  P22  1  0.23958500  0.54609000  0.98107800  1
  P  P23  1  0.53694000  0.96491600  0.62454200  1
  P  P24  1  0.96091900  0.24379300  0.77162300  1
  O  O25  1  0.13533200  0.28450100  0.25049500  1
  O  O26  1  0.27985900  0.51045200  0.06561900  1
  O  O27  1  0.05928800  0.92238600  0.13979700  1
  O  O28  1  0.50617200  0.13540800  0.13663500  1
  O  O29  1  0.22096900  0.57663600  0.21948400  1
  O  O30  1  0.00411000  0.78598800  0.31596200  1
  O  O31  1  0.27975700  0.06129200  0.46102900  1
  O  O32  1  0.44126500  0.21790600  0.28704700  1
  O  O33  1  0.57721400  0.43881100  0.10899300  1
  O  O34  1  0.21239700  0.36646900  0.49950600  1
  O  O35  1  0.07659700  0.71928300  0.47041400  1
  O  O36  1  0.36660600  0.99371200  0.10744700  1
  O  O37  1  0.63282500  0.00354800  0.39257500  1
  O  O38  1  0.13012500  0.28217700  0.75449100  1
  O  O39  1  0.92374400  0.28367500  0.02956900  1
  O  O40  1  0.77992200  0.63956000  0.99813500  1
  O  O41  1  0.42279000  0.55834600  0.39137900  1
  O  O42  1  0.28343000  0.50171800  0.56820900  1
  O  O43  1  0.56043600  0.77866200  0.21216700  1
  O  O44  1  0.06069400  0.92176400  0.64136400  1
  O  O45  1  0.72039500  0.93572900  0.03684200  1
  O  O46  1  0.50174400  0.13306500  0.64410400  1
  O  O47  1  0.21825300  0.57677900  0.72137400  1
  O  O48  1  0.00224500  0.78762600  0.81829300  1
  O  O49  1  0.99607100  0.21384900  0.18366900  1
  O  O50  1  0.78105900  0.42161400  0.28077900  1
  O  O51  1  0.49686600  0.86621200  0.35722800  1
  O  O52  1  0.28193700  0.06100800  0.96135900  1
  O  O53  1  0.94149100  0.07596100  0.35981300  1
  O  O54  1  0.44051000  0.22124100  0.78901200  1
  O  O55  1  0.71375400  0.49597000  0.43421200  1
  O  O56  1  0.57496800  0.44075800  0.61037500  1
  O  O57  1  0.22021800  0.36554200  0.99773300  1
  O  O58  1  0.06611700  0.72279000  0.96999700  1
  O  O59  1  0.86773900  0.71226300  0.24883200  1
  O  O60  1  0.36768600  0.99562300  0.60726200  1
  O  O61  1  0.63346800  0.01516300  0.89415600  1
  O  O62  1  0.92149500  0.27943300  0.53118600  1
  O  O63  1  0.78557500  0.63263000  0.50191800  1
  O  O64  1  0.41772300  0.56615900  0.89033800  1
  O  O65  1  0.56169800  0.78133500  0.71113700  1
  O  O66  1  0.72005700  0.94140400  0.53822200  1
  O  O67  1  0.99609900  0.21138300  0.68524200  1
  O  O68  1  0.77541300  0.41764200  0.78402400  1
  O  O69  1  0.50660700  0.86761500  0.85794700  1
  O  O70  1  0.93207000  0.07448700  0.86391800  1
  O  O71  1  0.71191600  0.48678000  0.93494500  1
  O  O72  1  0.86846100  0.71269300  0.74977700  1
