# generated using pymatgen
data_RbAl6H20N5F24
_symmetry_space_group_name_H-M   'P 1'
_cell_length_a   5.33835400
_cell_length_b   5.37908076
_cell_length_c   18.60950673
_cell_angle_alpha   88.69767767
_cell_angle_beta   89.56456097
_cell_angle_gamma   89.01197317
_symmetry_Int_Tables_number   1
_chemical_formula_structural   RbAl6H20N5F24
_chemical_formula_sum   'Rb1 Al6 H20 N5 F24'
_cell_volume   534.14876903
_cell_formula_units_Z   1
loop_
 _symmetry_equiv_pos_site_id
 _symmetry_equiv_pos_as_xyz
  1  'x, y, z'
loop_
 _atom_site_type_symbol
 _atom_site_label
 _atom_site_symmetry_multiplicity
 _atom_site_fract_x
 _atom_site_fract_y
 _atom_site_fract_z
 _atom_site_occupancy
  Rb  Rb0  1  0.60873800  0.91591800  0.17097300  1
  Al  Al1  1  0.77662200  0.15087800  0.66354800  1
  Al  Al2  1  0.01478400  0.01380400  0.00561600  1
  Al  Al3  1  0.08698200  0.83029600  0.32808300  1
  Al  Al4  1  0.25999800  0.64228600  0.65280500  1
  Al  Al5  1  0.50657400  0.51172700  0.99989400  1
  Al  Al6  1  0.60666700  0.33739500  0.33832200  1
  H  H7  1  0.88668400  0.48039500  0.82396200  1
  H  H8  1  0.42714100  0.17743200  0.88481300  1
  H  H9  1  0.07052800  0.15911100  0.47930600  1
  H  H10  1  0.28607800  0.19517100  0.76026900  1
  H  H11  1  0.59828800  0.04760800  0.82119200  1
  H  H12  1  0.65149200  0.96395600  0.90489800  1
  H  H13  1  0.16805100  0.16654200  0.78012800  1
  H  H14  1  0.44289600  0.79187600  0.74300500  1
  H  H15  1  0.37900400  0.87299100  0.86847600  1
  H  H16  1  0.48587900  0.75007400  0.41555700  1
  H  H17  1  0.09215000  0.85354500  0.41162800  1
  H  H18  1  0.97451400  0.68445100  0.52395900  1
  H  H19  1  0.68058100  0.80411300  0.52444100  1
  H  H20  1  0.72629300  0.49603400  0.51077100  1
  H  H21  1  0.78028100  0.61531700  0.59087600  1
  H  H22  1  0.52445600  0.44061500  0.15299400  1
  H  H23  1  0.14320800  0.54028100  0.19389600  1
  H  H24  1  0.88534300  0.37522100  0.20063900  1
  H  H25  1  0.11126000  0.26150200  0.14789300  1
  H  H26  1  0.14538900  0.26548800  0.23849300  1
  N  N27  1  0.99892000  0.55140900  0.86415900  1
  N  N28  1  0.21842400  0.23497900  0.50762500  1
  N  N29  1  0.50787000  0.01069600  0.87017500  1
  N  N30  1  0.78927900  0.64928700  0.53685500  1
  N  N31  1  0.07710000  0.36165100  0.19429600  1
  F  F32  1  0.52858400  0.51053700  0.90839800  1
  F  F33  1  0.31776800  0.66395400  0.75831600  1
  F  F34  1  0.01767700  0.41286700  0.66059500  1
  F  F35  1  0.51253800  0.40981400  0.65838200  1
  F  F36  1  0.76527600  0.13553600  0.57273900  1
  F  F37  1  0.65810600  0.35914200  0.42642300  1
  F  F38  1  0.98303500  0.04109000  0.91507700  1
  F  F39  1  0.35953400  0.12874100  0.31553800  1
  F  F40  1  0.76561700  0.17036000  0.75652400  1
  F  F41  1  0.83978500  0.10355100  0.31029800  1
  F  F42  1  0.02245900  0.88833900  0.66941000  1
  F  F43  1  0.13375100  0.83789000  0.23454900  1
  F  F44  1  0.52450700  0.89571900  0.67468100  1
  F  F45  1  0.04244700  0.00507300  0.10072700  1
  F  F46  1  0.28208200  0.71251200  0.56352600  1
  F  F47  1  0.74843800  0.77057700  0.01497700  1
  F  F48  1  0.58566500  0.88699800  0.42631300  1
  F  F49  1  0.26393400  0.76333900  0.00155700  1
  F  F50  1  0.36809400  0.59036800  0.33108100  1
  F  F51  1  0.84819200  0.58117900  0.31430000  1
  F  F52  1  0.58204900  0.39216900  0.21149200  1
  F  F53  1  0.45320800  0.51839700  0.10119800  1
  F  F54  1  0.75108700  0.27083200  0.02006200  1
  F  F55  1  0.26495800  0.26430000  0.00482200  1
