# generated using pymatgen
data_Cu2GeSe3
_symmetry_space_group_name_H-M   'P 1'
_cell_length_a   6.88225240
_cell_length_b   6.88225240
_cell_length_c   6.90554027
_cell_angle_alpha   80.45659872
_cell_angle_beta   80.45659872
_cell_angle_gamma   120.12921892
_symmetry_Int_Tables_number   1
_chemical_formula_structural   Cu2GeSe3
_chemical_formula_sum   'Cu4 Ge2 Se6'
_cell_volume   266.82357878
_cell_formula_units_Z   2
loop_
 _symmetry_equiv_pos_site_id
 _symmetry_equiv_pos_as_xyz
  1  'x, y, z'
loop_
 _atom_site_type_symbol
 _atom_site_label
 _atom_site_symmetry_multiplicity
 _atom_site_fract_x
 _atom_site_fract_y
 _atom_site_fract_z
 _atom_site_occupancy
  Cu  Cu0  1  0.00883200  0.17738300  0.99615300  1
  Cu  Cu1  1  0.33326400  0.83435500  0.99783600  1
  Cu  Cu2  1  0.17738300  0.00883200  0.49615300  1
  Cu  Cu3  1  0.83435500  0.33326400  0.49783600  1
  Ge  Ge4  1  0.66462400  0.49107300  0.00658200  1
  Ge  Ge5  1  0.49107300  0.66462400  0.50658200  1
  Se  Se6  1  0.28858400  0.12077000  0.12246200  1
  Se  Se7  1  0.96320600  0.46221100  0.12441900  1
  Se  Se8  1  0.80568900  0.63300100  0.61681100  1
  Se  Se9  1  0.63300100  0.80568900  0.11681100  1
  Se  Se10  1  0.46221100  0.96320600  0.62441900  1
  Se  Se11  1  0.12077000  0.28858400  0.62246200  1
