# generated using pymatgen
data_Ca2Bi10O17
_symmetry_space_group_name_H-M   'P 1'
_cell_length_a   7.76493100
_cell_length_b   7.88316222
_cell_length_c   9.78749559
_cell_angle_alpha   89.99442994
_cell_angle_beta   100.90164054
_cell_angle_gamma   117.86311626
_symmetry_Int_Tables_number   1
_chemical_formula_structural   Ca2Bi10O17
_chemical_formula_sum   'Ca2 Bi10 O17'
_cell_volume   517.40143446
_cell_formula_units_Z   1
loop_
 _symmetry_equiv_pos_site_id
 _symmetry_equiv_pos_as_xyz
  1  'x, y, z'
loop_
 _atom_site_type_symbol
 _atom_site_label
 _atom_site_symmetry_multiplicity
 _atom_site_fract_x
 _atom_site_fract_y
 _atom_site_fract_z
 _atom_site_occupancy
  Ca  Ca0  1  0.52062400  0.01185100  0.01941900  1
  Ca  Ca1  1  0.01681300  0.50842700  0.01932400  1
  Bi  Bi2  1  0.70513700  0.61640400  0.66871100  1
  Bi  Bi3  1  0.01846500  0.01123900  0.98235600  1
  Bi  Bi4  1  0.24054900  0.14367100  0.67340800  1
  Bi  Bi5  1  0.77885700  0.38851700  0.33819200  1
  Bi  Bi6  1  0.28328200  0.88673100  0.32986400  1
  Bi  Bi7  1  0.74888100  0.10836700  0.66446100  1
  Bi  Bi8  1  0.22701700  0.60819800  0.67608000  1
  Bi  Bi9  1  0.77400500  0.88603600  0.32789000  1
  Bi  Bi10  1  0.52431600  0.49773200  0.99508400  1
  Bi  Bi11  1  0.27338400  0.38019300  0.33158600  1
  O  O12  1  0.60399200  0.55388300  0.32302200  1
  O  O13  1  0.79828300  0.62625000  0.89530400  1
  O  O14  1  0.10736100  0.04528600  0.34783900  1
  O  O15  1  0.33254200  0.16758500  0.90285100  1
  O  O16  1  0.70947000  0.36133100  0.11448800  1
  O  O17  1  0.63346400  0.31762000  0.58986600  1
  O  O18  1  0.20986400  0.86488400  0.11128300  1
  O  O19  1  0.81230400  0.16795100  0.88986800  1
  O  O20  1  0.60776200  0.06297100  0.30274800  1
  O  O21  1  0.11135500  0.55624000  0.30317600  1
  O  O22  1  0.29661900  0.66999900  0.89620400  1
  O  O23  1  0.49564400  0.77331900  0.59420700  1
  O  O24  1  0.72137600  0.85837400  0.10999000  1
  O  O25  1  0.95787700  0.95556300  0.73706400  1
  O  O26  1  0.04991800  0.28313400  0.58755600  1
  O  O27  1  0.19542000  0.32583800  0.11205300  1
  O  O28  1  0.41541600  0.46240500  0.73910500  1
