# generated using pymatgen
data_Ce4Si4N7ClO3
_symmetry_space_group_name_H-M   'P 1'
_cell_length_a   10.58963236
_cell_length_b   10.39311091
_cell_length_c   10.45817749
_cell_angle_alpha   90.00000000
_cell_angle_beta   90.00000000
_cell_angle_gamma   90.00000000
_symmetry_Int_Tables_number   1
_chemical_formula_structural   Ce4Si4N7ClO3
_chemical_formula_sum   'Ce16 Si16 N28 Cl4 O12'
_cell_volume   1151.01889496
_cell_formula_units_Z   4
loop_
 _symmetry_equiv_pos_site_id
 _symmetry_equiv_pos_as_xyz
  1  'x, y, z'
loop_
 _atom_site_type_symbol
 _atom_site_label
 _atom_site_symmetry_multiplicity
 _atom_site_fract_x
 _atom_site_fract_y
 _atom_site_fract_z
 _atom_site_occupancy
  Ce  Ce0  1  0.04163211  0.81360763  0.69023856  1
  Ce  Ce1  1  0.10182140  0.10741804  0.10955603  1
  Ce  Ce2  1  0.18011754  0.19530502  0.44979432  1
  Ce  Ce3  1  0.18830072  0.45553256  0.18793291  1
  Ce  Ce4  1  0.31169928  0.54446744  0.68793291  1
  Ce  Ce5  1  0.31988246  0.80469498  0.94979432  1
  Ce  Ce6  1  0.39817860  0.89258196  0.60955603  1
  Ce  Ce7  1  0.45836789  0.18639237  0.19023856  1
  Ce  Ce8  1  0.54163211  0.68639237  0.30976144  1
  Ce  Ce9  1  0.60182140  0.39258196  0.89044397  1
  Ce  Ce10  1  0.68011754  0.30469498  0.55020568  1
  Ce  Ce11  1  0.68830072  0.04446744  0.81206709  1
  Ce  Ce12  1  0.81169928  0.95553256  0.31206709  1
  Ce  Ce13  1  0.81988246  0.69530502  0.05020568  1
  Ce  Ce14  1  0.89817860  0.60741804  0.39044397  1
  Ce  Ce15  1  0.95836789  0.31360763  0.80976144  1
  Si  Si16  1  0.07114994  0.57196871  0.92877845  1
  Si  Si17  1  0.07696859  0.74808990  0.19686324  1
  Si  Si18  1  0.19474064  0.08069706  0.74359969  1
  Si  Si19  1  0.24567283  0.30431139  0.91944108  1
  Si  Si20  1  0.25432717  0.69568861  0.41944108  1
  Si  Si21  1  0.30525936  0.91930294  0.24359969  1
  Si  Si22  1  0.42303141  0.25191010  0.69686324  1
  Si  Si23  1  0.42885006  0.42803129  0.42877845  1
  Si  Si24  1  0.57114994  0.92803129  0.07122155  1
  Si  Si25  1  0.57696859  0.75191010  0.80313676  1
  Si  Si26  1  0.69474064  0.41930294  0.25640031  1
  Si  Si27  1  0.74567283  0.19568861  0.08055892  1
  Si  Si28  1  0.75432717  0.80431139  0.58055892  1
  Si  Si29  1  0.80525936  0.58069706  0.75640031  1
  Si  Si30  1  0.92303141  0.24808990  0.30313676  1
  Si  Si31  1  0.92885006  0.07196871  0.57122155  1
  N  N32  1  0.05606693  0.63463239  0.07799984  1
  N  N33  1  0.07657754  0.28812512  0.26162300  1
  N  N34  1  0.07605651  0.05459664  0.63589429  1
  N  N35  1  0.12920102  0.65245691  0.32511622  1
  N  N36  1  0.13555684  0.42192922  0.94339973  1
  N  N37  1  0.15332182  0.17438549  0.87235738  1
  N  N38  1  0.17693349  0.87163291  0.15282563  1
  N  N39  1  0.32306651  0.12836709  0.65282563  1
  N  N40  1  0.34667818  0.82561451  0.37235738  1
  N  N41  1  0.36444316  0.57807078  0.44339973  1
  N  N42  1  0.37079898  0.34754309  0.82511622  1
  N  N43  1  0.42394349  0.94540336  0.13589429  1
  N  N44  1  0.42342246  0.71187488  0.76162300  1
  N  N45  1  0.44393307  0.36536761  0.57799984  1
  N  N46  1  0.55606693  0.86536761  0.92200016  1
  N  N47  1  0.57657754  0.21187488  0.73837700  1
  N  N48  1  0.57605651  0.44540336  0.36410571  1
  N  N49  1  0.62920102  0.84754309  0.67488378  1
  N  N50  1  0.63555684  0.07807078  0.05660027  1
  N  N51  1  0.65332182  0.32561451  0.12764262  1
  N  N52  1  0.67693349  0.62836709  0.84717437  1
  N  N53  1  0.82306651  0.37163291  0.34717437  1
  N  N54  1  0.84667818  0.67438549  0.62764262  1
  N  N55  1  0.86444316  0.92192922  0.55660027  1
  N  N56  1  0.87079898  0.15245691  0.17488378  1
  N  N57  1  0.92394349  0.55459664  0.86410571  1
  N  N58  1  0.92342246  0.78812512  0.23837700  1
  N  N59  1  0.94393307  0.13463239  0.42200016  1
  Cl  Cl60  1  0.07140848  0.42882784  0.57520786  1
  Cl  Cl61  1  0.42859152  0.57117216  0.07520786  1
  Cl  Cl62  1  0.57140848  0.07117216  0.42479214  1
  Cl  Cl63  1  0.92859152  0.92882784  0.92479214  1
  O  O64  1  0.16041173  0.66558587  0.83523843  1
  O  O65  1  0.20857525  0.73640439  0.56848644  1
  O  O66  1  0.23324508  0.92962669  0.78858944  1
  O  O67  1  0.26675492  0.07037331  0.28858944  1
  O  O68  1  0.29142475  0.26359561  0.06848644  1
  O  O69  1  0.33958827  0.33441413  0.33523843  1
  O  O70  1  0.66041173  0.83441413  0.16476157  1
  O  O71  1  0.70857525  0.76359561  0.43151356  1
  O  O72  1  0.73324508  0.57037331  0.21141056  1
  O  O73  1  0.76675492  0.42962669  0.71141056  1
  O  O74  1  0.79142475  0.23640439  0.93151356  1
  O  O75  1  0.83958827  0.16558587  0.66476157  1
