# generated using pymatgen
data_CsP4N7
_symmetry_space_group_name_H-M   'P 1'
_cell_length_a   4.75753900
_cell_length_b   10.09545600
_cell_length_c   12.54691600
_cell_angle_alpha   90.00000000
_cell_angle_beta   90.00000000
_cell_angle_gamma   90.00000000
_symmetry_Int_Tables_number   1
_chemical_formula_structural   CsP4N7
_chemical_formula_sum   'Cs4 P16 N28'
_cell_volume   602.62242376
_cell_formula_units_Z   4
loop_
 _symmetry_equiv_pos_site_id
 _symmetry_equiv_pos_as_xyz
  1  'x, y, z'
loop_
 _atom_site_type_symbol
 _atom_site_label
 _atom_site_symmetry_multiplicity
 _atom_site_fract_x
 _atom_site_fract_y
 _atom_site_fract_z
 _atom_site_occupancy
  Cs  Cs0  1  0.72607800  0.85669700  0.25000000  1
  Cs  Cs1  1  0.77392200  0.35669700  0.25000000  1
  Cs  Cs2  1  0.27392200  0.14330300  0.75000000  1
  Cs  Cs3  1  0.22607800  0.64330300  0.75000000  1
  P  P4  1  0.21583900  0.58843800  0.12925600  1
  P  P5  1  0.28416100  0.08843800  0.37074400  1
  P  P6  1  0.78416100  0.41156200  0.62925600  1
  P  P7  1  0.71583900  0.91156200  0.87074400  1
  P  P8  1  0.78416100  0.41156200  0.87074400  1
  P  P9  1  0.71583900  0.91156200  0.62925600  1
  P  P10  1  0.21583900  0.58843800  0.37074400  1
  P  P11  1  0.28416100  0.08843800  0.12925600  1
  P  P12  1  0.22741300  0.84159300  0.99946700  1
  P  P13  1  0.27258700  0.34159300  0.50053300  1
  P  P14  1  0.77258700  0.15840700  0.49946700  1
  P  P15  1  0.72741300  0.65840700  0.00053300  1
  P  P16  1  0.77258700  0.15840700  0.00053300  1
  P  P17  1  0.72741300  0.65840700  0.49946700  1
  P  P18  1  0.22741300  0.84159300  0.50053300  1
  P  P19  1  0.27258700  0.34159300  0.99946700  1
  N  N20  1  0.29680400  0.61981700  0.25000000  1
  N  N21  1  0.20319600  0.11981700  0.25000000  1
  N  N22  1  0.70319600  0.38018300  0.75000000  1
  N  N23  1  0.79680400  0.88018300  0.75000000  1
  N  N24  1  0.89081800  0.62033300  0.10618900  1
  N  N25  1  0.60918200  0.12033300  0.39381100  1
  N  N26  1  0.10918200  0.37966700  0.60618900  1
  N  N27  1  0.39081800  0.87966700  0.89381100  1
  N  N28  1  0.10918200  0.37966700  0.89381100  1
  N  N29  1  0.39081800  0.87966700  0.60618900  1
  N  N30  1  0.89081800  0.62033300  0.39381100  1
  N  N31  1  0.60918200  0.12033300  0.10618900  1
  N  N32  1  0.18938500  0.94117400  0.09603000  1
  N  N33  1  0.31061500  0.44117400  0.40397000  1
  N  N34  1  0.81061500  0.05882600  0.59603000  1
  N  N35  1  0.68938500  0.55882600  0.90397000  1
  N  N36  1  0.81061500  0.05882600  0.90397000  1
  N  N37  1  0.68938500  0.55882600  0.59603000  1
  N  N38  1  0.18938500  0.94117400  0.40397000  1
  N  N39  1  0.31061500  0.44117400  0.09603000  1
  N  N40  1  0.39120700  0.70008900  0.04493700  1
  N  N41  1  0.10879300  0.20008900  0.45506300  1
  N  N42  1  0.60879300  0.29991100  0.54493700  1
  N  N43  1  0.89120700  0.79991100  0.95506300  1
  N  N44  1  0.60879300  0.29991100  0.95506300  1
  N  N45  1  0.89120700  0.79991100  0.54493700  1
  N  N46  1  0.39120700  0.70008900  0.45506300  1
  N  N47  1  0.10879300  0.20008900  0.04493700  1
