# generated using pymatgen
data_K4N2O5
_symmetry_space_group_name_H-M   'P 1'
_cell_length_a   5.48657112
_cell_length_b   5.48657112
_cell_length_c   14.30185623
_cell_angle_alpha   82.54538009
_cell_angle_beta   82.54538009
_cell_angle_gamma   92.74388174
_symmetry_Int_Tables_number   1
_chemical_formula_structural   K4N2O5
_chemical_formula_sum   'K8 N4 O10'
_cell_volume   422.35661990
_cell_formula_units_Z   2
loop_
 _symmetry_equiv_pos_site_id
 _symmetry_equiv_pos_as_xyz
  1  'x, y, z'
loop_
 _atom_site_type_symbol
 _atom_site_label
 _atom_site_symmetry_multiplicity
 _atom_site_fract_x
 _atom_site_fract_y
 _atom_site_fract_z
 _atom_site_occupancy
  K  K0  1  0.21274500  0.28183700  0.24387000  1
  K  K1  1  0.26468400  0.68046600  0.92441600  1
  K  K2  1  0.68046600  0.26468400  0.42441600  1
  K  K3  1  0.71816300  0.78725500  0.25613000  1
  K  K4  1  0.73531600  0.31953400  0.07558400  1
  K  K5  1  0.28183700  0.21274500  0.74387000  1
  K  K6  1  0.31953400  0.73531600  0.57558400  1
  K  K7  1  0.78725500  0.71816300  0.75613000  1
  N  N8  1  0.31734100  0.88530500  0.12007900  1
  N  N9  1  0.88530500  0.31734100  0.62007900  1
  N  N10  1  0.68265900  0.11469500  0.87992100  1
  N  N11  1  0.11469500  0.68265900  0.37992100  1
  O  O12  1  0.52250100  0.26647800  0.90261600  1
  O  O13  1  0.27674500  0.72325500  0.75000000  1
  O  O14  1  0.09938400  0.82224100  0.10655700  1
  O  O15  1  0.82224100  0.09938400  0.60655700  1
  O  O16  1  0.73352200  0.47749900  0.59738400  1
  O  O17  1  0.90061600  0.17775900  0.89344300  1
  O  O18  1  0.72325500  0.27674500  0.25000000  1
  O  O19  1  0.47749900  0.73352200  0.09738400  1
  O  O20  1  0.26647800  0.52250100  0.40261600  1
  O  O21  1  0.17775900  0.90061600  0.39344300  1
