# generated using pymatgen
data_TiSiO4
_symmetry_space_group_name_H-M   'P 1'
_cell_length_a   6.09611716
_cell_length_b   6.09611716
_cell_length_c   6.09611716
_cell_angle_alpha   135.66917633
_cell_angle_beta   135.66917633
_cell_angle_gamma   64.49221053
_symmetry_Int_Tables_number   1
_chemical_formula_structural   TiSiO4
_chemical_formula_sum   'Ti2 Si2 O8'
_cell_volume   109.09399343
_cell_formula_units_Z   2
loop_
 _symmetry_equiv_pos_site_id
 _symmetry_equiv_pos_as_xyz
  1  'x, y, z'
loop_
 _atom_site_type_symbol
 _atom_site_label
 _atom_site_symmetry_multiplicity
 _atom_site_fract_x
 _atom_site_fract_y
 _atom_site_fract_z
 _atom_site_occupancy
  Ti  Ti0  1  0.25000000  0.75000000  0.50000000  1
  Ti  Ti1  1  0.50000000  0.50000000  0.00000000  1
  Si  Si2  1  0.75000000  0.25000000  0.50000000  1
  Si  Si3  1  0.00000000  0.00000000  0.00000000  1
  O  O4  1  0.09201500  0.50475700  0.94341900  1
  O  O5  1  0.56133800  0.14859600  0.05658100  1
  O  O6  1  0.89859600  0.34201500  0.08725800  1
  O  O7  1  0.25475700  0.81133800  0.91274200  1
  O  O8  1  0.65798500  0.74524300  0.55658100  1
  O  O9  1  0.18866200  0.10140400  0.44341900  1
  O  O10  1  0.85140400  0.90798500  0.41274200  1
  O  O11  1  0.49524300  0.43866200  0.58725800  1
