# generated using pymatgen
data_Pr7Mn8O24
_symmetry_space_group_name_H-M   'P 1'
_cell_length_a   9.56846137
_cell_length_b   9.56846137
_cell_length_c   7.79020708
_cell_angle_alpha   65.94620757
_cell_angle_beta   65.94620757
_cell_angle_gamma   109.42638685
_symmetry_Int_Tables_number   1
_chemical_formula_structural   Pr7Mn8O24
_chemical_formula_sum   'Pr7 Mn8 O24'
_cell_volume   476.64448035
_cell_formula_units_Z   1
loop_
 _symmetry_equiv_pos_site_id
 _symmetry_equiv_pos_as_xyz
  1  'x, y, z'
loop_
 _atom_site_type_symbol
 _atom_site_label
 _atom_site_symmetry_multiplicity
 _atom_site_fract_x
 _atom_site_fract_y
 _atom_site_fract_z
 _atom_site_occupancy
  Pr  Pr0  1  0.39270200  0.89896000  0.96776900  1
  Pr  Pr1  1  0.11274300  0.11274300  0.53790400  1
  Pr  Pr2  1  0.38636300  0.88964100  0.47492000  1
  Pr  Pr3  1  0.89896000  0.39270200  0.96776900  1
  Pr  Pr4  1  0.61676900  0.61676900  0.52518800  1
  Pr  Pr5  1  0.88964100  0.38636300  0.47492000  1
  Pr  Pr6  1  0.61121000  0.61121000  0.01422500  1
  Mn  Mn7  1  0.75218500  0.00074300  0.00291900  1
  Mn  Mn8  1  0.49937500  0.25257600  0.49939500  1
  Mn  Mn9  1  0.75729400  0.00321900  0.49077100  1
  Mn  Mn10  1  0.25065500  0.49588100  0.99837300  1
  Mn  Mn11  1  0.00074300  0.75218500  0.00291900  1
  Mn  Mn12  1  0.00321900  0.75729400  0.49077100  1
  Mn  Mn13  1  0.25257600  0.49937500  0.49939500  1
  Mn  Mn14  1  0.49588100  0.25065500  0.99837300  1
  O  O15  1  0.74974400  0.04058700  0.72915700  1
  O  O16  1  0.58896800  0.08976400  0.50669600  1
  O  O17  1  0.24050900  0.01039700  0.75306600  1
  O  O18  1  0.01039700  0.24050900  0.75306600  1
  O  O19  1  0.45509000  0.24751200  0.27278600  1
  O  O20  1  0.65532300  0.15587700  0.01248100  1
  O  O21  1  0.84277200  0.84277200  0.98874500  1
  O  O22  1  0.25789900  0.55286100  0.71828800  1
  O  O23  1  0.04058700  0.74974400  0.72915700  1
  O  O24  1  0.48120600  0.77242900  0.21729300  1
  O  O25  1  0.27815500  0.97788200  0.23330700  1
  O  O26  1  0.89716400  0.89716400  0.53125900  1
  O  O27  1  0.08976400  0.58896800  0.50669600  1
  O  O28  1  0.73483900  0.51631500  0.77538800  1
  O  O29  1  0.51631500  0.73483900  0.77538800  1
  O  O30  1  0.94200600  0.71342700  0.29695700  1
  O  O31  1  0.71342700  0.94200600  0.29695700  1
  O  O32  1  0.15587700  0.65532300  0.01248100  1
  O  O33  1  0.37003400  0.37003400  0.97019200  1
  O  O34  1  0.55286100  0.25789900  0.71828800  1
  O  O35  1  0.97788200  0.27815500  0.23330700  1
  O  O36  1  0.77242900  0.48120600  0.21729300  1
  O  O37  1  0.43328700  0.43328700  0.46205500  1
  O  O38  1  0.24751200  0.45509000  0.27278600  1
