# generated using pymatgen
data_Ca6Al6Si3(HO12)2
_symmetry_space_group_name_H-M   'P 1'
_cell_length_a   7.68000700
_cell_length_b   7.87667981
_cell_length_c   19.27182018
_cell_angle_alpha   97.77957566
_cell_angle_beta   97.25753499
_cell_angle_gamma   109.77020582
_symmetry_Int_Tables_number   1
_chemical_formula_structural   Ca6Al6Si3(HO12)2
_chemical_formula_sum   'Ca12 Al12 Si6 H4 O48'
_cell_volume   1068.31497691
_cell_formula_units_Z   2
loop_
 _symmetry_equiv_pos_site_id
 _symmetry_equiv_pos_as_xyz
  1  'x, y, z'
loop_
 _atom_site_type_symbol
 _atom_site_label
 _atom_site_symmetry_multiplicity
 _atom_site_fract_x
 _atom_site_fract_y
 _atom_site_fract_z
 _atom_site_occupancy
  Ca  Ca0  1  0.89498300  0.90079600  0.09923100  1
  Ca  Ca1  1  0.95838200  0.65489800  0.33209700  1
  Ca  Ca2  1  0.47921700  0.46585500  0.23834800  1
  Ca  Ca3  1  0.62717100  0.32257900  0.66415500  1
  Ca  Ca4  1  0.24294800  0.23068200  0.76555600  1
  Ca  Ca5  1  0.57569600  0.56789000  0.43330000  1
  Ca  Ca6  1  0.13543000  0.12733500  0.57033800  1
  Ca  Ca7  1  0.66874900  0.97900700  0.33154200  1
  Ca  Ca8  1  0.79997400  0.79668700  0.90298900  1
  Ca  Ca9  1  0.33284000  0.64217900  0.66410300  1
  Ca  Ca10  1  0.99297600  0.28688700  0.00019000  1
  Ca  Ca11  1  0.29780300  0.00608800  0.00266200  1
  Al  Al12  1  0.41834900  0.67316700  0.08254100  1
  Al  Al13  1  0.66540100  0.42034900  0.08666500  1
  Al  Al14  1  0.00690200  0.25277900  0.24668600  1
  Al  Al15  1  0.74482400  0.25717800  0.50048900  1
  Al  Al16  1  0.58344900  0.08456500  0.16627700  1
  Al  Al17  1  0.25156600  0.00057500  0.25007000  1
  Al  Al18  1  0.67484200  0.92330400  0.58282100  1
  Al  Al19  1  0.41047900  0.91812000  0.83339200  1
  Al  Al20  1  0.91832800  0.67327800  0.58322200  1
  Al  Al21  1  0.25792100  0.74661100  0.49935400  1
  Al  Al22  1  0.92223200  0.41516600  0.83358500  1
  Al  Al23  1  0.58026200  0.33239600  0.91853400  1
  Si  Si24  1  0.08606000  0.58540300  0.16719200  1
  Si  Si25  1  0.08074900  0.32939700  0.41627200  1
  Si  Si26  1  0.32195000  0.07759600  0.41625600  1
  Si  Si27  1  0.74941200  0.99501200  0.75075800  1
  Si  Si28  1  0.33517900  0.58313900  0.91581400  1
  Si  Si29  1  0.99021800  0.74395900  0.74905400  1
  H  H30  1  0.23033600  0.23049300  0.11461000  1
  H  H31  1  0.66041800  0.30732000  0.33030900  1
  H  H32  1  0.32829300  0.97449800  0.66400200  1
  H  H33  1  0.99037800  0.65426500  0.99598500  1
  O  O34  1  0.91679500  0.47652000  0.09794600  1
  O  O35  1  0.28335700  0.57358400  0.14639900  1
  O  O36  1  0.48469800  0.68787200  0.33578400  1
  O  O37  1  0.39326700  0.40835000  0.60376400  1
  O  O38  1  0.14450000  0.55402200  0.42687600  1
  O  O39  1  0.62765400  0.62953400  0.09491400  1
  O  O40  1  0.04619200  0.48528600  0.23691100  1
  O  O41  1  0.75730000  0.48426000  0.52135700  1
  O  O42  1  0.55170300  0.14154600  0.42672300  1
  O  O43  1  0.95879300  0.24096700  0.33576500  1
  O  O44  1  0.67373300  0.43522600  0.33696500  1
  O  O45  1  0.81724900  0.09394000  0.18596400  1
  O  O46  1  0.95783300  0.24429700  0.47516600  1
  O  O47  1  0.14355800  0.14516100  0.07397600  1
  O  O48  1  0.14760000  0.35184100  0.66783700  1
  O  O49  1  0.06620500  0.06827000  0.92364300  1
  O  O50  1  0.57153800  0.29730500  0.15105600  1
  O  O51  1  0.81832200  0.22035900  0.76127100  1
  O  O52  1  0.27444300  0.27314100  0.42726400  1
  O  O53  1  0.71066800  0.15149200  0.57443000  1
  O  O54  1  0.20953900  0.20249600  0.23955700  1
  O  O55  1  0.48455800  0.03928800  0.24310700  1
  O  O56  1  0.62307100  0.90229300  0.67096600  1
  O  O57  1  0.21986700  0.80503200  0.75860700  1
  O  O58  1  0.33819800  0.10097700  0.66753300  1
  O  O59  1  0.21896000  0.95383300  0.33738100  1
  O  O60  1  0.49024200  0.76186700  0.51913300  1
  O  O61  1  0.62581300  0.90983100  0.80934600  1
  O  O62  1  0.79281600  0.80991100  0.39477800  1
  O  O63  1  0.77688800  0.99612800  0.99740500  1
  O  O64  1  0.73384400  0.74701300  0.27324400  1
  O  O65  1  0.45865600  0.90763100  0.09209200  1
  O  O66  1  0.09353200  0.79801800  0.18976700  1
  O  O67  1  0.23831700  0.95497700  0.47531700  1
  O  O68  1  0.37315400  0.79609400  0.90440700  1
  O  O69  1  0.87890900  0.87658000  0.57556100  1
  O  O70  1  0.94361600  0.93944400  0.75988700  1
  O  O71  1  0.27967100  0.56086700  0.99456900  1
  O  O72  1  0.15285700  0.71336800  0.57429400  1
  O  O73  1  0.00196100  0.78197600  0.00085400  1
  O  O74  1  0.88839000  0.62128600  0.66985200  1
  O  O75  1  0.16148200  0.43864700  0.85295700  1
  O  O76  1  0.45902800  0.47577900  0.72769200  1
  O  O77  1  0.90517600  0.62080800  0.80736500  1
  O  O78  1  0.52224500  0.53140100  0.90621400  1
  O  O79  1  0.81745700  0.38787000  0.90802200  1
  O  O80  1  0.56302200  0.27736000  0.00255200  1
  O  O81  1  0.42423000  0.14562400  0.85244200  1
