# generated using pymatgen
data_BaLa2ZnO5
_symmetry_space_group_name_H-M   'P 1'
_cell_length_a   7.65150535
_cell_length_b   7.65150535
_cell_length_c   7.65150535
_cell_angle_alpha   126.01898824
_cell_angle_beta   126.01898824
_cell_angle_gamma   79.85693421
_symmetry_Int_Tables_number   1
_chemical_formula_structural   BaLa2ZnO5
_chemical_formula_sum   'Ba2 La4 Zn2 O10'
_cell_volume   283.02187610
_cell_formula_units_Z   2
loop_
 _symmetry_equiv_pos_site_id
 _symmetry_equiv_pos_as_xyz
  1  'x, y, z'
loop_
 _atom_site_type_symbol
 _atom_site_label
 _atom_site_symmetry_multiplicity
 _atom_site_fract_x
 _atom_site_fract_y
 _atom_site_fract_z
 _atom_site_occupancy
  Ba  Ba0  1  0.75000000  0.75000000  0.00000000  1
  Ba  Ba1  1  0.25000000  0.25000000  0.00000000  1
  La  La2  1  0.32360900  0.82360900  0.14721900  1
  La  La3  1  0.82360900  0.67639100  0.50000000  1
  La  La4  1  0.17639100  0.32360900  0.50000000  1
  La  La5  1  0.67639100  0.17639100  0.85278100  1
  Zn  Zn6  1  0.25000000  0.75000000  0.50000000  1
  Zn  Zn7  1  0.75000000  0.25000000  0.50000000  1
  O  O8  1  0.27855600  0.77855600  0.79155400  1
  O  O9  1  0.01299700  0.51299700  0.79155400  1
  O  O10  1  0.72144400  0.22144400  0.20844600  1
  O  O11  1  0.22144400  0.01299700  0.50000000  1
  O  O12  1  0.51299700  0.72144400  0.50000000  1
  O  O13  1  0.77855600  0.98700300  0.50000000  1
  O  O14  1  0.48700300  0.27855600  0.50000000  1
  O  O15  1  0.98700300  0.48700300  0.20844600  1
  O  O16  1  0.00000000  0.00000000  0.00000000  1
  O  O17  1  0.50000000  0.50000000  0.00000000  1
