# generated using pymatgen
data_Ca2Al2SiO7
_symmetry_space_group_name_H-M   'P 1'
_cell_length_a   6.77935800
_cell_length_b   7.48280700
_cell_length_c   13.21802100
_cell_angle_alpha   90.00000000
_cell_angle_beta   90.00000000
_cell_angle_gamma   90.00000000
_symmetry_Int_Tables_number   1
_chemical_formula_structural   Ca2Al2SiO7
_chemical_formula_sum   'Ca8 Al8 Si4 O28'
_cell_volume   670.53206357
_cell_formula_units_Z   4
loop_
 _symmetry_equiv_pos_site_id
 _symmetry_equiv_pos_as_xyz
  1  'x, y, z'
loop_
 _atom_site_type_symbol
 _atom_site_label
 _atom_site_symmetry_multiplicity
 _atom_site_fract_x
 _atom_site_fract_y
 _atom_site_fract_z
 _atom_site_occupancy
  Ca  Ca0  1  0.07940500  0.65761400  0.02891800  1
  Ca  Ca1  1  0.66918600  0.36938200  0.03558100  1
  Ca  Ca2  1  0.16918600  0.13061800  0.96441900  1
  Ca  Ca3  1  0.57940500  0.84238600  0.97108200  1
  Ca  Ca4  1  0.83081400  0.63061800  0.53558100  1
  Ca  Ca5  1  0.42059500  0.34238600  0.52891800  1
  Ca  Ca6  1  0.92059500  0.15761400  0.47108200  1
  Ca  Ca7  1  0.33081400  0.86938200  0.46441900  1
  Al  Al8  1  0.76001200  0.12230500  0.74803900  1
  Al  Al9  1  0.23998800  0.62230500  0.75196100  1
  Al  Al10  1  0.57883700  0.15590900  0.35173200  1
  Al  Al11  1  0.07883700  0.34409100  0.64826800  1
  Al  Al12  1  0.73998800  0.87769500  0.24803900  1
  Al  Al13  1  0.26001200  0.37769500  0.25196100  1
  Al  Al14  1  0.92116300  0.84409100  0.85173200  1
  Al  Al15  1  0.42116300  0.65590900  0.14826800  1
  Si  Si16  1  0.12810700  0.95323300  0.64934500  1
  Si  Si17  1  0.62810700  0.54676700  0.35065500  1
  Si  Si18  1  0.37189300  0.04676700  0.14934500  1
  Si  Si19  1  0.87189300  0.45323300  0.85065500  1
  O  O20  1  0.28658400  0.86408100  0.09899400  1
  O  O21  1  0.70763700  0.29646000  0.83610100  1
  O  O22  1  0.50998100  0.11958300  0.05561300  1
  O  O23  1  0.17304700  0.73937200  0.86221700  1
  O  O24  1  0.42352500  0.55160300  0.02901600  1
  O  O25  1  0.97425800  0.51660500  0.74150900  1
  O  O26  1  0.68000700  0.91784300  0.79694200  1
  O  O27  1  0.47425800  0.98339500  0.25849100  1
  O  O28  1  0.18000700  0.58215700  0.20305800  1
  O  O29  1  0.92352500  0.94839700  0.97098400  1
  O  O30  1  0.20763700  0.20354000  0.16389900  1
  O  O31  1  0.00998100  0.38041700  0.94438700  1
  O  O32  1  0.67304700  0.76062800  0.13778300  1
  O  O33  1  0.78658400  0.63591900  0.90100600  1
  O  O34  1  0.21341600  0.13591900  0.59899400  1
  O  O35  1  0.79236300  0.70354000  0.33610100  1
  O  O36  1  0.07647500  0.44839700  0.52901600  1
  O  O37  1  0.32695300  0.26062800  0.36221700  1
  O  O38  1  0.99001900  0.88041700  0.55561300  1
  O  O39  1  0.81999300  0.08215700  0.29694200  1
  O  O40  1  0.52574200  0.48339500  0.24150900  1
  O  O41  1  0.31999300  0.41784300  0.70305800  1
  O  O42  1  0.02574200  0.01660500  0.75849100  1
  O  O43  1  0.82695300  0.23937200  0.63778300  1
  O  O44  1  0.49001900  0.61958300  0.44438700  1
  O  O45  1  0.29236300  0.79646000  0.66389900  1
  O  O46  1  0.57647500  0.05160300  0.47098400  1
  O  O47  1  0.71341600  0.36408100  0.40100600  1
