# generated using pymatgen
data_Sr4NdNb2Al3O15
_symmetry_space_group_name_H-M   'P 1'
_cell_length_a   22.84219342
_cell_length_b   22.84219342
_cell_length_c   22.84219401
_cell_angle_alpha   13.90107040
_cell_angle_beta   13.90107040
_cell_angle_gamma   13.90107108
_symmetry_Int_Tables_number   1
_chemical_formula_structural   Sr4NdNb2Al3O15
_chemical_formula_sum   'Sr8 Nd2 Nb4 Al6 O30'
_cell_volume   598.66251658
_cell_formula_units_Z   2
loop_
 _symmetry_equiv_pos_site_id
 _symmetry_equiv_pos_as_xyz
  1  'x, y, z'
loop_
 _atom_site_type_symbol
 _atom_site_label
 _atom_site_symmetry_multiplicity
 _atom_site_fract_x
 _atom_site_fract_y
 _atom_site_fract_z
 _atom_site_occupancy
  Sr  Sr0  1  0.04794400  0.04794400  0.04794400  1
  Sr  Sr1  1  0.44985700  0.44985700  0.44985700  1
  Sr  Sr2  1  0.74975200  0.74975200  0.74975200  1
  Sr  Sr3  1  0.85000100  0.85000100  0.85000100  1
  Sr  Sr4  1  0.14999900  0.14999900  0.14999900  1
  Sr  Sr5  1  0.25024800  0.25024800  0.25024800  1
  Sr  Sr6  1  0.55014300  0.55014300  0.55014300  1
  Sr  Sr7  1  0.95205600  0.95205600  0.95205600  1
  Nd  Nd8  1  0.65245000  0.65245000  0.65245000  1
  Nd  Nd9  1  0.34755000  0.34755000  0.34755000  1
  Nb  Nb10  1  0.39955400  0.39955400  0.39955400  1
  Nb  Nb11  1  0.79993800  0.79993800  0.79993800  1
  Nb  Nb12  1  0.20006200  0.20006200  0.20006200  1
  Nb  Nb13  1  0.60044600  0.60044600  0.60044600  1
  Al  Al14  1  0.69887100  0.69887100  0.69887100  1
  Al  Al15  1  0.09966900  0.09966900  0.09966900  1
  Al  Al16  1  0.50000000  0.50000000  0.50000000  1
  Al  Al17  1  0.90033100  0.90033100  0.90033100  1
  Al  Al18  1  0.30112900  0.30112900  0.30112900  1
  Al  Al19  1  0.00000000  0.00000000  0.00000000  1
  O  O20  1  0.24678900  0.24678900  0.75644900  1
  O  O21  1  0.55104800  0.04334000  0.55104800  1
  O  O22  1  0.04334000  0.55104800  0.55104800  1
  O  O23  1  0.75644900  0.24678900  0.24678900  1
  O  O24  1  0.95344900  0.44169200  0.95344900  1
  O  O25  1  0.64662200  0.64662200  0.15786100  1
  O  O26  1  0.24678900  0.75644900  0.24678900  1
  O  O27  1  0.55104800  0.55104800  0.04334000  1
  O  O28  1  0.44169200  0.95344900  0.95344900  1
  O  O29  1  0.15786100  0.64662200  0.64662200  1
  O  O30  1  0.35337800  0.84213900  0.35337800  1
  O  O31  1  0.04655100  0.04655100  0.55830800  1
  O  O32  1  0.95344900  0.95344900  0.44169200  1
  O  O33  1  0.64662200  0.15786100  0.64662200  1
  O  O34  1  0.84213900  0.35337800  0.35337800  1
  O  O35  1  0.55830800  0.04655100  0.04655100  1
  O  O36  1  0.75321100  0.24355100  0.75321100  1
  O  O37  1  0.44895200  0.44895200  0.95666000  1
  O  O38  1  0.35337800  0.35337800  0.84213900  1
  O  O39  1  0.04655100  0.55830800  0.04655100  1
  O  O40  1  0.24355100  0.75321100  0.75321100  1
  O  O41  1  0.95666000  0.44895200  0.44895200  1
  O  O42  1  0.15451500  0.64456100  0.15451500  1
  O  O43  1  0.84548500  0.84548500  0.35543900  1
  O  O44  1  0.44895200  0.95666000  0.44895200  1
  O  O45  1  0.75321100  0.75321100  0.24355100  1
  O  O46  1  0.64456100  0.15451500  0.15451500  1
  O  O47  1  0.35543900  0.84548500  0.84548500  1
  O  O48  1  0.15451500  0.15451500  0.64456100  1
  O  O49  1  0.84548500  0.35543900  0.84548500  1
