# generated using pymatgen
data_Na20Zr11Si10(PO9)8
_symmetry_space_group_name_H-M   'P 1'
_cell_length_a   9.17132600
_cell_length_b   9.18860843
_cell_length_c   23.24309605
_cell_angle_alpha   89.92342156
_cell_angle_beta   89.87051487
_cell_angle_gamma   60.14963788
_symmetry_Int_Tables_number   1
_chemical_formula_structural   Na20Zr11Si10(PO9)8
_chemical_formula_sum   'Na20 Zr11 Si10 P8 O72'
_cell_volume   1698.86254132
_cell_formula_units_Z   1
loop_
 _symmetry_equiv_pos_site_id
 _symmetry_equiv_pos_as_xyz
  1  'x, y, z'
loop_
 _atom_site_type_symbol
 _atom_site_label
 _atom_site_symmetry_multiplicity
 _atom_site_fract_x
 _atom_site_fract_y
 _atom_site_fract_z
 _atom_site_occupancy
  Na  Na0  1  0.16848700  0.31681800  0.89144600  1
  Na  Na1  1  0.55099500  0.36274400  0.77884200  1
  Na  Na2  1  0.80274600  0.33326500  0.68247800  1
  Na  Na3  1  0.49002000  0.68748600  0.90449700  1
  Na  Na4  1  0.52902100  0.67590200  0.56806000  1
  Na  Na5  1  0.85697200  0.55529500  0.76852300  1
  Na  Na6  1  0.18071600  0.68249500  0.83234200  1
  Na  Na7  1  0.81223400  0.98218900  0.94098600  1
  Na  Na8  1  0.81869500  0.01851700  0.58224000  1
  Na  Na9  1  0.86437100  0.00851900  0.23763000  1
  Na  Na10  1  0.07200900  0.07157400  0.76871400  1
  Na  Na11  1  0.19415700  0.97019600  0.41510200  1
  Na  Na12  1  0.24497700  0.01101500  0.04032500  1
  Na  Na13  1  0.52140200  0.03259000  0.49368200  1
  Na  Na14  1  0.11908900  0.32012800  0.62318000  1
  Na  Na15  1  0.13989900  0.35041500  0.24965400  1
  Na  Na16  1  0.51432100  0.28123100  0.06112500  1
  Na  Na17  1  0.84593700  0.33637000  0.16054800  1
  Na  Na18  1  0.18267000  0.66933900  0.33367500  1
  Na  Na19  1  0.80337200  0.67720700  0.08635600  1
  Zr  Zr20  1  0.17335900  0.65816300  0.98669900  1
  Zr  Zr21  1  0.16392700  0.66690100  0.47544300  1
  Zr  Zr22  1  0.16462400  0.66294100  0.68856600  1
  Zr  Zr23  1  0.50892700  0.99707500  0.64426300  1
  Zr  Zr24  1  0.49492000  0.99828500  0.84929200  1
  Zr  Zr25  1  0.49480300  0.00466100  0.15115300  1
  Zr  Zr26  1  0.50263900  0.98704800  0.35537700  1
  Zr  Zr27  1  0.82877400  0.33802800  0.31610100  1
  Zr  Zr28  1  0.82829700  0.33515000  0.51517700  1
  Zr  Zr29  1  0.83826100  0.32207000  0.01376100  1
  Zr  Zr30  1  0.16767400  0.66812300  0.18738400  1
  Si  Si31  1  0.52128100  0.34127600  0.91558900  1
  Si  Si32  1  0.22948000  0.29478600  0.74249400  1
  Si  Si33  1  0.47649000  0.72560300  0.74772000  1
  Si  Si34  1  0.87844800  0.66378700  0.58098700  1
  Si  Si35  1  0.13854400  0.01854300  0.91435300  1
  Si  Si36  1  0.53675000  0.62990300  0.41681700  1
  Si  Si37  1  0.83024700  0.04208400  0.41898600  1
  Si  Si38  1  0.20595500  0.99451800  0.25719300  1
  Si  Si39  1  0.87423300  0.97069200  0.08767200  1
  Si  Si40  1  0.15656000  0.38203400  0.09446800  1
  P  P41  1  0.84201100  0.62884300  0.91564900  1
  P  P42  1  0.78923000  0.98280900  0.73968700  1
  P  P43  1  0.16693100  0.95826100  0.57820700  1
  P  P44  1  0.45919800  0.38093500  0.58086100  1
  P  P45  1  0.12501200  0.33292000  0.41150000  1
  P  P46  1  0.49838800  0.28920800  0.25162700  1
  P  P47  1  0.79487800  0.70463800  0.24934100  1
  P  P48  1  0.46379000  0.66023700  0.08711800  1
  O  O49  1  0.03781500  0.13478700  0.97410900  1
  O  O50  1  0.30789700  0.19397900  0.80335500  1
  O  O51  1  0.55766600  0.15308800  0.89674500  1
  O  O52  1  0.64797900  0.30542600  0.97375200  1
  O  O53  1  0.36820100  0.48392500  0.63498400  1
  O  O54  1  0.32072900  0.45284200  0.93694000  1
  O  O55  1  0.54383400  0.45060800  0.86746000  1
  O  O56  1  0.05484100  0.30788500  0.72285200  1
  O  O57  1  0.63928800  0.53424300  0.47562900  1
  O  O58  1  0.62905900  0.54049700  0.73709800  1
  O  O59  1  0.28995200  0.74086500  0.74240400  1
  O  O60  1  0.86722400  0.49195300  0.57048400  1
  O  O61  1  0.80551700  0.52265500  0.96068100  1
  O  O62  1  0.18969300  0.82026700  0.92771000  1
  O  O63  1  0.92378300  0.53387500  0.86091400  1
  O  O64  1  0.47444400  0.80925700  0.81042500  1
  O  O65  1  0.21420700  0.48209400  0.74987400  1
  O  O66  1  0.48640500  0.84577700  0.69640800  1
  O  O67  1  0.99019900  0.63167500  0.63947700  1
  O  O68  1  0.96580600  0.67375200  0.94612300  1
  O  O69  1  0.68732800  0.81192300  0.30062600  1
  O  O70  1  0.67774900  0.79618100  0.90623000  1
  O  O71  1  0.68505000  0.82476600  0.58129500  1
  O  O72  1  0.31755200  0.02283200  0.91289400  1
  O  O73  1  0.97699500  0.70215900  0.52918600  1
  O  O74  1  0.67506100  0.96485000  0.78442400  1
  O  O75  1  0.34816600  0.65242400  0.41624100  1
  O  O76  1  0.96725200  0.82336900  0.74572900  1
  O  O77  1  0.98706000  0.87228800  0.14562000  1
  O  O78  1  0.00519700  0.85904700  0.41942400  1
  O  O79  1  0.66618500  0.02300300  0.40628400  1
  O  O80  1  0.72805500  0.97733200  0.67692400  1
  O  O81  1  0.18487600  0.82821400  0.24705900  1
  O  O82  1  0.13581900  0.86287600  0.62685000  1
  O  O83  1  0.48085800  0.20236600  0.57875100  1
  O  O84  1  0.19833100  0.86101900  0.52026000  1
  O  O85  1  0.80662500  0.13741800  0.48110300  1
  O  O86  1  0.51245200  0.82021800  0.41658000  1
  O  O87  1  0.85990200  0.15035700  0.36778100  1
  O  O88  1  0.79677700  0.14294700  0.74494400  1
  O  O89  1  0.29777000  0.97829000  0.31879700  1
  O  O90  1  0.32252800  0.97990600  0.58816500  1
  O  O91  1  0.00851100  0.13724900  0.57516500  1
  O  O92  1  0.02144300  0.09018800  0.86026400  1
  O  O93  1  0.01520800  0.16317900  0.25356800  1
  O  O94  1  0.63995200  0.36114300  0.58032800  1
  O  O95  1  0.32089600  0.01949900  0.20784800  1
  O  O96  1  0.01930600  0.30618800  0.45847600  1
  O  O97  1  0.68920600  0.98132300  0.09409200  1
  O  O98  1  0.30156300  0.17335200  0.41243300  1
  O  O99  1  0.31652600  0.18712800  0.09783000  1
  O  O100  1  0.36064100  0.20537700  0.68846500  1
  O  O101  1  0.98679700  0.37961200  0.07428600  1
  O  O102  1  0.03815200  0.35446800  0.35222600  1
  O  O103  1  0.47167500  0.19072200  0.30014400  1
  O  O104  1  0.82683700  0.52205600  0.25112000  1
  O  O105  1  0.52985300  0.18949400  0.19431600  1
  O  O106  1  0.11721800  0.48129100  0.15697000  1
  O  O107  1  0.84274200  0.16264400  0.08312000  1
  O  O108  1  0.21116000  0.48499100  0.05104500  1
  O  O109  1  0.13989000  0.48996600  0.42349100  1
  O  O110  1  0.65976800  0.30175500  0.26045200  1
  O  O111  1  0.33792100  0.46423600  0.24808200  1
  O  O112  1  0.35941600  0.48055800  0.52703500  1
  O  O113  1  0.96776300  0.70056300  0.25211100  1
  O  O114  1  0.37433800  0.62303700  0.13741900  1
  O  O115  1  0.64362300  0.51140100  0.08024100  1
  O  O116  1  0.64572900  0.52267800  0.36083400  1
  O  O117  1  0.36125100  0.69819200  0.03139300  1
  O  O118  1  0.47405500  0.82092900  0.10086700  1
  O  O119  1  0.70494300  0.79051600  0.19262700  1
  O  O120  1  0.97376700  0.86181100  0.03157500  1
