# generated using pymatgen
data_Na3Ca2Ta3Ti2O15
_symmetry_space_group_name_H-M   'P 1'
_cell_length_a   5.48879800
_cell_length_b   5.56912020
_cell_length_c   38.93469392
_cell_angle_alpha   89.95954724
_cell_angle_beta   89.94452264
_cell_angle_gamma   89.91452626
_symmetry_Int_Tables_number   1
_chemical_formula_structural   Na3Ca2Ta3Ti2O15
_chemical_formula_sum   'Na12 Ca8 Ta12 Ti8 O60'
_cell_volume   1190.14481677
_cell_formula_units_Z   4
loop_
 _symmetry_equiv_pos_site_id
 _symmetry_equiv_pos_as_xyz
  1  'x, y, z'
loop_
 _atom_site_type_symbol
 _atom_site_label
 _atom_site_symmetry_multiplicity
 _atom_site_fract_x
 _atom_site_fract_y
 _atom_site_fract_z
 _atom_site_occupancy
  Na  Na0  1  0.00935100  0.01620400  0.84948900  1
  Na  Na1  1  0.00985600  0.02036300  0.64990700  1
  Na  Na2  1  0.00597700  0.02540600  0.45029900  1
  Na  Na3  1  0.01202700  0.02014600  0.24878300  1
  Na  Na4  1  0.01243900  0.03704700  0.04795600  1
  Na  Na5  1  0.49462300  0.51215200  0.64978600  1
  Na  Na6  1  0.49926800  0.50935600  0.84876500  1
  Na  Na7  1  0.48001900  0.52208400  0.44893100  1
  Na  Na8  1  0.49172600  0.51833000  0.24837800  1
  Na  Na9  1  0.49678000  0.53170000  0.04880800  1
  Na  Na10  1  0.50016100  0.47563700  0.35352800  1
  Na  Na11  1  0.50980300  0.47532300  0.15272800  1
  Ca  Ca12  1  0.51747800  0.46072000  0.94914100  1
  Ca  Ca13  1  0.50905200  0.46158600  0.74953700  1
  Ca  Ca14  1  0.51049700  0.46147200  0.55024000  1
  Ca  Ca15  1  0.99462800  0.94709300  0.94925100  1
  Ca  Ca16  1  0.98862800  0.94625000  0.74973300  1
  Ca  Ca17  1  0.99005900  0.94642000  0.55040600  1
  Ca  Ca18  1  0.98187800  0.95412800  0.35363500  1
  Ca  Ca19  1  0.99083000  0.95648100  0.15256200  1
  Ta  Ta20  1  0.49883700  0.99231400  0.89899100  1
  Ta  Ta21  1  0.49523600  0.99306200  0.69930100  1
  Ta  Ta22  1  0.49660400  0.99180400  0.49941100  1
  Ta  Ta23  1  0.49726900  0.00428300  0.09995900  1
  Ta  Ta24  1  0.49560700  0.99798600  0.29987200  1
  Ta  Ta25  1  0.50301300  0.99431700  0.00068500  1
  Ta  Ta26  1  0.49583400  0.99062200  0.80047100  1
  Ta  Ta27  1  0.49607700  0.99138300  0.60088100  1
  Ta  Ta28  1  0.48628800  0.00209400  0.40080600  1
  Ta  Ta29  1  0.49994900  0.99494600  0.20070100  1
  Ta  Ta30  1  0.00010500  0.49419300  0.30108100  1
  Ta  Ta31  1  0.00005200  0.50053800  0.09916100  1
  Ti  Ti32  1  0.01414300  0.48894500  0.99843200  1
  Ti  Ti33  1  0.00633200  0.48572800  0.89622400  1
  Ti  Ti34  1  0.00599800  0.48496600  0.60085100  1
  Ti  Ti35  1  0.00485500  0.48489600  0.49999300  1
  Ti  Ti36  1  0.00299700  0.48744700  0.20157700  1
  Ti  Ti37  1  0.00753300  0.48421200  0.79898100  1
  Ti  Ti38  1  0.00168900  0.48659200  0.69768500  1
  Ti  Ti39  1  0.98349400  0.49540800  0.40360200  1
  O  O40  1  0.08395500  0.51991300  0.95013600  1
  O  O41  1  0.07909600  0.52078100  0.75037000  1
  O  O42  1  0.07980900  0.51980600  0.55094500  1
  O  O43  1  0.06996600  0.52026600  0.35026900  1
  O  O44  1  0.07234700  0.52004000  0.14912400  1
  O  O45  1  0.21298700  0.78879800  0.60658500  1
  O  O46  1  0.21474100  0.77966900  0.40713200  1
  O  O47  1  0.22012000  0.78162500  0.20570900  1
  O  O48  1  0.21001500  0.79141500  0.80554200  1
  O  O49  1  0.21368900  0.79047400  0.89356700  1
  O  O50  1  0.21137100  0.79012700  0.69383500  1
  O  O51  1  0.21042800  0.79136700  0.49491500  1
  O  O52  1  0.21783500  0.78334500  0.29316600  1
  O  O53  1  0.21304900  0.79824600  0.00489100  1
  O  O54  1  0.21601800  0.79264700  0.09266000  1
  O  O55  1  0.29012000  0.29085700  0.89263500  1
  O  O56  1  0.28587300  0.28962600  0.80570300  1
  O  O57  1  0.28529100  0.29098600  0.69356400  1
  O  O58  1  0.28393000  0.28875400  0.60695000  1
  O  O59  1  0.26840900  0.27805700  0.40809300  1
  O  O60  1  0.28630900  0.29283400  0.49446200  1
  O  O61  1  0.28827900  0.28798000  0.09119500  1
  O  O62  1  0.29399700  0.29464000  0.00578400  1
  O  O63  1  0.28339900  0.28178200  0.29254300  1
  O  O64  1  0.27361000  0.27819500  0.20718100  1
  O  O65  1  0.42221600  0.02759900  0.94919200  1
  O  O66  1  0.41570100  0.02401100  0.74968000  1
  O  O67  1  0.41480300  0.01316100  0.35027700  1
  O  O68  1  0.41562700  0.02546500  0.55066800  1
  O  O69  1  0.42046000  0.02037400  0.14937500  1
  O  O70  1  0.57866500  0.99238700  0.64997200  1
  O  O71  1  0.57787000  0.98900500  0.84939100  1
  O  O72  1  0.57307200  0.99001400  0.45098300  1
  O  O73  1  0.57462100  0.98871200  0.25071100  1
  O  O74  1  0.57840300  0.98719900  0.04961800  1
  O  O75  1  0.71603600  0.72443200  0.98907500  1
  O  O76  1  0.72003800  0.72366100  0.90867700  1
  O  O77  1  0.71668000  0.72521800  0.70949300  1
  O  O78  1  0.71398800  0.72347000  0.78975000  1
  O  O79  1  0.72428200  0.73175300  0.39313100  1
  O  O80  1  0.71716700  0.72496800  0.59080000  1
  O  O81  1  0.71610600  0.72566800  0.51095600  1
  O  O82  1  0.72261300  0.72623200  0.30918500  1
  O  O83  1  0.72903300  0.73441600  0.19155400  1
  O  O84  1  0.72227800  0.72876600  0.10811100  1
  O  O85  1  0.78519300  0.22287600  0.90848500  1
  O  O86  1  0.78864000  0.22163500  0.98996900  1
  O  O87  1  0.77895800  0.22335300  0.78995300  1
  O  O88  1  0.77953500  0.22507200  0.70949000  1
  O  O89  1  0.78125900  0.22302200  0.51051600  1
  O  O90  1  0.78498900  0.21380000  0.30964900  1
  O  O91  1  0.77926500  0.22518300  0.59083800  1
  O  O92  1  0.77437800  0.22458800  0.39247900  1
  O  O93  1  0.78871700  0.21669800  0.10815700  1
  O  O94  1  0.77931500  0.22599400  0.19175900  1
  O  O95  1  0.93410100  0.48643900  0.84951900  1
  O  O96  1  0.93052900  0.48677600  0.65027000  1
  O  O97  1  0.92369800  0.48782700  0.45171100  1
  O  O98  1  0.92761400  0.49073300  0.25013500  1
  O  O99  1  0.93251200  0.49362900  0.04898700  1
