# generated using pymatgen
data_Os5(CO)16
_symmetry_space_group_name_H-M   'P 1'
_cell_length_a   9.30901571
_cell_length_b   9.30901571
_cell_length_c   25.28982800
_cell_angle_alpha   90.00000000
_cell_angle_beta   90.00000000
_cell_angle_gamma   119.99999791
_symmetry_Int_Tables_number   1
_chemical_formula_structural   Os5(CO)16
_chemical_formula_sum   'Os15 C48 O48'
_cell_volume   1897.94683350
_cell_formula_units_Z   3
loop_
 _symmetry_equiv_pos_site_id
 _symmetry_equiv_pos_as_xyz
  1  'x, y, z'
loop_
 _atom_site_type_symbol
 _atom_site_label
 _atom_site_symmetry_multiplicity
 _atom_site_fract_x
 _atom_site_fract_y
 _atom_site_fract_z
 _atom_site_occupancy
  Os  Os0  1  0.75964300  0.60058200  0.92314400  1
  Os  Os1  1  0.85583400  0.33200600  0.69767900  1
  Os  Os2  1  0.84093900  0.24035700  0.58981100  1
  Os  Os3  1  0.24035700  0.84093900  0.41018900  1
  Os  Os4  1  0.14416600  0.47617200  0.63565400  1
  Os  Os5  1  0.87160900  0.87160900  0.00000000  1
  Os  Os6  1  0.33200600  0.85583400  0.30232100  1
  Os  Os7  1  0.47617200  0.14416600  0.36434600  1
  Os  Os8  1  0.66799400  0.52382800  0.03101200  1
  Os  Os9  1  0.52382800  0.66799400  0.96898800  1
  Os  Os10  1  0.15906100  0.39941800  0.74352300  1
  Os  Os11  1  0.60058200  0.75964300  0.07685600  1
  Os  Os12  1  0.00000000  0.12839100  0.66666700  1
  Os  Os13  1  0.12839100  0.00000000  0.33333300  1
  Os  Os14  1  0.39941800  0.15906100  0.25647700  1
  C  C15  1  0.77902400  0.98162900  0.95605700  1
  C  C16  1  0.19000300  0.90612900  0.47561600  1
  C  C17  1  0.60108300  0.39147700  0.89593900  1
  C  C18  1  0.84914200  0.53095800  0.69813100  1
  C  C19  1  0.98162900  0.77902400  0.04394300  1
  C  C20  1  0.57426200  0.94801100  0.08504600  1
  C  C21  1  0.05132900  0.10364200  0.28307300  1
  C  C22  1  0.15085800  0.68181600  0.63520300  1
  C  C23  1  0.28387300  0.09387100  0.19105100  1
  C  C24  1  0.79739500  0.01837100  0.71061000  1
  C  C25  1  0.62395000  0.20356200  0.68142100  1
  C  C26  1  0.42038800  0.79643800  0.98524500  1
  C  C27  1  0.62625100  0.05198900  0.58162100  1
  C  C28  1  0.31818400  0.46904200  0.96853600  1
  C  C29  1  0.79039300  0.39891700  0.56260500  1
  C  C30  1  0.39891700  0.79039300  0.43739500  1
  C  C31  1  0.71612700  0.80999700  0.14228200  1
  C  C32  1  0.20356200  0.62395000  0.31857900  1
  C  C33  1  0.57961200  0.37605000  0.34808800  1
  C  C34  1  0.42573800  0.37374900  0.24828700  1
  C  C35  1  0.46904200  0.31818400  0.03146400  1
  C  C36  1  0.53095800  0.84914200  0.30186900  1
  C  C37  1  0.81507100  0.30594500  0.77248400  1
  C  C38  1  0.49087300  0.18492900  0.43915100  1
  C  C39  1  0.20960700  0.60852300  0.77072800  1
  C  C40  1  0.30594500  0.81507100  0.22751600  1
  C  C41  1  0.10364200  0.05132900  0.71692700  1
  C  C42  1  0.94801100  0.57426200  0.91495400  1
  C  C43  1  0.79643800  0.42038800  0.01475500  1
  C  C44  1  0.80999700  0.71612700  0.85771800  1
  C  C45  1  0.89635800  0.94768700  0.61640600  1
  C  C46  1  0.37605000  0.57961200  0.65191200  1
  C  C47  1  0.90612900  0.19000300  0.52438400  1
  C  C48  1  0.94867100  0.05231300  0.05026100  1
  C  C49  1  0.22097600  0.20260500  0.37727700  1
  C  C50  1  0.09387100  0.28387300  0.80894900  1
  C  C51  1  0.50912700  0.69405500  0.89418200  1
  C  C52  1  0.94768700  0.89635800  0.38359400  1
  C  C53  1  0.39147700  0.60108300  0.10406100  1
  C  C54  1  0.37374900  0.42573800  0.75171300  1
  C  C55  1  0.05198900  0.62625100  0.41837900  1
  C  C56  1  0.69405500  0.50912700  0.10581800  1
  C  C57  1  0.60852300  0.20960700  0.22927200  1
  C  C58  1  0.18492900  0.49087300  0.56084900  1
  C  C59  1  0.68181600  0.15085800  0.36479700  1
  C  C60  1  0.01837100  0.79739500  0.28939000  1
  C  C61  1  0.05231300  0.94867100  0.94973900  1
  C  C62  1  0.20260500  0.22097600  0.62272300  1
  O  O63  1  0.28415500  0.77273500  0.18342000  1
  O  O64  1  0.24201500  0.31708200  0.40198000  1
  O  O65  1  0.15739100  0.81012700  0.63465900  1
  O  O66  1  0.22726500  0.51142000  0.51675300  1
  O  O67  1  0.05402700  0.21352600  0.84915100  1
  O  O68  1  0.84050100  0.78647400  0.81751600  1
  O  O69  1  0.94597300  0.15949900  0.48418300  1
  O  O70  1  0.51142000  0.22726500  0.48324700  1
  O  O71  1  0.77273500  0.28415500  0.81658000  1
  O  O72  1  0.47960500  0.12476000  0.67947600  1
  O  O73  1  0.52039500  0.64515500  0.65385700  1
  O  O74  1  0.23526200  0.73650700  0.78645600  1
  O  O75  1  0.83606400  0.84019700  0.41252700  1
  O  O76  1  0.18987300  0.34726400  0.96799200  1
  O  O77  1  0.44125300  0.50504500  0.24236900  1
  O  O78  1  0.07506700  0.75798500  0.06864700  1
  O  O79  1  0.15949900  0.94597300  0.51581700  1
  O  O80  1  0.75798500  0.07506700  0.93135300  1
  O  O81  1  0.78647400  0.84050100  0.18248400  1
  O  O82  1  0.81012700  0.15739100  0.36534100  1
  O  O83  1  0.35484500  0.87524000  0.98719000  1
  O  O84  1  0.50124400  0.76473800  0.45312300  1
  O  O85  1  0.87524000  0.35484500  0.01281000  1
  O  O86  1  0.92493300  0.68291800  0.26468600  1
  O  O87  1  0.84260900  0.65273600  0.69867500  1
  O  O88  1  0.15980300  0.99586700  0.74586000  1
  O  O89  1  0.31708200  0.24201500  0.59802000  1
  O  O90  1  0.50504500  0.44125300  0.75763100  1
  O  O91  1  0.00413300  0.16393600  0.07919300  1
  O  O92  1  0.26349300  0.49875600  0.11978900  1
  O  O93  1  0.93620800  0.49495500  0.42429800  1
  O  O94  1  0.73650700  0.23526200  0.21354400  1
  O  O95  1  0.68291800  0.92493300  0.73531400  1
  O  O96  1  0.48858000  0.71584500  0.85008600  1
  O  O97  1  0.21352600  0.05402700  0.15084900  1
  O  O98  1  0.76473800  0.50124400  0.54687700  1
  O  O99  1  0.34726400  0.18987300  0.03200800  1
  O  O100  1  0.55874700  0.06379200  0.09096400  1
  O  O101  1  0.16393600  0.00413300  0.92080700  1
  O  O102  1  0.65273600  0.84260900  0.30132500  1
  O  O103  1  0.64515500  0.52039500  0.34614300  1
  O  O104  1  0.49495500  0.93620800  0.57570200  1
  O  O105  1  0.06379200  0.55874700  0.90903600  1
  O  O106  1  0.71584500  0.48858000  0.14991400  1
  O  O107  1  0.49875600  0.26349300  0.88021100  1
  O  O108  1  0.99586700  0.15980300  0.25414000  1
  O  O109  1  0.84019700  0.83606400  0.58747300  1
  O  O110  1  0.12476000  0.47960500  0.32052400  1
