# generated using pymatgen
data_Rb12Sn8GeO4
_symmetry_space_group_name_H-M   'P 1'
_cell_length_a   23.96839400
_cell_length_b   13.24335400
_cell_length_c   13.48460587
_cell_angle_alpha   61.01405180
_cell_angle_beta   90.00000000
_cell_angle_gamma   90.00000000
_symmetry_Int_Tables_number   1
_chemical_formula_structural   Rb12Sn8GeO4
_chemical_formula_sum   'Rb48 Sn32 Ge4 O16'
_cell_volume   3744.15192177
_cell_formula_units_Z   4
loop_
 _symmetry_equiv_pos_site_id
 _symmetry_equiv_pos_as_xyz
  1  'x, y, z'
loop_
 _atom_site_type_symbol
 _atom_site_label
 _atom_site_symmetry_multiplicity
 _atom_site_fract_x
 _atom_site_fract_y
 _atom_site_fract_z
 _atom_site_occupancy
  Rb  Rb0  1  0.93174700  0.40733800  0.16894700  1
  Rb  Rb1  1  0.79441300  0.66164800  0.62251300  1
  Rb  Rb2  1  0.02726900  0.28677200  0.49628500  1
  Rb  Rb3  1  0.10539900  0.05671100  0.90695400  1
  Rb  Rb4  1  0.38173300  0.88010000  0.12088100  1
  Rb  Rb5  1  0.20558700  0.33835200  0.37748700  1
  Rb  Rb6  1  0.83964300  0.22727700  0.09583000  1
  Rb  Rb7  1  0.75522400  0.84125300  0.27096800  1
  Rb  Rb8  1  0.16164500  0.98690400  0.18978100  1
  Rb  Rb9  1  0.74477600  0.34125300  0.27096800  1
  Rb  Rb10  1  0.00591300  0.04587200  0.27988900  1
  Rb  Rb11  1  0.16035700  0.77272300  0.90417000  1
  Rb  Rb12  1  0.29441300  0.83835200  0.37748700  1
  Rb  Rb13  1  0.25522400  0.65874700  0.72903200  1
  Rb  Rb14  1  0.69033600  0.13408300  0.14312500  1
  Rb  Rb15  1  0.12232200  0.60107700  0.47465500  1
  Rb  Rb16  1  0.61826700  0.11990000  0.87911900  1
  Rb  Rb17  1  0.47273100  0.78677200  0.49628500  1
  Rb  Rb18  1  0.72526000  0.78919100  0.83915600  1
  Rb  Rb19  1  0.89460100  0.94328900  0.09304600  1
  Rb  Rb20  1  0.22526000  0.71080900  0.16084400  1
  Rb  Rb21  1  0.19033600  0.36591700  0.85687500  1
  Rb  Rb22  1  0.52726900  0.21322800  0.50371500  1
  Rb  Rb23  1  0.56825300  0.90733800  0.16894700  1
  Rb  Rb24  1  0.24477600  0.15874700  0.72903200  1
  Rb  Rb25  1  0.70558700  0.16164800  0.62251300  1
  Rb  Rb26  1  0.33964300  0.27272300  0.90417000  1
  Rb  Rb27  1  0.30966400  0.86591700  0.85687500  1
  Rb  Rb28  1  0.06825300  0.59266200  0.83105300  1
  Rb  Rb29  1  0.39460100  0.55671100  0.90695400  1
  Rb  Rb30  1  0.50591300  0.45412800  0.72011100  1
  Rb  Rb31  1  0.49408700  0.54587200  0.27988900  1
  Rb  Rb32  1  0.77474000  0.28919100  0.83915600  1
  Rb  Rb33  1  0.43174700  0.09266200  0.83105300  1
  Rb  Rb34  1  0.27474000  0.21080900  0.16084400  1
  Rb  Rb35  1  0.97273100  0.71322800  0.50371500  1
  Rb  Rb36  1  0.60539900  0.44328900  0.09304600  1
  Rb  Rb37  1  0.80966400  0.63408300  0.14312500  1
  Rb  Rb38  1  0.87767800  0.39892300  0.52534500  1
  Rb  Rb39  1  0.66035700  0.72727700  0.09583000  1
  Rb  Rb40  1  0.83835500  0.01309600  0.81021900  1
  Rb  Rb41  1  0.33835500  0.48690400  0.18978100  1
  Rb  Rb42  1  0.11826700  0.38010000  0.12088100  1
  Rb  Rb43  1  0.99408700  0.95412800  0.72011100  1
  Rb  Rb44  1  0.62232200  0.89892300  0.52534500  1
  Rb  Rb45  1  0.88173300  0.61990000  0.87911900  1
  Rb  Rb46  1  0.66164500  0.51309600  0.81021900  1
  Rb  Rb47  1  0.37767800  0.10107700  0.47465500  1
  Sn  Sn48  1  0.23197800  0.98718000  0.52456700  1
  Sn  Sn49  1  0.04683100  0.80100300  0.18564700  1
  Sn  Sn50  1  0.13214500  0.09955800  0.38065600  1
  Sn  Sn51  1  0.49647400  0.77922100  0.96746500  1
  Sn  Sn52  1  0.73197800  0.51282000  0.47543300  1
  Sn  Sn53  1  0.54447900  0.12716000  0.27306200  1
  Sn  Sn54  1  0.26802200  0.48718000  0.52456700  1
  Sn  Sn55  1  0.04447900  0.37284000  0.72693800  1
  Sn  Sn56  1  0.86785500  0.90044200  0.61934400  1
  Sn  Sn57  1  0.37474000  0.35160100  0.54922200  1
  Sn  Sn58  1  0.76802200  0.01282000  0.47543300  1
  Sn  Sn59  1  0.63219800  0.46495800  0.37868700  1
  Sn  Sn60  1  0.54683100  0.69899700  0.81435300  1
  Sn  Sn61  1  0.12526000  0.85160100  0.54922200  1
  Sn  Sn62  1  0.56858600  0.93801300  0.77070500  1
  Sn  Sn63  1  0.95316900  0.19899700  0.81435300  1
  Sn  Sn64  1  0.99647400  0.72077900  0.03253500  1
  Sn  Sn65  1  0.62526000  0.64839900  0.45077800  1
  Sn  Sn66  1  0.87474000  0.14839900  0.45077800  1
  Sn  Sn67  1  0.63214500  0.40044200  0.61934400  1
  Sn  Sn68  1  0.93141400  0.43801300  0.77070500  1
  Sn  Sn69  1  0.43141400  0.06198700  0.22929500  1
  Sn  Sn70  1  0.36780200  0.53504200  0.62131300  1
  Sn  Sn71  1  0.50352600  0.22077900  0.03253500  1
  Sn  Sn72  1  0.86780200  0.96495800  0.37868700  1
  Sn  Sn73  1  0.06858600  0.56198700  0.22929500  1
  Sn  Sn74  1  0.45316900  0.30100300  0.18564700  1
  Sn  Sn75  1  0.45552100  0.87284000  0.72693800  1
  Sn  Sn76  1  0.00352600  0.27922100  0.96746500  1
  Sn  Sn77  1  0.95552100  0.62716000  0.27306200  1
  Sn  Sn78  1  0.36785500  0.59955800  0.38065600  1
  Sn  Sn79  1  0.13219800  0.03504200  0.62131300  1
  Ge  Ge80  1  0.25765400  0.00933000  0.00443200  1
  Ge  Ge81  1  0.75765400  0.49067000  0.99556800  1
  Ge  Ge82  1  0.74234600  0.99067000  0.99556800  1
  Ge  Ge83  1  0.24234600  0.50933000  0.00443200  1
  O  O84  1  0.22325200  0.14164200  0.97607300  1
  O  O85  1  0.73281700  0.08098300  0.84497900  1
  O  O86  1  0.32363000  0.04146700  0.92945100  1
  O  O87  1  0.71518500  0.56693100  0.04803600  1
  O  O88  1  0.67637000  0.95853300  0.07054900  1
  O  O89  1  0.23281700  0.41901700  0.15502100  1
  O  O90  1  0.27674800  0.64164200  0.97607300  1
  O  O91  1  0.28481500  0.43306900  0.95196400  1
  O  O92  1  0.82363000  0.45853300  0.07054900  1
  O  O93  1  0.78481500  0.06693100  0.04803600  1
  O  O94  1  0.26718300  0.91901700  0.15502100  1
  O  O95  1  0.76718300  0.58098300  0.84497900  1
  O  O96  1  0.21518500  0.93306900  0.95196400  1
  O  O97  1  0.77674800  0.85835800  0.02392700  1
  O  O98  1  0.17637000  0.54146700  0.92945100  1
  O  O99  1  0.72325200  0.35835800  0.02392700  1
