# generated using pymatgen
data_Sr10Ga6O19
_symmetry_space_group_name_H-M   'P 1'
_cell_length_a   8.06341600
_cell_length_b   16.13635002
_cell_length_c   18.09525708
_cell_angle_alpha   102.82388448
_cell_angle_beta   102.86394864
_cell_angle_gamma   89.99696413
_symmetry_Int_Tables_number   1
_chemical_formula_structural   Sr10Ga6O19
_chemical_formula_sum   'Sr40 Ga24 O76'
_cell_volume   2235.08210166
_cell_formula_units_Z   4
loop_
 _symmetry_equiv_pos_site_id
 _symmetry_equiv_pos_as_xyz
  1  'x, y, z'
loop_
 _atom_site_type_symbol
 _atom_site_label
 _atom_site_symmetry_multiplicity
 _atom_site_fract_x
 _atom_site_fract_y
 _atom_site_fract_z
 _atom_site_occupancy
  Sr  Sr0  1  0.83287000  0.02202400  0.62636300  1
  Sr  Sr1  1  0.12422600  0.67832400  0.74848700  1
  Sr  Sr2  1  0.37782200  0.33251900  0.25360600  1
  Sr  Sr3  1  0.14398700  0.24976100  0.99911500  1
  Sr  Sr4  1  0.88807200  0.55871100  0.25709600  1
  Sr  Sr5  1  0.02424700  0.84706000  0.49782600  1
  Sr  Sr6  1  0.10996600  0.44077700  0.74105000  1
  Sr  Sr7  1  0.75295300  0.46936500  0.99043200  1
  Sr  Sr8  1  0.12639800  0.16720700  0.74582000  1
  Sr  Sr9  1  0.58167100  0.42423000  0.76103100  1
  Sr  Sr10  1  0.37314800  0.82116900  0.25001000  1
  Sr  Sr11  1  0.79430700  0.52156900  0.62580900  1
  Sr  Sr12  1  0.85458400  0.75027800  0.00002600  1
  Sr  Sr13  1  0.48468800  0.83217300  0.87098400  1
  Sr  Sr14  1  0.62987900  0.94203200  0.74242800  1
  Sr  Sr15  1  0.50256300  0.12089900  0.50892000  1
  Sr  Sr16  1  0.87338000  0.32205400  0.25065300  1
  Sr  Sr17  1  0.99259400  0.37902600  0.48899100  1
  Sr  Sr18  1  0.97292100  0.15332200  0.50208700  1
  Sr  Sr19  1  0.24429900  0.53047400  0.00763600  1
  Sr  Sr20  1  0.20473100  0.47910700  0.37286800  1
  Sr  Sr21  1  0.61301000  0.66774000  0.12854000  1
  Sr  Sr22  1  0.23693800  0.96943400  0.99179200  1
  Sr  Sr23  1  0.36859600  0.05914100  0.25834400  1
  Sr  Sr24  1  0.16678300  0.97811800  0.37307100  1
  Sr  Sr25  1  0.62409700  0.17863900  0.74825100  1
  Sr  Sr26  1  0.29140900  0.75019000  0.99927500  1
  Sr  Sr27  1  0.51336100  0.16786400  0.12892800  1
  Sr  Sr28  1  0.00525800  0.62144600  0.50983900  1
  Sr  Sr29  1  0.82088700  0.07674100  0.23828200  1
  Sr  Sr30  1  0.38547500  0.33219000  0.87038800  1
  Sr  Sr31  1  0.49821400  0.87941000  0.49010500  1
  Sr  Sr32  1  0.17803900  0.92410400  0.76184500  1
  Sr  Sr33  1  0.76066200  0.02987100  0.00874700  1
  Sr  Sr34  1  0.52713400  0.65452700  0.50270800  1
  Sr  Sr35  1  0.70650400  0.24964600  0.00016700  1
  Sr  Sr36  1  0.61987400  0.66778600  0.74579600  1
  Sr  Sr37  1  0.41559800  0.57618300  0.23773100  1
  Sr  Sr38  1  0.87271100  0.83170900  0.25467700  1
  Sr  Sr39  1  0.46947500  0.34746500  0.49760300  1
  Ga  Ga40  1  0.93485700  0.84778900  0.85398800  1
  Ga  Ga41  1  0.29955200  0.03456700  0.61203300  1
  Ga  Ga42  1  0.15373600  0.21342800  0.35964500  1
  Ga  Ga43  1  0.07435200  0.43125000  0.12568700  1
  Ga  Ga44  1  0.41139400  0.08928100  0.88604900  1
  Ga  Ga45  1  0.30970200  0.76541900  0.62902500  1
  Ga  Ga46  1  0.69999900  0.96506700  0.38702100  1
  Ga  Ga47  1  0.94706900  0.06829400  0.87332300  1
  Ga  Ga48  1  0.84595800  0.78709600  0.63971500  1
  Ga  Ga49  1  0.47240100  0.58909100  0.88576200  1
  Ga  Ga50  1  0.79317500  0.28663100  0.63900000  1
  Ga  Ga51  1  0.92405600  0.56845800  0.87261300  1
  Ga  Ga52  1  0.91785800  0.34784700  0.85313700  1
  Ga  Ga53  1  0.07982600  0.65220600  0.14550100  1
  Ga  Ga54  1  0.04959100  0.93192600  0.12687300  1
  Ga  Ga55  1  0.31313100  0.53476200  0.61169800  1
  Ga  Ga56  1  0.68974400  0.23480700  0.37107600  1
  Ga  Ga57  1  0.58639800  0.91087000  0.11400000  1
  Ga  Ga58  1  0.20512700  0.71341700  0.36026800  1
  Ga  Ga59  1  0.68055000  0.73466700  0.37150200  1
  Ga  Ga60  1  0.52546600  0.41075600  0.11334800  1
  Ga  Ga61  1  0.31887500  0.26518200  0.62799900  1
  Ga  Ga62  1  0.68524100  0.46566900  0.38692100  1
  Ga  Ga63  1  0.06355900  0.15236200  0.14536800  1
  O  O64  1  0.25273300  0.48043200  0.50737200  1
  O  O65  1  0.66868800  0.20732700  0.46027700  1
  O  O66  1  0.92874600  0.23452000  0.37459900  1
  O  O67  1  0.30424700  0.44326100  0.12461700  1
  O  O68  1  0.16036100  0.63112700  0.40896200  1
  O  O69  1  0.49948200  0.87437400  0.00719300  1
  O  O70  1  0.09554600  0.03729700  0.09915200  1
  O  O71  1  0.84462300  0.07597400  0.77362000  1
  O  O72  1  0.84005900  0.36950600  0.59067400  1
  O  O73  1  0.92524500  0.57609100  0.77268900  1
  O  O74  1  0.53403400  0.03666400  0.64966200  1
  O  O75  1  0.25337300  0.15147100  0.61983700  1
  O  O76  1  0.87696900  0.17971100  0.63266100  1
  O  O77  1  0.75560200  0.86947800  0.59024900  1
  O  O78  1  0.12191800  0.82061900  0.36755500  1
  O  O79  1  0.94485400  0.35484000  0.04177500  1
  O  O80  1  0.59536500  0.32680900  0.16659800  1
  O  O81  1  0.16856700  0.83146800  0.87238200  1
  O  O82  1  0.90144800  0.14454700  0.95751900  1
  O  O83  1  0.49142700  0.62596300  0.99216100  1
  O  O84  1  0.09594000  0.85527100  0.04278100  1
  O  O85  1  0.07143700  0.76512000  0.62547500  1
  O  O86  1  0.88544100  0.84934000  0.74603900  1
  O  O87  1  0.00091900  0.53711400  0.09894300  1
  O  O88  1  0.69291800  0.55650300  0.87385800  1
  O  O89  1  0.13798500  0.65186100  0.25373000  1
  O  O90  1  0.17809400  0.05751400  0.87307800  1
  O  O91  1  0.15217100  0.92392600  0.22628000  1
  O  O92  1  0.74744900  0.01963600  0.49135000  1
  O  O93  1  0.85506600  0.99352700  0.33366500  1
  O  O94  1  0.36198900  0.48212400  0.85108000  1
  O  O95  1  0.50745400  0.37443900  0.00703100  1
  O  O96  1  0.56827500  0.82614100  0.16646000  1
  O  O97  1  0.44534100  0.73375200  0.37527200  1
  O  O98  1  0.63496100  0.51860600  0.14867200  1
  O  O99  1  0.24820900  0.13067500  0.40750200  1
  O  O100  1  0.85773300  0.34892200  0.74535600  1
  O  O101  1  0.49686500  0.12610700  0.99256900  1
  O  O102  1  0.46533700  0.96272300  0.35020300  1
  O  O103  1  0.31313600  0.32217700  0.72727500  1
  O  O104  1  0.48790200  0.98193200  0.85249900  1
  O  O105  1  0.43014400  0.17298000  0.83227500  1
  O  O106  1  0.24424200  0.32107400  0.36745000  1
  O  O107  1  0.29545900  0.66844600  0.12770900  1
  O  O108  1  0.51042000  0.01834400  0.14816100  1
  O  O109  1  0.55283600  0.26474400  0.62241400  1
  O  O110  1  0.74695800  0.84820100  0.38111200  1
  O  O111  1  0.07246200  0.42374600  0.22570300  1
  O  O112  1  0.09595200  0.27807600  0.86768000  1
  O  O113  1  0.25414900  0.98090000  0.50789900  1
  O  O114  1  0.40217700  0.67369100  0.83268200  1
  O  O115  1  0.81851700  0.94384100  0.12535800  1
  O  O116  1  0.75559700  0.67974700  0.63224000  1
  O  O117  1  0.90181500  0.72171300  0.13117900  1
  O  O118  1  0.82973400  0.16827900  0.12772700  1
  O  O119  1  0.36727800  0.65156600  0.61904100  1
  O  O120  1  0.41489900  0.82179800  0.72843200  1
  O  O121  1  0.11339400  0.15149400  0.25331500  1
  O  O122  1  0.70227200  0.33224800  0.87144400  1
  O  O123  1  0.33274300  0.79315200  0.53958000  1
  O  O124  1  0.14404300  0.00521700  0.66475700  1
  O  O125  1  0.22680300  0.22218600  0.13079200  1
  O  O126  1  0.74407300  0.52052700  0.49097200  1
  O  O127  1  0.11842100  0.53681900  0.65026000  1
  O  O128  1  0.52231900  0.50435900  0.66328900  1
  O  O129  1  0.63409500  0.34899700  0.38045800  1
  O  O130  1  0.20654800  0.29218500  0.53836000  1
  O  O131  1  0.99734200  0.46267600  0.89952800  1
  O  O132  1  0.90332800  0.96261600  0.90094500  1
  O  O133  1  0.88239200  0.46390300  0.34928200  1
  O  O134  1  0.68724100  0.67797300  0.27173900  1
  O  O135  1  0.79203200  0.70860700  0.46128400  1
  O  O136  1  0.47667200  0.49372200  0.33379600  1
  O  O137  1  0.77126800  0.77807200  0.86842300  1
  O  O138  1  0.58369600  0.17804900  0.27160300  1
  O  O139  1  0.05349000  0.64468000  0.95636300  1
