# generated using pymatgen
data_CdI2
_symmetry_space_group_name_H-M   'P 1'
_cell_length_a   4.33985108
_cell_length_b   4.33985135
_cell_length_c   211.42583947
_cell_angle_alpha   90.00000000
_cell_angle_beta   90.00000000
_cell_angle_gamma   119.99999798
_symmetry_Int_Tables_number   1
_chemical_formula_structural   CdI2
_chemical_formula_sum   'Cd29 I58'
_cell_volume   3448.56475259
_cell_formula_units_Z   29
loop_
 _symmetry_equiv_pos_site_id
 _symmetry_equiv_pos_as_xyz
  1  'x, y, z'
loop_
 _atom_site_type_symbol
 _atom_site_label
 _atom_site_symmetry_multiplicity
 _atom_site_fract_x
 _atom_site_fract_y
 _atom_site_fract_z
 _atom_site_occupancy
  Cd  Cd0  1  0.33333300  0.66666700  0.56034639  1
  Cd  Cd1  1  0.66666700  0.33333300  0.52586052  1
  Cd  Cd2  1  0.66666700  0.33333300  0.00861167  1
  Cd  Cd3  1  0.66666700  0.33333300  0.90517711  1
  Cd  Cd4  1  0.33333300  0.66666700  0.62930968  1
  Cd  Cd5  1  0.33333300  0.66666700  0.73276266  1
  Cd  Cd6  1  0.33333300  0.66666700  0.45691310  1
  Cd  Cd7  1  0.33333300  0.66666700  0.87070355  1
  Cd  Cd8  1  0.66666700  0.33333300  0.59482787  1
  Cd  Cd9  1  0.33333300  0.66666700  0.49137993  1
  Cd  Cd10  1  0.33333300  0.66666700  0.93965863  1
  Cd  Cd11  1  0.66666700  0.33333300  0.42240295  1
  Cd  Cd12  1  0.33333300  0.66666700  0.11207619  1
  Cd  Cd13  1  0.33333300  0.66666700  0.80171828  1
  Cd  Cd14  1  0.66666700  0.33333300  0.69828679  1
  Cd  Cd15  1  0.33333300  0.66666700  0.66378895  1
  Cd  Cd16  1  0.33333300  0.66666700  0.97413267  1
  Cd  Cd17  1  0.33333300  0.66666700  0.14654525  1
  Cd  Cd18  1  0.66666700  0.33333300  0.18103597  1
  Cd  Cd19  1  0.33333300  0.66666700  0.21551786  1
  Cd  Cd20  1  0.33333300  0.66666700  0.31896428  1
  Cd  Cd21  1  0.66666700  0.33333300  0.24999849  1
  Cd  Cd22  1  0.66666700  0.33333300  0.35345149  1
  Cd  Cd23  1  0.33333300  0.66666700  0.28448113  1
  Cd  Cd24  1  0.66666700  0.33333300  0.07759559  1
  Cd  Cd25  1  0.66666700  0.33333300  0.83621457  1
  Cd  Cd26  1  0.33333300  0.66666700  0.38792811  1
  Cd  Cd27  1  0.66666700  0.33333300  0.76723671  1
  Cd  Cd28  1  0.33333300  0.66666700  0.04310037  1
  I  I29  1  0.33333300  0.66666700  0.60293855  1
  I  I30  1  0.00000000  0.00000000  0.34533475  1
  I  I31  1  0.00000000  0.00000000  0.44880361  1
  I  I32  1  0.00000000  0.00000000  0.48326698  1
  I  I33  1  0.66666700  0.33333300  0.32706873  1
  I  I34  1  0.66666700  0.33333300  0.74087016  1
  I  I35  1  0.00000000  0.00000000  0.31085490  1
  I  I36  1  0.00000000  0.00000000  0.24189096  1
  I  I37  1  0.66666700  0.33333300  0.46502041  1
  I  I38  1  0.33333300  0.66666700  0.08570343  1
  I  I39  1  0.66666700  0.33333300  0.56845516  1
  I  I40  1  0.00000000  0.00000000  0.82810407  1
  I  I41  1  0.00000000  0.00000000  0.20741080  1
  I  I42  1  0.33333300  0.66666700  0.70639499  1
  I  I43  1  0.00000000  0.00000000  0.69017658  1
  I  I44  1  0.00000000  0.00000000  0.58671738  1
  I  I45  1  0.33333300  0.66666700  0.91328460  1
  I  I46  1  0.66666700  0.33333300  0.87881276  1
  I  I47  1  0.66666700  0.33333300  0.63741655  1
  I  I48  1  0.33333300  0.66666700  0.77534247  1
  I  I49  1  0.66666700  0.33333300  0.94776719  1
  I  I50  1  0.00000000  0.00000000  0.96602064  1
  I  I51  1  0.00000000  0.00000000  0.62120184  1
  I  I52  1  0.66666700  0.33333300  0.49949022  1
  I  I53  1  0.33333300  0.66666700  0.01671821  1
  I  I54  1  0.00000000  0.00000000  0.93154754  1
  I  I55  1  0.33333300  0.66666700  0.18914653  1
  I  I56  1  0.00000000  0.00000000  0.51775088  1
  I  I57  1  0.33333300  0.66666700  0.53396415  1
  I  I58  1  0.00000000  0.00000000  0.03499060  1
  I  I59  1  0.66666700  0.33333300  0.15465391  1
  I  I60  1  0.66666700  0.33333300  0.12018349  1
  I  I61  1  0.00000000  0.00000000  0.65568002  1
  I  I62  1  0.00000000  0.00000000  0.86259061  1
  I  I63  1  0.66666700  0.33333300  0.98224525  1
  I  I64  1  0.33333300  0.66666700  0.36156498  1
  I  I65  1  0.00000000  0.00000000  0.10396003  1
  I  I66  1  0.00000000  0.00000000  0.89706384  1
  I  I67  1  0.66666700  0.33333300  0.22362364  1
  I  I68  1  0.66666700  0.33333300  0.39603446  1
  I  I69  1  0.00000000  0.00000000  0.27637160  1
  I  I70  1  0.00000000  0.00000000  0.41429199  1
  I  I71  1  0.66666700  0.33333300  0.29258684  1
  I  I72  1  0.33333300  0.66666700  0.25810253  1
  I  I73  1  0.33333300  0.66666700  0.84432262  1
  I  I74  1  0.33333300  0.66666700  0.43051368  1
  I  I75  1  0.00000000  0.00000000  0.55223884  1
  I  I76  1  0.00000000  0.00000000  0.37982215  1
  I  I77  1  0.00000000  0.00000000  0.06948238  1
  I  I78  1  0.66666700  0.33333300  0.05120689  1
  I  I79  1  0.66666700  0.33333300  0.67189684  1
  I  I80  1  0.66666700  0.33333300  0.80982973  1
  I  I81  1  0.00000000  0.00000000  0.13843454  1
  I  I82  1  0.00000000  0.00000000  0.17292408  1
  I  I83  1  0.00000000  0.00000000  0.79360395  1
  I  I84  1  0.00000000  0.00000000  0.00050313  1
  I  I85  1  0.00000000  0.00000000  0.75912802  1
  I  I86  1  0.00000000  0.00000000  0.72464755  1
