# generated using pymatgen
data_Bi9Rh2Br3
_symmetry_space_group_name_H-M   'P 1'
_cell_length_a   13.88328100
_cell_length_b   9.43783100
_cell_length_c   20.24334043
_cell_angle_alpha   79.01995036
_cell_angle_beta   90.00000000
_cell_angle_gamma   90.00000000
_symmetry_Int_Tables_number   1
_chemical_formula_structural   Bi9Rh2Br3
_chemical_formula_sum   'Bi54 Rh12 Br18'
_cell_volume   2603.88879266
_cell_formula_units_Z   6
loop_
 _symmetry_equiv_pos_site_id
 _symmetry_equiv_pos_as_xyz
  1  'x, y, z'
loop_
 _atom_site_type_symbol
 _atom_site_label
 _atom_site_symmetry_multiplicity
 _atom_site_fract_x
 _atom_site_fract_y
 _atom_site_fract_z
 _atom_site_occupancy
  Bi  Bi0  1  0.75000000  0.70230400  0.36069000  1
  Bi  Bi1  1  0.36524300  0.52710600  0.39511900  1
  Bi  Bi2  1  0.53398800  0.50747500  0.11641200  1
  Bi  Bi3  1  0.86529800  0.20321000  0.26186700  1
  Bi  Bi4  1  0.46898000  0.05815100  0.39126200  1
  Bi  Bi5  1  0.13475700  0.52710600  0.39511900  1
  Bi  Bi6  1  0.46601200  0.49252500  0.88358800  1
  Bi  Bi7  1  0.25000000  0.03022100  0.30304900  1
  Bi  Bi8  1  0.53231700  0.74554100  0.94458000  1
  Bi  Bi9  1  0.75000000  0.52466400  0.88658900  1
  Bi  Bi10  1  0.53718500  0.75312400  0.44734200  1
  Bi  Bi11  1  0.03555800  0.96569900  0.21564300  1
  Bi  Bi12  1  0.53555800  0.03430100  0.78435700  1
  Bi  Bi13  1  0.25000000  0.78643200  0.44483400  1
  Bi  Bi14  1  0.46444200  0.96569900  0.21564300  1
  Bi  Bi15  1  0.46281500  0.24687600  0.55265800  1
  Bi  Bi16  1  0.75000000  0.93430800  0.21768600  1
  Bi  Bi17  1  0.13470200  0.79679000  0.73813300  1
  Bi  Bi18  1  0.03718500  0.24687600  0.55265800  1
  Bi  Bi19  1  0.53102000  0.94184900  0.60873800  1
  Bi  Bi20  1  0.96768300  0.74554100  0.94458000  1
  Bi  Bi21  1  0.03453300  0.33567900  0.72289600  1
  Bi  Bi22  1  0.25000000  0.96845400  0.60900200  1
  Bi  Bi23  1  0.25000000  0.06569200  0.78231400  1
  Bi  Bi24  1  0.46546700  0.33567900  0.72289600  1
  Bi  Bi25  1  0.96444200  0.03430100  0.78435700  1
  Bi  Bi26  1  0.96601200  0.50747500  0.11641200  1
  Bi  Bi27  1  0.63470200  0.20321000  0.26186700  1
  Bi  Bi28  1  0.25000000  0.71044300  0.93881200  1
  Bi  Bi29  1  0.86524300  0.47289400  0.60488100  1
  Bi  Bi30  1  0.75000000  0.28955700  0.06118800  1
  Bi  Bi31  1  0.96546700  0.66432100  0.27710400  1
  Bi  Bi32  1  0.63479300  0.21816700  0.93384100  1
  Bi  Bi33  1  0.86520700  0.21816700  0.93384100  1
  Bi  Bi34  1  0.36520700  0.78183300  0.06615900  1
  Bi  Bi35  1  0.75000000  0.21356800  0.55516600  1
  Bi  Bi36  1  0.03102000  0.05815100  0.39126200  1
  Bi  Bi37  1  0.25000000  0.70562300  0.26895900  1
  Bi  Bi38  1  0.75000000  0.96977900  0.69695100  1
  Bi  Bi39  1  0.03231700  0.25445900  0.05542000  1
  Bi  Bi40  1  0.75000000  0.29437700  0.73104100  1
  Bi  Bi41  1  0.13479300  0.78183300  0.06615900  1
  Bi  Bi42  1  0.75000000  0.64354700  0.03030000  1
  Bi  Bi43  1  0.03398800  0.49252500  0.88358800  1
  Bi  Bi44  1  0.25000000  0.47533600  0.11341100  1
  Bi  Bi45  1  0.63475700  0.47289400  0.60488100  1
  Bi  Bi46  1  0.36529800  0.79679000  0.73813300  1
  Bi  Bi47  1  0.46768300  0.25445900  0.05542000  1
  Bi  Bi48  1  0.96898000  0.94184900  0.60873800  1
  Bi  Bi49  1  0.25000000  0.35645300  0.96970000  1
  Bi  Bi50  1  0.53453300  0.66432100  0.27710400  1
  Bi  Bi51  1  0.25000000  0.29769600  0.63931000  1
  Bi  Bi52  1  0.75000000  0.03154600  0.39099800  1
  Bi  Bi53  1  0.96281500  0.75312400  0.44734200  1
  Rh  Rh54  1  0.60119200  0.46520100  0.98897000  1
  Rh  Rh55  1  0.39950400  0.81910100  0.34282100  1
  Rh  Rh56  1  0.10119200  0.53479900  0.01103000  1
  Rh  Rh57  1  0.89973500  0.91292500  0.32036900  1
  Rh  Rh58  1  0.39880800  0.53479900  0.01103000  1
  Rh  Rh59  1  0.10026500  0.08707500  0.67963100  1
  Rh  Rh60  1  0.89880800  0.46520100  0.98897000  1
  Rh  Rh61  1  0.89950400  0.18089900  0.65717900  1
  Rh  Rh62  1  0.60026500  0.91292500  0.32036900  1
  Rh  Rh63  1  0.60049600  0.18089900  0.65717900  1
  Rh  Rh64  1  0.10049600  0.81910100  0.34282100  1
  Rh  Rh65  1  0.39973500  0.08707500  0.67963100  1
  Br  Br66  1  0.60385400  0.64404000  0.73929200  1
  Br  Br67  1  0.10385400  0.35596000  0.26070800  1
  Br  Br68  1  0.25000000  0.42513000  0.79987500  1
  Br  Br69  1  0.39614600  0.35596000  0.26070800  1
  Br  Br70  1  0.25000000  0.10312600  0.12768800  1
  Br  Br71  1  0.75000000  0.89687400  0.87231200  1
  Br  Br72  1  0.89395100  0.93752300  0.07408400  1
  Br  Br73  1  0.39395100  0.06247700  0.92591600  1
  Br  Br74  1  0.75000000  0.82763600  0.54284100  1
  Br  Br75  1  0.39514200  0.63589700  0.58857600  1
  Br  Br76  1  0.89514200  0.36410300  0.41142400  1
  Br  Br77  1  0.25000000  0.17236400  0.45715900  1
  Br  Br78  1  0.89614600  0.64404000  0.73929200  1
  Br  Br79  1  0.10604900  0.06247700  0.92591600  1
  Br  Br80  1  0.75000000  0.57487000  0.20012500  1
  Br  Br81  1  0.60604900  0.93752300  0.07408400  1
  Br  Br82  1  0.60485800  0.36410300  0.41142400  1
  Br  Br83  1  0.10485800  0.63589700  0.58857600  1
