# generated using pymatgen
data_In5Br7
_symmetry_space_group_name_H-M   'P 1'
_cell_length_a   13.43163600
_cell_length_b   13.43163600
_cell_length_c   38.23315600
_cell_angle_alpha   90.00000000
_cell_angle_beta   90.00000000
_cell_angle_gamma   90.00000000
_symmetry_Int_Tables_number   1
_chemical_formula_structural   In5Br7
_chemical_formula_sum   'In80 Br112'
_cell_volume   6897.59953900
_cell_formula_units_Z   16
loop_
 _symmetry_equiv_pos_site_id
 _symmetry_equiv_pos_as_xyz
  1  'x, y, z'
loop_
 _atom_site_type_symbol
 _atom_site_label
 _atom_site_symmetry_multiplicity
 _atom_site_fract_x
 _atom_site_fract_y
 _atom_site_fract_z
 _atom_site_occupancy
  In  In0  1  0.99530800  0.03892600  0.66908600  1
  In  In1  1  0.83212700  0.28366500  0.44268000  1
  In  In2  1  0.25648200  0.25648200  0.00000000  1
  In  In3  1  0.97005200  0.57866800  0.19351700  1
  In  In4  1  0.49530800  0.46107400  0.08091400  1
  In  In5  1  0.53268200  0.82747900  0.69086400  1
  In  In6  1  0.73990200  0.99378400  0.24830200  1
  In  In7  1  0.82747900  0.53268200  0.30913600  1
  In  In8  1  0.29033700  0.99516100  0.91754300  1
  In  In9  1  0.91777000  0.71843100  0.30688200  1
  In  In10  1  0.03268200  0.67252100  0.05913600  1
  In  In11  1  0.26009800  0.00621600  0.74830200  1
  In  In12  1  0.45460700  0.23683000  0.82524800  1
  In  In13  1  0.67252100  0.03268200  0.94086400  1
  In  In14  1  0.23683000  0.45460700  0.17475200  1
  In  In15  1  0.73683000  0.04539300  0.57524800  1
  In  In16  1  0.33212700  0.21633500  0.30732000  1
  In  In17  1  0.04539300  0.73683000  0.42475200  1
  In  In18  1  0.76466200  0.79935100  0.07505100  1
  In  In19  1  0.02994800  0.42133200  0.69351700  1
  In  In20  1  0.70966300  0.00483900  0.41754300  1
  In  In21  1  0.50621600  0.23990200  0.49830200  1
  In  In22  1  0.76009800  0.49378400  0.00169800  1
  In  In23  1  0.99516100  0.29033700  0.08245700  1
  In  In24  1  0.08223000  0.28156900  0.80688200  1
  In  In25  1  0.78366500  0.66787300  0.19268000  1
  In  In26  1  0.96731800  0.32747900  0.55913600  1
  In  In27  1  0.57866800  0.97005200  0.80648300  1
  In  In28  1  0.66787300  0.78366500  0.80732000  1
  In  In29  1  0.42133200  0.02994800  0.30648300  1
  In  In30  1  0.96107400  0.00469200  0.83091400  1
  In  In31  1  0.49378400  0.76009800  0.99830200  1
  In  In32  1  0.23533800  0.20064900  0.57505100  1
  In  In33  1  0.28366500  0.83212700  0.55732000  1
  In  In34  1  0.17252100  0.46731800  0.80913600  1
  In  In35  1  0.95460700  0.26317000  0.92475200  1
  In  In36  1  0.99378400  0.73990200  0.75169800  1
  In  In37  1  0.46107400  0.49530800  0.91908600  1
  In  In38  1  0.52994800  0.07866800  0.05648300  1
  In  In39  1  0.50483900  0.79033700  0.16754300  1
  In  In40  1  0.24351800  0.75648200  0.25000000  1
  In  In41  1  0.46731800  0.17252100  0.19086400  1
  In  In42  1  0.99085000  0.99085000  0.00000000  1
  In  In43  1  0.23990200  0.50621600  0.50169800  1
  In  In44  1  0.53892600  0.50469200  0.41908600  1
  In  In45  1  0.07866800  0.52994800  0.94351700  1
  In  In46  1  0.76317000  0.54539300  0.67475200  1
  In  In47  1  0.75648200  0.24351800  0.75000000  1
  In  In48  1  0.49516100  0.20966300  0.66754300  1
  In  In49  1  0.00483900  0.70966300  0.58245700  1
  In  In50  1  0.50915000  0.49085000  0.25000000  1
  In  In51  1  0.21633500  0.33212700  0.69268000  1
  In  In52  1  0.00469200  0.96107400  0.16908600  1
  In  In53  1  0.00915000  0.00915000  0.50000000  1
  In  In54  1  0.20064900  0.23533800  0.42494900  1
  In  In55  1  0.79033700  0.50483900  0.83245700  1
  In  In56  1  0.49085000  0.50915000  0.75000000  1
  In  In57  1  0.26466200  0.70064900  0.67494900  1
  In  In58  1  0.26317000  0.95460700  0.07524800  1
  In  In59  1  0.20966300  0.49516100  0.33245700  1
  In  In60  1  0.58223000  0.21843100  0.94311800  1
  In  In61  1  0.71843100  0.91777000  0.69311800  1
  In  In62  1  0.29935100  0.73533800  0.82505100  1
  In  In63  1  0.92133200  0.47005200  0.44351700  1
  In  In64  1  0.78156900  0.41777000  0.55688200  1
  In  In65  1  0.79935100  0.76466200  0.92494900  1
  In  In66  1  0.16787300  0.71633500  0.94268000  1
  In  In67  1  0.21843100  0.58223000  0.05688200  1
  In  In68  1  0.54539300  0.76317000  0.32524800  1
  In  In69  1  0.70064900  0.26466200  0.32505100  1
  In  In70  1  0.28156900  0.08223000  0.19311800  1
  In  In71  1  0.73533800  0.29935100  0.17494900  1
  In  In72  1  0.74351800  0.74351800  0.50000000  1
  In  In73  1  0.00621600  0.26009800  0.25169800  1
  In  In74  1  0.47005200  0.92133200  0.55648300  1
  In  In75  1  0.03892600  0.99530800  0.33091400  1
  In  In76  1  0.32747900  0.96731800  0.44086400  1
  In  In77  1  0.50469200  0.53892600  0.58091400  1
  In  In78  1  0.41777000  0.78156900  0.44311800  1
  In  In79  1  0.71633500  0.16787300  0.05732000  1
  Br  Br80  1  0.35287300  0.42355400  0.65610800  1
  Br  Br81  1  0.45367200  0.92600500  0.24855100  1
  Br  Br82  1  0.09462500  0.72497200  0.33718700  1
  Br  Br83  1  0.42600500  0.04632800  0.99855100  1
  Br  Br84  1  0.87318500  0.87837400  0.45020900  1
  Br  Br85  1  0.62255200  0.62798800  0.04979600  1
  Br  Br86  1  0.42708200  0.79302500  0.74836400  1
  Br  Br87  1  0.61076000  0.08678500  0.15666000  1
  Br  Br88  1  0.02408800  0.60449800  0.66899900  1
  Br  Br89  1  0.85524000  0.82745700  0.65619100  1
  Br  Br90  1  0.85643800  0.02792700  0.91674900  1
  Br  Br91  1  0.22294700  0.15461200  0.66283000  1
  Br  Br92  1  0.88924000  0.58678500  0.09334000  1
  Br  Br93  1  0.54412200  0.32627300  0.99898200  1
  Br  Br94  1  0.04632800  0.42600500  0.00144900  1
  Br  Br95  1  0.67254300  0.35524000  0.90619100  1
  Br  Br96  1  0.20806600  0.82591300  0.99793600  1
  Br  Br97  1  0.62162600  0.37318500  0.70020900  1
  Br  Br98  1  0.17372700  0.04412200  0.24898200  1
  Br  Br99  1  0.35524000  0.67254300  0.09380900  1
  Br  Br100  1  0.41321500  0.11076000  0.40666000  1
  Br  Br101  1  0.54632800  0.07399500  0.74855100  1
  Br  Br102  1  0.67372700  0.45587800  0.50101800  1
  Br  Br103  1  0.64356200  0.52792700  0.33325100  1
  Br  Br104  1  0.60449800  0.02408800  0.33100100  1
  Br  Br105  1  0.65461200  0.27705300  0.41283000  1
  Br  Br106  1  0.57644600  0.64712700  0.84389200  1
  Br  Br107  1  0.97207300  0.14356200  0.58325100  1
  Br  Br108  1  0.07644600  0.85287300  0.90610800  1
  Br  Br109  1  0.88785600  0.33409000  0.65895000  1
  Br  Br110  1  0.89550200  0.52408800  0.91899900  1
  Br  Br111  1  0.82627300  0.95587800  0.74898200  1
  Br  Br112  1  0.37318500  0.62162600  0.29979100  1
  Br  Br113  1  0.27502800  0.90537500  0.16281300  1
  Br  Br114  1  0.92708200  0.70697500  0.00163600  1
  Br  Br115  1  0.59462500  0.77502800  0.41281300  1
  Br  Br116  1  0.38785600  0.16591000  0.09105000  1
  Br  Br117  1  0.20697500  0.57291800  0.75163600  1
  Br  Br118  1  0.72294700  0.34538800  0.08716900  1
  Br  Br119  1  0.37837400  0.62681500  0.20020900  1
  Br  Br120  1  0.14476000  0.17254300  0.15619100  1
  Br  Br121  1  0.29302500  0.07291800  0.49836400  1
  Br  Br122  1  0.11214400  0.66591000  0.15895000  1
  Br  Br123  1  0.52792700  0.64356200  0.66674900  1
  Br  Br124  1  0.38924000  0.91321500  0.65666000  1
  Br  Br125  1  0.34538800  0.72294700  0.91283000  1
  Br  Br126  1  0.32745700  0.64476000  0.40619100  1
  Br  Br127  1  0.72497200  0.09462500  0.66281300  1
  Br  Br128  1  0.10449800  0.47591200  0.41899900  1
  Br  Br129  1  0.02792700  0.85643800  0.08325100  1
  Br  Br130  1  0.32591300  0.29193400  0.74793600  1
  Br  Br131  1  0.52408800  0.89550200  0.08100100  1
  Br  Br132  1  0.79193400  0.17408700  0.49793600  1
  Br  Br133  1  0.37201200  0.37744800  0.45020400  1
  Br  Br134  1  0.85287300  0.07644600  0.09389200  1
  Br  Br135  1  0.15461200  0.22294700  0.33717000  1
  Br  Br136  1  0.64476000  0.32745700  0.59380900  1
  Br  Br137  1  0.67408700  0.70806600  0.24793600  1
  Br  Br138  1  0.12798800  0.87744800  0.79979600  1
  Br  Br139  1  0.83409000  0.61214400  0.40895000  1
  Br  Br140  1  0.64712700  0.57644600  0.15610800  1
  Br  Br141  1  0.04412200  0.17372700  0.75101800  1
  Br  Br142  1  0.22497200  0.40537500  0.08718700  1
  Br  Br143  1  0.95367200  0.57399500  0.50144900  1
  Br  Br144  1  0.07399500  0.54632800  0.25144900  1
  Br  Br145  1  0.87201200  0.12255200  0.29979600  1
  Br  Br146  1  0.17408700  0.79193400  0.50206400  1
  Br  Br147  1  0.12681500  0.12162600  0.95020900  1
  Br  Br148  1  0.82591300  0.20806600  0.00206400  1
  Br  Br149  1  0.45587800  0.67372700  0.49898200  1
  Br  Br150  1  0.92600500  0.45367200  0.75144900  1
  Br  Br151  1  0.62798800  0.62255200  0.95020400  1
  Br  Br152  1  0.82745700  0.85524000  0.34380900  1
  Br  Br153  1  0.66591000  0.11214400  0.84105000  1
  Br  Br154  1  0.70697500  0.92708200  0.99836400  1
  Br  Br155  1  0.97591200  0.39550200  0.16899900  1
  Br  Br156  1  0.84538800  0.77705300  0.83717000  1
  Br  Br157  1  0.12255200  0.87201200  0.70020400  1
  Br  Br158  1  0.91321500  0.38924000  0.34334000  1
  Br  Br159  1  0.47207300  0.35643800  0.16674900  1
  Br  Br160  1  0.35643800  0.47207300  0.83325100  1
  Br  Br161  1  0.29193400  0.32591300  0.25206400  1
  Br  Br162  1  0.37744800  0.37201200  0.54979600  1
  Br  Br163  1  0.87744800  0.12798800  0.20020400  1
  Br  Br164  1  0.14712700  0.92355400  0.59389200  1
  Br  Br165  1  0.14356200  0.97207300  0.41674900  1
  Br  Br166  1  0.07291800  0.29302500  0.50163600  1
  Br  Br167  1  0.62681500  0.37837400  0.79979100  1
  Br  Br168  1  0.57291800  0.20697500  0.24836400  1
  Br  Br169  1  0.40537500  0.22497200  0.91281300  1
  Br  Br170  1  0.95587800  0.82627300  0.25101800  1
  Br  Br171  1  0.90537500  0.27502800  0.83718700  1
  Br  Br172  1  0.77502800  0.59462500  0.58718700  1
  Br  Br173  1  0.58678500  0.88924000  0.90666000  1
  Br  Br174  1  0.33409000  0.88785600  0.34105000  1
  Br  Br175  1  0.92355400  0.14712700  0.40610800  1
  Br  Br176  1  0.57399500  0.95367200  0.49855100  1
  Br  Br177  1  0.27705300  0.65461200  0.58717000  1
  Br  Br178  1  0.12162600  0.12681500  0.04979100  1
  Br  Br179  1  0.17254300  0.14476000  0.84380900  1
  Br  Br180  1  0.70806600  0.67408700  0.75206400  1
  Br  Br181  1  0.87837400  0.87318500  0.54979100  1
  Br  Br182  1  0.08678500  0.61076000  0.84334000  1
  Br  Br183  1  0.47591200  0.10449800  0.58100100  1
  Br  Br184  1  0.61214400  0.83409000  0.59105000  1
  Br  Br185  1  0.39550200  0.97591200  0.83100100  1
  Br  Br186  1  0.11076000  0.41321500  0.59334000  1
  Br  Br187  1  0.79302500  0.42708200  0.25163600  1
  Br  Br188  1  0.77705300  0.84538800  0.16283000  1
  Br  Br189  1  0.16591000  0.38785600  0.90895000  1
  Br  Br190  1  0.42355400  0.35287300  0.34389200  1
  Br  Br191  1  0.32627300  0.54412200  0.00101800  1
