# generated using pymatgen
data_Os3C10(BrO5)2
_symmetry_space_group_name_H-M   'P 1'
_cell_length_a   9.34445841
_cell_length_b   9.34445841
_cell_length_c   14.35729721
_cell_angle_alpha   77.63054859
_cell_angle_beta   77.63054859
_cell_angle_gamma   52.59687690
_symmetry_Int_Tables_number   1
_chemical_formula_structural   Os3C10(BrO5)2
_chemical_formula_sum   'Os6 C20 Br4 O20'
_cell_volume   967.03910453
_cell_formula_units_Z   2
loop_
 _symmetry_equiv_pos_site_id
 _symmetry_equiv_pos_as_xyz
  1  'x, y, z'
loop_
 _atom_site_type_symbol
 _atom_site_label
 _atom_site_symmetry_multiplicity
 _atom_site_fract_x
 _atom_site_fract_y
 _atom_site_fract_z
 _atom_site_occupancy
  Os  Os0  1  0.77908200  0.21361500  0.00202100  1
  Os  Os1  1  0.14866400  0.64642000  0.35517700  1
  Os  Os2  1  0.21361500  0.77908200  0.50202100  1
  Os  Os3  1  0.75106300  0.43655400  0.81227000  1
  Os  Os4  1  0.64642000  0.14866400  0.85517700  1
  Os  Os5  1  0.43655400  0.75106300  0.31227000  1
  C  C6  1  0.52699700  0.42032100  0.02741500  1
  C  C7  1  0.64327100  0.63444000  0.37677300  1
  C  C8  1  0.98501100  0.34811800  0.83621900  1
  C  C9  1  0.02227700  0.01979300  0.95198700  1
  C  C10  1  0.47561400  0.16307200  0.95952300  1
  C  C11  1  0.34811800  0.98501100  0.33621900  1
  C  C12  1  0.72723100  0.09437700  0.11874100  1
  C  C13  1  0.16307200  0.47561400  0.45952300  1
  C  C14  1  0.87368800  0.31098900  0.05217900  1
  C  C15  1  0.01979300  0.02227700  0.45198700  1
  C  C16  1  0.90326700  0.81885700  0.40129200  1
  C  C17  1  0.81885700  0.90326700  0.90129200  1
  C  C18  1  0.61214900  0.10473700  0.20452500  1
  C  C19  1  0.75053400  0.56643300  0.68943800  1
  C  C20  1  0.63444000  0.64327100  0.87677300  1
  C  C21  1  0.42032100  0.52699700  0.52741500  1
  C  C22  1  0.31098900  0.87368800  0.55217900  1
  C  C23  1  0.09437700  0.72723100  0.61874100  1
  C  C24  1  0.56643300  0.75053400  0.18943800  1
  C  C25  1  0.10473700  0.61214900  0.70452500  1
  Br  Br26  1  0.49809300  0.44183700  0.29815100  1
  Br  Br27  1  0.15272300  0.88656400  0.22437900  1
  Br  Br28  1  0.88656400  0.15272300  0.72437900  1
  Br  Br29  1  0.44183700  0.49809300  0.79815100  1
  O  O30  1  0.75172100  0.92249000  0.42744300  1
  O  O31  1  0.75873900  0.64433200  0.61619000  1
  O  O32  1  0.94379800  0.78487900  0.68997400  1
  O  O33  1  0.91210400  0.16740000  0.41860600  1
  O  O34  1  0.64433200  0.75873900  0.11619000  1
  O  O35  1  0.10686300  0.56314400  0.26608900  1
  O  O36  1  0.77454000  0.56098400  0.41335100  1
  O  O37  1  0.56098400  0.77454000  0.91335100  1
  O  O38  1  0.92249000  0.75172100  0.92744300  1
  O  O39  1  0.28985700  0.12996800  0.35015700  1
  O  O40  1  0.37748500  0.53993300  0.04533200  1
  O  O41  1  0.12996800  0.28985700  0.85015700  1
  O  O42  1  0.16613400  0.37262900  0.52236800  1
  O  O43  1  0.37262900  0.16613400  0.02236800  1
  O  O44  1  0.53993300  0.37748500  0.54533200  1
  O  O45  1  0.56314400  0.10686300  0.76608900  1
  O  O46  1  0.93000700  0.36240300  0.09040000  1
  O  O47  1  0.78487900  0.94379800  0.18997400  1
  O  O48  1  0.16740000  0.91210400  0.91860600  1
  O  O49  1  0.36240300  0.93000700  0.59040000  1
