# generated using pymatgen
data_Bi17P5Pb5O43
_symmetry_space_group_name_H-M   'P 1'
_cell_length_a   11.66327119
_cell_length_b   11.66327119
_cell_length_c   11.65341734
_cell_angle_alpha   61.89773084
_cell_angle_beta   61.89773084
_cell_angle_gamma   92.92068439
_symmetry_Int_Tables_number   1
_chemical_formula_structural   Bi17P5Pb5O43
_chemical_formula_sum   'Bi17 P5 Pb5 O43'
_cell_volume   1155.18159828
_cell_formula_units_Z   1
loop_
 _symmetry_equiv_pos_site_id
 _symmetry_equiv_pos_as_xyz
  1  'x, y, z'
loop_
 _atom_site_type_symbol
 _atom_site_label
 _atom_site_symmetry_multiplicity
 _atom_site_fract_x
 _atom_site_fract_y
 _atom_site_fract_z
 _atom_site_occupancy
  Bi  Bi0  1  0.02965600  0.67347100  0.66557300  1
  Bi  Bi1  1  0.02381000  0.02381000  0.29634400  1
  Bi  Bi2  1  0.34428400  0.00334300  0.33220700  1
  Bi  Bi3  1  0.66419500  0.66419500  0.66786400  1
  Bi  Bi4  1  0.34378300  0.00816700  0.66395900  1
  Bi  Bi5  1  0.67347100  0.02965600  0.66557300  1
  Bi  Bi6  1  0.01312900  0.66435400  0.02301200  1
  Bi  Bi7  1  0.34679900  0.64295000  0.67473800  1
  Bi  Bi8  1  0.00816700  0.34378300  0.66395900  1
  Bi  Bi9  1  0.64295000  0.34679900  0.67473800  1
  Bi  Bi10  1  0.67032100  0.67032100  0.02273400  1
  Bi  Bi11  1  0.00024300  0.00024300  0.01298900  1
  Bi  Bi12  1  0.32855300  0.32855300  0.35029900  1
  Bi  Bi13  1  0.67369800  0.35052200  0.32996900  1
  Bi  Bi14  1  0.66435400  0.01312900  0.02301200  1
  Bi  Bi15  1  0.35052200  0.67369800  0.32996900  1
  Bi  Bi16  1  0.00334300  0.34428400  0.33220700  1
  P  P17  1  0.98343500  0.67269200  0.35680600  1
  P  P18  1  0.35256700  0.65479000  0.97722200  1
  P  P19  1  0.65479000  0.35256700  0.97722200  1
  P  P20  1  0.00483500  0.00483500  0.64290300  1
  P  P21  1  0.67269200  0.98343500  0.35680600  1
  Pb  Pb22  1  0.33489200  0.99945400  0.99225000  1
  Pb  Pb23  1  0.33108200  0.33108200  0.00545200  1
  Pb  Pb24  1  0.31817200  0.31817200  0.69201400  1
  Pb  Pb25  1  0.65894200  0.65894200  0.35973100  1
  Pb  Pb26  1  0.99945400  0.33489200  0.99225000  1
  O  O27  1  0.11290700  0.11290700  0.05029400  1
  O  O28  1  0.26088100  0.73012600  0.92859100  1
  O  O29  1  0.50053600  0.50053600  0.24901900  1
  O  O30  1  0.89877100  0.89877100  0.82306600  1
  O  O31  1  0.06562700  0.48133500  0.71116100  1
  O  O32  1  0.54609800  0.54609800  0.64459600  1
  O  O33  1  0.92874900  0.07934000  0.56381600  1
  O  O34  1  0.02474400  0.82937200  0.23302700  1
  O  O35  1  0.45510200  0.74534400  0.97596500  1
  O  O36  1  0.60230800  0.41831400  0.48684100  1
  O  O37  1  0.07934000  0.92874900  0.56381600  1
  O  O38  1  0.42146400  0.22554800  0.47799800  1
  O  O39  1  0.26312500  0.50947300  0.13496700  1
  O  O40  1  0.07222800  0.65227900  0.42577000  1
  O  O41  1  0.21045100  0.02948800  0.84733000  1
  O  O42  1  0.73012600  0.26088100  0.92859100  1
  O  O43  1  0.44494200  0.94860700  0.16541100  1
  O  O44  1  0.62602500  0.43902700  0.84495200  1
  O  O45  1  0.02948800  0.21045100  0.84733000  1
  O  O46  1  0.25209000  0.76768400  0.48706900  1
  O  O47  1  0.58810800  0.99229600  0.28437800  1
  O  O48  1  0.11735000  0.11735000  0.60826100  1
  O  O49  1  0.63848100  0.08948000  0.82681900  1
  O  O50  1  0.22554800  0.42146400  0.47799800  1
  O  O51  1  0.74534400  0.45510200  0.97596500  1
  O  O52  1  0.82937200  0.02474400  0.23302700  1
  O  O53  1  0.42550100  0.24027700  0.84496700  1
  O  O54  1  0.76768400  0.25209000  0.48706900  1
  O  O55  1  0.41831400  0.60230800  0.48684100  1
  O  O56  1  0.99229600  0.58810800  0.28437800  1
  O  O57  1  0.08948000  0.63848100  0.82681900  1
  O  O58  1  0.77824500  0.59590400  0.13732800  1
  O  O59  1  0.61715000  0.82594000  0.49559000  1
  O  O60  1  0.65227900  0.07222800  0.42577000  1
  O  O61  1  0.06325200  0.24011000  0.21185800  1
  O  O62  1  0.24027700  0.42550100  0.84496700  1
  O  O63  1  0.43902700  0.62602500  0.84495200  1
  O  O64  1  0.24011000  0.06325200  0.21185800  1
  O  O65  1  0.82594000  0.61715000  0.49559000  1
  O  O66  1  0.50947300  0.26312500  0.13496700  1
  O  O67  1  0.94860700  0.44494200  0.16541100  1
  O  O68  1  0.59590400  0.77824500  0.13732800  1
  O  O69  1  0.48133500  0.06562700  0.71116100  1
