# generated using pymatgen
data_Cd13(In13Se27)2
_symmetry_space_group_name_H-M   'P 1'
_cell_length_a   17.51264400
_cell_length_b   17.51999500
_cell_length_c   18.37231000
_cell_angle_alpha   90.00000000
_cell_angle_beta   90.00000000
_cell_angle_gamma   90.00000000
_symmetry_Int_Tables_number   1
_chemical_formula_structural   Cd13(In13Se27)2
_chemical_formula_sum   'Cd26 In52 Se108'
_cell_volume   5637.01852428
_cell_formula_units_Z   2
loop_
 _symmetry_equiv_pos_site_id
 _symmetry_equiv_pos_as_xyz
  1  'x, y, z'
loop_
 _atom_site_type_symbol
 _atom_site_label
 _atom_site_symmetry_multiplicity
 _atom_site_fract_x
 _atom_site_fract_y
 _atom_site_fract_z
 _atom_site_occupancy
  Cd  Cd0  1  0.83385800  0.33345600  0.16628800  1
  Cd  Cd1  1  0.00138400  0.83407400  0.83549200  1
  Cd  Cd2  1  0.66614200  0.83345600  0.83371200  1
  Cd  Cd3  1  0.50008600  0.33340600  0.49880500  1
  Cd  Cd4  1  0.66669800  0.16734600  0.83416500  1
  Cd  Cd5  1  0.33455700  0.50136900  0.83477600  1
  Cd  Cd6  1  0.33385800  0.16654400  0.83371200  1
  Cd  Cd7  1  0.49861600  0.33407400  0.16450800  1
  Cd  Cd8  1  0.66544300  0.49863100  0.83477600  1
  Cd  Cd9  1  0.00008600  0.16659400  0.50119500  1
  Cd  Cd10  1  0.99861600  0.16592600  0.83549200  1
  Cd  Cd11  1  0.33330200  0.83265400  0.83416500  1
  Cd  Cd12  1  0.16544300  0.00136900  0.16522400  1
  Cd  Cd13  1  0.16614200  0.66654400  0.16628800  1
  Cd  Cd14  1  0.50000000  0.00000000  0.16582800  1
  Cd  Cd15  1  0.50000000  0.00000000  0.49889800  1
  Cd  Cd16  1  0.83455700  0.99863100  0.16522400  1
  Cd  Cd17  1  0.83330200  0.66734600  0.16583500  1
  Cd  Cd18  1  0.00000000  0.50000000  0.50110200  1
  Cd  Cd19  1  0.50000000  0.50000000  0.00014100  1
  Cd  Cd20  1  0.99991400  0.83340600  0.50119500  1
  Cd  Cd21  1  0.16669800  0.33265400  0.16583500  1
  Cd  Cd22  1  0.49991400  0.66659400  0.49880500  1
  Cd  Cd23  1  0.00000000  0.00000000  0.99985900  1
  Cd  Cd24  1  0.50138400  0.66592600  0.16450800  1
  Cd  Cd25  1  0.00000000  0.50000000  0.83417200  1
  In  In26  1  0.83044200  0.83425100  0.66604100  1
  In  In27  1  0.16567600  0.16584600  0.00106100  1
  In  In28  1  0.49993100  0.16696900  0.66690000  1
  In  In29  1  0.16584900  0.83447800  0.99880300  1
  In  In30  1  0.66841200  0.66443000  0.66640300  1
  In  In31  1  0.16699900  0.49989500  0.99990600  1
  In  In32  1  0.00000000  0.00000000  0.66720000  1
  In  In33  1  0.33158800  0.33557000  0.66640300  1
  In  In34  1  0.49985000  0.83305400  0.00013700  1
  In  In35  1  0.83054100  0.16718700  0.66633300  1
  In  In36  1  0.66939700  0.00031900  0.33414400  1
  In  In37  1  0.33044200  0.66574900  0.33395900  1
  In  In38  1  0.33140700  0.00153600  0.66643700  1
  In  In39  1  0.66567600  0.33415400  0.99893900  1
  In  In40  1  0.50000000  0.50000000  0.33280000  1
  In  In41  1  0.66945900  0.66718700  0.33366700  1
  In  In42  1  0.83415100  0.16552200  0.99880300  1
  In  In43  1  0.50015000  0.16694600  0.00013700  1
  In  In44  1  0.00006900  0.33338700  0.66628200  1
  In  In45  1  0.66855000  0.33134900  0.66656000  1
  In  In46  1  0.83432400  0.83415400  0.00106100  1
  In  In47  1  0.00015000  0.33305400  0.99986300  1
  In  In48  1  0.16955800  0.16574900  0.66604100  1
  In  In49  1  0.33300100  0.99989500  0.00009400  1
  In  In50  1  0.50006900  0.83303100  0.66690000  1
  In  In51  1  0.99993100  0.66661300  0.66628200  1
  In  In52  1  0.33415100  0.33447800  0.00119700  1
  In  In53  1  0.16945900  0.83281300  0.66633300  1
  In  In54  1  0.50000000  0.50000000  0.66739700  1
  In  In55  1  0.49993100  0.83338700  0.33371800  1
  In  In56  1  0.33145000  0.66865100  0.66656000  1
  In  In57  1  0.00000000  0.00000000  0.33260300  1
  In  In58  1  0.83140700  0.49846400  0.33356300  1
  In  In59  1  0.50006900  0.16661300  0.33371800  1
  In  In60  1  0.83158800  0.16443000  0.33359700  1
  In  In61  1  0.66955800  0.33425100  0.33395900  1
  In  In62  1  0.83060300  0.50031900  0.66585600  1
  In  In63  1  0.33060300  0.99968100  0.33414400  1
  In  In64  1  0.66584900  0.66552200  0.00119700  1
  In  In65  1  0.16855000  0.16865100  0.33344000  1
  In  In66  1  0.16859300  0.50153600  0.33356300  1
  In  In67  1  0.83145000  0.83134900  0.33344000  1
  In  In68  1  0.00006900  0.66696900  0.33310000  1
  In  In69  1  0.66859300  0.99846400  0.66643700  1
  In  In70  1  0.83300100  0.50010500  0.99990600  1
  In  In71  1  0.33054100  0.33281300  0.33366700  1
  In  In72  1  0.16841200  0.83557000  0.33359700  1
  In  In73  1  0.66699900  0.00010500  0.00009400  1
  In  In74  1  0.33432400  0.66584600  0.99893900  1
  In  In75  1  0.16939700  0.49968100  0.66585600  1
  In  In76  1  0.99993100  0.33303100  0.33310000  1
  In  In77  1  0.99985000  0.66694600  0.99986300  1
  Se  Se78  1  0.09299200  0.40740600  0.42162100  1
  Se  Se79  1  0.57389600  0.25929200  0.75571100  1
  Se  Se80  1  0.24494500  0.92176200  0.42289100  1
  Se  Se81  1  0.07412900  0.75922600  0.08837700  1
  Se  Se82  1  0.24141200  0.59230700  0.75622100  1
  Se  Se83  1  0.59299200  0.09259400  0.57837900  1
  Se  Se84  1  0.57421700  0.59247400  0.75588100  1
  Se  Se85  1  0.09119200  0.07650600  0.75480800  1
  Se  Se86  1  0.57402200  0.92593400  0.75542900  1
  Se  Se87  1  0.90700800  0.59259400  0.42162100  1
  Se  Se88  1  0.59255400  0.24104100  0.08871700  1
  Se  Se89  1  0.59288900  0.90736600  0.42208700  1
  Se  Se90  1  0.24093900  0.07434200  0.91137000  1
  Se  Se91  1  0.74093900  0.42565800  0.08863000  1
  Se  Se92  1  0.59322700  0.24081800  0.42186000  1
  Se  Se93  1  0.42574000  0.92562900  0.91161900  1
  Se  Se94  1  0.24178000  0.92563600  0.75685000  1
  Se  Se95  1  0.40867100  0.90950600  0.24573900  1
  Se  Se96  1  0.07426000  0.42562900  0.08838100  1
  Se  Se97  1  0.42610400  0.74070800  0.75571100  1
  Se  Se98  1  0.75868500  0.59237000  0.91128900  1
  Se  Se99  1  0.75822000  0.07436400  0.75685000  1
  Se  Se100  1  0.07389600  0.24070800  0.24428900  1
  Se  Se101  1  0.90681100  0.25891800  0.42173000  1
  Se  Se102  1  0.74475800  0.24467900  0.57723300  1
  Se  Se103  1  0.59240700  0.90757700  0.08846900  1
  Se  Se104  1  0.90717300  0.07397600  0.57850100  1
  Se  Se105  1  0.25868500  0.90763000  0.08871100  1
  Se  Se106  1  0.59132900  0.09049400  0.24573900  1
  Se  Se107  1  0.07469700  0.09410800  0.08984300  1
  Se  Se108  1  0.24189100  0.25871100  0.75634600  1
  Se  Se109  1  0.59318900  0.75891800  0.57827000  1
  Se  Se110  1  0.74178000  0.57436400  0.24315000  1
  Se  Se111  1  0.90759300  0.40757700  0.91153100  1
  Se  Se112  1  0.59119200  0.42349400  0.24519200  1
  Se  Se113  1  0.25822000  0.42563600  0.24315000  1
  Se  Se114  1  0.25858800  0.09230700  0.24377900  1
  Se  Se115  1  0.40880800  0.57650600  0.24519200  1
  Se  Se116  1  0.92530300  0.90589200  0.08984300  1
  Se  Se117  1  0.92610400  0.75929200  0.24428900  1
  Se  Se118  1  0.92597800  0.42593400  0.24457100  1
  Se  Se119  1  0.25906100  0.57434200  0.08863000  1
  Se  Se120  1  0.92587100  0.24077400  0.08837700  1
  Se  Se121  1  0.40711100  0.09263400  0.42208700  1
  Se  Se122  1  0.74189100  0.24128900  0.24365400  1
  Se  Se123  1  0.40891200  0.24245200  0.24590200  1
  Se  Se124  1  0.74494500  0.57823800  0.57710900  1
  Se  Se125  1  0.40717300  0.42602400  0.42149900  1
  Se  Se126  1  0.74141200  0.90769300  0.24377900  1
  Se  Se127  1  0.40744600  0.75895900  0.08871700  1
  Se  Se128  1  0.42578300  0.40752600  0.75588100  1
  Se  Se129  1  0.40759300  0.09242300  0.08846900  1
  Se  Se130  1  0.57469700  0.40589200  0.91015700  1
  Se  Se131  1  0.07402200  0.57406600  0.24457100  1
  Se  Se132  1  0.59108800  0.75754800  0.24590200  1
  Se  Se133  1  0.90711100  0.40736600  0.57791300  1
  Se  Se134  1  0.09421400  0.92526600  0.90984200  1
  Se  Se135  1  0.90867100  0.59049400  0.75426100  1
  Se  Se136  1  0.74589300  0.91308100  0.57706900  1
  Se  Se137  1  0.40700800  0.90740600  0.57837900  1
  Se  Se138  1  0.09311200  0.07411200  0.42144000  1
  Se  Se139  1  0.25505500  0.42176200  0.57710900  1
  Se  Se140  1  0.75410700  0.41308100  0.42293100  1
  Se  Se141  1  0.42597800  0.07406600  0.75542900  1
  Se  Se142  1  0.75858800  0.40769300  0.75622100  1
  Se  Se143  1  0.90688800  0.92588800  0.42144000  1
  Se  Se144  1  0.09318900  0.74108200  0.42173000  1
  Se  Se145  1  0.75810900  0.74128900  0.75634600  1
  Se  Se146  1  0.24475800  0.25532100  0.42276700  1
  Se  Se147  1  0.90578600  0.07473400  0.90984200  1
  Se  Se148  1  0.90744600  0.74104100  0.91128300  1
  Se  Se149  1  0.42587100  0.25922600  0.91162300  1
  Se  Se150  1  0.92574000  0.57437100  0.08838100  1
  Se  Se151  1  0.75906100  0.92565800  0.91137000  1
  Se  Se152  1  0.25905600  0.24089800  0.08809000  1
  Se  Se153  1  0.90891200  0.25754800  0.75409800  1
  Se  Se154  1  0.09322700  0.25918200  0.57814000  1
  Se  Se155  1  0.57426000  0.07437100  0.91161900  1
  Se  Se156  1  0.25524200  0.75532100  0.57723300  1
  Se  Se157  1  0.75524200  0.74467900  0.42276700  1
  Se  Se158  1  0.90880800  0.92349400  0.75480800  1
  Se  Se159  1  0.40677300  0.75918200  0.42186000  1
  Se  Se160  1  0.25810900  0.75871100  0.24365400  1
  Se  Se161  1  0.09132900  0.40950600  0.75426100  1
  Se  Se162  1  0.74094400  0.75910200  0.08809000  1
  Se  Se163  1  0.24131500  0.40763000  0.91128900  1
  Se  Se164  1  0.25410700  0.08691900  0.57706900  1
  Se  Se165  1  0.92578300  0.09247400  0.24411900  1
  Se  Se166  1  0.90677300  0.74081800  0.57814000  1
  Se  Se167  1  0.59282700  0.57397600  0.42149900  1
  Se  Se168  1  0.40578600  0.42526600  0.09015800  1
  Se  Se169  1  0.75905600  0.25910200  0.91191000  1
  Se  Se170  1  0.59421400  0.57473400  0.09015800  1
  Se  Se171  1  0.59311200  0.42588800  0.57856000  1
  Se  Se172  1  0.24094400  0.74089800  0.91191000  1
  Se  Se173  1  0.75505500  0.07823800  0.42289100  1
  Se  Se174  1  0.09240700  0.59242300  0.91153100  1
  Se  Se175  1  0.07421700  0.90752600  0.24411900  1
  Se  Se176  1  0.09108800  0.74245200  0.75409800  1
  Se  Se177  1  0.40688800  0.57411200  0.57856000  1
  Se  Se178  1  0.57412900  0.74077400  0.91162300  1
  Se  Se179  1  0.09282700  0.92602400  0.57850100  1
  Se  Se180  1  0.09255400  0.25895900  0.91128300  1
  Se  Se181  1  0.74131500  0.09237000  0.08871100  1
  Se  Se182  1  0.09288900  0.59263400  0.57791300  1
  Se  Se183  1  0.24589300  0.58691900  0.42293100  1
  Se  Se184  1  0.40681100  0.24108200  0.57827000  1
  Se  Se185  1  0.42530300  0.59410800  0.91015700  1
