# generated using pymatgen
data_Sm8CrTe13Cl
_symmetry_space_group_name_H-M   'P 1'
_cell_length_a   13.75179766
_cell_length_b   13.75179766
_cell_length_c   24.45925600
_cell_angle_alpha   90.00000000
_cell_angle_beta   90.00000000
_cell_angle_gamma   162.82807000
_symmetry_Int_Tables_number   1
_chemical_formula_structural   Sm8CrTe13Cl
_chemical_formula_sum   'Sm16 Cr2 Te26 Cl2'
_cell_volume   1365.64368710
_cell_formula_units_Z   2
loop_
 _symmetry_equiv_pos_site_id
 _symmetry_equiv_pos_as_xyz
  1  'x, y, z'
loop_
 _atom_site_type_symbol
 _atom_site_label
 _atom_site_symmetry_multiplicity
 _atom_site_fract_x
 _atom_site_fract_y
 _atom_site_fract_z
 _atom_site_occupancy
  Sm  Sm0  1  0.72494900  0.27505100  0.40584500  1
  Sm  Sm1  1  0.27505100  0.72494900  0.90584500  1
  Sm  Sm2  1  0.14852500  0.85147500  0.21672700  1
  Sm  Sm3  1  0.30678700  0.69321300  0.23115700  1
  Sm  Sm4  1  0.98285600  0.01714400  0.22199800  1
  Sm  Sm5  1  0.69321300  0.30678700  0.73115700  1
  Sm  Sm6  1  0.85147500  0.14852500  0.71672700  1
  Sm  Sm7  1  0.55986900  0.44013100  0.39733700  1
  Sm  Sm8  1  0.05327100  0.94672900  0.05656300  1
  Sm  Sm9  1  0.10761300  0.89238700  0.88512200  1
  Sm  Sm10  1  0.01714400  0.98285600  0.72199800  1
  Sm  Sm11  1  0.63266400  0.36733600  0.56480900  1
  Sm  Sm12  1  0.94672900  0.05327100  0.55656300  1
  Sm  Sm13  1  0.89238700  0.10761300  0.38512200  1
  Sm  Sm14  1  0.44013100  0.55986900  0.89733700  1
  Sm  Sm15  1  0.36733600  0.63266400  0.06480900  1
  Cr  Cr16  1  0.70902500  0.29097500  0.05921000  1
  Cr  Cr17  1  0.29097500  0.70902500  0.55921000  1
  Te  Te18  1  0.75547300  0.24452700  0.62359600  1
  Te  Te19  1  0.56633400  0.43366600  0.25936900  1
  Te  Te20  1  0.27452100  0.72547900  0.76646300  1
  Te  Te21  1  0.93790100  0.06209900  0.99976900  1
  Te  Te22  1  0.82692400  0.17307600  0.49570300  1
  Te  Te23  1  0.51828300  0.48171700  0.62143800  1
  Te  Te24  1  0.87062700  0.12937300  0.16355300  1
  Te  Te25  1  0.41313700  0.58686300  0.28545300  1
  Te  Te26  1  0.17307600  0.82692400  0.99570300  1
  Te  Te27  1  0.69518200  0.30481800  0.86314700  1
  Te  Te28  1  0.85553200  0.14446800  0.85839800  1
  Te  Te29  1  0.12937300  0.87062700  0.66355300  1
  Te  Te30  1  0.62444200  0.37555800  0.11896600  1
  Te  Te31  1  0.54984300  0.45015700  0.95862100  1
  Te  Te32  1  0.14446800  0.85553200  0.35839800  1
  Te  Te33  1  0.30481800  0.69518200  0.36314700  1
  Te  Te34  1  0.37555800  0.62444200  0.61896600  1
  Te  Te35  1  0.79623100  0.20376900  0.00280700  1
  Te  Te36  1  0.20376900  0.79623100  0.50280700  1
  Te  Te37  1  0.45015700  0.54984300  0.45862100  1
  Te  Te38  1  0.06209900  0.93790100  0.49976900  1
  Te  Te39  1  0.43366600  0.56633400  0.75936900  1
  Te  Te40  1  0.24452700  0.75547300  0.12359600  1
  Te  Te41  1  0.48171700  0.51828300  0.12143800  1
  Te  Te42  1  0.72547900  0.27452100  0.26646300  1
  Te  Te43  1  0.58686300  0.41313700  0.78545300  1
  Cl  Cl44  1  0.00069600  0.99930400  0.35344900  1
  Cl  Cl45  1  0.99930400  0.00069600  0.85344900  1
