data_image0
_chemical_formula_structural       AuF6Li
_chemical_formula_sum              "Au1 F6 Li1"
_cell_length_a       4.73904
_cell_length_b       4.73904
_cell_length_c       5.1926
_cell_angle_alpha    90
_cell_angle_beta     117.15
_cell_angle_gamma    60

_space_group_name_H-M_alt    "P 1"
_space_group_IT_number       1

loop_
  _space_group_symop_operation_xyz
  'x, y, z'

loop_
  _atom_site_type_symbol
  _atom_site_label
  _atom_site_symmetry_multiplicity
  _atom_site_fract_x
  _atom_site_fract_y
  _atom_site_fract_z
  _atom_site_occupancy
  Au  Au1       1.0  0.00000  0.00000  0.00000  1.0000
  F   F1        1.0  0.83000  0.24600  0.25200  1.0000
  F   F2        1.0  0.17600  0.57800  0.25200  1.0000
  F   F3        1.0  0.49900  0.92300  0.25200  1.0000
  F   F4        1.0  0.50100  0.07670  0.74800  1.0000
  F   F5        1.0  0.82400  0.42200  0.74800  1.0000
  F   F6        1.0  0.17000  0.75400  0.74800  1.0000
  Li  Li1       1.0  0.00000  0.50000  0.50000  1.0000
