# generated using pymatgen
data_Ba(GaO2)2
_symmetry_space_group_name_H-M   'P 1'
_cell_length_a   18.87482307
_cell_length_b   18.87482307
_cell_length_c   8.79855200
_cell_angle_alpha   90.00000000
_cell_angle_beta   90.00000000
_cell_angle_gamma   119.99999673
_symmetry_Int_Tables_number   1
_chemical_formula_structural   Ba(GaO2)2
_chemical_formula_sum   'Ba24 Ga48 O96'
_cell_volume   2714.61115636
_cell_formula_units_Z   24
loop_
 _symmetry_equiv_pos_site_id
 _symmetry_equiv_pos_as_xyz
  1  'x, y, z'
loop_
 _atom_site_type_symbol
 _atom_site_label
 _atom_site_symmetry_multiplicity
 _atom_site_fract_x
 _atom_site_fract_y
 _atom_site_fract_z
 _atom_site_occupancy
  Ba  Ba0  1  0.00000000  0.00000000  0.19851500  1
  Ba  Ba1  1  0.33333300  0.66666700  0.64634600  1
  Ba  Ba2  1  0.00000000  0.00000000  0.69851500  1
  Ba  Ba3  1  0.99970600  0.48521800  0.67765100  1
  Ba  Ba4  1  0.83792700  0.16963700  0.66881900  1
  Ba  Ba5  1  0.19165100  0.85795700  0.66698400  1
  Ba  Ba6  1  0.80834900  0.14204300  0.16698400  1
  Ba  Ba7  1  0.33171000  0.16207300  0.66881900  1
  Ba  Ba8  1  0.16207300  0.83036300  0.16881900  1
  Ba  Ba9  1  0.83036300  0.66829000  0.66881900  1
  Ba  Ba10  1  0.33333300  0.66666700  0.14691700  1
  Ba  Ba11  1  0.85795700  0.66630600  0.16698400  1
  Ba  Ba12  1  0.16963700  0.33171000  0.16881900  1
  Ba  Ba13  1  0.33369400  0.19165100  0.16698400  1
  Ba  Ba14  1  0.48551200  0.00029400  0.67765100  1
  Ba  Ba15  1  0.14204300  0.33369400  0.66698400  1
  Ba  Ba16  1  0.66829000  0.83792700  0.16881900  1
  Ba  Ba17  1  0.66666700  0.33333300  0.64691700  1
  Ba  Ba18  1  0.51478200  0.51448800  0.67765100  1
  Ba  Ba19  1  0.66630600  0.80834900  0.66698400  1
  Ba  Ba20  1  0.00029400  0.51478200  0.17765100  1
  Ba  Ba21  1  0.66666700  0.33333300  0.14634600  1
  Ba  Ba22  1  0.48521800  0.48551200  0.17765100  1
  Ba  Ba23  1  0.51448800  0.99970600  0.17765100  1
  Ga  Ga24  1  0.84551700  0.83467800  0.97620400  1
  Ga  Ga25  1  0.82764400  0.32794700  0.36736500  1
  Ga  Ga26  1  0.17336100  0.01170000  0.37055100  1
  Ga  Ga27  1  0.67205300  0.49969700  0.36736500  1
  Ga  Ga28  1  0.00019100  0.67174900  0.45731600  1
  Ga  Ga29  1  0.33830400  0.83479500  0.97022200  1
  Ga  Ga30  1  0.32188000  0.49361900  0.47338700  1
  Ga  Ga31  1  0.00001900  0.66222700  0.86767400  1
  Ga  Ga32  1  0.16532200  0.01083900  0.97620400  1
  Ga  Ga33  1  0.83447300  0.48926300  0.86682100  1
  Ga  Ga34  1  0.32825100  0.32844100  0.45731600  1
  Ga  Ga35  1  0.82663900  0.98830000  0.87055100  1
  Ga  Ga36  1  0.17173900  0.67812000  0.47338700  1
  Ga  Ga37  1  0.34521000  0.83447300  0.36682100  1
  Ga  Ga38  1  0.16166200  0.17336100  0.87055100  1
  Ga  Ga39  1  0.49969700  0.82764400  0.86736500  1
  Ga  Ga40  1  0.66220800  0.99998100  0.86767400  1
  Ga  Ga41  1  0.49361900  0.17173900  0.97338700  1
  Ga  Ga42  1  0.82826100  0.32188000  0.97338700  1
  Ga  Ga43  1  0.16520500  0.50350900  0.97022200  1
  Ga  Ga44  1  0.16552700  0.51073700  0.36682100  1
  Ga  Ga45  1  0.66169600  0.16520500  0.47022200  1
  Ga  Ga46  1  0.65479000  0.16552700  0.86682100  1
  Ga  Ga47  1  0.50638100  0.82826100  0.47338700  1
  Ga  Ga48  1  0.50350900  0.33830400  0.47022200  1
  Ga  Ga49  1  0.99998100  0.33777300  0.36767400  1
  Ga  Ga50  1  0.32844100  0.00019100  0.95731600  1
  Ga  Ga51  1  0.01170000  0.83833800  0.87055100  1
  Ga  Ga52  1  0.15448300  0.16532200  0.47620400  1
  Ga  Ga53  1  0.01083900  0.84551700  0.47620400  1
  Ga  Ga54  1  0.50030300  0.17235600  0.36736500  1
  Ga  Ga55  1  0.49649100  0.66169600  0.97022200  1
  Ga  Ga56  1  0.32794700  0.50030300  0.86736500  1
  Ga  Ga57  1  0.98916100  0.15448300  0.97620400  1
  Ga  Ga58  1  0.67812000  0.50638100  0.97338700  1
  Ga  Ga59  1  0.83833800  0.82663900  0.37055100  1
  Ga  Ga60  1  0.67174900  0.67155900  0.95731600  1
  Ga  Ga61  1  0.99980900  0.32825100  0.95731600  1
  Ga  Ga62  1  0.83479500  0.49649100  0.47022200  1
  Ga  Ga63  1  0.51073700  0.34521000  0.86682100  1
  Ga  Ga64  1  0.98830000  0.16166200  0.37055100  1
  Ga  Ga65  1  0.48926300  0.65479000  0.36682100  1
  Ga  Ga66  1  0.33779200  0.00001900  0.36767400  1
  Ga  Ga67  1  0.17235600  0.67205300  0.86736500  1
  Ga  Ga68  1  0.83467800  0.98916100  0.47620400  1
  Ga  Ga69  1  0.67155900  0.99980900  0.45731600  1
  Ga  Ga70  1  0.33777300  0.33779200  0.86767400  1
  Ga  Ga71  1  0.66222700  0.66220800  0.36767400  1
  O  O72  1  0.20949800  0.10804400  0.86684900  1
  O  O73  1  0.89467200  0.28678200  0.88026100  1
  O  O74  1  0.21833200  0.60469500  0.87299300  1
  O  O75  1  0.44421800  0.88006800  0.47514300  1
  O  O76  1  0.33374300  0.99005000  0.16155600  1
  O  O77  1  0.39211000  0.10532800  0.88026100  1
  O  O78  1  0.10532800  0.71321800  0.38026100  1
  O  O79  1  0.38636300  0.78166800  0.87299300  1
  O  O80  1  0.39530500  0.61363700  0.87299300  1
  O  O81  1  0.44889000  0.06060300  0.42051600  1
  O  O82  1  0.70836500  0.10963400  0.93044900  1
  O  O83  1  0.55333000  0.27518200  0.88456700  1
  O  O84  1  0.10145400  0.20949800  0.36684900  1
  O  O85  1  0.52391400  0.80602800  0.67235300  1
  O  O86  1  0.57091800  0.64128600  0.86449400  1
  O  O87  1  0.71788600  0.52391400  0.17235300  1
  O  O88  1  0.72185200  0.44667000  0.88456700  1
  O  O89  1  0.46811800  0.61698300  0.16593600  1
  O  O90  1  0.06060300  0.61171300  0.92051600  1
  O  O91  1  0.38301700  0.85113400  0.16593600  1
  O  O92  1  0.89195600  0.10145400  0.86684900  1
  O  O93  1  0.35871400  0.92963200  0.86449400  1
  O  O94  1  0.92963200  0.57091800  0.36449400  1
  O  O95  1  0.80602800  0.28211400  0.17235300  1
  O  O96  1  0.05291700  0.93980100  0.96497700  1
  O  O97  1  0.42908200  0.35871400  0.36449400  1
  O  O98  1  0.55111000  0.93939700  0.92051600  1
  O  O99  1  0.11311600  0.05291700  0.46497700  1
  O  O100  1  0.23452000  0.27511900  0.95775100  1
  O  O101  1  0.21723300  0.95418400  0.90958000  1
  O  O102  1  0.07036800  0.42908200  0.86449400  1
  O  O103  1  0.61171300  0.55111000  0.42051600  1
  O  O104  1  0.38828700  0.44889000  0.92051600  1
  O  O105  1  0.78166800  0.39530500  0.37299300  1
  O  O106  1  0.26304800  0.21723300  0.40958000  1
  O  O107  1  0.85113400  0.46811800  0.66593600  1
  O  O108  1  0.95418400  0.73695200  0.40958000  1
  O  O109  1  0.11993200  0.56415000  0.47514300  1
  O  O110  1  0.44667000  0.72481800  0.38456700  1
  O  O111  1  0.06019900  0.11311600  0.96497700  1
  O  O112  1  0.88688400  0.94708300  0.96497700  1
  O  O113  1  0.34369300  0.33374300  0.66155600  1
  O  O114  1  0.10963400  0.40126900  0.43044900  1
  O  O115  1  0.79050200  0.89195600  0.36684900  1
  O  O116  1  0.13420200  0.18671700  0.67355200  1
  O  O117  1  0.73695200  0.78276700  0.90958000  1
  O  O118  1  0.53188200  0.38301700  0.66593600  1
  O  O119  1  0.47608600  0.19397200  0.17235300  1
  O  O120  1  0.00995000  0.34369300  0.16155600  1
  O  O121  1  0.27511900  0.04059900  0.45775100  1
  O  O122  1  0.61698300  0.14886600  0.66593600  1
  O  O123  1  0.28211400  0.47608600  0.67235300  1
  O  O124  1  0.72481800  0.27814800  0.88456700  1
  O  O125  1  0.53844700  0.77415800  0.99076800  1
  O  O126  1  0.27518200  0.72185200  0.38456700  1
  O  O127  1  0.05251500  0.86579800  0.67355200  1
  O  O128  1  0.81328300  0.94748500  0.67355200  1
  O  O129  1  0.72488100  0.95940100  0.95775100  1
  O  O130  1  0.89854600  0.79050200  0.86684900  1
  O  O131  1  0.59873100  0.70836500  0.43044900  1
  O  O132  1  0.60469500  0.38636300  0.37299300  1
  O  O133  1  0.76428800  0.53844700  0.49076800  1
  O  O134  1  0.77415800  0.23571200  0.49076800  1
  O  O135  1  0.65630700  0.66625700  0.16155600  1
  O  O136  1  0.23571200  0.46155300  0.99076800  1
  O  O137  1  0.46155300  0.22584200  0.49076800  1
  O  O138  1  0.64128600  0.07036800  0.36449400  1
  O  O139  1  0.94748500  0.13420200  0.17355200  1
  O  O140  1  0.40126900  0.29163500  0.93044900  1
  O  O141  1  0.88006800  0.43585000  0.97514300  1
  O  O142  1  0.95940100  0.23452000  0.45775100  1
  O  O143  1  0.04059900  0.76548000  0.95775100  1
  O  O144  1  0.99005000  0.65630700  0.66155600  1
  O  O145  1  0.19397200  0.71788600  0.67235300  1
  O  O146  1  0.60789000  0.89467200  0.38026100  1
  O  O147  1  0.04581600  0.26304800  0.90958000  1
  O  O148  1  0.14886600  0.53188200  0.16593600  1
  O  O149  1  0.76548000  0.72488100  0.45775100  1
  O  O150  1  0.29163500  0.89036600  0.43044900  1
  O  O151  1  0.55578200  0.11993200  0.97514300  1
  O  O152  1  0.10804400  0.89854600  0.36684900  1
  O  O153  1  0.56415000  0.44421800  0.97514300  1
  O  O154  1  0.61363700  0.21833200  0.37299300  1
  O  O155  1  0.93980100  0.88688400  0.46497700  1
  O  O156  1  0.89036600  0.59873100  0.93044900  1
  O  O157  1  0.28678200  0.39211000  0.38026100  1
  O  O158  1  0.18671700  0.05251500  0.17355200  1
  O  O159  1  0.66625700  0.00995000  0.66155600  1
  O  O160  1  0.43585000  0.55578200  0.47514300  1
  O  O161  1  0.93939700  0.38828700  0.42051600  1
  O  O162  1  0.94708300  0.06019900  0.46497700  1
  O  O163  1  0.86579800  0.81328300  0.17355200  1
  O  O164  1  0.78276700  0.04581600  0.40958000  1
  O  O165  1  0.22584200  0.76428800  0.99076800  1
  O  O166  1  0.27814800  0.55333000  0.38456700  1
  O  O167  1  0.71321800  0.60789000  0.88026100  1
