# generated using pymatgen
data_Yb7Cl15
_symmetry_space_group_name_H-M   'P 1'
_cell_length_a   6.57360200
_cell_length_b   6.88757900
_cell_length_c   47.50446100
_cell_angle_alpha   90.00000000
_cell_angle_beta   90.00000000
_cell_angle_gamma   90.00000000
_symmetry_Int_Tables_number   1
_chemical_formula_structural   Yb7Cl15
_chemical_formula_sum   'Yb28 Cl60'
_cell_volume   2150.82162390
_cell_formula_units_Z   4
loop_
 _symmetry_equiv_pos_site_id
 _symmetry_equiv_pos_as_xyz
  1  'x, y, z'
loop_
 _atom_site_type_symbol
 _atom_site_label
 _atom_site_symmetry_multiplicity
 _atom_site_fract_x
 _atom_site_fract_y
 _atom_site_fract_z
 _atom_site_occupancy
  Yb  Yb0  1  0.02773200  0.72659800  0.38940200  1
  Yb  Yb1  1  0.52659700  0.16678100  0.96035000  1
  Yb  Yb2  1  0.47233300  0.81980900  0.18048100  1
  Yb  Yb3  1  0.52766700  0.18019100  0.81951900  1
  Yb  Yb4  1  0.02766700  0.31980900  0.31951900  1
  Yb  Yb5  1  0.02659700  0.33321900  0.03965000  1
  Yb  Yb6  1  0.47226800  0.22659800  0.38940200  1
  Yb  Yb7  1  0.97246000  0.26899300  0.75000000  1
  Yb  Yb8  1  0.47340300  0.83321900  0.46035000  1
  Yb  Yb9  1  0.52766700  0.18019100  0.68048100  1
  Yb  Yb10  1  0.52659700  0.16678100  0.53965000  1
  Yb  Yb11  1  0.02754000  0.73100700  0.25000000  1
  Yb  Yb12  1  0.97340300  0.66678100  0.53965000  1
  Yb  Yb13  1  0.52773200  0.77340200  0.61059800  1
  Yb  Yb14  1  0.97233300  0.68019100  0.81951900  1
  Yb  Yb15  1  0.47340300  0.83321900  0.03965000  1
  Yb  Yb16  1  0.02659700  0.33321900  0.46035000  1
  Yb  Yb17  1  0.97226800  0.27340200  0.88940200  1
  Yb  Yb18  1  0.52754000  0.76899300  0.75000000  1
  Yb  Yb19  1  0.47226800  0.22659800  0.11059800  1
  Yb  Yb20  1  0.97226800  0.27340200  0.61059800  1
  Yb  Yb21  1  0.47246000  0.23100700  0.25000000  1
  Yb  Yb22  1  0.47233300  0.81980900  0.31951900  1
  Yb  Yb23  1  0.02773200  0.72659800  0.11059800  1
  Yb  Yb24  1  0.02766700  0.31980900  0.18048100  1
  Yb  Yb25  1  0.97233300  0.68019100  0.68048100  1
  Yb  Yb26  1  0.52773200  0.77340200  0.88940200  1
  Yb  Yb27  1  0.97340300  0.66678100  0.96035000  1
  Cl  Cl28  1  0.15135800  0.32992800  0.80888600  1
  Cl  Cl29  1  0.64192900  0.87252000  0.25000000  1
  Cl  Cl30  1  0.18667700  0.35218800  0.56144600  1
  Cl  Cl31  1  0.80273000  0.98330300  0.57583700  1
  Cl  Cl32  1  0.69179000  0.47456300  0.78450700  1
  Cl  Cl33  1  0.33444700  0.11071500  0.62727000  1
  Cl  Cl34  1  0.66555300  0.88928500  0.37273000  1
  Cl  Cl35  1  0.19179000  0.02543700  0.21549300  1
  Cl  Cl36  1  0.34864200  0.82992800  0.69111400  1
  Cl  Cl37  1  0.19727000  0.01669700  0.07583700  1
  Cl  Cl38  1  0.85807100  0.37252000  0.25000000  1
  Cl  Cl39  1  0.83444700  0.38928500  0.37273000  1
  Cl  Cl40  1  0.31332300  0.85218800  0.56144600  1
  Cl  Cl41  1  0.19417800  0.02488800  0.14614900  1
  Cl  Cl42  1  0.30273000  0.51669700  0.07583700  1
  Cl  Cl43  1  0.66555300  0.88928500  0.12727000  1
  Cl  Cl44  1  0.80582200  0.97511200  0.64614900  1
  Cl  Cl45  1  0.31332300  0.85218800  0.93855400  1
  Cl  Cl46  1  0.19179000  0.02543700  0.28450700  1
  Cl  Cl47  1  0.34864200  0.82992800  0.80888600  1
  Cl  Cl48  1  0.26993400  0.10770300  0.49409600  1
  Cl  Cl49  1  0.33444700  0.11071500  0.87273000  1
  Cl  Cl50  1  0.69179000  0.47456300  0.71549300  1
  Cl  Cl51  1  0.14192900  0.62748000  0.75000000  1
  Cl  Cl52  1  0.80273000  0.98330300  0.92416300  1
  Cl  Cl53  1  0.18667700  0.35218800  0.93855400  1
  Cl  Cl54  1  0.68667700  0.14781200  0.43855400  1
  Cl  Cl55  1  0.30821000  0.52543700  0.21549300  1
  Cl  Cl56  1  0.35807100  0.12748000  0.75000000  1
  Cl  Cl57  1  0.30582200  0.52488800  0.14614900  1
  Cl  Cl58  1  0.30582200  0.52488800  0.35385100  1
  Cl  Cl59  1  0.15135800  0.32992800  0.69111400  1
  Cl  Cl60  1  0.16555300  0.61071500  0.87273000  1
  Cl  Cl61  1  0.81332300  0.64781200  0.06144600  1
  Cl  Cl62  1  0.84864200  0.67007200  0.30888600  1
  Cl  Cl63  1  0.30821000  0.52543700  0.28450700  1
  Cl  Cl64  1  0.19417800  0.02488800  0.35385100  1
  Cl  Cl65  1  0.80821000  0.97456300  0.71549300  1
  Cl  Cl66  1  0.65135800  0.17007200  0.30888600  1
  Cl  Cl67  1  0.69727000  0.48330300  0.92416300  1
  Cl  Cl68  1  0.30273000  0.51669700  0.42416300  1
  Cl  Cl69  1  0.76993400  0.39229700  0.50590400  1
  Cl  Cl70  1  0.73006600  0.89229700  0.99409600  1
  Cl  Cl71  1  0.80582200  0.97511200  0.85385100  1
  Cl  Cl72  1  0.84864200  0.67007200  0.19111400  1
  Cl  Cl73  1  0.83444700  0.38928500  0.12727000  1
  Cl  Cl74  1  0.69417800  0.47511200  0.85385100  1
  Cl  Cl75  1  0.81332300  0.64781200  0.43855400  1
  Cl  Cl76  1  0.69417800  0.47511200  0.64614900  1
  Cl  Cl77  1  0.65135800  0.17007200  0.19111400  1
  Cl  Cl78  1  0.19727000  0.01669700  0.42416300  1
  Cl  Cl79  1  0.23006600  0.60770300  0.00590400  1
  Cl  Cl80  1  0.73006600  0.89229700  0.50590400  1
  Cl  Cl81  1  0.76993400  0.39229700  0.99409600  1
  Cl  Cl82  1  0.69727000  0.48330300  0.57583700  1
  Cl  Cl83  1  0.68667700  0.14781200  0.06144600  1
  Cl  Cl84  1  0.26993400  0.10770300  0.00590400  1
  Cl  Cl85  1  0.80821000  0.97456300  0.78450700  1
  Cl  Cl86  1  0.16555300  0.61071500  0.62727000  1
  Cl  Cl87  1  0.23006600  0.60770300  0.49409600  1
