# generated using pymatgen
data_InBi37Br48
_symmetry_space_group_name_H-M   'P 1'
_cell_length_a   22.91885555
_cell_length_b   22.91885555
_cell_length_c   13.38791000
_cell_angle_alpha   90.00000000
_cell_angle_beta   90.00000000
_cell_angle_gamma   119.99999870
_symmetry_Int_Tables_number   1
_chemical_formula_structural   InBi37Br48
_chemical_formula_sum   'In2 Bi74 Br96'
_cell_volume   6090.16804611
_cell_formula_units_Z   2
loop_
 _symmetry_equiv_pos_site_id
 _symmetry_equiv_pos_as_xyz
  1  'x, y, z'
loop_
 _atom_site_type_symbol
 _atom_site_label
 _atom_site_symmetry_multiplicity
 _atom_site_fract_x
 _atom_site_fract_y
 _atom_site_fract_z
 _atom_site_occupancy
  In  In0  1  0.66666700  0.33333300  0.98840500  1
  In  In1  1  0.33333300  0.66666700  0.48840500  1
  Bi  Bi2  1  0.69274100  0.19303900  0.76828400  1
  Bi  Bi3  1  0.25952000  0.24261100  0.71520900  1
  Bi  Bi4  1  0.76211900  0.56330400  0.58555300  1
  Bi  Bi5  1  0.71665000  0.88602400  0.19827600  1
  Bi  Bi6  1  0.47802000  0.19361100  0.19497900  1
  Bi  Bi7  1  0.19881500  0.76211900  0.08555300  1
  Bi  Bi8  1  0.49970200  0.69274100  0.26828400  1
  Bi  Bi9  1  0.71559100  0.52198000  0.19497900  1
  Bi  Bi10  1  0.88220800  0.67069700  0.89611100  1
  Bi  Bi11  1  0.11397600  0.83062700  0.19827600  1
  Bi  Bi12  1  0.73457800  0.58296900  0.81706700  1
  Bi  Bi13  1  0.98309200  0.74048000  0.71520900  1
  Bi  Bi14  1  0.44635200  0.40751300  0.16485200  1
  Bi  Bi15  1  0.59248700  0.03883900  0.16485200  1
  Bi  Bi16  1  0.16937300  0.28335000  0.19827600  1
  Bi  Bi17  1  0.24261100  0.98309200  0.21520900  1
  Bi  Bi18  1  0.39743900  0.35912500  0.79899400  1
  Bi  Bi19  1  0.96168600  0.60256100  0.79899400  1
  Bi  Bi20  1  0.80118500  0.23788100  0.58555300  1
  Bi  Bi21  1  0.95666200  0.87217100  0.05589300  1
  Bi  Bi22  1  0.41703100  0.15160900  0.81706700  1
  Bi  Bi23  1  0.35912500  0.96168600  0.29899400  1
  Bi  Bi24  1  0.12782900  0.08449100  0.05589300  1
  Bi  Bi25  1  0.56330400  0.80118500  0.08555300  1
  Bi  Bi26  1  0.30725900  0.80696100  0.26828400  1
  Bi  Bi27  1  0.26542200  0.41703100  0.31706700  1
  Bi  Bi28  1  0.58296900  0.84839100  0.31706700  1
  Bi  Bi29  1  0.80696100  0.49970200  0.76828400  1
  Bi  Bi30  1  0.78624200  0.09811900  0.51406300  1
  Bi  Bi31  1  0.96116100  0.55364800  0.16485200  1
  Bi  Bi32  1  0.19361100  0.71559100  0.69497900  1
  Bi  Bi33  1  0.40751300  0.96116100  0.66485200  1
  Bi  Bi34  1  0.84839100  0.26542200  0.81706700  1
  Bi  Bi35  1  0.23788100  0.43669600  0.08555300  1
  Bi  Bi36  1  0.88602400  0.16937300  0.69827600  1
  Bi  Bi37  1  0.75738900  0.01690800  0.71520900  1
  Bi  Bi38  1  0.64087500  0.03831400  0.79899400  1
  Bi  Bi39  1  0.83062700  0.71665000  0.69827600  1
  Bi  Bi40  1  0.03883900  0.44635200  0.66485200  1
  Bi  Bi41  1  0.28440900  0.47802000  0.69497900  1
  Bi  Bi42  1  0.65409000  0.09610400  0.58156100  1
  Bi  Bi43  1  0.08449100  0.95666200  0.55589300  1
  Bi  Bi44  1  0.31187800  0.21375800  0.51406300  1
  Bi  Bi45  1  0.60256100  0.64087500  0.29899400  1
  Bi  Bi46  1  0.87217100  0.91550900  0.55589300  1
  Bi  Bi47  1  0.74048000  0.75738900  0.21520900  1
  Bi  Bi48  1  0.67069700  0.78849000  0.39611100  1
  Bi  Bi49  1  0.55364800  0.59248700  0.66485200  1
  Bi  Bi50  1  0.66666700  0.33333300  0.43844100  1
  Bi  Bi51  1  0.33333300  0.66666700  0.93844100  1
  Bi  Bi52  1  0.68812200  0.78624200  0.01406300  1
  Bi  Bi53  1  0.43669600  0.19881500  0.58555300  1
  Bi  Bi54  1  0.90389600  0.55798600  0.58156100  1
  Bi  Bi55  1  0.32930300  0.21151000  0.89611100  1
  Bi  Bi56  1  0.80638900  0.28440900  0.19497900  1
  Bi  Bi57  1  0.34591000  0.90389600  0.08156100  1
  Bi  Bi58  1  0.21151000  0.88220800  0.39611100  1
  Bi  Bi59  1  0.15160900  0.73457800  0.31706700  1
  Bi  Bi60  1  0.44201400  0.34591000  0.58156100  1
  Bi  Bi61  1  0.52198000  0.80638900  0.69497900  1
  Bi  Bi62  1  0.01690800  0.25952000  0.21520900  1
  Bi  Bi63  1  0.11779200  0.32930300  0.39611100  1
  Bi  Bi64  1  0.19303900  0.50029800  0.26828400  1
  Bi  Bi65  1  0.91550900  0.04333800  0.05589300  1
  Bi  Bi66  1  0.55798600  0.65409000  0.08156100  1
  Bi  Bi67  1  0.09811900  0.31187800  0.01406300  1
  Bi  Bi68  1  0.50029800  0.30725900  0.76828400  1
  Bi  Bi69  1  0.04333800  0.12782900  0.55589300  1
  Bi  Bi70  1  0.21375800  0.90188100  0.01406300  1
  Bi  Bi71  1  0.09610400  0.44201400  0.08156100  1
  Bi  Bi72  1  0.90188100  0.68812200  0.51406300  1
  Bi  Bi73  1  0.03831400  0.39743900  0.29899400  1
  Bi  Bi74  1  0.28335000  0.11397600  0.69827600  1
  Bi  Bi75  1  0.78849000  0.11779200  0.89611100  1
  Br  Br76  1  0.92111100  0.76529600  0.17693700  1
  Br  Br77  1  0.15967400  0.19904100  0.94222900  1
  Br  Br78  1  0.42735200  0.51162000  0.23818300  1
  Br  Br79  1  0.71075600  0.61393400  0.06068200  1
  Br  Br80  1  0.76669600  0.63078500  0.32164000  1
  Br  Br81  1  0.47687100  0.70764100  0.86330200  1
  Br  Br82  1  0.58916300  0.22187300  0.55975700  1
  Br  Br83  1  0.48859000  0.51116000  0.50482400  1
  Br  Br84  1  0.48884000  0.97743000  0.50482400  1
  Br  Br85  1  0.76529600  0.84418500  0.67693700  1
  Br  Br86  1  0.47818000  0.89281600  0.77842700  1
  Br  Br87  1  0.97395500  0.32779700  0.55244200  1
  Br  Br88  1  0.20392600  0.04399700  0.93539500  1
  Br  Br89  1  0.02257000  0.51141000  0.50482400  1
  Br  Br90  1  0.97743000  0.48859000  0.00482400  1
  Br  Br91  1  0.04399700  0.84007100  0.43539500  1
  Br  Br92  1  0.33333300  0.66666700  0.68917400  1
  Br  Br93  1  0.19904100  0.03936800  0.44222900  1
  Br  Br94  1  0.79607400  0.95600300  0.43539500  1
  Br  Br95  1  0.36921500  0.13591000  0.32164000  1
  Br  Br96  1  0.00000000  0.00000000  0.42881600  1
  Br  Br97  1  0.15992900  0.20392600  0.43539500  1
  Br  Br98  1  0.66666700  0.33333300  0.18917400  1
  Br  Br99  1  0.61393400  0.90317800  0.56068200  1
  Br  Br100  1  0.02604500  0.67220300  0.05244200  1
  Br  Br101  1  0.80095900  0.96063200  0.94222900  1
  Br  Br102  1  0.23330400  0.36921500  0.82164000  1
  Br  Br103  1  0.32901700  0.97295600  0.83590000  1
  Br  Br104  1  0.70943800  0.16481400  0.07694200  1
  Br  Br105  1  0.15581500  0.92111100  0.67693700  1
  Br  Br106  1  0.95600300  0.15992900  0.93539500  1
  Br  Br107  1  0.07690100  0.95938500  0.18434000  1
  Br  Br108  1  0.77812700  0.36729000  0.55975700  1
  Br  Br109  1  0.67220300  0.64615800  0.55244200  1
  Br  Br110  1  0.92309900  0.04061500  0.68434000  1
  Br  Br111  1  0.83518600  0.54462500  0.07694200  1
  Br  Br112  1  0.89281600  0.41463600  0.27842700  1
  Br  Br113  1  0.97295600  0.64393900  0.33590000  1
  Br  Br114  1  0.11751600  0.07690100  0.68434000  1
  Br  Br115  1  0.36729000  0.58916300  0.05975700  1
  Br  Br116  1  0.38606600  0.09682200  0.06068200  1
  Br  Br117  1  0.96063200  0.15967400  0.44222900  1
  Br  Br118  1  0.64615800  0.97395500  0.05244200  1
  Br  Br119  1  0.08426700  0.57264800  0.23818300  1
  Br  Br120  1  0.63271000  0.41083700  0.55975700  1
  Br  Br121  1  0.91573300  0.42735200  0.73818300  1
  Br  Br122  1  0.84007100  0.79607400  0.93539500  1
  Br  Br123  1  0.43489700  0.78955200  0.48880200  1
  Br  Br124  1  0.64393900  0.67098300  0.83590000  1
  Br  Br125  1  0.84032600  0.80095900  0.44222900  1
  Br  Br126  1  0.07888900  0.23470400  0.67693700  1
  Br  Br127  1  0.03936800  0.84032600  0.94222900  1
  Br  Br128  1  0.00000000  0.00000000  0.92881600  1
  Br  Br129  1  0.52312900  0.29235900  0.36330200  1
  Br  Br130  1  0.13591000  0.76669600  0.82164000  1
  Br  Br131  1  0.67098300  0.02704400  0.33590000  1
  Br  Br132  1  0.76923100  0.47687100  0.36330200  1
  Br  Br133  1  0.32779700  0.35384200  0.05244200  1
  Br  Br134  1  0.56510300  0.21044800  0.98880200  1
  Br  Br135  1  0.45537500  0.29056200  0.07694200  1
  Br  Br136  1  0.21044800  0.64534500  0.48880200  1
  Br  Br137  1  0.16481400  0.45537500  0.57694200  1
  Br  Br138  1  0.86409000  0.23330400  0.32164000  1
  Br  Br139  1  0.29056200  0.83518600  0.57694200  1
  Br  Br140  1  0.57264800  0.48838000  0.73818300  1
  Br  Br141  1  0.51162000  0.08426700  0.73818300  1
  Br  Br142  1  0.09682200  0.71075600  0.56068200  1
  Br  Br143  1  0.51141000  0.48884000  0.00482400  1
  Br  Br144  1  0.41083700  0.77812700  0.05975700  1
  Br  Br145  1  0.35606100  0.32901700  0.33590000  1
  Br  Br146  1  0.23470400  0.15581500  0.17693700  1
  Br  Br147  1  0.54462500  0.70943800  0.57694200  1
  Br  Br148  1  0.90317800  0.28924400  0.06068200  1
  Br  Br149  1  0.66666700  0.33333300  0.78794300  1
  Br  Br150  1  0.29235900  0.76923100  0.86330200  1
  Br  Br151  1  0.35465500  0.56510300  0.48880200  1
  Br  Br152  1  0.28924400  0.38606600  0.56068200  1
  Br  Br153  1  0.70764100  0.23076900  0.36330200  1
  Br  Br154  1  0.41463600  0.52182000  0.77842700  1
  Br  Br155  1  0.48838000  0.91573300  0.23818300  1
  Br  Br156  1  0.22187300  0.63271000  0.05975700  1
  Br  Br157  1  0.58536400  0.47818000  0.27842700  1
  Br  Br158  1  0.64534500  0.43489700  0.98880200  1
  Br  Br159  1  0.33333300  0.66666700  0.28794300  1
  Br  Br160  1  0.02704400  0.35606100  0.83590000  1
  Br  Br161  1  0.51116000  0.02257000  0.00482400  1
  Br  Br162  1  0.52182000  0.10718400  0.27842700  1
  Br  Br163  1  0.84418500  0.07888900  0.17693700  1
  Br  Br164  1  0.63078500  0.86409000  0.82164000  1
  Br  Br165  1  0.10718400  0.58536400  0.77842700  1
  Br  Br166  1  0.23076900  0.52312900  0.86330200  1
  Br  Br167  1  0.78955200  0.35465500  0.98880200  1
  Br  Br168  1  0.95938500  0.88248400  0.68434000  1
  Br  Br169  1  0.88248400  0.92309900  0.18434000  1
  Br  Br170  1  0.04061500  0.11751600  0.18434000  1
  Br  Br171  1  0.35384200  0.02604500  0.55244200  1
