# generated using pymatgen
data_CsSbTe6(OF5)6
_symmetry_space_group_name_H-M   'P 1'
_cell_length_a   14.63561200
_cell_length_b   14.63561200
_cell_length_c   14.92393700
_cell_angle_alpha   90.00000000
_cell_angle_beta   90.00000000
_cell_angle_gamma   90.00000000
_symmetry_Int_Tables_number   1
_chemical_formula_structural   CsSbTe6(OF5)6
_chemical_formula_sum   'Cs4 Sb4 Te24 O24 F120'
_cell_volume   3196.72429801
_cell_formula_units_Z   4
loop_
 _symmetry_equiv_pos_site_id
 _symmetry_equiv_pos_as_xyz
  1  'x, y, z'
loop_
 _atom_site_type_symbol
 _atom_site_label
 _atom_site_symmetry_multiplicity
 _atom_site_fract_x
 _atom_site_fract_y
 _atom_site_fract_z
 _atom_site_occupancy
  Cs  Cs0  1  0.75000000  0.25000000  0.22845900  1
  Cs  Cs1  1  0.75000000  0.25000000  0.72845900  1
  Cs  Cs2  1  0.25000000  0.75000000  0.27154100  1
  Cs  Cs3  1  0.25000000  0.75000000  0.77154100  1
  Sb  Sb4  1  0.50000000  0.50000000  0.50000000  1
  Sb  Sb5  1  0.50000000  0.00000000  0.00000000  1
  Sb  Sb6  1  0.00000000  0.50000000  0.00000000  1
  Sb  Sb7  1  0.00000000  0.00000000  0.50000000  1
  Te  Te8  1  0.95336600  0.55184500  0.23629100  1
  Te  Te9  1  0.04663400  0.44815500  0.76370900  1
  Te  Te10  1  0.46026800  0.74675300  0.52917200  1
  Te  Te11  1  0.24675300  0.53973200  0.02917200  1
  Te  Te12  1  0.75324700  0.46026800  0.97082800  1
  Te  Te13  1  0.45967600  0.24061800  0.05418600  1
  Te  Te14  1  0.25938200  0.45967600  0.44581400  1
  Te  Te15  1  0.75938200  0.95967600  0.55418600  1
  Te  Te16  1  0.53973200  0.25324700  0.47082800  1
  Te  Te17  1  0.05184500  0.04663400  0.73629100  1
  Te  Te18  1  0.04032400  0.25938200  0.05418600  1
  Te  Te19  1  0.24061800  0.04032400  0.44581400  1
  Te  Te20  1  0.55184500  0.54663400  0.26370900  1
  Te  Te21  1  0.95967600  0.74061800  0.94581400  1
  Te  Te22  1  0.44815500  0.45336600  0.73629100  1
  Te  Te23  1  0.74061800  0.54032400  0.55418600  1
  Te  Te24  1  0.45336600  0.05184500  0.76370900  1
  Te  Te25  1  0.25324700  0.96026800  0.02917200  1
  Te  Te26  1  0.54663400  0.94815500  0.23629100  1
  Te  Te27  1  0.03973200  0.75324700  0.52917200  1
  Te  Te28  1  0.96026800  0.24675300  0.47082800  1
  Te  Te29  1  0.54032400  0.75938200  0.94581400  1
  Te  Te30  1  0.94815500  0.95336600  0.26370900  1
  Te  Te31  1  0.74675300  0.03973200  0.97082800  1
  O  O32  1  0.55282300  0.38034200  0.46207700  1
  O  O33  1  0.44615300  0.44492300  0.60982700  1
  O  O34  1  0.53040300  0.88715800  0.93220500  1
  O  O35  1  0.94717700  0.11965800  0.46207700  1
  O  O36  1  0.11284200  0.03040300  0.43220500  1
  O  O37  1  0.05384700  0.05507700  0.60982700  1
  O  O38  1  0.88715800  0.96959700  0.56779500  1
  O  O39  1  0.05507700  0.44615300  0.89017300  1
  O  O40  1  0.55384700  0.55507700  0.39017300  1
  O  O41  1  0.38034200  0.94717700  0.03792300  1
  O  O42  1  0.94492300  0.55384700  0.10982700  1
  O  O43  1  0.96959700  0.61284200  0.93220500  1
  O  O44  1  0.88034200  0.44717700  0.96207700  1
  O  O45  1  0.38715800  0.46959700  0.43220500  1
  O  O46  1  0.44492300  0.05384700  0.89017300  1
  O  O47  1  0.03040300  0.38715800  0.06779500  1
  O  O48  1  0.05282300  0.88034200  0.53792300  1
  O  O49  1  0.55507700  0.94615300  0.10982700  1
  O  O50  1  0.61965800  0.05282300  0.96207700  1
  O  O51  1  0.46959700  0.11284200  0.06779500  1
  O  O52  1  0.11965800  0.55282300  0.03792300  1
  O  O53  1  0.61284200  0.53040300  0.56779500  1
  O  O54  1  0.44717700  0.61965800  0.53792300  1
  O  O55  1  0.94615300  0.94492300  0.39017300  1
  F  F56  1  0.75003500  0.93490100  0.04231000  1
  F  F57  1  0.45254100  0.05744800  0.63859300  1
  F  F58  1  0.14803300  0.37038400  0.76315200  1
  F  F59  1  0.23538700  0.14480500  0.51815100  1
  F  F60  1  0.24476300  0.56605500  0.37480100  1
  F  F61  1  0.75019100  0.11157000  0.07640200  1
  F  F62  1  0.35269300  0.75402500  0.59881500  1
  F  F63  1  0.62961600  0.64803300  0.26315200  1
  F  F64  1  0.15356600  0.96703400  0.73627500  1
  F  F65  1  0.03296600  0.65356600  0.23627500  1
  F  F66  1  0.74980900  0.38843000  0.07640200  1
  F  F67  1  0.11227700  0.25871500  0.15775500  1
  F  F68  1  0.44458700  0.02544500  0.24431600  1
  F  F69  1  0.88772300  0.74128500  0.84224500  1
  F  F70  1  0.64480500  0.76461300  0.01815100  1
  F  F71  1  0.75402500  0.14730700  0.90118500  1
  F  F72  1  0.25230200  0.53436400  0.54830400  1
  F  F73  1  0.95044400  0.86815600  0.94721000  1
  F  F74  1  0.03204300  0.25379600  0.36694600  1
  F  F75  1  0.12961600  0.14803300  0.73684800  1
  F  F76  1  0.84643400  0.03296600  0.26372500  1
  F  F77  1  0.95552700  0.37426700  0.47233200  1
  F  F78  1  0.95254100  0.55744800  0.36140700  1
  F  F79  1  0.25871500  0.38772300  0.34224500  1
  F  F80  1  0.37426700  0.54447300  0.02766800  1
  F  F81  1  0.04447300  0.62573300  0.52766800  1
  F  F82  1  0.93394500  0.24476300  0.12519900  1
  F  F83  1  0.44255200  0.45254100  0.86140700  1
  F  F84  1  0.35519500  0.23538700  0.98184900  1
  F  F85  1  0.06509900  0.25003500  0.54231000  1
  F  F86  1  0.05160100  0.87652600  0.25385000  1
  F  F87  1  0.62347400  0.05160100  0.24615000  1
  F  F88  1  0.54955600  0.63184400  0.94721000  1
  F  F89  1  0.94458700  0.52544500  0.75568400  1
  F  F90  1  0.74476300  0.06605500  0.62519900  1
  F  F91  1  0.53436400  0.24769800  0.95169600  1
  F  F92  1  0.05541300  0.47455500  0.24431600  1
  F  F93  1  0.88843000  0.25019100  0.57640200  1
  F  F94  1  0.75523700  0.43394500  0.62519900  1
  F  F95  1  0.62573300  0.45552700  0.97233200  1
  F  F96  1  0.43394500  0.74476300  0.87480100  1
  F  F97  1  0.06605500  0.75523700  0.87480100  1
  F  F98  1  0.61157000  0.24980900  0.57640200  1
  F  F99  1  0.74769800  0.46563600  0.45169600  1
  F  F100  1  0.26461300  0.35519500  0.51815100  1
  F  F101  1  0.46703400  0.84643400  0.23627500  1
  F  F102  1  0.85196700  0.62961600  0.23684800  1
  F  F103  1  0.96563600  0.25230200  0.95169600  1
  F  F104  1  0.37652600  0.94839900  0.75385000  1
  F  F105  1  0.87652600  0.44839900  0.24615000  1
  F  F106  1  0.24980900  0.88843000  0.92359800  1
  F  F107  1  0.45044400  0.36815600  0.05279000  1
  F  F108  1  0.24996500  0.06509900  0.95769000  1
  F  F109  1  0.74620400  0.53204300  0.86694600  1
  F  F110  1  0.56509900  0.75003500  0.45769000  1
  F  F111  1  0.25402500  0.64730700  0.09881500  1
  F  F112  1  0.53204300  0.75379600  0.63305400  1
  F  F113  1  0.97455500  0.94458700  0.74431600  1
  F  F114  1  0.36815600  0.04955600  0.44721000  1
  F  F115  1  0.74128500  0.61227700  0.65775500  1
  F  F116  1  0.47455500  0.44458700  0.25568400  1
  F  F117  1  0.96795700  0.74620400  0.63305400  1
  F  F118  1  0.24769800  0.96563600  0.54830400  1
  F  F119  1  0.87426700  0.04447300  0.97233200  1
  F  F120  1  0.35196700  0.12961600  0.76315200  1
  F  F121  1  0.14730700  0.74597500  0.59881500  1
  F  F122  1  0.54447300  0.12573300  0.47233200  1
  F  F123  1  0.12573300  0.95552700  0.02766800  1
  F  F124  1  0.93490100  0.74996500  0.45769000  1
  F  F125  1  0.55160100  0.37652600  0.74615000  1
  F  F126  1  0.65356600  0.46703400  0.26372500  1
  F  F127  1  0.53296600  0.15356600  0.76372500  1
  F  F128  1  0.24128500  0.11227700  0.34224500  1
  F  F129  1  0.55744800  0.54745900  0.13859300  1
  F  F130  1  0.11157000  0.74980900  0.42359800  1
  F  F131  1  0.45552700  0.87426700  0.52766800  1
  F  F132  1  0.02544500  0.05541300  0.25568400  1
  F  F133  1  0.13184400  0.45044400  0.44721000  1
  F  F134  1  0.75230200  0.03436400  0.45169600  1
  F  F135  1  0.64803300  0.87038400  0.23684800  1
  F  F136  1  0.24620400  0.03204300  0.13305400  1
  F  F137  1  0.64730700  0.24597500  0.40118500  1
  F  F138  1  0.74597500  0.35269300  0.90118500  1
  F  F139  1  0.54745900  0.94255200  0.36140700  1
  F  F140  1  0.76461300  0.85519500  0.48184900  1
  F  F141  1  0.46795700  0.24620400  0.36694600  1
  F  F142  1  0.46563600  0.75230200  0.04830400  1
  F  F143  1  0.85269300  0.25402500  0.40118500  1
  F  F144  1  0.25523700  0.93394500  0.37480100  1
  F  F145  1  0.44839900  0.62347400  0.25385000  1
  F  F146  1  0.12347400  0.55160100  0.75385000  1
  F  F147  1  0.85519500  0.73538700  0.01815100  1
  F  F148  1  0.75871500  0.88772300  0.65775500  1
  F  F149  1  0.94839900  0.12347400  0.74615000  1
  F  F150  1  0.63184400  0.95044400  0.55279000  1
  F  F151  1  0.34643400  0.53296600  0.73627500  1
  F  F152  1  0.86815600  0.54955600  0.55279000  1
  F  F153  1  0.38772300  0.24128500  0.15775500  1
  F  F154  1  0.04955600  0.13184400  0.05279000  1
  F  F155  1  0.75379600  0.96795700  0.86694600  1
  F  F156  1  0.25003500  0.43490100  0.95769000  1
  F  F157  1  0.74996500  0.56509900  0.04231000  1
  F  F158  1  0.43490100  0.24996500  0.54231000  1
  F  F159  1  0.25379600  0.46795700  0.13305400  1
  F  F160  1  0.52544500  0.55541300  0.74431600  1
  F  F161  1  0.55541300  0.97455500  0.75568400  1
  F  F162  1  0.37038400  0.35196700  0.73684800  1
  F  F163  1  0.05744800  0.04745900  0.86140700  1
  F  F164  1  0.38843000  0.75019100  0.42359800  1
  F  F165  1  0.87038400  0.85196700  0.26315200  1
  F  F166  1  0.14480500  0.26461300  0.98184900  1
  F  F167  1  0.61227700  0.75871500  0.84224500  1
  F  F168  1  0.96703400  0.34643400  0.76372500  1
  F  F169  1  0.56605500  0.25523700  0.12519900  1
  F  F170  1  0.94255200  0.95254100  0.13859300  1
  F  F171  1  0.73538700  0.64480500  0.48184900  1
  F  F172  1  0.04745900  0.44255200  0.63859300  1
  F  F173  1  0.25019100  0.61157000  0.92359800  1
  F  F174  1  0.03436400  0.74769800  0.04830400  1
  F  F175  1  0.24597500  0.85269300  0.09881500  1
