# generated using pymatgen
data_Bi8Se7
_symmetry_space_group_name_H-M   'P 1'
_cell_length_a   4.28749561
_cell_length_b   4.28749561
_cell_length_c   88.64102600
_cell_angle_alpha   90.00000000
_cell_angle_beta   90.00000000
_cell_angle_gamma   119.99999392
_symmetry_Int_Tables_number   1
_chemical_formula_structural   Bi8Se7
_chemical_formula_sum   'Bi24 Se21'
_cell_volume   1411.14879274
_cell_formula_units_Z   3
loop_
 _symmetry_equiv_pos_site_id
 _symmetry_equiv_pos_as_xyz
  1  'x, y, z'
loop_
 _atom_site_type_symbol
 _atom_site_label
 _atom_site_symmetry_multiplicity
 _atom_site_fract_x
 _atom_site_fract_y
 _atom_site_fract_z
 _atom_site_occupancy
  Bi  Bi0  1  0.00000000  0.00000000  0.90029200  1
  Bi  Bi1  1  0.00000000  0.00000000  0.83281900  1
  Bi  Bi2  1  0.00000000  0.00000000  0.56822600  1
  Bi  Bi3  1  0.66666700  0.33333300  0.94294900  1
  Bi  Bi4  1  0.33333300  0.66666700  0.85286300  1
  Bi  Bi5  1  0.00000000  0.00000000  0.36426900  1
  Bi  Bi6  1  0.66666700  0.33333300  0.41175700  1
  Bi  Bi7  1  0.00000000  0.00000000  0.63573100  1
  Bi  Bi8  1  0.33333300  0.66666700  0.58824300  1
  Bi  Bi9  1  0.00000000  0.00000000  0.09970800  1
  Bi  Bi10  1  0.33333300  0.66666700  0.32181400  1
  Bi  Bi11  1  0.66666700  0.33333300  0.74322800  1
  Bi  Bi12  1  0.66666700  0.33333300  0.47881300  1
  Bi  Bi13  1  0.33333300  0.66666700  0.52118700  1
  Bi  Bi14  1  0.00000000  0.00000000  0.43177400  1
  Bi  Bi15  1  0.66666700  0.33333300  0.67818600  1
  Bi  Bi16  1  0.66666700  0.33333300  0.00999500  1
  Bi  Bi17  1  0.33333300  0.66666700  0.05705100  1
  Bi  Bi18  1  0.33333300  0.66666700  0.99000500  1
  Bi  Bi19  1  0.00000000  0.00000000  0.16718100  1
  Bi  Bi20  1  0.66666700  0.33333300  0.21416300  1
  Bi  Bi21  1  0.33333300  0.66666700  0.78583700  1
  Bi  Bi22  1  0.33333300  0.66666700  0.25677200  1
  Bi  Bi23  1  0.66666700  0.33333300  0.14713700  1
  Se  Se24  1  0.33333300  0.66666700  0.19665200  1
  Se  Se25  1  0.00000000  0.00000000  0.03963600  1
  Se  Se26  1  0.66666700  0.33333300  0.27367800  1
  Se  Se27  1  0.66666700  0.33333300  0.53854000  1
  Se  Se28  1  0.33333300  0.66666700  0.11706300  1
  Se  Se29  1  0.33333300  0.66666700  0.46146000  1
  Se  Se30  1  0.33333300  0.66666700  0.92169000  1
  Se  Se31  1  0.00000000  0.00000000  0.69507400  1
  Se  Se32  1  0.00000000  0.00000000  0.30492600  1
  Se  Se33  1  0.33333300  0.66666700  0.72632200  1
  Se  Se34  1  0.66666700  0.33333300  0.61825600  1
  Se  Se35  1  0.66666700  0.33333300  0.34338800  1
  Se  Se36  1  0.00000000  0.00000000  0.96036400  1
  Se  Se37  1  0.00000000  0.00000000  0.76489900  1
  Se  Se38  1  0.33333300  0.66666700  0.65661200  1
  Se  Se39  1  0.66666700  0.33333300  0.88293700  1
  Se  Se40  1  0.66666700  0.33333300  0.80334800  1
  Se  Se41  1  0.00000000  0.00000000  0.50000000  1
  Se  Se42  1  0.00000000  0.00000000  0.23510100  1
  Se  Se43  1  0.66666700  0.33333300  0.07831000  1
  Se  Se44  1  0.33333300  0.66666700  0.38174400  1
