# generated using pymatgen
data_CeTmS3
_symmetry_space_group_name_H-M   'P 1'
_cell_length_a   3.93317300
_cell_length_b   16.37900100
_cell_length_c   21.10535600
_cell_angle_alpha   90.00000000
_cell_angle_beta   90.00000000
_cell_angle_gamma   90.00000000
_symmetry_Int_Tables_number   1
_chemical_formula_structural   CeTmS3
_chemical_formula_sum   'Ce12 Tm12 S36'
_cell_volume   1359.63752021
_cell_formula_units_Z   12
loop_
 _symmetry_equiv_pos_site_id
 _symmetry_equiv_pos_as_xyz
  1  'x, y, z'
loop_
 _atom_site_type_symbol
 _atom_site_label
 _atom_site_symmetry_multiplicity
 _atom_site_fract_x
 _atom_site_fract_y
 _atom_site_fract_z
 _atom_site_occupancy
  Ce  Ce0  1  0.75000000  0.16991400  0.41276200  1
  Ce  Ce1  1  0.25000000  0.16311100  0.75497500  1
  Ce  Ce2  1  0.25000000  0.66311100  0.74502500  1
  Ce  Ce3  1  0.25000000  0.83008600  0.58723800  1
  Ce  Ce4  1  0.75000000  0.33688900  0.25497500  1
  Ce  Ce5  1  0.25000000  0.33008600  0.91276200  1
  Ce  Ce6  1  0.75000000  0.30415700  0.57798600  1
  Ce  Ce7  1  0.75000000  0.80415700  0.92201400  1
  Ce  Ce8  1  0.75000000  0.83688900  0.24502500  1
  Ce  Ce9  1  0.25000000  0.19584300  0.07798600  1
  Ce  Ce10  1  0.75000000  0.66991400  0.08723800  1
  Ce  Ce11  1  0.25000000  0.69584300  0.42201400  1
  Tm  Tm12  1  0.25000000  0.06616600  0.57941100  1
  Tm  Tm13  1  0.25000000  0.59547000  0.25110000  1
  Tm  Tm14  1  0.25000000  0.09547000  0.24890000  1
  Tm  Tm15  1  0.75000000  0.55568200  0.56974800  1
  Tm  Tm16  1  0.75000000  0.90453000  0.75110000  1
  Tm  Tm17  1  0.75000000  0.40453000  0.74890000  1
  Tm  Tm18  1  0.75000000  0.93383400  0.42058900  1
  Tm  Tm19  1  0.75000000  0.43383400  0.07941100  1
  Tm  Tm20  1  0.25000000  0.44431800  0.43025200  1
  Tm  Tm21  1  0.25000000  0.56616600  0.92058900  1
  Tm  Tm22  1  0.75000000  0.05568200  0.93025200  1
  Tm  Tm23  1  0.25000000  0.94431800  0.06974800  1
  S  S24  1  0.25000000  0.94610000  0.19485000  1
  S  S25  1  0.75000000  0.67863500  0.31686700  1
  S  S26  1  0.25000000  0.46186200  0.81836600  1
  S  S27  1  0.75000000  0.05390000  0.80515000  1
  S  S28  1  0.75000000  0.56087000  0.44107000  1
  S  S29  1  0.75000000  0.53813800  0.18163400  1
  S  S30  1  0.75000000  0.14693100  0.64917200  1
  S  S31  1  0.25000000  0.44610000  0.30515000  1
  S  S32  1  0.75000000  0.84022100  0.06430600  1
  S  S33  1  0.25000000  0.04502800  0.44758400  1
  S  S34  1  0.25000000  0.96186200  0.68163400  1
  S  S35  1  0.25000000  0.65977900  0.56430600  1
  S  S36  1  0.25000000  0.35306900  0.14917200  1
  S  S37  1  0.75000000  0.64693100  0.85082800  1
  S  S38  1  0.25000000  0.32136500  0.68313300  1
  S  S39  1  0.25000000  0.22977800  0.32187900  1
  S  S40  1  0.25000000  0.85306900  0.35082800  1
  S  S41  1  0.75000000  0.55390000  0.69485000  1
  S  S42  1  0.75000000  0.03813800  0.31836600  1
  S  S43  1  0.25000000  0.21020500  0.51622600  1
  S  S44  1  0.75000000  0.17863500  0.18313300  1
  S  S45  1  0.75000000  0.78979500  0.48377400  1
  S  S46  1  0.25000000  0.54502800  0.05241600  1
  S  S47  1  0.25000000  0.71020500  0.98377400  1
  S  S48  1  0.25000000  0.15977900  0.93569400  1
  S  S49  1  0.75000000  0.28979500  0.01622600  1
  S  S50  1  0.75000000  0.06087000  0.05893000  1
  S  S51  1  0.25000000  0.43913000  0.55893000  1
  S  S52  1  0.75000000  0.27022200  0.82187900  1
  S  S53  1  0.75000000  0.77022200  0.67812100  1
  S  S54  1  0.25000000  0.82136500  0.81686700  1
  S  S55  1  0.25000000  0.72977800  0.17812100  1
  S  S56  1  0.25000000  0.93913000  0.94107000  1
  S  S57  1  0.75000000  0.34022100  0.43569400  1
  S  S58  1  0.75000000  0.95497200  0.55241600  1
  S  S59  1  0.75000000  0.45497200  0.94758400  1
