# generated using pymatgen
data_PtCl4
_symmetry_space_group_name_H-M   'P 1'
_cell_length_a   11.48483100
_cell_length_b   11.48483100
_cell_length_c   11.48483100
_cell_angle_alpha   90.00000000
_cell_angle_beta   90.00000000
_cell_angle_gamma   90.00000000
_symmetry_Int_Tables_number   1
_chemical_formula_structural   PtCl4
_chemical_formula_sum   'Pt8 Cl32'
_cell_volume   1514.86463416
_cell_formula_units_Z   8
loop_
 _symmetry_equiv_pos_site_id
 _symmetry_equiv_pos_as_xyz
  1  'x, y, z'
loop_
 _atom_site_type_symbol
 _atom_site_label
 _atom_site_symmetry_multiplicity
 _atom_site_fract_x
 _atom_site_fract_y
 _atom_site_fract_z
 _atom_site_occupancy
  Pt  Pt0  1  0.87610700  0.12389300  0.62389300  1
  Pt  Pt1  1  0.62389300  0.87610700  0.12389300  1
  Pt  Pt2  1  0.62389300  0.62389300  0.62389300  1
  Pt  Pt3  1  0.87610700  0.37610700  0.12389300  1
  Pt  Pt4  1  0.37610700  0.37610700  0.37610700  1
  Pt  Pt5  1  0.12389300  0.62389300  0.87610700  1
  Pt  Pt6  1  0.37610700  0.12389300  0.87610700  1
  Pt  Pt7  1  0.12389300  0.87610700  0.37610700  1
  Cl  Cl8  1  0.01196700  0.74922500  0.97997900  1
  Cl  Cl9  1  0.73792500  0.73792500  0.73792500  1
  Cl  Cl10  1  0.02002100  0.98803300  0.25077500  1
  Cl  Cl11  1  0.24922500  0.97997900  0.48803300  1
  Cl  Cl12  1  0.52002100  0.51196700  0.74922500  1
  Cl  Cl13  1  0.97997900  0.01196700  0.74922500  1
  Cl  Cl14  1  0.51196700  0.75077500  0.02002100  1
  Cl  Cl15  1  0.51196700  0.74922500  0.52002100  1
  Cl  Cl16  1  0.02002100  0.51196700  0.75077500  1
  Cl  Cl17  1  0.76207500  0.26207500  0.23792500  1
  Cl  Cl18  1  0.97997900  0.48803300  0.24922500  1
  Cl  Cl19  1  0.26207500  0.26207500  0.26207500  1
  Cl  Cl20  1  0.76207500  0.23792500  0.73792500  1
  Cl  Cl21  1  0.74922500  0.97997900  0.01196700  1
  Cl  Cl22  1  0.23792500  0.73792500  0.76207500  1
  Cl  Cl23  1  0.75077500  0.47997900  0.01196700  1
  Cl  Cl24  1  0.24922500  0.52002100  0.98803300  1
  Cl  Cl25  1  0.01196700  0.75077500  0.47997900  1
  Cl  Cl26  1  0.26207500  0.23792500  0.76207500  1
  Cl  Cl27  1  0.47997900  0.48803300  0.25077500  1
  Cl  Cl28  1  0.48803300  0.25077500  0.47997900  1
  Cl  Cl29  1  0.73792500  0.76207500  0.23792500  1
  Cl  Cl30  1  0.47997900  0.01196700  0.75077500  1
  Cl  Cl31  1  0.74922500  0.52002100  0.51196700  1
  Cl  Cl32  1  0.25077500  0.47997900  0.48803300  1
  Cl  Cl33  1  0.98803300  0.24922500  0.52002100  1
  Cl  Cl34  1  0.52002100  0.98803300  0.24922500  1
  Cl  Cl35  1  0.23792500  0.76207500  0.26207500  1
  Cl  Cl36  1  0.75077500  0.02002100  0.51196700  1
  Cl  Cl37  1  0.48803300  0.24922500  0.97997900  1
  Cl  Cl38  1  0.25077500  0.02002100  0.98803300  1
  Cl  Cl39  1  0.98803300  0.25077500  0.02002100  1
