# generated using pymatgen
data_Ca4Te5O14
_symmetry_space_group_name_H-M   'P 1'
_cell_length_a   11.06937300
_cell_length_b   15.97904500
_cell_length_c   16.75691000
_cell_angle_alpha   90.00000000
_cell_angle_beta   90.00000000
_cell_angle_gamma   90.00000000
_symmetry_Int_Tables_number   1
_chemical_formula_structural   Ca4Te5O14
_chemical_formula_sum   'Ca32 Te40 O112'
_cell_volume   2963.92888263
_cell_formula_units_Z   8
loop_
 _symmetry_equiv_pos_site_id
 _symmetry_equiv_pos_as_xyz
  1  'x, y, z'
loop_
 _atom_site_type_symbol
 _atom_site_label
 _atom_site_symmetry_multiplicity
 _atom_site_fract_x
 _atom_site_fract_y
 _atom_site_fract_z
 _atom_site_occupancy
  Ca  Ca0  1  0.38107400  0.73769200  0.31860000  1
  Ca  Ca1  1  0.88566300  0.08960800  0.01245700  1
  Ca  Ca2  1  0.38566300  0.91039200  0.48754300  1
  Ca  Ca3  1  0.61433700  0.08960800  0.51245700  1
  Ca  Ca4  1  0.11892600  0.73769200  0.81860000  1
  Ca  Ca5  1  0.12302900  0.26447200  0.00974400  1
  Ca  Ca6  1  0.87697100  0.73552800  0.99025600  1
  Ca  Ca7  1  0.88403900  0.25617800  0.85463200  1
  Ca  Ca8  1  0.61892600  0.76230800  0.81860000  1
  Ca  Ca9  1  0.11433700  0.41039200  0.51245700  1
  Ca  Ca10  1  0.62302900  0.73552800  0.49025600  1
  Ca  Ca11  1  0.11596100  0.74382200  0.14536800  1
  Ca  Ca12  1  0.11892600  0.23769200  0.68140000  1
  Ca  Ca13  1  0.38403900  0.74382200  0.64536800  1
  Ca  Ca14  1  0.88403900  0.75617800  0.64536800  1
  Ca  Ca15  1  0.37697100  0.76447200  0.99025600  1
  Ca  Ca16  1  0.11596100  0.24382200  0.35463200  1
  Ca  Ca17  1  0.38403900  0.24382200  0.85463200  1
  Ca  Ca18  1  0.38566300  0.41039200  0.01245700  1
  Ca  Ca19  1  0.61433700  0.58960800  0.98754300  1
  Ca  Ca20  1  0.12302900  0.76447200  0.49025600  1
  Ca  Ca21  1  0.61596100  0.25617800  0.35463200  1
  Ca  Ca22  1  0.37697100  0.26447200  0.50974400  1
  Ca  Ca23  1  0.38107400  0.23769200  0.18140000  1
  Ca  Ca24  1  0.87697100  0.23552800  0.50974400  1
  Ca  Ca25  1  0.88566300  0.58960800  0.48754300  1
  Ca  Ca26  1  0.88107400  0.76230800  0.31860000  1
  Ca  Ca27  1  0.61892600  0.26230800  0.68140000  1
  Ca  Ca28  1  0.11433700  0.91039200  0.98754300  1
  Ca  Ca29  1  0.62302900  0.23552800  0.00974400  1
  Ca  Ca30  1  0.61596100  0.75617800  0.14536800  1
  Ca  Ca31  1  0.88107400  0.26230800  0.18140000  1
  Te  Te32  1  0.11249100  0.59224300  0.65357300  1
  Te  Te33  1  0.87248900  0.08537700  0.34657800  1
  Te  Te34  1  0.60230300  0.40973300  0.15928000  1
  Te  Te35  1  0.89769700  0.90973300  0.84072000  1
  Te  Te36  1  0.13569900  0.40739100  0.17544500  1
  Te  Te37  1  0.62751100  0.08537700  0.84657800  1
  Te  Te38  1  0.13569900  0.90739100  0.32455500  1
  Te  Te39  1  0.62612500  0.39785500  0.51297600  1
  Te  Te40  1  0.39769700  0.09026700  0.65928000  1
  Te  Te41  1  0.12751100  0.41462300  0.84657800  1
  Te  Te42  1  0.37387500  0.60214500  0.48702400  1
  Te  Te43  1  0.86430100  0.09260900  0.67544500  1
  Te  Te44  1  0.62612500  0.89785500  0.98702400  1
  Te  Te45  1  0.12751100  0.91462300  0.65342200  1
  Te  Te46  1  0.88750900  0.90775700  0.15357300  1
  Te  Te47  1  0.63569900  0.59260900  0.32455500  1
  Te  Te48  1  0.12612500  0.10214500  0.51297600  1
  Te  Te49  1  0.89769700  0.40973300  0.65928000  1
  Te  Te50  1  0.88750900  0.40775700  0.34642700  1
  Te  Te51  1  0.61249100  0.40775700  0.84642700  1
  Te  Te52  1  0.11249100  0.09224300  0.84642700  1
  Te  Te53  1  0.37248900  0.41462300  0.34657800  1
  Te  Te54  1  0.87248900  0.58537700  0.15342200  1
  Te  Te55  1  0.63569900  0.09260900  0.17544500  1
  Te  Te56  1  0.37387500  0.10214500  0.01297600  1
  Te  Te57  1  0.62751100  0.58537700  0.65342200  1
  Te  Te58  1  0.87387500  0.39785500  0.01297600  1
  Te  Te59  1  0.39769700  0.59026700  0.84072000  1
  Te  Te60  1  0.12612500  0.60214500  0.98702400  1
  Te  Te61  1  0.36430100  0.90739100  0.82455500  1
  Te  Te62  1  0.38750900  0.59224300  0.15357300  1
  Te  Te63  1  0.10230300  0.09026700  0.15928000  1
  Te  Te64  1  0.37248900  0.91462300  0.15342200  1
  Te  Te65  1  0.60230300  0.90973300  0.34072000  1
  Te  Te66  1  0.38750900  0.09224300  0.34642700  1
  Te  Te67  1  0.61249100  0.90775700  0.65357300  1
  Te  Te68  1  0.10230300  0.59026700  0.34072000  1
  Te  Te69  1  0.36430100  0.40739100  0.67544500  1
  Te  Te70  1  0.86430100  0.59260900  0.82455500  1
  Te  Te71  1  0.87387500  0.89785500  0.48702400  1
  O  O72  1  0.03085300  0.16580100  0.92014900  1
  O  O73  1  0.25528800  0.84137300  0.88641600  1
  O  O74  1  0.27792900  0.16971600  0.29905200  1
  O  O75  1  0.55739600  0.98894000  0.41943100  1
  O  O76  1  0.72207100  0.33028400  0.79905200  1
  O  O77  1  0.93938500  0.17009600  0.28215200  1
  O  O78  1  0.25528800  0.34137300  0.61358400  1
  O  O79  1  0.96914700  0.33419900  0.42014900  1
  O  O80  1  0.74152100  0.87744100  0.87647900  1
  O  O81  1  0.49475500  0.63073300  0.57171000  1
  O  O82  1  0.93060400  0.17855800  0.74000800  1
  O  O83  1  0.75528800  0.15862700  0.61358400  1
  O  O84  1  0.43060400  0.32144200  0.74000800  1
  O  O85  1  0.46914700  0.66580100  0.07985100  1
  O  O86  1  0.75076700  0.05197400  0.75922500  1
  O  O87  1  0.21550400  0.53362800  0.58112200  1
  O  O88  1  0.06061500  0.82990400  0.71784800  1
  O  O89  1  0.51487100  0.32453300  0.10485200  1
  O  O90  1  0.00524500  0.13073300  0.42829000  1
  O  O91  1  0.22207100  0.16971600  0.79905200  1
  O  O92  1  0.19095900  0.70710200  0.01448800  1
  O  O93  1  0.44260400  0.51106000  0.91943100  1
  O  O94  1  0.43938500  0.82990400  0.21784800  1
  O  O95  1  0.48512900  0.17546700  0.60485200  1
  O  O96  1  0.99475500  0.86926700  0.57171000  1
  O  O97  1  0.93938500  0.67009600  0.21784800  1
  O  O98  1  0.27792900  0.66971600  0.20094800  1
  O  O99  1  0.28449600  0.53362800  0.08112200  1
  O  O100  1  0.24160900  0.85627500  0.58845900  1
  O  O101  1  0.25839100  0.85627500  0.08845900  1
  O  O102  1  0.30904100  0.20710200  0.98551200  1
  O  O103  1  0.06061500  0.32990400  0.78215200  1
  O  O104  1  0.24160900  0.35627500  0.91154100  1
  O  O105  1  0.78449600  0.46637200  0.41887800  1
  O  O106  1  0.25076700  0.94802600  0.74077500  1
  O  O107  1  0.25847900  0.12255900  0.12352100  1
  O  O108  1  0.48512900  0.67546700  0.89514800  1
  O  O109  1  0.05739600  0.51106000  0.41943100  1
  O  O110  1  0.25847900  0.62255900  0.37647900  1
  O  O111  1  0.25076700  0.44802600  0.75922500  1
  O  O112  1  0.24471200  0.34137300  0.11358400  1
  O  O113  1  0.56061500  0.67009600  0.71784800  1
  O  O114  1  0.80904100  0.79289800  0.51448800  1
  O  O115  1  0.75528800  0.65862700  0.88641600  1
  O  O116  1  0.94260400  0.48894000  0.58056900  1
  O  O117  1  0.00905400  0.64722200  0.91214100  1
  O  O118  1  0.24471200  0.84137300  0.38641600  1
  O  O119  1  0.24152100  0.62255900  0.87647900  1
  O  O120  1  0.78449600  0.96637200  0.08112200  1
  O  O121  1  0.49094600  0.64722200  0.41214100  1
  O  O122  1  0.77792900  0.83028400  0.20094800  1
  O  O123  1  0.01487100  0.67546700  0.39514800  1
  O  O124  1  0.24923300  0.94802600  0.24077500  1
  O  O125  1  0.43060400  0.82144200  0.75999200  1
  O  O126  1  0.44260400  0.01106000  0.58056900  1
  O  O127  1  0.06939600  0.82144200  0.25999200  1
  O  O128  1  0.71550400  0.96637200  0.58112200  1
  O  O129  1  0.49475500  0.13073300  0.92829000  1
  O  O130  1  0.46914700  0.16580100  0.42014900  1
  O  O131  1  0.99475500  0.36926700  0.92829000  1
  O  O132  1  0.94260400  0.98894000  0.91943100  1
  O  O133  1  0.24152100  0.12255900  0.62352100  1
  O  O134  1  0.75839100  0.14372500  0.41154100  1
  O  O135  1  0.50905400  0.35277800  0.58785900  1
  O  O136  1  0.50905400  0.85277800  0.91214100  1
  O  O137  1  0.01487100  0.17546700  0.10485200  1
  O  O138  1  0.69095900  0.29289800  0.48551200  1
  O  O139  1  0.74471200  0.65862700  0.38641600  1
  O  O140  1  0.28449600  0.03362800  0.41887800  1
  O  O141  1  0.56939600  0.67855800  0.25999200  1
  O  O142  1  0.75847900  0.87744100  0.37647900  1
  O  O143  1  0.99094600  0.35277800  0.08785900  1
  O  O144  1  0.25839100  0.35627500  0.41154100  1
  O  O145  1  0.03085300  0.66580100  0.57985100  1
  O  O146  1  0.49094600  0.14722200  0.08785900  1
  O  O147  1  0.24923300  0.44802600  0.25922500  1
  O  O148  1  0.30904100  0.70710200  0.51448800  1
  O  O149  1  0.74923300  0.05197400  0.25922500  1
  O  O150  1  0.00524500  0.63073300  0.07171000  1
  O  O151  1  0.21550400  0.03362800  0.91887800  1
  O  O152  1  0.96914700  0.83419900  0.07985100  1
  O  O153  1  0.56939600  0.17855800  0.24000800  1
  O  O154  1  0.50524500  0.86926700  0.07171000  1
  O  O155  1  0.93060400  0.67855800  0.75999200  1
  O  O156  1  0.74152100  0.37744100  0.62352100  1
  O  O157  1  0.50524500  0.36926700  0.42829000  1
  O  O158  1  0.77792900  0.33028400  0.29905200  1
  O  O159  1  0.51487100  0.82453300  0.39514800  1
  O  O160  1  0.98512900  0.82453300  0.89514800  1
  O  O161  1  0.56061500  0.17009600  0.78215200  1
  O  O162  1  0.99094600  0.85277800  0.41214100  1
  O  O163  1  0.75839100  0.64372500  0.08845900  1
  O  O164  1  0.75076700  0.55197400  0.74077500  1
  O  O165  1  0.55739600  0.48894000  0.08056900  1
  O  O166  1  0.05739600  0.01106000  0.08056900  1
  O  O167  1  0.69095900  0.79289800  0.01448800  1
  O  O168  1  0.19095900  0.20710200  0.48551200  1
  O  O169  1  0.53085300  0.33419900  0.92014900  1
  O  O170  1  0.72207100  0.83028400  0.70094800  1
  O  O171  1  0.74160900  0.64372500  0.58845900  1
  O  O172  1  0.74471200  0.15862700  0.11358400  1
  O  O173  1  0.22207100  0.66971600  0.70094800  1
  O  O174  1  0.75847900  0.37744100  0.12352100  1
  O  O175  1  0.74923300  0.55197400  0.24077500  1
  O  O176  1  0.71550400  0.46637200  0.91887800  1
  O  O177  1  0.53085300  0.83419900  0.57985100  1
  O  O178  1  0.80904100  0.29289800  0.98551200  1
  O  O179  1  0.98512900  0.32453300  0.60485200  1
  O  O180  1  0.43938500  0.32990400  0.28215200  1
  O  O181  1  0.00905400  0.14722200  0.58785900  1
  O  O182  1  0.06939600  0.32144200  0.24000800  1
  O  O183  1  0.74160900  0.14372500  0.91154100  1
