# generated using pymatgen
data_K2Ti(SiO3)3
_symmetry_space_group_name_H-M   'P 1'
_cell_length_a   6.87019664
_cell_length_b   6.87019664
_cell_length_c   10.07936900
_cell_angle_alpha   90.00000000
_cell_angle_beta   90.00000000
_cell_angle_gamma   120.00000613
_symmetry_Int_Tables_number   1
_chemical_formula_structural   K2Ti(SiO3)3
_chemical_formula_sum   'K4 Ti2 Si6 O18'
_cell_volume   412.00480839
_cell_formula_units_Z   2
loop_
 _symmetry_equiv_pos_site_id
 _symmetry_equiv_pos_as_xyz
  1  'x, y, z'
loop_
 _atom_site_type_symbol
 _atom_site_label
 _atom_site_symmetry_multiplicity
 _atom_site_fract_x
 _atom_site_fract_y
 _atom_site_fract_z
 _atom_site_occupancy
  K  K0  1  0.33333300  0.66666700  0.05735700  1
  K  K1  1  0.66666700  0.33333300  0.55735700  1
  K  K2  1  0.33333300  0.66666700  0.44264300  1
  K  K3  1  0.66666700  0.33333300  0.94264300  1
  Ti  Ti4  1  0.00000000  0.00000000  0.00000000  1
  Ti  Ti5  1  0.00000000  0.00000000  0.50000000  1
  Si  Si6  1  0.62288000  0.75228700  0.75000000  1
  Si  Si7  1  0.87059200  0.62288000  0.25000000  1
  Si  Si8  1  0.75228700  0.12940800  0.25000000  1
  Si  Si9  1  0.24771300  0.87059200  0.75000000  1
  Si  Si10  1  0.12940800  0.37712000  0.75000000  1
  Si  Si11  1  0.37712000  0.24771300  0.25000000  1
  O  O12  1  0.24526600  0.22311400  0.38743300  1
  O  O13  1  0.02215200  0.24526600  0.88743300  1
  O  O14  1  0.22311400  0.97784800  0.88743300  1
  O  O15  1  0.77688600  0.02215200  0.38743300  1
  O  O16  1  0.97784800  0.75473400  0.38743300  1
  O  O17  1  0.75473400  0.77688600  0.88743300  1
  O  O18  1  0.75473400  0.77688600  0.61256700  1
  O  O19  1  0.97784800  0.75473400  0.11256700  1
  O  O20  1  0.77688600  0.02215200  0.11256700  1
  O  O21  1  0.22311400  0.97784800  0.61256700  1
  O  O22  1  0.02215200  0.24526600  0.61256700  1
  O  O23  1  0.24526600  0.22311400  0.11256700  1
  O  O24  1  0.48823200  0.08145400  0.25000000  1
  O  O25  1  0.40677800  0.48823200  0.75000000  1
  O  O26  1  0.08145400  0.59322200  0.75000000  1
  O  O27  1  0.91854600  0.40677800  0.25000000  1
  O  O28  1  0.59322200  0.51176800  0.25000000  1
  O  O29  1  0.51176800  0.91854600  0.75000000  1
