# generated using pymatgen
data_Cs3Bi2Br9
_symmetry_space_group_name_H-M   'P 1'
_cell_length_a   8.18539521
_cell_length_b   8.18539521
_cell_length_c   20.25357060
_cell_angle_alpha   89.28646804
_cell_angle_beta   89.28646804
_cell_angle_gamma   60.16683726
_symmetry_Int_Tables_number   1
_chemical_formula_structural   Cs3Bi2Br9
_chemical_formula_sum   'Cs6 Bi4 Br18'
_cell_volume   1177.04813224
_cell_formula_units_Z   2
loop_
 _symmetry_equiv_pos_site_id
 _symmetry_equiv_pos_as_xyz
  1  'x, y, z'
loop_
 _atom_site_type_symbol
 _atom_site_label
 _atom_site_symmetry_multiplicity
 _atom_site_fract_x
 _atom_site_fract_y
 _atom_site_fract_z
 _atom_site_occupancy
  Cs  Cs0  1  0.67375500  0.65712500  0.16770700  1
  Cs  Cs1  1  0.00000000  0.00000000  0.00000000  1
  Cs  Cs2  1  0.34287500  0.32624500  0.33229300  1
  Cs  Cs3  1  0.00000000  0.00000000  0.50000000  1
  Cs  Cs4  1  0.65712500  0.67375500  0.66770700  1
  Cs  Cs5  1  0.32624500  0.34287500  0.83229300  1
  Bi  Bi6  1  0.67377700  0.66315200  0.40717400  1
  Bi  Bi7  1  0.33684800  0.32622300  0.09282600  1
  Bi  Bi8  1  0.66315200  0.67377700  0.90717400  1
  Bi  Bi9  1  0.32622300  0.33684800  0.59282600  1
  Br  Br10  1  0.16382900  0.66581400  0.66424500  1
  Br  Br11  1  0.82320400  0.34911500  0.83354100  1
  Br  Br12  1  0.00000000  0.50000000  0.50000000  1
  Br  Br13  1  0.66581400  0.16382900  0.16424500  1
  Br  Br14  1  0.14968800  0.18924700  0.66978600  1
  Br  Br15  1  0.81075300  0.85031200  0.83021400  1
  Br  Br16  1  0.00000000  0.50000000  0.00000000  1
  Br  Br17  1  0.85031200  0.81075300  0.33021400  1
  Br  Br18  1  0.33418600  0.83617100  0.83575500  1
  Br  Br19  1  0.83617100  0.33418600  0.33575500  1
  Br  Br20  1  0.50000000  0.50000000  0.00000000  1
  Br  Br21  1  0.34911500  0.82320400  0.33354100  1
  Br  Br22  1  0.65088500  0.17679600  0.66645900  1
  Br  Br23  1  0.17679600  0.65088500  0.16645900  1
  Br  Br24  1  0.50000000  0.00000000  0.00000000  1
  Br  Br25  1  0.18924700  0.14968800  0.16978600  1
  Br  Br26  1  0.50000000  0.00000000  0.50000000  1
  Br  Br27  1  0.50000000  0.50000000  0.50000000  1
