# generated using pymatgen
data_KGa2Cl7
_symmetry_space_group_name_H-M   'P 1'
_cell_length_a   9.96435300
_cell_length_b   10.67709900
_cell_length_c   13.13994900
_cell_angle_alpha   90.00000000
_cell_angle_beta   90.00000000
_cell_angle_gamma   90.00000000
_symmetry_Int_Tables_number   1
_chemical_formula_structural   KGa2Cl7
_chemical_formula_sum   'K4 Ga8 Cl28'
_cell_volume   1397.96421265
_cell_formula_units_Z   4
loop_
 _symmetry_equiv_pos_site_id
 _symmetry_equiv_pos_as_xyz
  1  'x, y, z'
loop_
 _atom_site_type_symbol
 _atom_site_label
 _atom_site_symmetry_multiplicity
 _atom_site_fract_x
 _atom_site_fract_y
 _atom_site_fract_z
 _atom_site_occupancy
  K  K0  1  0.35980200  0.86265500  0.07420300  1
  K  K1  1  0.64019800  0.36265500  0.92579700  1
  K  K2  1  0.14019800  0.86265500  0.57420300  1
  K  K3  1  0.85980200  0.36265500  0.42579700  1
  Ga  Ga4  1  0.37015900  0.21424600  0.37078800  1
  Ga  Ga5  1  0.62984100  0.71424600  0.62921200  1
  Ga  Ga6  1  0.12984100  0.21424600  0.87078800  1
  Ga  Ga7  1  0.87015900  0.71424600  0.12921200  1
  Ga  Ga8  1  0.43360600  0.49202500  0.18317900  1
  Ga  Ga9  1  0.56639400  0.99202500  0.81682100  1
  Ga  Ga10  1  0.06639400  0.49202500  0.68317900  1
  Ga  Ga11  1  0.93360600  0.99202500  0.31682100  1
  Cl  Cl12  1  0.27471500  0.37781500  0.27511800  1
  Cl  Cl13  1  0.72528500  0.87781500  0.72488200  1
  Cl  Cl14  1  0.22528500  0.37781500  0.77511800  1
  Cl  Cl15  1  0.77471500  0.87781500  0.22488200  1
  Cl  Cl16  1  0.44727700  0.66950400  0.26142900  1
  Cl  Cl17  1  0.55272300  0.16950400  0.73857100  1
  Cl  Cl18  1  0.05272300  0.66950400  0.76142900  1
  Cl  Cl19  1  0.94727700  0.16950400  0.23857100  1
  Cl  Cl20  1  0.43006700  0.07275900  0.26238300  1
  Cl  Cl21  1  0.56993300  0.57275900  0.73761700  1
  Cl  Cl22  1  0.06993300  0.07275900  0.76238300  1
  Cl  Cl23  1  0.93006700  0.57275900  0.23761700  1
  Cl  Cl24  1  0.35227000  0.51678600  0.03163300  1
  Cl  Cl25  1  0.64773000  0.01678600  0.96836700  1
  Cl  Cl26  1  0.14773000  0.51678600  0.53163300  1
  Cl  Cl27  1  0.85227000  0.01678600  0.46836700  1
  Cl  Cl28  1  0.46676600  0.78999100  0.54030200  1
  Cl  Cl29  1  0.53323400  0.28999100  0.45969800  1
  Cl  Cl30  1  0.03323400  0.78999100  0.04030200  1
  Cl  Cl31  1  0.96676600  0.28999100  0.95969800  1
  Cl  Cl32  1  0.61124600  0.37374900  0.18128800  1
  Cl  Cl33  1  0.38875400  0.87374900  0.81871200  1
  Cl  Cl34  1  0.88875400  0.37374900  0.68128800  1
  Cl  Cl35  1  0.11124600  0.87374900  0.31871200  1
  Cl  Cl36  1  0.20051200  0.16237100  0.46648800  1
  Cl  Cl37  1  0.79948800  0.66237100  0.53351200  1
  Cl  Cl38  1  0.29948800  0.16237100  0.96648800  1
  Cl  Cl39  1  0.70051200  0.66237100  0.03351200  1
