# generated using pymatgen
data_Np3Se3O13
_symmetry_space_group_name_H-M   'P 1'
_cell_length_a   10.78558700
_cell_length_b   12.14274900
_cell_length_c   18.02809400
_cell_angle_alpha   90.00000000
_cell_angle_beta   90.00000000
_cell_angle_gamma   90.00000000
_symmetry_Int_Tables_number   1
_chemical_formula_structural   Np3Se3O13
_chemical_formula_sum   'Np24 Se24 O104'
_cell_volume   2361.07954144
_cell_formula_units_Z   8
loop_
 _symmetry_equiv_pos_site_id
 _symmetry_equiv_pos_as_xyz
  1  'x, y, z'
loop_
 _atom_site_type_symbol
 _atom_site_label
 _atom_site_symmetry_multiplicity
 _atom_site_fract_x
 _atom_site_fract_y
 _atom_site_fract_z
 _atom_site_occupancy
  Np  Np0  1  0.75089800  0.58737200  0.57770400  1
  Np  Np1  1  0.98987100  0.42894600  0.26118500  1
  Np  Np2  1  0.01012900  0.57105400  0.73881500  1
  Np  Np3  1  0.99386700  0.16389900  0.40136800  1
  Np  Np4  1  0.74910200  0.41262800  0.07770400  1
  Np  Np5  1  0.24910200  0.41262800  0.42229600  1
  Np  Np6  1  0.48987100  0.42894600  0.23881500  1
  Np  Np7  1  0.51012900  0.57105400  0.76118500  1
  Np  Np8  1  0.49386700  0.16389900  0.09863200  1
  Np  Np9  1  0.00613300  0.83610100  0.59863200  1
  Np  Np10  1  0.25089800  0.58737200  0.92229600  1
  Np  Np11  1  0.25089800  0.91262800  0.42229600  1
  Np  Np12  1  0.98987100  0.07105400  0.76118500  1
  Np  Np13  1  0.01012900  0.92894600  0.23881500  1
  Np  Np14  1  0.99386700  0.33610100  0.90136800  1
  Np  Np15  1  0.48987100  0.07105400  0.73881500  1
  Np  Np16  1  0.50613300  0.83610100  0.90136800  1
  Np  Np17  1  0.49386700  0.33610100  0.59863200  1
  Np  Np18  1  0.75089800  0.91262800  0.07770400  1
  Np  Np19  1  0.51012900  0.92894600  0.26118500  1
  Np  Np20  1  0.24910200  0.08737200  0.92229600  1
  Np  Np21  1  0.74910200  0.08737200  0.57770400  1
  Np  Np22  1  0.50613300  0.66389900  0.40136800  1
  Np  Np23  1  0.00613300  0.66389900  0.09863200  1
  Se  Se24  1  0.52675800  0.66022700  0.05344400  1
  Se  Se25  1  0.27544700  0.96239200  0.10689100  1
  Se  Se26  1  0.97324200  0.16022700  0.05344400  1
  Se  Se27  1  0.77544700  0.53760800  0.89310900  1
  Se  Se28  1  0.77544700  0.96239200  0.39310900  1
  Se  Se29  1  0.20430600  0.30300600  0.76749700  1
  Se  Se30  1  0.70430600  0.19699400  0.23250300  1
  Se  Se31  1  0.47324200  0.33977300  0.94655600  1
  Se  Se32  1  0.22455300  0.46239200  0.10689100  1
  Se  Se33  1  0.29569400  0.69699400  0.26749700  1
  Se  Se34  1  0.02675800  0.83977300  0.94655600  1
  Se  Se35  1  0.52675800  0.83977300  0.55344400  1
  Se  Se36  1  0.47324200  0.16022700  0.44655600  1
  Se  Se37  1  0.79569400  0.80300600  0.73250300  1
  Se  Se38  1  0.29569400  0.80300600  0.76749700  1
  Se  Se39  1  0.70430600  0.30300600  0.73250300  1
  Se  Se40  1  0.97324200  0.33977300  0.55344400  1
  Se  Se41  1  0.22455300  0.03760800  0.60689100  1
  Se  Se42  1  0.27544700  0.53760800  0.60689100  1
  Se  Se43  1  0.02675800  0.66022700  0.44655600  1
  Se  Se44  1  0.72455300  0.46239200  0.39310900  1
  Se  Se45  1  0.79569400  0.69699400  0.23250300  1
  Se  Se46  1  0.20430600  0.19699400  0.26749700  1
  Se  Se47  1  0.72455300  0.03760800  0.89310900  1
  O  O48  1  0.29373200  0.07898300  0.05068700  1
  O  O49  1  0.18905000  0.25325600  0.85997000  1
  O  O50  1  0.63453100  0.20322200  0.78385000  1
  O  O51  1  0.13453100  0.29677800  0.21615000  1
  O  O52  1  0.89381300  0.48843400  0.83458500  1
  O  O53  1  0.91435500  0.22435900  0.84507400  1
  O  O54  1  0.90495600  0.55069700  0.05811000  1
  O  O55  1  0.58564500  0.72435900  0.84507400  1
  O  O56  1  0.10618700  0.51156600  0.16541500  1
  O  O57  1  0.36556700  0.43378900  0.97552700  1
  O  O58  1  0.58564500  0.77564100  0.34507400  1
  O  O59  1  0.14756500  0.00371300  0.15436700  1
  O  O60  1  0.37311600  0.11777900  0.81165000  1
  O  O61  1  0.40152700  0.28565900  0.46806800  1
  O  O62  1  0.07469500  0.17329900  0.97672100  1
  O  O63  1  0.92141200  0.89124600  0.71813000  1
  O  O64  1  0.85243500  0.50371300  0.34563300  1
  O  O65  1  0.79373200  0.42101700  0.94931300  1
  O  O66  1  0.36556700  0.06621100  0.47552700  1
  O  O67  1  0.59847300  0.71434100  0.53193200  1
  O  O68  1  0.88424700  0.97709200  0.17021300  1
  O  O69  1  0.36546900  0.79677800  0.21615000  1
  O  O70  1  0.40495600  0.94930300  0.94189000  1
  O  O71  1  0.64756500  0.00371300  0.34563300  1
  O  O72  1  0.57469500  0.32670100  0.02327900  1
  O  O73  1  0.14756500  0.49628700  0.65436700  1
  O  O74  1  0.09504400  0.44930300  0.94189000  1
  O  O75  1  0.90495600  0.94930300  0.55811000  1
  O  O76  1  0.10618700  0.98843400  0.66541500  1
  O  O77  1  0.29373200  0.42101700  0.55068700  1
  O  O78  1  0.20626800  0.57898300  0.05068700  1
  O  O79  1  0.62688400  0.61777900  0.68835000  1
  O  O80  1  0.20626800  0.92101700  0.55068700  1
  O  O81  1  0.39381300  0.01156600  0.16541500  1
  O  O82  1  0.57858800  0.39124600  0.71813000  1
  O  O83  1  0.59847300  0.78565900  0.03193200  1
  O  O84  1  0.09847300  0.71434100  0.96806800  1
  O  O85  1  0.38424700  0.97709200  0.32978700  1
  O  O86  1  0.70626800  0.92101700  0.94931300  1
  O  O87  1  0.63443300  0.56621100  0.02447300  1
  O  O88  1  0.81095000  0.74674400  0.14003000  1
  O  O89  1  0.35243500  0.99628700  0.65436700  1
  O  O90  1  0.87311600  0.38222100  0.18835000  1
  O  O91  1  0.57858800  0.10875400  0.21813000  1
  O  O92  1  0.40495600  0.55069700  0.44189000  1
  O  O93  1  0.92141200  0.60875400  0.21813000  1
  O  O94  1  0.13443300  0.93378900  0.97552700  1
  O  O95  1  0.13443300  0.56621100  0.47552700  1
  O  O96  1  0.81095000  0.75325600  0.64003000  1
  O  O97  1  0.57469500  0.17329900  0.52327900  1
  O  O98  1  0.31095000  0.74674400  0.35997000  1
  O  O99  1  0.38424700  0.52290800  0.82978700  1
  O  O100  1  0.60618700  0.98843400  0.83458500  1
  O  O101  1  0.18905000  0.24674400  0.35997000  1
  O  O102  1  0.42530500  0.67329900  0.97672100  1
  O  O103  1  0.90152700  0.21434100  0.53193200  1
  O  O104  1  0.86556700  0.43378900  0.52447300  1
  O  O105  1  0.36546900  0.70322200  0.71615000  1
  O  O106  1  0.09504400  0.05069700  0.44189000  1
  O  O107  1  0.87311600  0.11777900  0.68835000  1
  O  O108  1  0.92530500  0.82670100  0.02327900  1
  O  O109  1  0.64756500  0.49628700  0.84563300  1
  O  O110  1  0.11575300  0.47709200  0.32978700  1
  O  O111  1  0.59504400  0.44930300  0.55811000  1
  O  O112  1  0.63443300  0.93378900  0.52447300  1
  O  O113  1  0.41435500  0.27564100  0.15492600  1
  O  O114  1  0.89381300  0.01156600  0.33458500  1
  O  O115  1  0.13453100  0.20322200  0.71615000  1
  O  O116  1  0.12688400  0.88222100  0.31165000  1
  O  O117  1  0.42530500  0.82670100  0.47672100  1
  O  O118  1  0.92530500  0.67329900  0.52327900  1
  O  O119  1  0.59504400  0.05069700  0.05811000  1
  O  O120  1  0.63453100  0.29677800  0.28385000  1
  O  O121  1  0.35243500  0.50371300  0.15436700  1
  O  O122  1  0.31095000  0.75325600  0.85997000  1
  O  O123  1  0.12688400  0.61777900  0.81165000  1
  O  O124  1  0.42141200  0.89124600  0.78187000  1
  O  O125  1  0.40152700  0.21434100  0.96806800  1
  O  O126  1  0.62688400  0.88222100  0.18835000  1
  O  O127  1  0.90152700  0.28565900  0.03193200  1
  O  O128  1  0.07858800  0.10875400  0.28187000  1
  O  O129  1  0.08564500  0.77564100  0.15492600  1
  O  O130  1  0.60618700  0.51156600  0.33458500  1
  O  O131  1  0.68905000  0.25325600  0.64003000  1
  O  O132  1  0.37311600  0.38222100  0.31165000  1
  O  O133  1  0.79373200  0.07898300  0.44931300  1
  O  O134  1  0.42141200  0.60875400  0.28187000  1
  O  O135  1  0.70626800  0.57898300  0.44931300  1
  O  O136  1  0.61575300  0.47709200  0.17021300  1
  O  O137  1  0.08564500  0.72435900  0.65492600  1
  O  O138  1  0.07469500  0.32670100  0.47672100  1
  O  O139  1  0.39381300  0.48843400  0.66541500  1
  O  O140  1  0.07858800  0.39124600  0.78187000  1
  O  O141  1  0.88424700  0.52290800  0.67021300  1
  O  O142  1  0.86556700  0.06621100  0.02447300  1
  O  O143  1  0.85243500  0.99628700  0.84563300  1
  O  O144  1  0.09847300  0.78565900  0.46806800  1
  O  O145  1  0.11575300  0.02290800  0.82978700  1
  O  O146  1  0.68905000  0.24674400  0.14003000  1
  O  O147  1  0.91435500  0.27564100  0.34507400  1
  O  O148  1  0.86546900  0.79677800  0.28385000  1
  O  O149  1  0.61575300  0.02290800  0.67021300  1
  O  O150  1  0.86546900  0.70322200  0.78385000  1
  O  O151  1  0.41435500  0.22435900  0.65492600  1
