# generated using pymatgen
data_V3P4Pb2O17
_symmetry_space_group_name_H-M   'P 1'
_cell_length_a   12.87586119
_cell_length_b   12.87586119
_cell_length_c   9.52815769
_cell_angle_alpha   71.39274619
_cell_angle_beta   71.39274619
_cell_angle_gamma   90.93606419
_symmetry_Int_Tables_number   1
_chemical_formula_structural   V3P4Pb2O17
_chemical_formula_sum   'V12 P16 Pb8 O68'
_cell_volume   1406.49690176
_cell_formula_units_Z   4
loop_
 _symmetry_equiv_pos_site_id
 _symmetry_equiv_pos_as_xyz
  1  'x, y, z'
loop_
 _atom_site_type_symbol
 _atom_site_label
 _atom_site_symmetry_multiplicity
 _atom_site_fract_x
 _atom_site_fract_y
 _atom_site_fract_z
 _atom_site_occupancy
  V  V0  1  0.44312800  0.06291000  0.24704800  1
  V  V1  1  0.65741100  0.23679700  0.55451400  1
  V  V2  1  0.44427300  0.55572700  0.25000000  1
  V  V3  1  0.55687200  0.93709000  0.75295200  1
  V  V4  1  0.93882500  0.06117500  0.25000000  1
  V  V5  1  0.06291000  0.44312800  0.74704800  1
  V  V6  1  0.76320300  0.34258900  0.94548600  1
  V  V7  1  0.06117500  0.93882500  0.75000000  1
  V  V8  1  0.23679700  0.65741100  0.05451400  1
  V  V9  1  0.34258900  0.76320300  0.44548600  1
  V  V10  1  0.93709000  0.55687200  0.25295200  1
  V  V11  1  0.55572700  0.44427300  0.75000000  1
  P  P12  1  0.66192100  0.50372300  0.37061300  1
  P  P13  1  0.33807900  0.49627700  0.62938700  1
  P  P14  1  0.05562500  0.16822900  0.84269900  1
  P  P15  1  0.05987700  0.66172600  0.86440600  1
  P  P16  1  0.16646600  0.49771600  0.35129900  1
  P  P17  1  0.49627700  0.33807900  0.12938700  1
  P  P18  1  0.49771600  0.16646600  0.85129900  1
  P  P19  1  0.94012300  0.33827400  0.13559400  1
  P  P20  1  0.66172600  0.05987700  0.36440600  1
  P  P21  1  0.16822900  0.05562500  0.34269900  1
  P  P22  1  0.50372300  0.66192100  0.87061300  1
  P  P23  1  0.83353400  0.50228400  0.64870100  1
  P  P24  1  0.83177100  0.94437500  0.65730100  1
  P  P25  1  0.94437500  0.83177100  0.15730100  1
  P  P26  1  0.33827400  0.94012300  0.63559400  1
  P  P27  1  0.50228400  0.83353400  0.14870100  1
  Pb  Pb28  1  0.98484600  0.23718000  0.48289200  1
  Pb  Pb29  1  0.24474300  0.29542700  0.96824600  1
  Pb  Pb30  1  0.70457300  0.75525700  0.53175400  1
  Pb  Pb31  1  0.75525700  0.70457300  0.03175400  1
  Pb  Pb32  1  0.76282000  0.01515400  0.01710800  1
  Pb  Pb33  1  0.29542700  0.24474300  0.46824600  1
  Pb  Pb34  1  0.23718000  0.98484600  0.98289200  1
  Pb  Pb35  1  0.01515400  0.76282000  0.51710800  1
  O  O36  1  0.21934700  0.43552600  0.73890700  1
  O  O37  1  0.53309600  0.63205800  0.02071600  1
  O  O38  1  0.21922000  0.95342300  0.73593400  1
  O  O39  1  0.46690400  0.36794200  0.97928400  1
  O  O40  1  0.62100200  0.95816600  0.51709400  1
  O  O41  1  0.43552600  0.21934700  0.23890700  1
  O  O42  1  0.82685400  0.82992200  0.63470600  1
  O  O43  1  0.04657700  0.78078000  0.76406600  1
  O  O44  1  0.05952700  0.10239900  0.72840700  1
  O  O45  1  0.63205800  0.53309600  0.52071600  1
  O  O46  1  0.59330400  0.56222000  0.26684000  1
  O  O47  1  0.88958300  0.03674500  0.49627700  1
  O  O48  1  0.89485200  0.44707100  0.77019200  1
  O  O49  1  0.03698000  0.28632100  0.75140200  1
  O  O50  1  0.10514800  0.55292900  0.22980800  1
  O  O51  1  0.37901300  0.65097300  0.90304500  1
  O  O52  1  0.11689600  0.52176800  0.50298200  1
  O  O53  1  0.17314600  0.17007800  0.36529400  1
  O  O54  1  0.10239900  0.05952700  0.22840700  1
  O  O55  1  0.34902700  0.62098700  0.59695500  1
  O  O56  1  0.05760500  0.59618300  0.75330800  1
  O  O57  1  0.37899800  0.04183400  0.48290600  1
  O  O58  1  0.94239500  0.40381700  0.24669200  1
  O  O59  1  0.62098700  0.34902700  0.09695500  1
  O  O60  1  0.83135000  0.62560100  0.62419500  1
  O  O61  1  0.59618300  0.05760500  0.25330800  1
  O  O62  1  0.83143700  0.34247500  0.10181700  1
  O  O63  1  0.78065300  0.56447400  0.26109300  1
  O  O64  1  0.77849400  0.23142500  0.57691600  1
  O  O65  1  0.37439900  0.16865000  0.87580500  1
  O  O66  1  0.22150600  0.76857500  0.42308400  1
  O  O67  1  0.65752500  0.16856300  0.39818300  1
  O  O68  1  0.36794200  0.46690400  0.47928400  1
  O  O69  1  0.89760100  0.94047300  0.77159300  1
  O  O70  1  0.94047300  0.89760100  0.27159300  1
  O  O71  1  0.76857500  0.22150600  0.92308400  1
  O  O72  1  0.82992200  0.82685400  0.13470600  1
  O  O73  1  0.95816600  0.62100200  0.01709400  1
  O  O74  1  0.43482300  0.71505900  0.26180500  1
  O  O75  1  0.71505900  0.43482300  0.76180500  1
  O  O76  1  0.40381700  0.94239500  0.74669200  1
  O  O77  1  0.04183400  0.37899800  0.98290600  1
  O  O78  1  0.40669600  0.43778000  0.73316000  1
  O  O79  1  0.23142500  0.77849400  0.07691600  1
  O  O80  1  0.71367900  0.96302000  0.74859800  1
  O  O81  1  0.11041700  0.96325500  0.50372300  1
  O  O82  1  0.62560100  0.83135000  0.12419500  1
  O  O83  1  0.03674500  0.88958300  0.99627700  1
  O  O84  1  0.16856300  0.65752500  0.89818300  1
  O  O85  1  0.56222000  0.59330400  0.76684000  1
  O  O86  1  0.95342300  0.21922000  0.23593400  1
  O  O87  1  0.28632100  0.03698000  0.25140200  1
  O  O88  1  0.56517700  0.28494100  0.73819500  1
  O  O89  1  0.55292900  0.10514800  0.72980800  1
  O  O90  1  0.88310400  0.47823200  0.49701800  1
  O  O91  1  0.34247500  0.83143700  0.60181700  1
  O  O92  1  0.47823200  0.88310400  0.99701800  1
  O  O93  1  0.28494100  0.56517700  0.23819500  1
  O  O94  1  0.96325500  0.11041700  0.00372300  1
  O  O95  1  0.16865000  0.37439900  0.37580500  1
  O  O96  1  0.65097300  0.37901300  0.40304500  1
  O  O97  1  0.56447400  0.78065300  0.76109300  1
  O  O98  1  0.78078000  0.04657700  0.26406600  1
  O  O99  1  0.44707100  0.89485200  0.27019200  1
  O  O100  1  0.43778000  0.40669600  0.23316000  1
  O  O101  1  0.17007800  0.17314600  0.86529400  1
  O  O102  1  0.96302000  0.71367900  0.24859800  1
  O  O103  1  0.52176800  0.11689600  0.00298200  1
