# generated using pymatgen
data_SiO2
_symmetry_space_group_name_H-M   'P 1'
_cell_length_a   9.74869800
_cell_length_b   20.48621800
_cell_length_c   20.59819600
_cell_angle_alpha   90.00000000
_cell_angle_beta   90.00000000
_cell_angle_gamma   90.00000000
_symmetry_Int_Tables_number   1
_chemical_formula_structural   SiO2
_chemical_formula_sum   'Si64 O128'
_cell_volume   4113.74713638
_cell_formula_units_Z   64
loop_
 _symmetry_equiv_pos_site_id
 _symmetry_equiv_pos_as_xyz
  1  'x, y, z'
loop_
 _atom_site_type_symbol
 _atom_site_label
 _atom_site_symmetry_multiplicity
 _atom_site_fract_x
 _atom_site_fract_y
 _atom_site_fract_z
 _atom_site_occupancy
  Si  Si0  1  0.50000000  0.42243400  0.32269100  1
  Si  Si1  1  0.16349400  0.42725100  0.10411900  1
  Si  Si2  1  0.35258000  0.39258300  0.20801900  1
  Si  Si3  1  0.64602000  0.31236600  0.90161700  1
  Si  Si4  1  0.83650600  0.42725100  0.89588100  1
  Si  Si5  1  0.83650600  0.42725100  0.10411900  1
  Si  Si6  1  0.35398000  0.68763400  0.09838300  1
  Si  Si7  1  0.64602000  0.68763400  0.09838300  1
  Si  Si8  1  0.64719800  0.20980100  0.60595800  1
  Si  Si9  1  0.50000000  0.92510200  0.18829400  1
  Si  Si10  1  0.50000000  0.32585600  0.42299200  1
  Si  Si11  1  0.16349400  0.57274900  0.10411900  1
  Si  Si12  1  0.50000000  0.67414400  0.42299200  1
  Si  Si13  1  0.35258000  0.60741700  0.79198100  1
  Si  Si14  1  0.50000000  0.81294600  0.07388000  1
  Si  Si15  1  0.50000000  0.42243400  0.67730900  1
  Si  Si16  1  0.35280200  0.20980100  0.60595800  1
  Si  Si17  1  0.64602000  0.10006300  0.68682500  1
  Si  Si18  1  0.50000000  0.32585600  0.57700800  1
  Si  Si19  1  0.64602000  0.89993700  0.68682500  1
  Si  Si20  1  0.35280200  0.20980100  0.39404200  1
  Si  Si21  1  0.35258000  0.39258300  0.79198100  1
  Si  Si22  1  0.83650500  0.89496500  0.57240700  1
  Si  Si23  1  0.64719800  0.79019900  0.39404200  1
  Si  Si24  1  0.83650500  0.10503500  0.57240700  1
  Si  Si25  1  0.16349500  0.89496500  0.42759300  1
  Si  Si26  1  0.16349500  0.10503500  0.57240700  1
  Si  Si27  1  0.35398000  0.10006300  0.68682500  1
  Si  Si28  1  0.50000000  0.57756600  0.67730900  1
  Si  Si29  1  0.64742000  0.39258300  0.79198100  1
  Si  Si30  1  0.50000000  0.67414400  0.57700800  1
  Si  Si31  1  0.50000000  0.07489800  0.81170600  1
  Si  Si32  1  0.50000000  0.92510200  0.81170600  1
  Si  Si33  1  0.35398000  0.89993700  0.68682500  1
  Si  Si34  1  0.50000000  0.18705400  0.07388000  1
  Si  Si35  1  0.16349400  0.57274900  0.89588100  1
  Si  Si36  1  0.50000000  0.81294600  0.92612000  1
  Si  Si37  1  0.64602000  0.31236600  0.09838300  1
  Si  Si38  1  0.64719800  0.79019900  0.60595800  1
  Si  Si39  1  0.50000000  0.18705400  0.92612000  1
  Si  Si40  1  0.50000000  0.07489800  0.18829400  1
  Si  Si41  1  0.64742000  0.60741700  0.79198100  1
  Si  Si42  1  0.35280200  0.79019900  0.60595800  1
  Si  Si43  1  0.35398000  0.31236600  0.09838300  1
  Si  Si44  1  0.35280200  0.79019900  0.39404200  1
  Si  Si45  1  0.35398000  0.68763400  0.90161700  1
  Si  Si46  1  0.64742000  0.39258300  0.20801900  1
  Si  Si47  1  0.64742000  0.60741700  0.20801900  1
  Si  Si48  1  0.16349400  0.42725100  0.89588100  1
  Si  Si49  1  0.83650500  0.10503500  0.42759300  1
  Si  Si50  1  0.35258000  0.60741700  0.20801900  1
  Si  Si51  1  0.64602000  0.89993700  0.31317500  1
  Si  Si52  1  0.35398000  0.10006300  0.31317500  1
  Si  Si53  1  0.64719800  0.20980100  0.39404200  1
  Si  Si54  1  0.83650500  0.89496500  0.42759300  1
  Si  Si55  1  0.35398000  0.89993700  0.31317500  1
  Si  Si56  1  0.16349500  0.10503500  0.42759300  1
  Si  Si57  1  0.16349500  0.89496500  0.57240700  1
  Si  Si58  1  0.64602000  0.10006300  0.31317500  1
  Si  Si59  1  0.35398000  0.31236600  0.90161700  1
  Si  Si60  1  0.64602000  0.68763400  0.90161700  1
  Si  Si61  1  0.83650600  0.57274900  0.10411900  1
  Si  Si62  1  0.83650600  0.57274900  0.89588100  1
  Si  Si63  1  0.50000000  0.57756600  0.32269100  1
  O  O64  1  0.36027400  0.08309200  0.23484600  1
  O  O65  1  0.65516700  0.18014700  0.68019000  1
  O  O66  1  0.23600600  0.63722300  0.06984500  1
  O  O67  1  0.22003300  0.43104200  0.82086800  1
  O  O68  1  0.50000000  0.84321000  0.00000000  1
  O  O69  1  0.22003300  0.43104200  0.17913200  1
  O  O70  1  0.36018800  0.23383900  0.08100700  1
  O  O71  1  0.50000000  0.42516600  0.81611500  1
  O  O72  1  0.77996700  0.56895800  0.17913200  1
  O  O73  1  0.23578200  0.92900200  0.63691000  1
  O  O74  1  0.35990000  0.60519600  0.28689300  1
  O  O75  1  0.50000000  0.07299100  0.65793000  1
  O  O76  1  0.50000000  0.65805100  0.92802400  1
  O  O77  1  0.50000000  0.59988800  0.60260800  1
  O  O78  1  0.34404800  0.68182900  0.82189100  1
  O  O79  1  0.63972600  0.08309200  0.23484600  1
  O  O80  1  0.00000000  0.10391900  0.41407000  1
  O  O81  1  0.76421800  0.92900200  0.36309000  1
  O  O82  1  0.50000000  0.59988800  0.39739200  1
  O  O83  1  0.50000000  0.12795000  0.12813900  1
  O  O84  1  0.50000000  0.32888300  0.50000000  1
  O  O85  1  0.36018800  0.76616100  0.91899300  1
  O  O86  1  0.35990000  0.39480400  0.28689300  1
  O  O87  1  0.65595200  0.68182900  0.17810900  1
  O  O88  1  0.50000000  0.15679000  0.00000000  1
  O  O89  1  0.77974400  0.81965800  0.43193800  1
  O  O90  1  0.22003300  0.56895800  0.17913200  1
  O  O91  1  0.76399400  0.63722300  0.06984500  1
  O  O92  1  0.50000000  0.81493600  0.57389000  1
  O  O93  1  0.50000000  0.92700900  0.65793000  1
  O  O94  1  0.64010000  0.60519600  0.71310700  1
  O  O95  1  0.76421800  0.92900200  0.63691000  1
  O  O96  1  0.50000000  0.57483400  0.81611500  1
  O  O97  1  0.35990000  0.60519600  0.71310700  1
  O  O98  1  0.34404800  0.31817100  0.82189100  1
  O  O99  1  0.34483300  0.18014700  0.68019000  1
  O  O100  1  0.23600600  0.36277700  0.06984500  1
  O  O101  1  0.65516700  0.81985300  0.68019000  1
  O  O102  1  0.50000000  0.18506400  0.42611000  1
  O  O103  1  0.00000000  0.58609300  0.10295500  1
  O  O104  1  0.50000000  0.50000000  0.67817900  1
  O  O105  1  0.34483300  0.81985300  0.31981000  1
  O  O106  1  0.50000000  0.00000000  0.84031300  1
  O  O107  1  0.65516700  0.81985300  0.31981000  1
  O  O108  1  0.77974400  0.18034200  0.56806200  1
  O  O109  1  0.35992100  0.71098200  0.60315100  1
  O  O110  1  0.63981200  0.76616100  0.91899300  1
  O  O111  1  0.50000000  0.67111700  0.50000000  1
  O  O112  1  0.00000000  0.41390700  0.10295500  1
  O  O113  1  0.34404800  0.68182900  0.17810900  1
  O  O114  1  0.22025600  0.81965800  0.43193800  1
  O  O115  1  0.00000000  0.58609300  0.89704500  1
  O  O116  1  0.76399400  0.36277700  0.06984500  1
  O  O117  1  0.36018800  0.76616100  0.08100700  1
  O  O118  1  0.35990000  0.39480400  0.71310700  1
  O  O119  1  0.50000000  0.40011200  0.39739200  1
  O  O120  1  0.65516700  0.18014700  0.31981000  1
  O  O121  1  0.76421800  0.07099800  0.36309000  1
  O  O122  1  0.63981200  0.76616100  0.08100700  1
  O  O123  1  0.63981200  0.23383900  0.08100700  1
  O  O124  1  0.35992100  0.71098200  0.39684900  1
  O  O125  1  0.64007900  0.71098200  0.39684900  1
  O  O126  1  0.00000000  0.41390700  0.89704500  1
  O  O127  1  0.22025600  0.18034200  0.43193800  1
  O  O128  1  0.36027400  0.91690800  0.23484600  1
  O  O129  1  0.64007900  0.28901800  0.39684900  1
  O  O130  1  0.50000000  0.34194900  0.92802400  1
  O  O131  1  0.64010000  0.60519600  0.28689300  1
  O  O132  1  0.77974400  0.81965800  0.56806200  1
  O  O133  1  0.65595200  0.31817100  0.82189100  1
  O  O134  1  0.76421800  0.07099800  0.63691000  1
  O  O135  1  0.63972600  0.91690800  0.23484600  1
  O  O136  1  0.19303300  0.50000000  0.07201000  1
  O  O137  1  0.63981200  0.23383900  0.91899300  1
  O  O138  1  0.22025600  0.81965800  0.56806200  1
  O  O139  1  0.80696700  0.50000000  0.92799000  1
  O  O140  1  0.23600600  0.63722300  0.93015500  1
  O  O141  1  0.77996700  0.56895800  0.82086800  1
  O  O142  1  0.80695900  0.92728900  0.50000000  1
  O  O143  1  0.00000000  0.10391900  0.58593000  1
  O  O144  1  0.36027400  0.08309200  0.76515400  1
  O  O145  1  0.36018800  0.23383900  0.91899300  1
  O  O146  1  0.50000000  0.57483400  0.18388500  1
  O  O147  1  0.77974400  0.18034200  0.43193800  1
  O  O148  1  0.50000000  0.07299100  0.34207000  1
  O  O149  1  0.50000000  0.92700900  0.34207000  1
  O  O150  1  0.50000000  0.00000000  0.15968700  1
  O  O151  1  0.65595200  0.31817100  0.17810900  1
  O  O152  1  0.65595200  0.68182900  0.82189100  1
  O  O153  1  0.50000000  0.50000000  0.32182100  1
  O  O154  1  0.34404800  0.31817100  0.17810900  1
  O  O155  1  0.34483300  0.81985300  0.68019000  1
  O  O156  1  0.19303300  0.50000000  0.92799000  1
  O  O157  1  0.50000000  0.81493600  0.42611000  1
  O  O158  1  0.76399400  0.63722300  0.93015500  1
  O  O159  1  0.80695900  0.07271100  0.50000000  1
  O  O160  1  0.50000000  0.87205000  0.87186100  1
  O  O161  1  0.34483300  0.18014700  0.31981000  1
  O  O162  1  0.22025600  0.18034200  0.56806200  1
  O  O163  1  0.64007900  0.28901800  0.60315100  1
  O  O164  1  0.23578200  0.07099800  0.36309000  1
  O  O165  1  0.64010000  0.39480400  0.71310700  1
  O  O166  1  0.50000000  0.18506400  0.57389000  1
  O  O167  1  0.80696700  0.50000000  0.07201000  1
  O  O168  1  0.77996700  0.43104200  0.17913200  1
  O  O169  1  0.50000000  0.42516600  0.18388500  1
  O  O170  1  0.00000000  0.89608100  0.58593000  1
  O  O171  1  0.64007900  0.71098200  0.60315100  1
  O  O172  1  0.23600600  0.36277700  0.93015500  1
  O  O173  1  0.19304100  0.07271100  0.50000000  1
  O  O174  1  0.00000000  0.89608100  0.41407000  1
  O  O175  1  0.50000000  0.40011200  0.60260800  1
  O  O176  1  0.22003300  0.56895800  0.82086800  1
  O  O177  1  0.50000000  0.34194900  0.07197600  1
  O  O178  1  0.77996700  0.43104200  0.82086800  1
  O  O179  1  0.23578200  0.07099800  0.63691000  1
  O  O180  1  0.35992100  0.28901800  0.39684900  1
  O  O181  1  0.63972600  0.08309200  0.76515400  1
  O  O182  1  0.50000000  0.65805100  0.07197600  1
  O  O183  1  0.35992100  0.28901800  0.60315100  1
  O  O184  1  0.76399400  0.36277700  0.93015500  1
  O  O185  1  0.63972600  0.91690800  0.76515400  1
  O  O186  1  0.23578200  0.92900200  0.36309000  1
  O  O187  1  0.36027400  0.91690800  0.76515400  1
  O  O188  1  0.19304100  0.92728900  0.50000000  1
  O  O189  1  0.50000000  0.12795000  0.87186100  1
  O  O190  1  0.64010000  0.39480400  0.28689300  1
  O  O191  1  0.50000000  0.87205000  0.12813900  1
