# generated using pymatgen
data_KFePO4F
_symmetry_space_group_name_H-M   'P 1'
_cell_length_a   6.44680100
_cell_length_b   10.80440100
_cell_length_c   13.05242200
_cell_angle_alpha   90.00000000
_cell_angle_beta   90.00000000
_cell_angle_gamma   90.00000000
_symmetry_Int_Tables_number   1
_chemical_formula_structural   KFePO4F
_chemical_formula_sum   'K8 Fe8 P8 O32 F8'
_cell_volume   909.15109394
_cell_formula_units_Z   8
loop_
 _symmetry_equiv_pos_site_id
 _symmetry_equiv_pos_as_xyz
  1  'x, y, z'
loop_
 _atom_site_type_symbol
 _atom_site_label
 _atom_site_symmetry_multiplicity
 _atom_site_fract_x
 _atom_site_fract_y
 _atom_site_fract_z
 _atom_site_occupancy
  K  K0  1  0.77270400  0.20309100  0.37531900  1
  K  K1  1  0.30263100  0.94282800  0.89493400  1
  K  K2  1  0.80263100  0.44282800  0.60506600  1
  K  K3  1  0.19736900  0.94282800  0.39493400  1
  K  K4  1  0.69736900  0.44282800  0.10506600  1
  K  K5  1  0.27270400  0.70309100  0.12468100  1
  K  K6  1  0.72729600  0.20309100  0.87531900  1
  K  K7  1  0.22729600  0.70309100  0.62468100  1
  Fe  Fe8  1  0.75093900  0.74870400  0.25312700  1
  Fe  Fe9  1  0.24906100  0.24870400  0.74687300  1
  Fe  Fe10  1  0.74906100  0.74870400  0.75312700  1
  Fe  Fe11  1  0.25093900  0.24870400  0.24687300  1
  Fe  Fe12  1  0.49326500  0.49906200  0.38851700  1
  Fe  Fe13  1  0.50673500  0.99906200  0.61148300  1
  Fe  Fe14  1  0.00673500  0.49906200  0.88851700  1
  Fe  Fe15  1  0.99326500  0.99906200  0.11148300  1
  P  P16  1  0.99808600  0.49614500  0.31731800  1
  P  P17  1  0.49808600  0.99614500  0.18268200  1
  P  P18  1  0.50191400  0.49614500  0.81731800  1
  P  P19  1  0.00191400  0.99614500  0.68268200  1
  P  P20  1  0.16990600  0.24783000  0.99998100  1
  P  P21  1  0.83009400  0.74783000  0.00001900  1
  P  P22  1  0.33009400  0.24783000  0.49998100  1
  P  P23  1  0.66990600  0.74783000  0.50001900  1
  O  O24  1  0.30798200  0.96919600  0.11303900  1
  O  O25  1  0.81041400  0.02331000  0.61520800  1
  O  O26  1  0.31041400  0.52331000  0.88479200  1
  O  O27  1  0.68958600  0.02331000  0.11520800  1
  O  O28  1  0.03593800  0.38129000  0.24696100  1
  O  O29  1  0.96406200  0.88129000  0.75303900  1
  O  O30  1  0.46406200  0.38129000  0.74696100  1
  O  O31  1  0.53593800  0.88129000  0.25303900  1
  O  O32  1  0.51891500  0.85911300  0.51404200  1
  O  O33  1  0.48108500  0.35911300  0.48595800  1
  O  O34  1  0.98108500  0.85911300  0.01404200  1
  O  O35  1  0.01891500  0.35911300  0.98595800  1
  O  O36  1  0.80798200  0.46919600  0.38696100  1
  O  O37  1  0.19201800  0.96919600  0.61303900  1
  O  O38  1  0.69201800  0.46919600  0.88696100  1
  O  O39  1  0.18958600  0.52331000  0.38479200  1
  O  O40  1  0.52915000  0.63114800  0.48865900  1
  O  O41  1  0.47085000  0.13114800  0.51134100  1
  O  O42  1  0.97085000  0.63114800  0.98865900  1
  O  O43  1  0.45202200  0.10721300  0.25539400  1
  O  O44  1  0.80725500  0.76727900  0.40434700  1
  O  O45  1  0.19274500  0.26727900  0.59565300  1
  O  O46  1  0.69274500  0.76727900  0.90434700  1
  O  O47  1  0.30725500  0.26727900  0.09565300  1
  O  O48  1  0.69403000  0.72967800  0.09680000  1
  O  O49  1  0.30597000  0.22967800  0.90320000  1
  O  O50  1  0.80597000  0.72967800  0.59680000  1
  O  O51  1  0.19403000  0.22967800  0.40320000  1
  O  O52  1  0.95202200  0.60721300  0.24460600  1
  O  O53  1  0.04797800  0.10721300  0.75539400  1
  O  O54  1  0.54797800  0.60721300  0.74460600  1
  O  O55  1  0.02915000  0.13114800  0.01134100  1
  F  F56  1  0.98102300  0.86860800  0.22755500  1
  F  F57  1  0.01897700  0.36860800  0.77244500  1
  F  F58  1  0.51897700  0.86860800  0.72755500  1
  F  F59  1  0.48102300  0.36860800  0.27244500  1
  F  F60  1  0.02608500  0.11980600  0.23036800  1
  F  F61  1  0.97391500  0.61980600  0.76963200  1
  F  F62  1  0.47391500  0.11980600  0.73036800  1
  F  F63  1  0.52608500  0.61980600  0.26963200  1
