# generated using pymatgen
data_K3Cr4PO16
_symmetry_space_group_name_H-M   'P 1'
_cell_length_a   7.72572965
_cell_length_b   7.72572965
_cell_length_c   15.09081888
_cell_angle_alpha   80.07949909
_cell_angle_beta   80.07949909
_cell_angle_gamma   102.21114541
_symmetry_Int_Tables_number   1
_chemical_formula_structural   K3Cr4PO16
_chemical_formula_sum   'K6 Cr8 P2 O32'
_cell_volume   846.55788998
_cell_formula_units_Z   2
loop_
 _symmetry_equiv_pos_site_id
 _symmetry_equiv_pos_as_xyz
  1  'x, y, z'
loop_
 _atom_site_type_symbol
 _atom_site_label
 _atom_site_symmetry_multiplicity
 _atom_site_fract_x
 _atom_site_fract_y
 _atom_site_fract_z
 _atom_site_occupancy
  K  K0  1  0.74858600  0.67752600  0.82770200  1
  K  K1  1  0.67752600  0.74858600  0.32770200  1
  K  K2  1  0.19742300  0.17732200  0.33785300  1
  K  K3  1  0.17732200  0.19742300  0.83785300  1
  K  K4  1  0.86813800  0.41890600  0.10982400  1
  K  K5  1  0.41890600  0.86813800  0.60982400  1
  Cr  Cr6  1  0.20726300  0.68103800  0.85766200  1
  Cr  Cr7  1  0.39791600  0.27680000  0.06757200  1
  Cr  Cr8  1  0.72046700  0.17721800  0.73719600  1
  Cr  Cr9  1  0.76744900  0.89228300  0.04115800  1
  Cr  Cr10  1  0.27680000  0.39791600  0.56757200  1
  Cr  Cr11  1  0.17721800  0.72046700  0.23719600  1
  Cr  Cr12  1  0.68103800  0.20726300  0.35766200  1
  Cr  Cr13  1  0.89228300  0.76744900  0.54115800  1
  P  P14  1  0.35223100  0.88847500  0.01685400  1
  P  P15  1  0.88847500  0.35223100  0.51685400  1
  O  O16  1  0.51802600  0.04304400  0.76396400  1
  O  O17  1  0.50627500  0.04037600  0.40955200  1
  O  O18  1  0.84261500  0.90270000  0.45999100  1
  O  O19  1  0.60916400  0.37759800  0.31212000  1
  O  O20  1  0.71889600  0.35857900  0.77667900  1
  O  O21  1  0.37759800  0.60916400  0.81212000  1
  O  O22  1  0.74414600  0.75092900  0.13811400  1
  O  O23  1  0.82098600  0.27205400  0.43951900  1
  O  O24  1  0.90270000  0.84261500  0.95999100  1
  O  O25  1  0.04037600  0.50627500  0.90955200  1
  O  O26  1  0.75092900  0.74414600  0.63811400  1
  O  O27  1  0.07476900  0.86343600  0.27810100  1
  O  O28  1  0.35073500  0.21755000  0.59021800  1
  O  O29  1  0.80745300  0.14343600  0.27784900  1
  O  O30  1  0.35857900  0.71889600  0.27667900  1
  O  O31  1  0.20139300  0.45729600  0.66233000  1
  O  O32  1  0.54917800  0.87144100  0.00389900  1
  O  O33  1  0.21755000  0.35073500  0.09021800  1
  O  O34  1  0.43479200  0.56339900  0.49900300  1
  O  O35  1  0.23512800  0.77448000  0.10966500  1
  O  O36  1  0.09967600  0.84673400  0.54935100  1
  O  O37  1  0.87144100  0.54917800  0.50389900  1
  O  O38  1  0.08943200  0.34244200  0.50572500  1
  O  O39  1  0.27205400  0.82098600  0.93951900  1
  O  O40  1  0.45729600  0.20139300  0.16233000  1
  O  O41  1  0.84673400  0.09967600  0.04935100  1
  O  O42  1  0.77448000  0.23512800  0.60966500  1
  O  O43  1  0.04304400  0.51802600  0.26396400  1
  O  O44  1  0.14343600  0.80745300  0.77784900  1
  O  O45  1  0.86343600  0.07476900  0.77810100  1
  O  O46  1  0.56339900  0.43479200  0.99900300  1
  O  O47  1  0.34244200  0.08943200  0.00572500  1
