# generated using pymatgen
data_PtXeF11
_symmetry_space_group_name_H-M   'P 1'
_cell_length_a   5.80144300
_cell_length_b   8.37051900
_cell_length_c   17.11380200
_cell_angle_alpha   90.00000000
_cell_angle_beta   90.00000000
_cell_angle_gamma   90.00000000
_symmetry_Int_Tables_number   1
_chemical_formula_structural   PtXeF11
_chemical_formula_sum   'Pt4 Xe4 F44'
_cell_volume   831.06485964
_cell_formula_units_Z   4
loop_
 _symmetry_equiv_pos_site_id
 _symmetry_equiv_pos_as_xyz
  1  'x, y, z'
loop_
 _atom_site_type_symbol
 _atom_site_label
 _atom_site_symmetry_multiplicity
 _atom_site_fract_x
 _atom_site_fract_y
 _atom_site_fract_z
 _atom_site_occupancy
  Pt  Pt0  1  0.28153700  0.25000000  0.04007200  1
  Pt  Pt1  1  0.71846300  0.75000000  0.95992800  1
  Pt  Pt2  1  0.78153700  0.75000000  0.45992800  1
  Pt  Pt3  1  0.21846300  0.25000000  0.54007200  1
  Xe  Xe4  1  0.69511700  0.25000000  0.34922800  1
  Xe  Xe5  1  0.30488300  0.75000000  0.65077200  1
  Xe  Xe6  1  0.19511700  0.75000000  0.15077200  1
  Xe  Xe7  1  0.80488300  0.25000000  0.84922800  1
  F  F8  1  0.38884000  0.75000000  0.76326200  1
  F  F9  1  0.88884000  0.25000000  0.73673800  1
  F  F10  1  0.11116000  0.75000000  0.26326200  1
  F  F11  1  0.02259100  0.75000000  0.01040100  1
  F  F12  1  0.54715200  0.91738800  0.64855900  1
  F  F13  1  0.41465100  0.58510800  0.18857900  1
  F  F14  1  0.93087100  0.75000000  0.56297700  1
  F  F15  1  0.45284800  0.08261200  0.35144100  1
  F  F16  1  0.47740900  0.75000000  0.51040100  1
  F  F17  1  0.95284800  0.58261200  0.14855900  1
  F  F18  1  0.63388800  0.75000000  0.36035500  1
  F  F19  1  0.91465100  0.08510800  0.31142100  1
  F  F20  1  0.13388800  0.25000000  0.13964500  1
  F  F21  1  0.92787200  0.25000000  0.59152500  1
  F  F22  1  0.21943600  0.47936500  0.53812500  1
  F  F23  1  0.28056400  0.02063500  0.03812500  1
  F  F24  1  0.71943600  0.97936500  0.96187500  1
  F  F25  1  0.54715200  0.58261200  0.64855900  1
  F  F26  1  0.58534900  0.08510800  0.81142100  1
  F  F27  1  0.08534900  0.91489200  0.68857900  1
  F  F28  1  0.52259100  0.25000000  0.48959900  1
  F  F29  1  0.04715200  0.08261200  0.85144100  1
  F  F30  1  0.78056400  0.52063500  0.46187500  1
  F  F31  1  0.04715200  0.41738800  0.85144100  1
  F  F32  1  0.43087100  0.25000000  0.93702300  1
  F  F33  1  0.57212800  0.25000000  0.09152500  1
  F  F34  1  0.58534900  0.41489200  0.81142100  1
  F  F35  1  0.45284800  0.41738800  0.35144100  1
  F  F36  1  0.95284800  0.91738800  0.14855900  1
  F  F37  1  0.41465100  0.91489200  0.18857900  1
  F  F38  1  0.61116000  0.25000000  0.23673800  1
  F  F39  1  0.71943600  0.52063500  0.96187500  1
  F  F40  1  0.42787200  0.75000000  0.90847500  1
  F  F41  1  0.56912900  0.75000000  0.06297700  1
  F  F42  1  0.06912900  0.25000000  0.43702300  1
  F  F43  1  0.08534900  0.58510800  0.68857900  1
  F  F44  1  0.78056400  0.97936500  0.46187500  1
  F  F45  1  0.36611200  0.25000000  0.63964500  1
  F  F46  1  0.97740900  0.25000000  0.98959900  1
  F  F47  1  0.21943600  0.02063500  0.53812500  1
  F  F48  1  0.07212800  0.75000000  0.40847500  1
  F  F49  1  0.28056400  0.47936500  0.03812500  1
  F  F50  1  0.86611200  0.75000000  0.86035500  1
  F  F51  1  0.91465100  0.41489200  0.31142100  1
