# generated using pymatgen
data_KFe2Se3
_symmetry_space_group_name_H-M   'P 1'
_cell_length_a   7.30946859
_cell_length_b   7.30946859
_cell_length_c   5.35946100
_cell_angle_alpha   90.00000000
_cell_angle_beta   90.00000000
_cell_angle_gamma   102.90317685
_symmetry_Int_Tables_number   1
_chemical_formula_structural   KFe2Se3
_chemical_formula_sum   'K2 Fe4 Se6'
_cell_volume   279.11645356
_cell_formula_units_Z   2
loop_
 _symmetry_equiv_pos_site_id
 _symmetry_equiv_pos_as_xyz
  1  'x, y, z'
loop_
 _atom_site_type_symbol
 _atom_site_label
 _atom_site_symmetry_multiplicity
 _atom_site_fract_x
 _atom_site_fract_y
 _atom_site_fract_z
 _atom_site_occupancy
  K  K0  1  0.33357900  0.66642100  0.75000000  1
  K  K1  1  0.66642100  0.33357900  0.25000000  1
  Fe  Fe2  1  0.14361500  0.14361500  0.00000000  1
  Fe  Fe3  1  0.14361500  0.14361500  0.50000000  1
  Fe  Fe4  1  0.85638500  0.85638500  0.00000000  1
  Fe  Fe5  1  0.85638500  0.85638500  0.50000000  1
  Se  Se6  1  0.88162100  0.11837900  0.75000000  1
  Se  Se7  1  0.11837900  0.88162100  0.25000000  1
  Se  Se8  1  0.39578600  0.17037100  0.75000000  1
  Se  Se9  1  0.17037100  0.39578600  0.25000000  1
  Se  Se10  1  0.60421400  0.82962900  0.25000000  1
  Se  Se11  1  0.82962900  0.60421400  0.75000000  1
