# generated using pymatgen
data_Eu2Si3Ni8
_symmetry_space_group_name_H-M   'P 1'
_cell_length_a   10.31871600
_cell_length_b   10.31871600
_cell_length_c   7.23190100
_cell_angle_alpha   90.00000000
_cell_angle_beta   90.00000000
_cell_angle_gamma   90.00000000
_symmetry_Int_Tables_number   1
_chemical_formula_structural   Eu2Si3Ni8
_chemical_formula_sum   'Eu8 Si12 Ni32'
_cell_volume   770.02316688
_cell_formula_units_Z   4
loop_
 _symmetry_equiv_pos_site_id
 _symmetry_equiv_pos_as_xyz
  1  'x, y, z'
loop_
 _atom_site_type_symbol
 _atom_site_label
 _atom_site_symmetry_multiplicity
 _atom_site_fract_x
 _atom_site_fract_y
 _atom_site_fract_z
 _atom_site_occupancy
  Eu  Eu0  1  0.00000000  0.25780100  0.63562500  1
  Eu  Eu1  1  0.25780100  0.00000000  0.36437500  1
  Eu  Eu2  1  0.50000000  0.24219900  0.86437500  1
  Eu  Eu3  1  0.24219900  0.50000000  0.13562500  1
  Eu  Eu4  1  0.74219900  0.00000000  0.36437500  1
  Eu  Eu5  1  0.00000000  0.74219900  0.63562500  1
  Eu  Eu6  1  0.75780100  0.50000000  0.13562500  1
  Eu  Eu7  1  0.50000000  0.75780100  0.86437500  1
  Si  Si8  1  0.28277600  0.71722400  0.50000000  1
  Si  Si9  1  0.71722400  0.71722400  0.50000000  1
  Si  Si10  1  0.71722400  0.28277600  0.50000000  1
  Si  Si11  1  0.00000000  0.00000000  0.23253000  1
  Si  Si12  1  0.21722400  0.78277600  0.00000000  1
  Si  Si13  1  0.50000000  0.50000000  0.73253000  1
  Si  Si14  1  0.28277600  0.28277600  0.50000000  1
  Si  Si15  1  0.78277600  0.21722400  0.00000000  1
  Si  Si16  1  0.78277600  0.78277600  0.00000000  1
  Si  Si17  1  0.00000000  0.00000000  0.76747000  1
  Si  Si18  1  0.21722400  0.21722400  0.00000000  1
  Si  Si19  1  0.50000000  0.50000000  0.26747000  1
  Ni  Ni20  1  0.37904700  0.22036400  0.22314400  1
  Ni  Ni21  1  0.50000000  0.11485700  0.50455500  1
  Ni  Ni22  1  0.87904700  0.72036400  0.27685600  1
  Ni  Ni23  1  0.00000000  0.61485700  0.99544500  1
  Ni  Ni24  1  0.50000000  0.34006200  0.46375600  1
  Ni  Ni25  1  0.88514300  0.50000000  0.49544500  1
  Ni  Ni26  1  0.27963600  0.87904700  0.72314400  1
  Ni  Ni27  1  0.61485700  0.00000000  0.00455500  1
  Ni  Ni28  1  0.65993800  0.50000000  0.53624400  1
  Ni  Ni29  1  0.72036400  0.12095300  0.72314400  1
  Ni  Ni30  1  0.12095300  0.27963600  0.27685600  1
  Ni  Ni31  1  0.22036400  0.62095300  0.77685600  1
  Ni  Ni32  1  0.27963600  0.12095300  0.72314400  1
  Ni  Ni33  1  0.50000000  0.88514300  0.50455500  1
  Ni  Ni34  1  0.87904700  0.27963600  0.27685600  1
  Ni  Ni35  1  0.77963600  0.62095300  0.77685600  1
  Ni  Ni36  1  0.00000000  0.84006200  0.03624400  1
  Ni  Ni37  1  0.84006200  0.00000000  0.96375600  1
  Ni  Ni38  1  0.34006200  0.50000000  0.53624400  1
  Ni  Ni39  1  0.38514300  0.00000000  0.00455500  1
  Ni  Ni40  1  0.72036400  0.87904700  0.72314400  1
  Ni  Ni41  1  0.77963600  0.37904700  0.77685600  1
  Ni  Ni42  1  0.37904700  0.77963600  0.22314400  1
  Ni  Ni43  1  0.12095300  0.72036400  0.27685600  1
  Ni  Ni44  1  0.50000000  0.65993800  0.46375600  1
  Ni  Ni45  1  0.22036400  0.37904700  0.77685600  1
  Ni  Ni46  1  0.62095300  0.77963600  0.22314400  1
  Ni  Ni47  1  0.15993800  0.00000000  0.96375600  1
  Ni  Ni48  1  0.11485700  0.50000000  0.49544500  1
  Ni  Ni49  1  0.62095300  0.22036400  0.22314400  1
  Ni  Ni50  1  0.00000000  0.15993800  0.03624400  1
  Ni  Ni51  1  0.00000000  0.38514300  0.99544500  1
