# generated using pymatgen
data_Ti5P3
_symmetry_space_group_name_H-M   'P 1'
_cell_length_a   6.50625800
_cell_length_b   7.41680000
_cell_length_c   9.76991300
_cell_angle_alpha   90.00000000
_cell_angle_beta   90.00000000
_cell_angle_gamma   90.00000000
_symmetry_Int_Tables_number   1
_chemical_formula_structural   Ti5P3
_chemical_formula_sum   'Ti20 P12'
_cell_volume   471.45315381
_cell_formula_units_Z   4
loop_
 _symmetry_equiv_pos_site_id
 _symmetry_equiv_pos_as_xyz
  1  'x, y, z'
loop_
 _atom_site_type_symbol
 _atom_site_label
 _atom_site_symmetry_multiplicity
 _atom_site_fract_x
 _atom_site_fract_y
 _atom_site_fract_z
 _atom_site_occupancy
  Ti  Ti0  1  0.80637800  0.54664100  0.07151300  1
  Ti  Ti1  1  0.69362200  0.95335900  0.57151300  1
  Ti  Ti2  1  0.19362200  0.04664100  0.92848700  1
  Ti  Ti3  1  0.30637800  0.45335900  0.42848700  1
  Ti  Ti4  1  0.19362200  0.45335900  0.92848700  1
  Ti  Ti5  1  0.30637800  0.04664100  0.42848700  1
  Ti  Ti6  1  0.80637800  0.95335900  0.07151300  1
  Ti  Ti7  1  0.69362200  0.54664100  0.57151300  1
  Ti  Ti8  1  0.15909800  0.75000000  0.22353000  1
  Ti  Ti9  1  0.34090200  0.75000000  0.72353000  1
  Ti  Ti10  1  0.84090200  0.25000000  0.77647000  1
  Ti  Ti11  1  0.65909800  0.25000000  0.27647000  1
  Ti  Ti12  1  0.47116600  0.75000000  0.00017100  1
  Ti  Ti13  1  0.02883400  0.75000000  0.50017100  1
  Ti  Ti14  1  0.52883400  0.25000000  0.99982900  1
  Ti  Ti15  1  0.97116600  0.25000000  0.49982900  1
  Ti  Ti16  1  0.64783400  0.75000000  0.29304100  1
  Ti  Ti17  1  0.85216600  0.75000000  0.79304100  1
  Ti  Ti18  1  0.35216600  0.25000000  0.70695900  1
  Ti  Ti19  1  0.14783400  0.25000000  0.20695900  1
  P  P20  1  0.42058900  0.75000000  0.48509000  1
  P  P21  1  0.07941100  0.75000000  0.98509000  1
  P  P22  1  0.57941100  0.25000000  0.51491000  1
  P  P23  1  0.92058900  0.25000000  0.01491000  1
  P  P24  1  0.92987000  0.50904600  0.32609000  1
  P  P25  1  0.57013000  0.99095400  0.82609000  1
  P  P26  1  0.07013000  0.00904600  0.67391000  1
  P  P27  1  0.42987000  0.49095400  0.17391000  1
  P  P28  1  0.07013000  0.49095400  0.67391000  1
  P  P29  1  0.42987000  0.00904600  0.17391000  1
  P  P30  1  0.92987000  0.99095400  0.32609000  1
  P  P31  1  0.57013000  0.50904600  0.82609000  1
