# generated using pymatgen
data_In4Br7
_symmetry_space_group_name_H-M   'P 1'
_cell_length_a   7.81043366
_cell_length_b   7.81043366
_cell_length_c   31.98797909
_cell_angle_alpha   82.47310232
_cell_angle_beta   82.47310232
_cell_angle_gamma   59.16733213
_symmetry_Int_Tables_number   1
_chemical_formula_structural   In4Br7
_chemical_formula_sum   'In16 Br28'
_cell_volume   1656.45144720
_cell_formula_units_Z   4
loop_
 _symmetry_equiv_pos_site_id
 _symmetry_equiv_pos_as_xyz
  1  'x, y, z'
loop_
 _atom_site_type_symbol
 _atom_site_label
 _atom_site_symmetry_multiplicity
 _atom_site_fract_x
 _atom_site_fract_y
 _atom_site_fract_z
 _atom_site_occupancy
  In  In0  1  0.17705400  0.68121500  0.97275600  1
  In  In1  1  0.45800700  0.95881900  0.12501200  1
  In  In2  1  0.04118100  0.54199300  0.37498800  1
  In  In3  1  0.68121500  0.17705400  0.47275600  1
  In  In4  1  0.36939000  0.91433700  0.31532900  1
  In  In5  1  0.19952600  0.80047400  0.75000000  1
  In  In6  1  0.54199300  0.04118100  0.87498800  1
  In  In7  1  0.82294600  0.31878500  0.02724400  1
  In  In8  1  0.63061000  0.08566300  0.68467100  1
  In  In9  1  0.50000000  0.00000000  0.00000000  1
  In  In10  1  0.91433700  0.36939000  0.81532900  1
  In  In11  1  0.95881900  0.45800700  0.62501200  1
  In  In12  1  0.31878500  0.82294600  0.52724400  1
  In  In13  1  0.00000000  0.50000000  0.50000000  1
  In  In14  1  0.80047400  0.19952600  0.25000000  1
  In  In15  1  0.08566300  0.63061000  0.18467100  1
  Br  Br16  1  0.32359100  0.99239000  0.23620500  1
  Br  Br17  1  0.49852700  0.87859500  0.66170700  1
  Br  Br18  1  0.99239000  0.32359100  0.73620500  1
  Br  Br19  1  0.72370700  0.69184000  0.95034900  1
  Br  Br20  1  0.03234200  0.01414300  0.84810400  1
  Br  Br21  1  0.12140500  0.50147300  0.83829300  1
  Br  Br22  1  0.54732500  0.59348500  0.83570600  1
  Br  Br23  1  0.00761000  0.67640900  0.26379500  1
  Br  Br24  1  0.13692100  0.18818900  0.45144700  1
  Br  Br25  1  0.63069100  0.22635100  0.95068800  1
  Br  Br26  1  0.22635100  0.63069100  0.45068800  1
  Br  Br27  1  0.59348500  0.54732500  0.33570600  1
  Br  Br28  1  0.50147300  0.12140500  0.33829300  1
  Br  Br29  1  0.98585700  0.96765800  0.65189600  1
  Br  Br30  1  0.01414300  0.03234200  0.34810400  1
  Br  Br31  1  0.81181100  0.86307900  0.04855300  1
  Br  Br32  1  0.87859500  0.49852700  0.16170700  1
  Br  Br33  1  0.77364900  0.36930900  0.54931200  1
  Br  Br34  1  0.86307900  0.81181100  0.54855300  1
  Br  Br35  1  0.45267500  0.40651500  0.16429400  1
  Br  Br36  1  0.69184000  0.72370700  0.45034900  1
  Br  Br37  1  0.96765800  0.98585700  0.15189600  1
  Br  Br38  1  0.36930900  0.77364900  0.04931200  1
  Br  Br39  1  0.30816000  0.27629300  0.54965100  1
  Br  Br40  1  0.40651500  0.45267500  0.66429400  1
  Br  Br41  1  0.27629300  0.30816000  0.04965100  1
  Br  Br42  1  0.67640900  0.00761000  0.76379500  1
  Br  Br43  1  0.18818900  0.13692100  0.95144700  1
