# generated using pymatgen
data_LaYbS3
_symmetry_space_group_name_H-M   'P 1'
_cell_length_a   4.07831700
_cell_length_b   16.68520700
_cell_length_c   21.22540100
_cell_angle_alpha   90.00000000
_cell_angle_beta   90.00000000
_cell_angle_gamma   90.00000000
_symmetry_Int_Tables_number   1
_chemical_formula_structural   LaYbS3
_chemical_formula_sum   'La12 Yb12 S36'
_cell_volume   1444.33681932
_cell_formula_units_Z   12
loop_
 _symmetry_equiv_pos_site_id
 _symmetry_equiv_pos_as_xyz
  1  'x, y, z'
loop_
 _atom_site_type_symbol
 _atom_site_label
 _atom_site_symmetry_multiplicity
 _atom_site_fract_x
 _atom_site_fract_y
 _atom_site_fract_z
 _atom_site_occupancy
  La  La0  1  0.25000000  0.16027700  0.75294200  1
  La  La1  1  0.25000000  0.69765400  0.42534400  1
  La  La2  1  0.75000000  0.67225200  0.09209400  1
  La  La3  1  0.75000000  0.80234600  0.92534400  1
  La  La4  1  0.75000000  0.17225200  0.40790600  1
  La  La5  1  0.75000000  0.33972300  0.25294200  1
  La  La6  1  0.25000000  0.19765400  0.07465600  1
  La  La7  1  0.25000000  0.66027700  0.74705800  1
  La  La8  1  0.25000000  0.32774800  0.90790600  1
  La  La9  1  0.75000000  0.83972300  0.24705800  1
  La  La10  1  0.75000000  0.30234600  0.57465600  1
  La  La11  1  0.25000000  0.82774800  0.59209400  1
  Yb  Yb12  1  0.25000000  0.59644800  0.25391000  1
  Yb  Yb13  1  0.75000000  0.90355200  0.75391000  1
  Yb  Yb14  1  0.25000000  0.56804200  0.91746200  1
  Yb  Yb15  1  0.25000000  0.06804200  0.58253800  1
  Yb  Yb16  1  0.75000000  0.93195800  0.41746200  1
  Yb  Yb17  1  0.75000000  0.05304100  0.92834600  1
  Yb  Yb18  1  0.75000000  0.40355200  0.74609000  1
  Yb  Yb19  1  0.25000000  0.44695900  0.42834600  1
  Yb  Yb20  1  0.75000000  0.43195800  0.08253800  1
  Yb  Yb21  1  0.75000000  0.55304100  0.57165400  1
  Yb  Yb22  1  0.25000000  0.09644800  0.24609000  1
  Yb  Yb23  1  0.25000000  0.94695900  0.07165400  1
  S  S24  1  0.25000000  0.93048500  0.93759600  1
  S  S25  1  0.25000000  0.32293500  0.67512900  1
  S  S26  1  0.25000000  0.23331800  0.31936900  1
  S  S27  1  0.75000000  0.44924700  0.93679500  1
  S  S28  1  0.75000000  0.94924700  0.56320500  1
  S  S29  1  0.25000000  0.05075300  0.43679500  1
  S  S30  1  0.25000000  0.44330200  0.30068500  1
  S  S31  1  0.75000000  0.33990600  0.43821200  1
  S  S32  1  0.75000000  0.17706500  0.17512900  1
  S  S33  1  0.25000000  0.46869900  0.81650200  1
  S  S34  1  0.75000000  0.06951500  0.06240400  1
  S  S35  1  0.75000000  0.53130100  0.18349800  1
  S  S36  1  0.25000000  0.94330200  0.19931500  1
  S  S37  1  0.25000000  0.70448900  0.99232300  1
  S  S38  1  0.25000000  0.82293500  0.82487100  1
  S  S39  1  0.25000000  0.66009400  0.56178800  1
  S  S40  1  0.75000000  0.83990600  0.06178800  1
  S  S41  1  0.75000000  0.79551100  0.49232300  1
  S  S42  1  0.75000000  0.26668200  0.81936900  1
  S  S43  1  0.25000000  0.20448900  0.50767700  1
  S  S44  1  0.25000000  0.73331800  0.18063100  1
  S  S45  1  0.75000000  0.65100000  0.85004700  1
  S  S46  1  0.75000000  0.76668200  0.68063100  1
  S  S47  1  0.25000000  0.43048500  0.56240400  1
  S  S48  1  0.75000000  0.55669800  0.69931500  1
  S  S49  1  0.75000000  0.05669800  0.80068500  1
  S  S50  1  0.25000000  0.34900000  0.14995300  1
  S  S51  1  0.75000000  0.15100000  0.64995300  1
  S  S52  1  0.25000000  0.55075300  0.06320500  1
  S  S53  1  0.75000000  0.56951500  0.43759600  1
  S  S54  1  0.75000000  0.03130100  0.31650200  1
  S  S55  1  0.75000000  0.29551100  0.00767700  1
  S  S56  1  0.75000000  0.67706500  0.32487100  1
  S  S57  1  0.25000000  0.84900000  0.35004700  1
  S  S58  1  0.25000000  0.96869900  0.68349800  1
  S  S59  1  0.25000000  0.16009400  0.93821200  1
