# generated using pymatgen
data_Cs5Ag4C8IN8
_symmetry_space_group_name_H-M   'P 1'
_cell_length_a   17.43031663
_cell_length_b   17.43031663
_cell_length_c   17.43031663
_cell_angle_alpha   109.47122063
_cell_angle_beta   109.47122063
_cell_angle_gamma   109.47122063
_symmetry_Int_Tables_number   1
_chemical_formula_structural   Cs5Ag4C8IN8
_chemical_formula_sum   'Cs30 Ag24 C48 I6 N48'
_cell_volume   4076.56093603
_cell_formula_units_Z   6
loop_
 _symmetry_equiv_pos_site_id
 _symmetry_equiv_pos_as_xyz
  1  'x, y, z'
loop_
 _atom_site_type_symbol
 _atom_site_label
 _atom_site_symmetry_multiplicity
 _atom_site_fract_x
 _atom_site_fract_y
 _atom_site_fract_z
 _atom_site_occupancy
  Cs  Cs0  1  0.70193100  0.06892300  0.50538400  1
  Cs  Cs1  1  0.06892300  0.50538400  0.70193100  1
  Cs  Cs2  1  0.99461600  0.06353800  0.19654700  1
  Cs  Cs3  1  0.69654700  0.56353800  0.49461600  1
  Cs  Cs4  1  0.29806900  0.86699100  0.80345300  1
  Cs  Cs5  1  0.63300900  0.93107700  0.93646200  1
  Cs  Cs6  1  0.06353800  0.19654700  0.99461600  1
  Cs  Cs7  1  0.25000000  0.12500000  0.87500000  1
  Cs  Cs8  1  0.12500000  0.87500000  0.25000000  1
  Cs  Cs9  1  0.79806900  0.30345300  0.36699100  1
  Cs  Cs10  1  0.43107700  0.13300900  0.43646200  1
  Cs  Cs11  1  0.43646200  0.43107700  0.13300900  1
  Cs  Cs12  1  0.19654700  0.99461600  0.06353800  1
  Cs  Cs13  1  0.20193100  0.00538400  0.56892300  1
  Cs  Cs14  1  0.93646200  0.63300900  0.93107700  1
  Cs  Cs15  1  0.37500000  0.62500000  0.75000000  1
  Cs  Cs16  1  0.87500000  0.25000000  0.12500000  1
  Cs  Cs17  1  0.86699100  0.80345300  0.29806900  1
  Cs  Cs18  1  0.50538400  0.70193100  0.06892300  1
  Cs  Cs19  1  0.62500000  0.75000000  0.37500000  1
  Cs  Cs20  1  0.00538400  0.56892300  0.20193100  1
  Cs  Cs21  1  0.75000000  0.37500000  0.62500000  1
  Cs  Cs22  1  0.93107700  0.93646200  0.63300900  1
  Cs  Cs23  1  0.13300900  0.43646200  0.43107700  1
  Cs  Cs24  1  0.56892300  0.20193100  0.00538400  1
  Cs  Cs25  1  0.80345300  0.29806900  0.86699100  1
  Cs  Cs26  1  0.36699100  0.79806900  0.30345300  1
  Cs  Cs27  1  0.49461600  0.69654700  0.56353800  1
  Cs  Cs28  1  0.56353800  0.49461600  0.69654700  1
  Cs  Cs29  1  0.30345300  0.36699100  0.79806900  1
  Ag  Ag30  1  0.29985200  0.29429700  0.42724400  1
  Ag  Ag31  1  0.12739200  0.70014800  0.49444500  1
  Ag  Ag32  1  0.00555500  0.70570300  0.63294700  1
  Ag  Ag33  1  0.79429700  0.79985200  0.92724400  1
  Ag  Ag34  1  0.36705300  0.87260800  0.07275600  1
  Ag  Ag35  1  0.13294700  0.20570300  0.50555500  1
  Ag  Ag36  1  0.37260800  0.86705300  0.57275600  1
  Ag  Ag37  1  0.62739200  0.99444500  0.20014800  1
  Ag  Ag38  1  0.07275600  0.36705300  0.87260800  1
  Ag  Ag39  1  0.63294700  0.00555500  0.70570300  1
  Ag  Ag40  1  0.70014800  0.49444500  0.12739200  1
  Ag  Ag41  1  0.79985200  0.92724400  0.79429700  1
  Ag  Ag42  1  0.42724400  0.29985200  0.29429700  1
  Ag  Ag43  1  0.20014800  0.62739200  0.99444500  1
  Ag  Ag44  1  0.87260800  0.07275600  0.36705300  1
  Ag  Ag45  1  0.86705300  0.57275600  0.37260800  1
  Ag  Ag46  1  0.92724400  0.79429700  0.79985200  1
  Ag  Ag47  1  0.50555500  0.13294700  0.20570300  1
  Ag  Ag48  1  0.20570300  0.50555500  0.13294700  1
  Ag  Ag49  1  0.70570300  0.63294700  0.00555500  1
  Ag  Ag50  1  0.99444500  0.20014800  0.62739200  1
  Ag  Ag51  1  0.49444500  0.12739200  0.70014800  1
  Ag  Ag52  1  0.29429700  0.42724400  0.29985200  1
  Ag  Ag53  1  0.57275600  0.37260800  0.86705300  1
  C  C54  1  0.93458800  0.84750100  0.01245900  1
  C  C55  1  0.06541200  0.41291300  0.07787200  1
  C  C56  1  0.33433100  0.91817300  0.17647200  1
  C  C57  1  0.83433100  0.67647200  0.41817300  1
  C  C58  1  0.51245900  0.34750100  0.43458800  1
  C  C59  1  0.08182700  0.75830000  0.41615800  1
  C  C60  1  0.41817300  0.83433100  0.67647200  1
  C  C61  1  0.08708700  0.15249900  0.66495800  1
  C  C62  1  0.65785900  0.74170000  0.82352800  1
  C  C63  1  0.01245900  0.93458800  0.84750100  1
  C  C64  1  0.65249900  0.58708700  0.16495800  1
  C  C65  1  0.57787200  0.91291300  0.56541200  1
  C  C66  1  0.07787200  0.06541200  0.41291300  1
  C  C67  1  0.17647200  0.33433100  0.91817300  1
  C  C68  1  0.43458800  0.51245900  0.34750100  1
  C  C69  1  0.08384200  0.84214100  0.66566900  1
  C  C70  1  0.66495800  0.08708700  0.15249900  1
  C  C71  1  0.75830000  0.41615800  0.08182700  1
  C  C72  1  0.25830000  0.58182700  0.91615800  1
  C  C73  1  0.56541200  0.57787200  0.91291300  1
  C  C74  1  0.84750100  0.01245900  0.93458800  1
  C  C75  1  0.84214100  0.66566900  0.08384200  1
  C  C76  1  0.16566900  0.34214100  0.58384200  1
  C  C77  1  0.42212800  0.83504200  0.98754100  1
  C  C78  1  0.67647200  0.41817300  0.83433100  1
  C  C79  1  0.15249900  0.66495800  0.08708700  1
  C  C80  1  0.74170000  0.82352800  0.65785900  1
  C  C81  1  0.34214100  0.58384200  0.16566900  1
  C  C82  1  0.24170000  0.15785900  0.32352800  1
  C  C83  1  0.92212800  0.48754100  0.33504200  1
  C  C84  1  0.58708700  0.16495800  0.65249900  1
  C  C85  1  0.83504200  0.98754100  0.42212800  1
  C  C86  1  0.33504200  0.92212800  0.48754100  1
  C  C87  1  0.58384200  0.16566900  0.34214100  1
  C  C88  1  0.41291300  0.07787200  0.06541200  1
  C  C89  1  0.34750100  0.43458800  0.51245900  1
  C  C90  1  0.91291300  0.56541200  0.57787200  1
  C  C91  1  0.41615800  0.08182700  0.75830000  1
  C  C92  1  0.16495800  0.65249900  0.58708700  1
  C  C93  1  0.15785900  0.32352800  0.24170000  1
  C  C94  1  0.91817300  0.17647200  0.33433100  1
  C  C95  1  0.48754100  0.33504200  0.92212800  1
  C  C96  1  0.82352800  0.65785900  0.74170000  1
  C  C97  1  0.32352800  0.24170000  0.15785900  1
  C  C98  1  0.66566900  0.08384200  0.84214100  1
  C  C99  1  0.58182700  0.91615800  0.25830000  1
  C  C100  1  0.91615800  0.25830000  0.58182700  1
  C  C101  1  0.98754100  0.42212800  0.83504200  1
  I  I102  1  0.12500000  0.75000000  0.87500000  1
  I  I103  1  0.75000000  0.87500000  0.12500000  1
  I  I104  1  0.25000000  0.62500000  0.37500000  1
  I  I105  1  0.87500000  0.12500000  0.75000000  1
  I  I106  1  0.62500000  0.37500000  0.25000000  1
  I  I107  1  0.37500000  0.25000000  0.62500000  1
  N  N108  1  0.23702200  0.31760900  0.94525000  1
  N  N109  1  0.44525000  0.81760900  0.73702200  1
  N  N110  1  0.35844700  0.04568300  0.98629700  1
  N  N111  1  0.81276400  0.94061300  0.45431700  1
  N  N112  1  0.12784900  0.68723600  0.14155300  1
  N  N113  1  0.45431700  0.81276400  0.94061300  1
  N  N114  1  0.76297800  0.58058700  0.70822800  1
  N  N115  1  0.58058700  0.70822800  0.76297800  1
  N  N116  1  0.44061300  0.31276400  0.95431700  1
  N  N117  1  0.01370300  0.87215100  0.05938700  1
  N  N118  1  0.68723600  0.14155300  0.12784900  1
  N  N119  1  0.14155300  0.12784900  0.68723600  1
  N  N120  1  0.51370300  0.55938700  0.37215100  1
  N  N121  1  0.20822800  0.08058700  0.26297800  1
  N  N122  1  0.41941300  0.62764100  0.18239100  1
  N  N123  1  0.04568300  0.98629700  0.35844700  1
  N  N124  1  0.29177200  0.55475000  0.87235900  1
  N  N125  1  0.64155300  0.18723600  0.62784900  1
  N  N126  1  0.05938700  0.01370300  0.87215100  1
  N  N127  1  0.55475000  0.87235900  0.29177200  1
  N  N128  1  0.62784900  0.64155300  0.18723600  1
  N  N129  1  0.18723600  0.62784900  0.64155300  1
  N  N130  1  0.37215100  0.51370300  0.55938700  1
  N  N131  1  0.95431700  0.44061300  0.31276400  1
  N  N132  1  0.37235900  0.05475000  0.79177200  1
  N  N133  1  0.54568300  0.85844700  0.48629700  1
  N  N134  1  0.48629700  0.54568300  0.85844700  1
  N  N135  1  0.12764100  0.91941300  0.68239100  1
  N  N136  1  0.85844700  0.48629700  0.54568300  1
  N  N137  1  0.73702200  0.44525000  0.81760900  1
  N  N138  1  0.98629700  0.35844700  0.04568300  1
  N  N139  1  0.87235900  0.29177200  0.55475000  1
  N  N140  1  0.31276400  0.95431700  0.44061300  1
  N  N141  1  0.08058700  0.26297800  0.20822800  1
  N  N142  1  0.91941300  0.68239100  0.12764100  1
  N  N143  1  0.62764100  0.18239100  0.41941300  1
  N  N144  1  0.05475000  0.79177200  0.37235900  1
  N  N145  1  0.18239100  0.41941300  0.62764100  1
  N  N146  1  0.68239100  0.12764100  0.91941300  1
  N  N147  1  0.70822800  0.76297800  0.58058700  1
  N  N148  1  0.87215100  0.05938700  0.01370300  1
  N  N149  1  0.31760900  0.94525000  0.23702200  1
  N  N150  1  0.79177200  0.37235900  0.05475000  1
  N  N151  1  0.81760900  0.73702200  0.44525000  1
  N  N152  1  0.55938700  0.37215100  0.51370300  1
  N  N153  1  0.26297800  0.20822800  0.08058700  1
  N  N154  1  0.94061300  0.45431700  0.81276400  1
  N  N155  1  0.94525000  0.23702200  0.31760900  1
