# generated using pymatgen
data_Ce16O27
_symmetry_space_group_name_H-M   'P 1'
_cell_length_a   9.56312445
_cell_length_b   9.60450950
_cell_length_c   19.22773258
_cell_angle_alpha   109.54564639
_cell_angle_beta   109.45039288
_cell_angle_gamma   109.26639038
_symmetry_Int_Tables_number   1
_chemical_formula_structural   Ce16O27
_chemical_formula_sum   'Ce32 O54'
_cell_volume   1362.03137492
_cell_formula_units_Z   2
loop_
 _symmetry_equiv_pos_site_id
 _symmetry_equiv_pos_as_xyz
  1  'x, y, z'
loop_
 _atom_site_type_symbol
 _atom_site_label
 _atom_site_symmetry_multiplicity
 _atom_site_fract_x
 _atom_site_fract_y
 _atom_site_fract_z
 _atom_site_occupancy
  Ce  Ce0  1  0.01540706  0.74414086  0.88272567  1
  Ce  Ce1  1  0.24704498  0.99629672  0.62628124  1
  Ce  Ce2  1  0.00849439  0.99632435  0.75075702  1
  Ce  Ce3  1  0.97710173  0.50411936  0.50121823  1
  Ce  Ce4  1  0.24758279  0.24662998  0.98767099  1
  Ce  Ce5  1  0.24799727  0.72524800  0.73777746  1
  Ce  Ce6  1  0.27272794  0.52670185  0.88537977  1
  Ce  Ce7  1  0.02463929  0.75081665  0.38552179  1
  Ce  Ce8  1  0.23231756  0.98253210  0.12687017  1
  Ce  Ce9  1  0.50100390  0.27622010  0.87368713  1
  Ce  Ce10  1  0.47608391  0.48212726  0.73799026  1
  Ce  Ce11  1  0.00005881  0.49586147  0.99873867  1
  Ce  Ce12  1  0.00028635  0.02432837  0.25219456  1
  Ce  Ce13  1  0.24885732  0.22636331  0.49653298  1
  Ce  Ce14  1  0.52358966  0.76999188  0.63830260  1
  Ce  Ce15  1  0.25437349  0.73234329  0.24060037  1
  Ce  Ce16  1  0.25675294  0.50557766  0.36451833  1
  Ce  Ce17  1  0.72354690  0.47465410  0.61624362  1
  Ce  Ce18  1  0.73541195  0.25710336  0.75201448  1
  Ce  Ce19  1  0.74827454  0.75577340  0.51337273  1
  Ce  Ce20  1  0.49146792  0.26593047  0.37388120  1
  Ce  Ce21  1  0.50721683  0.99584361  0.51157480  1
  Ce  Ce22  1  0.50848326  0.49853376  0.24960183  1
  Ce  Ce23  1  0.77615410  0.01991611  0.87743749  1
  Ce  Ce24  1  0.50461060  0.73013747  0.12797239  1
  Ce  Ce25  1  0.99392660  0.24566957  0.61218547  1
  Ce  Ce26  1  0.72736935  0.47653331  0.11386000  1
  Ce  Ce27  1  0.76767933  0.27539409  0.26158492  1
  Ce  Ce28  1  0.75173137  0.75384279  0.01178202  1
  Ce  Ce29  1  0.49595128  0.00038118  0.99867247  1
  Ce  Ce30  1  0.76802279  0.02092685  0.37304568  1
  Ce  Ce31  1  0.97348964  0.24669022  0.12097486  1
  O  O32  1  0.00464645  0.48591670  0.86829160  1
  O  O33  1  0.24863293  0.97229092  0.75442486  1
  O  O34  1  0.25639296  0.76993884  0.86935046  1
  O  O35  1  0.23401981  0.25917160  0.86204172  1
  O  O36  1  0.99154894  0.02278242  0.63645461  1
  O  O37  1  0.22424219  0.47249313  0.74384996  1
  O  O38  1  0.24855999  0.71873289  0.61342878  1
  O  O39  1  0.01697519  0.27033035  0.49583323  1
  O  O40  1  0.02695273  0.50800753  0.38977571  1
  O  O41  1  0.24012552  0.23485748  0.61790853  1
  O  O42  1  0.99974154  0.26377986  0.25012030  1
  O  O43  1  0.24044678  0.98251033  0.25892820  1
  O  O44  1  0.72559613  0.98865281  0.98140356  1
  O  O45  1  0.52156749  0.76750000  0.76544167  1
  O  O46  1  0.25782719  0.75747093  0.36442233  1
  O  O47  1  0.52295868  0.53778784  0.87879114  1
  O  O48  1  0.48715616  0.22564543  0.98162233  1
  O  O49  1  0.25386203  0.28022086  0.38453539  1
  O  O50  1  0.48621512  0.73286164  0.50642831  1
  O  O51  1  0.46984026  0.48898262  0.60934348  1
  O  O52  1  0.48997382  0.25332695  0.74932701  1
  O  O53  1  0.00746593  0.01752481  0.12584760  1
  O  O54  1  0.25598350  0.98967020  0.50322634  1
  O  O55  1  0.24779232  0.46957150  0.23079765  1
  O  O56  1  0.26668824  0.75837094  0.12491670  1
  O  O57  1  0.02082139  0.25151538  0.00765297  1
  O  O58  1  0.98058145  0.74127706  0.99226335  1
  O  O59  1  0.73527791  0.23881010  0.87812775  1
  O  O60  1  0.50081881  0.00315760  0.63260332  1
  O  O61  1  0.75384648  0.53351468  0.75747332  1
  O  O62  1  0.73304098  0.98402247  0.48122381  1
  O  O63  1  0.99872261  0.97070410  0.86952519  1
  O  O64  1  0.52415636  0.76085633  0.26488968  1
  O  O65  1  0.52249014  0.52592758  0.37429857  1
  O  O66  1  0.49834871  0.21795379  0.48900146  1
  O  O67  1  0.77157330  0.74726338  0.64024346  1
  O  O68  1  0.25727179  0.49875196  0.00001302  1
  O  O69  1  0.73175061  0.49963943  0.50012935  1
  O  O70  1  0.50753529  0.77699876  0.01769895  1
  O  O71  1  0.47925657  0.46710439  0.12066073  1
  O  O72  1  0.76245870  0.24358270  0.63394659  1
  O  O73  1  0.47826861  0.23668997  0.23269507  1
  O  O74  1  0.27262793  0.01193651  0.02049253  1
  O  O75  1  0.78477439  0.03478727  0.75519748  1
  O  O76  1  0.98644163  0.51107237  0.62814621  1
  O  O77  1  0.72518406  0.24213256  0.37421088  1
  O  O78  1  0.97695978  0.75695191  0.49669563  1
  O  O79  1  0.77743225  0.53740539  0.26365842  1
  O  O80  1  0.98633475  0.97005726  0.36498177  1
  O  O81  1  0.77064438  0.74869838  0.13880147  1
  O  O82  1  0.74235846  0.50137311  0.00037570  1
  O  O83  1  0.72130945  0.23243824  0.12439978  1
  O  O84  1  0.73447914  0.01190504  0.24132414  1
  O  O85  1  0.99196636  0.51212017  0.13178679  1
