data_image0
_chemical_formula_structural       Cu4Li2P2
_chemical_formula_sum              "Cu4 Li2 P2"
_cell_length_a       4.01596
_cell_length_b       4.01596
_cell_length_c       7.42146
_cell_angle_alpha    90
_cell_angle_beta     90.0009
_cell_angle_gamma    120

_space_group_name_H-M_alt    "P 1"
_space_group_IT_number       1

loop_
  _space_group_symop_operation_xyz
  'x, y, z'

loop_
  _atom_site_type_symbol
  _atom_site_label
  _atom_site_symmetry_multiplicity
  _atom_site_fract_x
  _atom_site_fract_y
  _atom_site_fract_z
  _atom_site_occupancy
  Cu  Cu1       1.0  0.00000  1.00000  0.27200  1.0000
  Cu  Cu2       1.0  0.66700  0.33300  0.43300  1.0000
  Cu  Cu3       1.0  0.33300  0.66700  0.56700  1.0000
  Cu  Cu4       1.0  0.00000  0.00000  0.72800  1.0000
  Li  Li1       1.0  0.33300  0.66700  0.91100  1.0000
  Li  Li2       1.0  0.66700  0.33300  0.08890  1.0000
  P   P1        1.0  0.33300  0.66700  0.25100  1.0000
  P   P2        1.0  0.66700  0.33300  0.74900  1.0000
