# generated using pymatgen
data_KAsO4
_symmetry_space_group_name_H-M   'P 1'
_cell_length_a   6.40995448
_cell_length_b   6.40995448
_cell_length_c   6.40995448
_cell_angle_alpha   109.26983613
_cell_angle_beta   109.26983613
_cell_angle_gamma   109.87474480
_symmetry_Int_Tables_number   1
_chemical_formula_structural   KAsO4
_chemical_formula_sum   'K2 As2 O8'
_cell_volume   202.73408721
_cell_formula_units_Z   2
loop_
 _symmetry_equiv_pos_site_id
 _symmetry_equiv_pos_as_xyz
  1  'x, y, z'
loop_
 _atom_site_type_symbol
 _atom_site_label
 _atom_site_symmetry_multiplicity
 _atom_site_fract_x
 _atom_site_fract_y
 _atom_site_fract_z
 _atom_site_occupancy
  K  K0  1  0.75000000  0.25000000  0.50000000  1
  K  K1  1  0.50000000  0.50000000  0.00000000  1
  As  As2  1  0.25000000  0.75000000  0.50000000  1
  As  As3  1  0.00000000  0.00000000  0.00000000  1
  O  O4  1  0.49654600  0.04942900  0.75735600  1
  O  O5  1  0.95792700  0.70057100  0.94711700  1
  O  O6  1  0.29207300  0.73919000  0.24264400  1
  O  O7  1  0.75345400  0.01081000  0.05288300  1
  O  O8  1  0.26081000  0.50345400  0.55288300  1
  O  O9  1  0.29942900  0.24654600  0.25735600  1
  O  O10  1  0.95057100  0.70792700  0.44711700  1
  O  O11  1  0.98919000  0.04207300  0.74264400  1
