# generated using pymatgen
data_Ti4(PO5)3
_symmetry_space_group_name_H-M   'P 1'
_cell_length_a   22.49973580
_cell_length_b   19.86990830
_cell_length_c   11.81375204
_cell_angle_alpha   86.56369596
_cell_angle_beta   61.82743267
_cell_angle_gamma   31.60887137
_symmetry_Int_Tables_number   1
_chemical_formula_structural   Ti4(PO5)3
_chemical_formula_sum   'Ti24 P18 O90'
_cell_volume   1639.85382075
_cell_formula_units_Z   6
loop_
 _symmetry_equiv_pos_site_id
 _symmetry_equiv_pos_as_xyz
  1  'x, y, z'
loop_
 _atom_site_type_symbol
 _atom_site_label
 _atom_site_symmetry_multiplicity
 _atom_site_fract_x
 _atom_site_fract_y
 _atom_site_fract_z
 _atom_site_occupancy
  Ti  Ti0  1  0.87713400  0.04149500  0.05748300  1
  Ti  Ti1  1  0.02388800  0.05748300  0.04149500  1
  Ti  Ti2  1  0.20850500  0.37286600  0.22611200  1
  Ti  Ti3  1  0.19251700  0.22611200  0.37286600  1
  Ti  Ti4  1  0.47883600  0.76837200  0.43034800  1
  Ti  Ti5  1  0.32244400  0.43034800  0.76837200  1
  Ti  Ti6  1  0.48162800  0.77116400  0.92755600  1
  Ti  Ti7  1  0.81965200  0.92755600  0.77116400  1
  Ti  Ti8  1  0.32961800  0.75757300  0.44030800  1
  Ti  Ti9  1  0.47250100  0.44030800  0.75757300  1
  Ti  Ti10  1  0.49242700  0.92038200  0.77749900  1
  Ti  Ti11  1  0.80969200  0.77749900  0.92038200  1
  Ti  Ti12  1  0.20235600  0.39165200  0.72382400  1
  Ti  Ti13  1  0.68216800  0.72382400  0.39165200  1
  Ti  Ti14  1  0.85834800  0.04764400  0.56783200  1
  Ti  Ti15  1  0.52617600  0.56783200  0.04764400  1
  Ti  Ti16  1  0.00702600  0.42305600  0.75888100  1
  Ti  Ti17  1  0.81103700  0.75888100  0.42305600  1
  Ti  Ti18  1  0.82694400  0.24297400  0.43896300  1
  Ti  Ti19  1  0.49111900  0.43896300  0.24297400  1
  Ti  Ti20  1  0.87964700  0.37958200  0.72564800  1
  Ti  Ti21  1  0.01512400  0.72564800  0.37958200  1
  Ti  Ti22  1  0.87041800  0.37035300  0.23487600  1
  Ti  Ti23  1  0.52435200  0.23487600  0.37035300  1
  P  P24  1  0.56732800  0.43267200  0.43267200  1
  P  P25  1  0.81732800  0.68267200  0.68267200  1
  P  P26  1  0.20374800  0.46763600  0.45953400  1
  P  P27  1  0.86908200  0.45953400  0.46763600  1
  P  P28  1  0.78236400  0.04625200  0.38091800  1
  P  P29  1  0.79046600  0.38091800  0.04625200  1
  P  P30  1  0.87838800  0.78589600  0.11816900  1
  P  P31  1  0.21754600  0.11816900  0.78589600  1
  P  P32  1  0.46410400  0.37161200  0.03245400  1
  P  P33  1  0.13183100  0.03245400  0.37161200  1
  P  P34  1  0.55729600  0.10558800  0.77144900  1
  P  P35  1  0.56566700  0.77144900  0.10558800  1
  P  P36  1  0.14441200  0.69270400  0.68433300  1
  P  P37  1  0.47855100  0.68433300  0.69270400  1
  P  P38  1  0.87570800  0.12342800  0.78913800  1
  P  P39  1  0.21172500  0.78913800  0.12342800  1
  P  P40  1  0.12657200  0.37429200  0.03827500  1
  P  P41  1  0.46086200  0.03827500  0.37429200  1
  O  O42  1  0.10899300  0.27557800  0.80448600  1
  O  O43  1  0.81094200  0.80448600  0.27557800  1
  O  O44  1  0.97442200  0.14100700  0.43905800  1
  O  O45  1  0.44551400  0.43905800  0.14100700  1
  O  O46  1  0.46555900  0.48595900  0.60801400  1
  O  O47  1  0.44046900  0.60801400  0.48595900  1
  O  O48  1  0.76404100  0.78444100  0.80953100  1
  O  O49  1  0.64198600  0.80953100  0.78444100  1
  O  O50  1  0.08990800  0.20656300  0.98338900  1
  O  O51  1  0.72014000  0.98338900  0.20656300  1
  O  O52  1  0.04343700  0.16009200  0.52986000  1
  O  O53  1  0.26661100  0.52986000  0.16009200  1
  O  O54  1  0.28885200  0.17487900  0.94806000  1
  O  O55  1  0.58820900  0.94806000  0.17487900  1
  O  O56  1  0.07512100  0.96114800  0.66179100  1
  O  O57  1  0.30194000  0.66179100  0.96114800  1
  O  O58  1  0.78367900  0.17017500  0.96837700  1
  O  O59  1  0.07776900  0.96837700  0.17017500  1
  O  O60  1  0.07982500  0.46632100  0.17223100  1
  O  O61  1  0.28162300  0.17223100  0.46632100  1
  O  O62  1  0.49398500  0.79712300  0.26756500  1
  O  O63  1  0.44132700  0.26756500  0.79712300  1
  O  O64  1  0.45287700  0.75601500  0.80867300  1
  O  O65  1  0.98243500  0.80867300  0.75601500  1
  O  O66  1  0.40728000  0.96775100  0.18930200  1
  O  O67  1  0.43566600  0.18930200  0.96775100  1
  O  O68  1  0.28224900  0.84272000  0.81433400  1
  O  O69  1  0.06069800  0.81433400  0.84272000  1
  O  O70  1  0.74678800  0.30450100  0.85747800  1
  O  O71  1  0.09123400  0.85747800  0.30450100  1
  O  O72  1  0.94549900  0.50321200  0.15876600  1
  O  O73  1  0.39252200  0.15876600  0.50321200  1
  O  O74  1  0.77301500  0.51259400  0.65127500  1
  O  O75  1  0.06311500  0.65127500  0.51259400  1
  O  O76  1  0.73740600  0.47698500  0.18688500  1
  O  O77  1  0.59872500  0.18688500  0.47698500  1
  O  O78  1  0.91923300  0.20377800  0.98912900  1
  O  O79  1  0.88786000  0.98912900  0.20377800  1
  O  O80  1  0.04622200  0.33076700  0.36214000  1
  O  O81  1  0.26087100  0.36214000  0.33076700  1
  O  O82  1  0.19009600  0.35736000  0.88079400  1
  O  O83  1  0.57175100  0.88079400  0.35736000  1
  O  O84  1  0.89264000  0.05990400  0.67824900  1
  O  O85  1  0.36920600  0.67824900  0.05990400  1
  O  O86  1  0.57546300  0.63095000  0.50984700  1
  O  O87  1  0.28374000  0.50984700  0.63095000  1
  O  O88  1  0.61905000  0.67453700  0.96626000  1
  O  O89  1  0.74015300  0.96626000  0.67453700  1
  O  O90  1  0.60784400  0.50367200  0.62692000  1
  O  O91  1  0.26156400  0.62692000  0.50367200  1
  O  O92  1  0.74632800  0.64215600  0.98843600  1
  O  O93  1  0.62308000  0.98843600  0.64215600  1
  O  O94  1  0.72161500  0.64816400  0.53047600  1
  O  O95  1  0.09974400  0.53047600  0.64816400  1
  O  O96  1  0.60183600  0.52838500  0.15025600  1
  O  O97  1  0.71952400  0.15025600  0.52838500  1
  O  O98  1  0.90784900  0.87191200  0.33268600  1
  O  O99  1  0.88755200  0.33268600  0.87191200  1
  O  O100  1  0.37808800  0.34215100  0.36244800  1
  O  O101  1  0.91731400  0.36244800  0.34215100  1
  O  O102  1  0.27224600  0.84926700  0.31919800  1
  O  O103  1  0.55928900  0.31919800  0.84926700  1
  O  O104  1  0.40073300  0.97775400  0.69071100  1
  O  O105  1  0.93080200  0.69071100  0.97775400  1
  O  O106  1  0.96348800  0.49512300  0.62236500  1
  O  O107  1  0.91902400  0.62236500  0.49512300  1
  O  O108  1  0.75487700  0.28651200  0.33097600  1
  O  O109  1  0.62763500  0.33097600  0.28651200  1
  O  O110  1  0.24791400  0.96696200  0.18976700  1
  O  O111  1  0.59535700  0.18976700  0.96696200  1
  O  O112  1  0.28303800  0.00208600  0.65464300  1
  O  O113  1  0.06023300  0.65464300  0.00208600  1
  O  O114  1  0.26877200  0.23122800  0.23122800  1
  O  O115  1  0.01877200  0.98122800  0.98122800  1
  O  O116  1  0.69140200  0.63524100  0.32735900  1
  O  O117  1  0.34599800  0.32735900  0.63524100  1
  O  O118  1  0.61475900  0.55859800  0.90400200  1
  O  O119  1  0.92264100  0.90400200  0.55859800  1
  O  O120  1  0.41567100  0.91689300  0.92106200  1
  O  O121  1  0.74637400  0.92106200  0.91689300  1
  O  O122  1  0.33310700  0.83432900  0.50362600  1
  O  O123  1  0.32893800  0.50362600  0.83432900  1
  O  O124  1  0.04459100  0.61727600  0.30711300  1
  O  O125  1  0.03101900  0.30711300  0.61727600  1
  O  O126  1  0.63272400  0.20540900  0.21898100  1
  O  O127  1  0.94288700  0.21898100  0.20540900  1
  O  O128  1  0.72916400  0.26065600  0.58396700  1
  O  O129  1  0.42621400  0.58396700  0.26065600  1
  O  O130  1  0.98934400  0.52083600  0.82378600  1
  O  O131  1  0.66603300  0.82378600  0.52083600  1
