# generated using pymatgen
data_Y2Te4O11
_symmetry_space_group_name_H-M   'P 1'
_cell_length_a   6.77785701
_cell_length_b   6.77785701
_cell_length_c   16.28787562
_cell_angle_alpha   75.80437466
_cell_angle_beta   75.80437466
_cell_angle_gamma   44.97111385
_symmetry_Int_Tables_number   1
_chemical_formula_structural   Y2Te4O11
_chemical_formula_sum   'Y4 Te8 O22'
_cell_volume   509.86265492
_cell_formula_units_Z   2
loop_
 _symmetry_equiv_pos_site_id
 _symmetry_equiv_pos_as_xyz
  1  'x, y, z'
loop_
 _atom_site_type_symbol
 _atom_site_label
 _atom_site_symmetry_multiplicity
 _atom_site_fract_x
 _atom_site_fract_y
 _atom_site_fract_z
 _atom_site_occupancy
  Y  Y0  1  0.36998300  0.86629600  0.46293500  1
  Y  Y1  1  0.13370400  0.63001700  0.03706500  1
  Y  Y2  1  0.86629600  0.36998300  0.96293500  1
  Y  Y3  1  0.63001700  0.13370400  0.53706500  1
  Te  Te4  1  0.59076300  0.15301800  0.87424500  1
  Te  Te5  1  0.39906000  0.84372300  0.80165900  1
  Te  Te6  1  0.15627700  0.60094000  0.69834100  1
  Te  Te7  1  0.84698200  0.40923700  0.62575500  1
  Te  Te8  1  0.15301800  0.59076300  0.37424500  1
  Te  Te9  1  0.84372300  0.39906000  0.30165900  1
  Te  Te10  1  0.40923700  0.84698200  0.12575500  1
  Te  Te11  1  0.60094000  0.15627700  0.19834100  1
  O  O12  1  0.14901500  0.85098500  0.75000000  1
  O  O13  1  0.82117800  0.03931400  0.95546300  1
  O  O14  1  0.79037900  0.91219600  0.66913600  1
  O  O15  1  0.80935200  0.68394600  0.37210300  1
  O  O16  1  0.17882200  0.96068600  0.04453700  1
  O  O17  1  0.91219600  0.79037900  0.16913600  1
  O  O18  1  0.85098500  0.14901500  0.25000000  1
  O  O19  1  0.20962100  0.08780400  0.33086400  1
  O  O20  1  0.19064800  0.31605400  0.62789700  1
  O  O21  1  0.03931400  0.82117800  0.45546300  1
  O  O22  1  0.66035800  0.75229200  0.55416800  1
  O  O23  1  0.31605400  0.19064800  0.12789700  1
  O  O24  1  0.55423700  0.39430800  0.09689600  1
  O  O25  1  0.33964200  0.24770800  0.44583200  1
  O  O26  1  0.68394600  0.80935200  0.87210300  1
  O  O27  1  0.24770800  0.33964200  0.94583200  1
  O  O28  1  0.75229200  0.66035800  0.05416800  1
  O  O29  1  0.08780400  0.20962100  0.83086400  1
  O  O30  1  0.39430800  0.55423700  0.59689600  1
  O  O31  1  0.44576300  0.60569200  0.90310400  1
  O  O32  1  0.96068600  0.17882200  0.54453700  1
  O  O33  1  0.60569200  0.44576300  0.40310400  1
