# generated using pymatgen
data_YbCeS3
_symmetry_space_group_name_H-M   'P 1'
_cell_length_a   3.94090700
_cell_length_b   16.36866700
_cell_length_c   20.96376600
_cell_angle_alpha   90.00000000
_cell_angle_beta   90.00000000
_cell_angle_gamma   90.00000000
_symmetry_Int_Tables_number   1
_chemical_formula_structural   YbCeS3
_chemical_formula_sum   'Yb12 Ce12 S36'
_cell_volume   1352.31792065
_cell_formula_units_Z   12
loop_
 _symmetry_equiv_pos_site_id
 _symmetry_equiv_pos_as_xyz
  1  'x, y, z'
loop_
 _atom_site_type_symbol
 _atom_site_label
 _atom_site_symmetry_multiplicity
 _atom_site_fract_x
 _atom_site_fract_y
 _atom_site_fract_z
 _atom_site_occupancy
  Yb  Yb0  1  0.75000000  0.40523900  0.74564400  1
  Yb  Yb1  1  0.75000000  0.55582200  0.56946400  1
  Yb  Yb2  1  0.25000000  0.94417800  0.06946400  1
  Yb  Yb3  1  0.25000000  0.44417800  0.43053600  1
  Yb  Yb4  1  0.25000000  0.59476100  0.25435600  1
  Yb  Yb5  1  0.75000000  0.90523900  0.75435600  1
  Yb  Yb6  1  0.25000000  0.06523300  0.58026400  1
  Yb  Yb7  1  0.25000000  0.56523300  0.91973600  1
  Yb  Yb8  1  0.25000000  0.09476100  0.24564400  1
  Yb  Yb9  1  0.75000000  0.43476700  0.08026400  1
  Yb  Yb10  1  0.75000000  0.05582200  0.93053600  1
  Yb  Yb11  1  0.75000000  0.93476700  0.41973600  1
  Ce  Ce12  1  0.25000000  0.66256100  0.74848900  1
  Ce  Ce13  1  0.75000000  0.33743900  0.25151100  1
  Ce  Ce14  1  0.75000000  0.83743900  0.24848900  1
  Ce  Ce15  1  0.25000000  0.83167100  0.59061800  1
  Ce  Ce16  1  0.25000000  0.69516200  0.42373000  1
  Ce  Ce17  1  0.25000000  0.33167100  0.90938200  1
  Ce  Ce18  1  0.75000000  0.16832900  0.40938200  1
  Ce  Ce19  1  0.75000000  0.30483800  0.57627000  1
  Ce  Ce20  1  0.25000000  0.19516200  0.07627000  1
  Ce  Ce21  1  0.75000000  0.80483800  0.92373000  1
  Ce  Ce22  1  0.75000000  0.66832900  0.09061800  1
  Ce  Ce23  1  0.25000000  0.16256100  0.75151100  1
  S  S24  1  0.25000000  0.43572900  0.30026900  1
  S  S25  1  0.75000000  0.94559000  0.55419400  1
  S  S26  1  0.75000000  0.65176400  0.84612400  1
  S  S27  1  0.75000000  0.18807300  0.17894900  1
  S  S28  1  0.75000000  0.78547300  0.48299700  1
  S  S29  1  0.25000000  0.84823600  0.34612400  1
  S  S30  1  0.25000000  0.21452700  0.51700300  1
  S  S31  1  0.75000000  0.56867500  0.43768900  1
  S  S32  1  0.75000000  0.44559000  0.94580600  1
  S  S33  1  0.75000000  0.04209100  0.32075700  1
  S  S34  1  0.25000000  0.16809400  0.93900900  1
  S  S35  1  0.25000000  0.23228800  0.32296300  1
  S  S36  1  0.75000000  0.56427100  0.69973100  1
  S  S37  1  0.25000000  0.73228800  0.17703700  1
  S  S38  1  0.75000000  0.06867500  0.06231100  1
  S  S39  1  0.75000000  0.83190600  0.06099100  1
  S  S40  1  0.25000000  0.34823600  0.15387600  1
  S  S41  1  0.25000000  0.45790900  0.82075700  1
  S  S42  1  0.25000000  0.81192700  0.82105100  1
  S  S43  1  0.75000000  0.76771200  0.67703700  1
  S  S44  1  0.75000000  0.26771200  0.82296300  1
  S  S45  1  0.25000000  0.55441000  0.05419400  1
  S  S46  1  0.75000000  0.28547300  0.01700300  1
  S  S47  1  0.25000000  0.31192700  0.67894900  1
  S  S48  1  0.75000000  0.54209100  0.17924300  1
  S  S49  1  0.25000000  0.43132500  0.56231100  1
  S  S50  1  0.25000000  0.66809400  0.56099100  1
  S  S51  1  0.75000000  0.15176400  0.65387600  1
  S  S52  1  0.75000000  0.68807300  0.32105100  1
  S  S53  1  0.25000000  0.71452700  0.98299700  1
  S  S54  1  0.25000000  0.95790900  0.67924300  1
  S  S55  1  0.25000000  0.93132500  0.93768900  1
  S  S56  1  0.25000000  0.93572900  0.19973100  1
  S  S57  1  0.75000000  0.06427100  0.80026900  1
  S  S58  1  0.25000000  0.05441000  0.44580600  1
  S  S59  1  0.75000000  0.33190600  0.43900900  1
