# generated using pymatgen
data_K2Ba6Yb3Bi5O24
_symmetry_space_group_name_H-M   'P 1'
_cell_length_a   13.03283510
_cell_length_b   13.03283510
_cell_length_c   6.18031000
_cell_angle_alpha   90.00000000
_cell_angle_beta   90.00000000
_cell_angle_gamma   141.01153565
_symmetry_Int_Tables_number   1
_chemical_formula_structural   K2Ba6Yb3Bi5O24
_chemical_formula_sum   'K2 Ba6 Yb3 Bi5 O24'
_cell_volume   660.46812681
_cell_formula_units_Z   1
loop_
 _symmetry_equiv_pos_site_id
 _symmetry_equiv_pos_as_xyz
  1  'x, y, z'
loop_
 _atom_site_type_symbol
 _atom_site_label
 _atom_site_symmetry_multiplicity
 _atom_site_fract_x
 _atom_site_fract_y
 _atom_site_fract_z
 _atom_site_occupancy
  K  K0  1  0.50000000  0.00000000  0.50000000  1
  K  K1  1  0.00000000  0.50000000  0.50000000  1
  Ba  Ba2  1  0.37650900  0.12469100  0.00000000  1
  Ba  Ba3  1  0.87530900  0.62349100  0.00000000  1
  Ba  Ba4  1  0.74795400  0.74795400  0.50000000  1
  Ba  Ba5  1  0.62349100  0.87530900  0.00000000  1
  Ba  Ba6  1  0.25204600  0.25204600  0.50000000  1
  Ba  Ba7  1  0.12469100  0.37650900  0.00000000  1
  Yb  Yb8  1  0.00000000  0.00000000  0.00000000  1
  Yb  Yb9  1  0.62828500  0.37171500  0.50000000  1
  Yb  Yb10  1  0.37171500  0.62828500  0.50000000  1
  Bi  Bi11  1  0.50000000  0.50000000  0.00000000  1
  Bi  Bi12  1  0.87491400  0.12508600  0.50000000  1
  Bi  Bi13  1  0.74964000  0.25036000  0.00000000  1
  Bi  Bi14  1  0.25036000  0.74964000  0.00000000  1
  Bi  Bi15  1  0.12508600  0.87491400  0.50000000  1
  O  O16  1  0.36409000  0.11551300  0.50000000  1
  O  O17  1  0.56160700  0.43839300  0.24665000  1
  O  O18  1  0.56160700  0.43839300  0.75335000  1
  O  O19  1  0.43839300  0.56160700  0.24665000  1
  O  O20  1  0.43839300  0.56160700  0.75335000  1
  O  O21  1  0.88448700  0.63591000  0.50000000  1
  O  O22  1  0.74194600  0.74194600  0.00000000  1
  O  O23  1  0.63591000  0.88448700  0.50000000  1
  O  O24  1  0.50000000  0.00000000  0.00000000  1
  O  O25  1  0.06584200  0.93415800  0.25652000  1
  O  O26  1  0.06584200  0.93415800  0.74348000  1
  O  O27  1  0.93415800  0.06584200  0.74348000  1
  O  O28  1  0.93415800  0.06584200  0.25652000  1
  O  O29  1  0.81450200  0.18549800  0.23696100  1
  O  O30  1  0.81450200  0.18549800  0.76303900  1
  O  O31  1  0.68782800  0.31217200  0.77285600  1
  O  O32  1  0.68782800  0.31217200  0.22714400  1
  O  O33  1  0.25805400  0.25805400  0.00000000  1
  O  O34  1  0.00000000  0.50000000  0.00000000  1
  O  O35  1  0.11551300  0.36409000  0.50000000  1
  O  O36  1  0.31217200  0.68782800  0.22714400  1
  O  O37  1  0.31217200  0.68782800  0.77285600  1
  O  O38  1  0.18549800  0.81450200  0.76303900  1
  O  O39  1  0.18549800  0.81450200  0.23696100  1
