# generated using pymatgen
data_Mn14Sb13
_symmetry_space_group_name_H-M   'P 1'
_cell_length_a   9.04995822
_cell_length_b   9.04995822
_cell_length_c   18.60643859
_cell_angle_alpha   75.53407177
_cell_angle_beta   75.53407177
_cell_angle_gamma   46.34057891
_symmetry_Int_Tables_number   1
_chemical_formula_structural   Mn14Sb13
_chemical_formula_sum   'Mn28 Sb26'
_cell_volume   1060.99527395
_cell_formula_units_Z   2
loop_
 _symmetry_equiv_pos_site_id
 _symmetry_equiv_pos_as_xyz
  1  'x, y, z'
loop_
 _atom_site_type_symbol
 _atom_site_label
 _atom_site_symmetry_multiplicity
 _atom_site_fract_x
 _atom_site_fract_y
 _atom_site_fract_z
 _atom_site_occupancy
  Mn  Mn0  1  0.42483800  0.41946400  0.88409500  1
  Mn  Mn1  1  0.80470600  0.80992400  0.96353900  1
  Mn  Mn2  1  0.19529400  0.19007600  0.03646100  1
  Mn  Mn3  1  0.11799700  0.11280300  0.92219600  1
  Mn  Mn4  1  0.57516200  0.58053600  0.11590500  1
  Mn  Mn5  1  0.50000000  0.50000000  0.00000000  1
  Mn  Mn6  1  0.95857800  0.96768500  0.19226400  1
  Mn  Mn7  1  0.88200300  0.88719700  0.07780400  1
  Mn  Mn8  1  0.34652400  0.34594200  0.27129300  1
  Mn  Mn9  1  0.27386500  0.27022000  0.15453600  1
  Mn  Mn10  1  0.72978000  0.72613500  0.34546400  1
  Mn  Mn11  1  0.65405800  0.65347600  0.22870700  1
  Mn  Mn12  1  0.11280300  0.11799700  0.42219600  1
  Mn  Mn13  1  0.03231500  0.04142200  0.30773600  1
  Mn  Mn14  1  0.66563400  0.33436600  0.25000000  1
  Mn  Mn15  1  0.50000000  0.50000000  0.50000000  1
  Mn  Mn16  1  0.41946400  0.42483800  0.38409500  1
  Mn  Mn17  1  0.88719700  0.88200300  0.57780400  1
  Mn  Mn18  1  0.80992400  0.80470600  0.46353900  1
  Mn  Mn19  1  0.27022000  0.27386500  0.65453600  1
  Mn  Mn20  1  0.19007600  0.19529400  0.53646100  1
  Mn  Mn21  1  0.65347600  0.65405800  0.72870700  1
  Mn  Mn22  1  0.58053600  0.57516200  0.61590500  1
  Mn  Mn23  1  0.04142200  0.03231500  0.80773600  1
  Mn  Mn24  1  0.96768500  0.95857800  0.69226400  1
  Mn  Mn25  1  0.33436600  0.66563400  0.75000000  1
  Mn  Mn26  1  0.34594200  0.34652400  0.77129300  1
  Mn  Mn27  1  0.72613500  0.72978000  0.84546400  1
  Sb  Sb28  1  0.43674200  0.10228100  0.90399600  1
  Sb  Sb29  1  0.82109500  0.48716600  0.98124900  1
  Sb  Sb30  1  0.79620300  0.12818400  0.94151200  1
  Sb  Sb31  1  0.20379700  0.87181600  0.05848800  1
  Sb  Sb32  1  0.17890500  0.51283400  0.01875100  1
  Sb  Sb33  1  0.58903200  0.26208700  0.13708700  1
  Sb  Sb34  1  0.56325800  0.89771900  0.09600400  1
  Sb  Sb35  1  0.97396800  0.64266600  0.21201800  1
  Sb  Sb36  1  0.96458200  0.28208600  0.16782100  1
  Sb  Sb37  1  0.35733400  0.02603200  0.28798200  1
  Sb  Sb38  1  0.31204000  0.68796000  0.25000000  1
  Sb  Sb39  1  0.73791300  0.41096800  0.36291300  1
  Sb  Sb40  1  0.71791400  0.03541800  0.33217900  1
  Sb  Sb41  1  0.12818400  0.79620300  0.44151200  1
  Sb  Sb42  1  0.10228100  0.43674200  0.40399600  1
  Sb  Sb43  1  0.51283400  0.17890500  0.51875100  1
  Sb  Sb44  1  0.48716600  0.82109500  0.48124900  1
  Sb  Sb45  1  0.89771900  0.56325800  0.59600400  1
  Sb  Sb46  1  0.87181600  0.20379700  0.55848800  1
  Sb  Sb47  1  0.28208600  0.96458200  0.66782100  1
  Sb  Sb48  1  0.26208700  0.58903200  0.63708700  1
  Sb  Sb49  1  0.68796000  0.31204000  0.75000000  1
  Sb  Sb50  1  0.64266600  0.97396800  0.71201800  1
  Sb  Sb51  1  0.03541800  0.71791400  0.83217900  1
  Sb  Sb52  1  0.02603200  0.35733400  0.78798200  1
  Sb  Sb53  1  0.41096800  0.73791300  0.86291300  1
