# generated using pymatgen
data_Ti13S24
_symmetry_space_group_name_H-M   'P 1'
_cell_length_a   9.03085600
_cell_length_b   9.03660479
_cell_length_c   10.23329262
_cell_angle_alpha   112.28170142
_cell_angle_beta   112.31045799
_cell_angle_gamma   81.74900769
_symmetry_Int_Tables_number   1
_chemical_formula_structural   Ti13S24
_chemical_formula_sum   'Ti13 S24'
_cell_volume   714.91474816
_cell_formula_units_Z   1
loop_
 _symmetry_equiv_pos_site_id
 _symmetry_equiv_pos_as_xyz
  1  'x, y, z'
loop_
 _atom_site_type_symbol
 _atom_site_label
 _atom_site_symmetry_multiplicity
 _atom_site_fract_x
 _atom_site_fract_y
 _atom_site_fract_z
 _atom_site_occupancy
  Ti  Ti0  1  0.48861600  0.50485000  0.66490000  1
  Ti  Ti1  1  0.99538400  0.99472600  0.65863200  1
  Ti  Ti2  1  0.73938000  0.24075600  0.82649000  1
  Ti  Ti3  1  0.00000000  0.50000000  0.00000000  1
  Ti  Ti4  1  0.24829500  0.75997300  0.83224200  1
  Ti  Ti5  1  0.50000000  0.50000000  0.00000000  1
  Ti  Ti6  1  0.00000000  0.00000000  0.00000000  1
  Ti  Ti7  1  0.75170500  0.24002700  0.16775800  1
  Ti  Ti8  1  0.26062000  0.75924400  0.17351000  1
  Ti  Ti9  1  0.51138400  0.49515000  0.33510000  1
  Ti  Ti10  1  0.00461600  0.00527400  0.34136800  1
  Ti  Ti11  1  0.74844800  0.24222900  0.49515500  1
  Ti  Ti12  1  0.25155200  0.75777100  0.50484500  1
  S  S13  1  0.45891500  0.29533700  0.75142100  1
  S  S14  1  0.96291600  0.79729600  0.75331000  1
  S  S15  1  0.71099300  0.04108900  0.91793600  1
  S  S16  1  0.20872700  0.54537900  0.91830700  1
  S  S17  1  0.78977000  0.45455900  0.74971600  1
  S  S18  1  0.28616400  0.95969200  0.74811500  1
  S  S19  1  0.46532800  0.29732900  0.08707900  1
  S  S20  1  0.96166800  0.79228900  0.08561100  1
  S  S21  1  0.03833200  0.20771100  0.91438900  1
  S  S22  1  0.53467200  0.70267100  0.91292100  1
  S  S23  1  0.21023000  0.54544100  0.25028400  1
  S  S24  1  0.71383600  0.04030800  0.25188500  1
  S  S25  1  0.79127300  0.45462100  0.08169300  1
  S  S26  1  0.28900700  0.95891100  0.08206400  1
  S  S27  1  0.46430500  0.29762300  0.42057300  1
  S  S28  1  0.96304600  0.79497800  0.41712000  1
  S  S29  1  0.03708400  0.20270400  0.24669000  1
  S  S30  1  0.54108500  0.70466300  0.24857900  1
  S  S31  1  0.20911000  0.55025200  0.58574100  1
  S  S32  1  0.70798000  0.04066700  0.58208800  1
  S  S33  1  0.79089000  0.44974800  0.41425900  1
  S  S34  1  0.29202000  0.95933300  0.41791200  1
  S  S35  1  0.03695400  0.20502200  0.58288000  1
  S  S36  1  0.53569500  0.70237700  0.57942700  1
