# generated using pymatgen
data_BaSm5Al3Si9N20O
_symmetry_space_group_name_H-M   'P 1'
_cell_length_a   6.07295300
_cell_length_b   9.56262917
_cell_length_c   9.65272979
_cell_angle_alpha   60.84709918
_cell_angle_beta   89.90854258
_cell_angle_gamma   89.94651866
_symmetry_Int_Tables_number   1
_chemical_formula_structural   BaSm5Al3Si9N20O
_chemical_formula_sum   'Ba1 Sm5 Al3 Si9 N20 O1'
_cell_volume   489.55515924
_cell_formula_units_Z   1
loop_
 _symmetry_equiv_pos_site_id
 _symmetry_equiv_pos_as_xyz
  1  'x, y, z'
loop_
 _atom_site_type_symbol
 _atom_site_label
 _atom_site_symmetry_multiplicity
 _atom_site_fract_x
 _atom_site_fract_y
 _atom_site_fract_z
 _atom_site_occupancy
  Ba  Ba0  1  0.00017200  0.00479600  0.99788900  1
  Sm  Sm1  1  0.49876600  0.75555300  0.99681900  1
  Sm  Sm2  1  0.49628600  0.33093400  0.33051700  1
  Sm  Sm3  1  0.50150600  0.00030900  0.24545500  1
  Sm  Sm4  1  0.50614600  0.66389900  0.67231100  1
  Sm  Sm5  1  0.49859500  0.24454300  0.75808800  1
  Al  Al6  1  0.98603000  0.17822000  0.28348200  1
  Al  Al7  1  0.01604100  0.71807200  0.81873600  1
  Al  Al8  1  0.01544100  0.46578100  0.71657600  1
  Si  Si9  1  0.74116000  0.39297200  0.99024900  1
  Si  Si10  1  0.98393000  0.52750300  0.18616200  1
  Si  Si11  1  0.74764000  0.61353000  0.39502900  1
  Si  Si12  1  0.98469600  0.28868200  0.52318500  1
  Si  Si13  1  0.74549000  0.99033000  0.61480400  1
  Si  Si14  1  0.25448700  0.01231100  0.60470200  1
  Si  Si15  1  0.01824200  0.80977500  0.47682100  1
  Si  Si16  1  0.25041000  0.60417300  0.38425200  1
  Si  Si17  1  0.25695900  0.38026300  0.01440300  1
  N  N18  1  0.99701800  0.50770100  0.00889700  1
  N  N19  1  0.49831300  0.48806900  0.00249100  1
  N  N20  1  0.78581300  0.65150600  0.20022800  1
  N  N21  1  0.24433500  0.57739800  0.21921500  1
  N  N22  1  0.77196900  0.19913700  0.14068500  1
  N  N23  1  0.26306000  0.21684600  0.20061400  1
  N  N24  1  0.90599500  0.33701600  0.33274400  1
  N  N25  1  0.24466000  0.20818500  0.57050500  1
  N  N26  1  0.00121200  0.99194800  0.49252000  1
  N  N27  1  0.78699200  0.15482300  0.64388700  1
  N  N28  1  0.50078500  0.00555200  0.51120300  1
  N  N29  1  0.20879900  0.79952200  0.34680700  1
  N  N30  1  0.75639100  0.77665600  0.42688500  1
  N  N31  1  0.22535800  0.86774400  0.79998000  1
  N  N32  1  0.49832900  0.51700800  0.48095400  1
  N  N33  1  0.73855200  0.80548800  0.78069600  1
  N  N34  1  0.10447900  0.67028700  0.66246800  1
  N  N35  1  0.99742500  0.48498400  0.50699700  1
  N  N36  1  0.73790100  0.41995200  0.80065300  1
  N  N37  1  0.22317800  0.33861000  0.86154500  1
  O  O38  1  0.50743900  0.99992000  0.00054500  1
