# generated using pymatgen
data_HCl
_symmetry_space_group_name_H-M   'P 1'
_cell_length_a   4.18273556
_cell_length_b   4.18273556
_cell_length_c   4.18273556
_cell_angle_alpha   118.92144051
_cell_angle_beta   117.43549223
_cell_angle_gamma   93.18960648
_symmetry_Int_Tables_number   1
_chemical_formula_structural   HCl
_chemical_formula_sum   'H1 Cl1'
_cell_volume   53.06999814
_cell_formula_units_Z   1
loop_
 _symmetry_equiv_pos_site_id
 _symmetry_equiv_pos_as_xyz
  1  'x, y, z'
loop_
 _atom_site_type_symbol
 _atom_site_label
 _atom_site_symmetry_multiplicity
 _atom_site_fract_x
 _atom_site_fract_y
 _atom_site_fract_z
 _atom_site_occupancy
  H  H0  1  0.31347600  0.00000000  0.31347600  1
  Cl  Cl1  1  0.01852400  0.00000000  0.01852400  1
