# generated using pymatgen
data_Zr19O40
_symmetry_space_group_name_H-M   'P 1'
_cell_length_a   8.16520300
_cell_length_b   8.17058614
_cell_length_c   11.16642157
_cell_angle_alpha   98.56666411
_cell_angle_beta   107.07788228
_cell_angle_gamma   89.96974130
_symmetry_Int_Tables_number   1
_chemical_formula_structural   Zr19O40
_chemical_formula_sum   'Zr19 O40'
_cell_volume   703.43286145
_cell_formula_units_Z   1
loop_
 _symmetry_equiv_pos_site_id
 _symmetry_equiv_pos_as_xyz
  1  'x, y, z'
loop_
 _atom_site_type_symbol
 _atom_site_label
 _atom_site_symmetry_multiplicity
 _atom_site_fract_x
 _atom_site_fract_y
 _atom_site_fract_z
 _atom_site_occupancy
  Zr  Zr0  1  0.59916000  0.17534300  0.62374200  1
  Zr  Zr1  1  0.39271700  0.07354000  0.12180100  1
  Zr  Zr2  1  0.79953700  0.02717100  0.37436500  1
  Zr  Zr3  1  0.00068200  0.12020700  0.87861500  1
  Zr  Zr4  1  0.00020600  0.37661700  0.62658800  1
  Zr  Zr5  1  0.79927100  0.27413100  0.12564700  1
  Zr  Zr6  1  0.20064600  0.22400800  0.37552200  1
  Zr  Zr7  1  0.40234200  0.33081400  0.87895500  1
  Zr  Zr8  1  0.40026800  0.58140600  0.62782000  1
  Zr  Zr9  1  0.20512400  0.47846300  0.12288400  1
  Zr  Zr10  1  0.80423200  0.52362600  0.87214900  1
  Zr  Zr11  1  0.59948900  0.42430700  0.37475100  1
  Zr  Zr12  1  0.80434100  0.76682400  0.62770500  1
  Zr  Zr13  1  0.59737300  0.67337600  0.12409600  1
  Zr  Zr14  1  0.99765200  0.62438300  0.37407500  1
  Zr  Zr15  1  0.00434300  0.87453600  0.12461300  1
  Zr  Zr16  1  0.20028200  0.97440500  0.62536900  1
  Zr  Zr17  1  0.39822500  0.82479300  0.37629100  1
  Zr  Zr18  1  0.59227700  0.92640100  0.86995100  1
  O  O19  1  0.35930800  0.05424600  0.52467900  1
  O  O20  1  0.46364400  0.11222400  0.77514300  1
  O  O21  1  0.26086900  0.00360200  0.27363200  1
  O  O22  1  0.83219600  0.04770700  0.97155900  1
  O  O23  1  0.76066900  0.25582900  0.52614400  1
  O  O24  1  0.85717100  0.29869500  0.77777400  1
  O  O25  1  0.66333400  0.20834800  0.27590500  1
  O  O26  1  0.55732600  0.15655900  0.02645200  1
  O  O27  1  0.04009800  0.14423700  0.47377400  1
  O  O28  1  0.23891700  0.24435300  0.97286300  1
  O  O29  1  0.13921700  0.19469600  0.72404500  1
  O  O30  1  0.93942500  0.09351100  0.22262000  1
  O  O31  1  0.96498400  0.35441800  0.03060000  1
  O  O32  1  0.05820300  0.40343400  0.28032500  1
  O  O33  1  0.16369400  0.45232700  0.52768400  1
  O  O34  1  0.26050200  0.49205400  0.76346900  1
  O  O35  1  0.53972400  0.39748800  0.72241300  1
  O  O36  1  0.44132100  0.34199900  0.47290000  1
  O  O37  1  0.64556700  0.44152800  0.97390600  1
  O  O38  1  0.33990300  0.29615500  0.22432900  1
  O  O39  1  0.66153300  0.70558300  0.77783600  1
  O  O40  1  0.37012600  0.53979200  0.02572100  1
  O  O41  1  0.46079100  0.60705900  0.27479000  1
  O  O42  1  0.55957600  0.65577900  0.52484200  1
  O  O43  1  0.03307500  0.64221800  0.98895700  1
  O  O44  1  0.92339500  0.58256900  0.72439300  1
  O  O45  1  0.84146500  0.54550800  0.47617700  1
  O  O46  1  0.74015900  0.49552600  0.22454600  1
  O  O47  1  0.05012500  0.91275700  0.76295100  1
  O  O48  1  0.86169800  0.80570200  0.27893700  1
  O  O49  1  0.76219600  0.75505900  0.02871200  1
  O  O50  1  0.95779600  0.85794200  0.52696900  1
  O  O51  1  0.45710300  0.85106800  0.98568600  1
  O  O52  1  0.14065200  0.69433700  0.22755600  1
  O  O53  1  0.35554700  0.80643100  0.72218700  1
  O  O54  1  0.23781100  0.74413800  0.47523900  1
  O  O55  1  0.14990200  0.96969100  0.02540600  1
  O  O56  1  0.73692900  0.99066700  0.71885900  1
  O  O57  1  0.54160500  0.89693000  0.22147700  1
  O  O58  1  0.63427500  0.94848200  0.46860300  1
