# generated using pymatgen
data_Ti3Fe7O15
_symmetry_space_group_name_H-M   'P 1'
_cell_length_a   5.50106000
_cell_length_b   8.92983256
_cell_length_c   11.71415758
_cell_angle_alpha   75.14625319
_cell_angle_beta   81.52458682
_cell_angle_gamma   74.57109235
_symmetry_Int_Tables_number   1
_chemical_formula_structural   Ti3Fe7O15
_chemical_formula_sum   'Ti6 Fe14 O30'
_cell_volume   534.22677684
_cell_formula_units_Z   2
loop_
 _symmetry_equiv_pos_site_id
 _symmetry_equiv_pos_as_xyz
  1  'x, y, z'
loop_
 _atom_site_type_symbol
 _atom_site_label
 _atom_site_symmetry_multiplicity
 _atom_site_fract_x
 _atom_site_fract_y
 _atom_site_fract_z
 _atom_site_occupancy
  Ti  Ti0  1  0.35360600  0.97206000  0.91232700  1
  Ti  Ti1  1  0.74900600  0.76589700  0.31379000  1
  Ti  Ti2  1  0.15677800  0.57324200  0.70944600  1
  Ti  Ti3  1  0.14822900  0.07060000  0.21112700  1
  Ti  Ti4  1  0.54462200  0.37214400  0.10894000  1
  Ti  Ti5  1  0.95087300  0.17356000  0.51843800  1
  Fe  Fe6  1  0.05704200  0.82984500  0.48701900  1
  Fe  Fe7  1  0.55880600  0.86704100  0.61208100  1
  Fe  Fe8  1  0.45999100  0.62796300  0.88512000  1
  Fe  Fe9  1  0.95419300  0.67407400  0.00891300  1
  Fe  Fe10  1  0.84712000  0.92904500  0.78944200  1
  Fe  Fe11  1  0.85782200  0.43043200  0.28361500  1
  Fe  Fe12  1  0.35242100  0.47011700  0.41264900  1
  Fe  Fe13  1  0.24935700  0.72815400  0.18742700  1
  Fe  Fe14  1  0.26074900  0.22781600  0.68405000  1
  Fe  Fe15  1  0.75283800  0.27244700  0.81215100  1
  Fe  Fe16  1  0.64575500  0.53079900  0.59051400  1
  Fe  Fe17  1  0.64510200  0.03006200  0.08811500  1
  Fe  Fe18  1  0.04616700  0.32797500  0.98495400  1
  Fe  Fe19  1  0.45153400  0.12995600  0.38825800  1
  O  O20  1  0.95406200  0.93755300  0.19272400  1
  O  O21  1  0.67304800  0.90547900  0.42021600  1
  O  O22  1  0.53296300  0.84267800  0.78680300  1
  O  O23  1  0.33506000  0.73587300  0.60162000  1
  O  O24  1  0.06490300  0.70578800  0.82602500  1
  O  O25  1  0.93332600  0.64482100  0.18328000  1
  O  O26  1  0.85373100  0.98649100  0.60930800  1
  O  O27  1  0.71860500  0.88309400  0.97002300  1
  O  O28  1  0.75020300  0.52294400  0.00231100  1
  O  O29  1  0.46862500  0.86498600  0.21381600  1
  O  O30  1  0.46997700  0.50431500  0.22093300  1
  O  O31  1  0.31975200  0.44070300  0.58396900  1
  O  O32  1  0.26071800  0.78345400  0.00987100  1
  O  O33  1  0.11435100  0.68301900  0.36471000  1
  O  O34  1  0.14780000  0.32653000  0.39667800  1
  O  O35  1  0.86750900  0.66742000  0.62324400  1
  O  O36  1  0.87134300  0.29592000  0.62718000  1
  O  O37  1  0.73662800  0.23642900  0.98769400  1
  O  O38  1  0.64621900  0.58916200  0.40325000  1
  O  O39  1  0.50898900  0.47618500  0.77537000  1
  O  O40  1  0.54774200  0.12684100  0.79943700  1
  O  O41  1  0.26453600  0.45777800  0.02201700  1
  O  O42  1  0.27652100  0.10730800  0.02510300  1
  O  O43  1  0.13795600  0.03969300  0.37486600  1
  O  O44  1  0.05232200  0.38455100  0.81047800  1
  O  O45  1  0.93012600  0.27018300  0.17054400  1
  O  O46  1  0.67019000  0.26124700  0.41795100  1
  O  O47  1  0.46280800  0.18000700  0.20833700  1
  O  O48  1  0.31719200  0.07689600  0.56334300  1
  O  O49  1  0.07078200  0.05942300  0.82052200  1
