# generated using pymatgen
data_Ti7Fe13O30
_symmetry_space_group_name_H-M   'P 1'
_cell_length_a   5.15220300
_cell_length_b   5.54552771
_cell_length_c   21.27716947
_cell_angle_alpha   94.76433519
_cell_angle_beta   89.98436813
_cell_angle_gamma   117.66930897
_symmetry_Int_Tables_number   1
_chemical_formula_structural   Ti7Fe13O30
_chemical_formula_sum   'Ti7 Fe13 O30'
_cell_volume   536.03817602
_cell_formula_units_Z   1
loop_
 _symmetry_equiv_pos_site_id
 _symmetry_equiv_pos_as_xyz
  1  'x, y, z'
loop_
 _atom_site_type_symbol
 _atom_site_label
 _atom_site_symmetry_multiplicity
 _atom_site_fract_x
 _atom_site_fract_y
 _atom_site_fract_z
 _atom_site_occupancy
  Ti  Ti0  1  0.19702200  0.42016600  0.03028100  1
  Ti  Ti1  1  0.88175900  0.79927900  0.12895800  1
  Ti  Ti2  1  0.01334100  0.00875200  0.42877700  1
  Ti  Ti3  1  0.31711600  0.61344900  0.33103600  1
  Ti  Ti4  1  0.40302200  0.81613800  0.62635800  1
  Ti  Ti5  1  0.69324900  0.39285500  0.67165500  1
  Ti  Ti6  1  0.09539400  0.19155400  0.87121800  1
  Fe  Fe7  1  0.49323400  0.00117400  0.07259500  1
  Fe  Fe8  1  0.59756800  0.19510300  0.23104800  1
  Fe  Fe9  1  0.88972800  0.79014400  0.27079600  1
  Fe  Fe10  1  0.17745400  0.37893700  0.17290800  1
  Fe  Fe11  1  0.29732500  0.58111200  0.47054500  1
  Fe  Fe12  1  0.60740500  0.20080500  0.37183900  1
  Fe  Fe13  1  0.70456000  0.40352700  0.52426500  1
  Fe  Fe14  1  0.80692800  0.61832700  0.83098700  1
  Fe  Fe15  1  0.99319800  0.99479500  0.56672400  1
  Fe  Fe16  1  0.10695200  0.20965200  0.72930700  1
  Fe  Fe17  1  0.40075500  0.79895100  0.77394900  1
  Fe  Fe18  1  0.50577000  0.00394900  0.93138000  1
  Fe  Fe19  1  0.79742500  0.57909800  0.96901600  1
  O  O20  1  0.21625400  0.17996700  0.08481700  1
  O  O21  1  0.75646100  0.09049100  0.14922900  1
  O  O22  1  0.79691500  0.24474600  0.00710400  1
  O  O23  1  0.62347900  0.56032600  0.18379700  1
  O  O24  1  0.65770200  0.68399400  0.05264400  1
  O  O25  1  0.62919700  0.94990800  0.29109700  1
  O  O26  1  0.13851600  0.62862600  0.11071500  1
  O  O27  1  0.12591900  0.88759000  0.35211500  1
  O  O28  1  0.15069400  0.02824800  0.20758300  1
  O  O29  1  0.05885600  0.37241000  0.38654900  1
  O  O30  1  0.07290400  0.51612200  0.25360400  1
  O  O31  1  0.03448800  0.77882800  0.48799200  1
  O  O32  1  0.55066300  0.45370700  0.30863700  1
  O  O33  1  0.54630600  0.71379500  0.55732500  1
  O  O34  1  0.59892600  0.84033300  0.41206900  1
  O  O35  1  0.42086600  0.14557000  0.59334700  1
  O  O36  1  0.43348700  0.28774300  0.44971700  1
  O  O37  1  0.44532800  0.56455700  0.68674300  1
  O  O38  1  0.97933300  0.23932600  0.51153900  1
  O  O39  1  0.92642400  0.49400500  0.74653400  1
  O  O40  1  0.98282800  0.63327800  0.61648500  1
  O  O41  1  0.85426000  0.96635100  0.78930300  1
  O  O42  1  0.84889300  0.10440400  0.65096100  1
  O  O43  1  0.83995000  0.35184100  0.88433500  1
  O  O44  1  0.37990800  0.05819900  0.70926800  1
  O  O45  1  0.32918400  0.29785600  0.94858900  1
  O  O46  1  0.36486700  0.42543600  0.81406400  1
  O  O47  1  0.24429900  0.76003200  0.98891200  1
  O  O48  1  0.24702700  0.90043600  0.85395600  1
  O  O49  1  0.76686500  0.84411100  0.90732600  1
