# generated using pymatgen
data_Zr27O49
_symmetry_space_group_name_H-M   'P 1'
_cell_length_a   3.63211897
_cell_length_b   3.63211897
_cell_length_c   80.44755100
_cell_angle_alpha   90.00000000
_cell_angle_beta   90.00000000
_cell_angle_gamma   119.99998123
_symmetry_Int_Tables_number   1
_chemical_formula_structural   Zr27O49
_chemical_formula_sum   'Zr27 O49'
_cell_volume   919.10191781
_cell_formula_units_Z   1
loop_
 _symmetry_equiv_pos_site_id
 _symmetry_equiv_pos_as_xyz
  1  'x, y, z'
loop_
 _atom_site_type_symbol
 _atom_site_label
 _atom_site_symmetry_multiplicity
 _atom_site_fract_x
 _atom_site_fract_y
 _atom_site_fract_z
 _atom_site_occupancy
  Zr  Zr0  1  0.33333300  0.66666700  0.99977000  1
  Zr  Zr1  1  0.66666700  0.33333300  0.96376200  1
  Zr  Zr2  1  0.00000000  0.00000000  0.92636700  1
  Zr  Zr3  1  0.33333300  0.66666700  0.88883800  1
  Zr  Zr4  1  0.66666700  0.33333300  0.85288000  1
  Zr  Zr5  1  0.00000000  0.00000000  0.81462800  1
  Zr  Zr6  1  0.33333300  0.66666700  0.77868300  1
  Zr  Zr7  1  0.66666700  0.33333300  0.74109200  1
  Zr  Zr8  1  0.00000000  0.00000000  0.70362600  1
  Zr  Zr9  1  0.33333300  0.66666700  0.66739000  1
  Zr  Zr10  1  0.66666700  0.33333300  0.62983500  1
  Zr  Zr11  1  0.00000000  0.00000000  0.59237200  1
  Zr  Zr12  1  0.33333300  0.66666700  0.55613900  1
  Zr  Zr13  1  0.66666700  0.33333300  0.51855800  1
  Zr  Zr14  1  0.00000000  0.00000000  0.48163300  1
  Zr  Zr15  1  0.33333300  0.66666700  0.44459200  1
  Zr  Zr16  1  0.66666700  0.33333300  0.40754200  1
  Zr  Zr17  1  0.00000000  0.00000000  0.37046700  1
  Zr  Zr18  1  0.33333300  0.66666700  0.33339700  1
  Zr  Zr19  1  0.00000000  0.00000000  0.25934000  1
  Zr  Zr20  1  0.66666700  0.33333300  0.29634600  1
  Zr  Zr21  1  0.33333300  0.66666700  0.22234900  1
  Zr  Zr22  1  0.66666700  0.33333300  0.18532100  1
  Zr  Zr23  1  0.00000000  0.00000000  0.14826700  1
  Zr  Zr24  1  0.33333300  0.66666700  0.11122400  1
  Zr  Zr25  1  0.66666700  0.33333300  0.07411100  1
  Zr  Zr26  1  0.00000000  0.00000000  0.03715800  1
  O  O27  1  0.00000000  0.00000000  0.95384600  1
  O  O28  1  0.33333300  0.66666700  0.97306500  1
  O  O29  1  0.33333300  0.66666700  0.91633200  1
  O  O30  1  0.66666700  0.33333300  0.93492100  1
  O  O31  1  0.00000000  0.00000000  0.89619900  1
  O  O32  1  0.00000000  0.00000000  0.84298700  1
  O  O33  1  0.33333300  0.66666700  0.86230600  1
  O  O34  1  0.66666700  0.33333300  0.82187200  1
  O  O35  1  0.66666700  0.33333300  0.76887700  1
  O  O36  1  0.00000000  0.00000000  0.78810500  1
  O  O37  1  0.00000000  0.00000000  0.73123100  1
  O  O38  1  0.33333300  0.66666700  0.74985200  1
  O  O39  1  0.66666700  0.33333300  0.71108000  1
  O  O40  1  0.66666700  0.33333300  0.65783200  1
  O  O41  1  0.00000000  0.00000000  0.67706000  1
  O  O42  1  0.00000000  0.00000000  0.62015700  1
  O  O43  1  0.33333300  0.66666700  0.63881000  1
  O  O44  1  0.66666700  0.33333300  0.59998800  1
  O  O45  1  0.66666700  0.33333300  0.54688600  1
  O  O46  1  0.00000000  0.00000000  0.50911000  1
  O  O47  1  0.00000000  0.00000000  0.56597000  1
  O  O48  1  0.33333300  0.66666700  0.52770800  1
  O  O49  1  0.33333300  0.66666700  0.47215700  1
  O  O50  1  0.66666700  0.33333300  0.43511600  1
  O  O51  1  0.66666700  0.33333300  0.49073100  1
  O  O52  1  0.00000000  0.00000000  0.45367300  1
  O  O53  1  0.00000000  0.00000000  0.39808500  1
  O  O54  1  0.33333300  0.66666700  0.41665300  1
  O  O55  1  0.33333300  0.66666700  0.36105100  1
  O  O56  1  0.66666700  0.33333300  0.37961200  1
  O  O57  1  0.66666700  0.33333300  0.32401600  1
  O  O58  1  0.00000000  0.00000000  0.34257000  1
  O  O59  1  0.00000000  0.00000000  0.28700900  1
  O  O60  1  0.33333300  0.66666700  0.30553900  1
  O  O61  1  0.33333300  0.66666700  0.25001000  1
  O  O62  1  0.66666700  0.33333300  0.26853900  1
  O  O63  1  0.66666700  0.33333300  0.21297800  1
  O  O64  1  0.00000000  0.00000000  0.23154900  1
  O  O65  1  0.00000000  0.00000000  0.17589100  1
  O  O66  1  0.33333300  0.66666700  0.19450600  1
  O  O67  1  0.33333300  0.66666700  0.13879300  1
  O  O68  1  0.66666700  0.33333300  0.10169600  1
  O  O69  1  0.66666700  0.33333300  0.15739900  1
  O  O70  1  0.00000000  0.00000000  0.12031700  1
  O  O71  1  0.00000000  0.00000000  0.06443500  1
  O  O72  1  0.33333300  0.66666700  0.08319100  1
  O  O73  1  0.33333300  0.66666700  0.02743400  1
  O  O74  1  0.66666700  0.33333300  0.04611900  1
  O  O75  1  0.00000000  0.00000000  0.00735000  1
