# generated using pymatgen
data_BaYbAl2SiN5O2
_symmetry_space_group_name_H-M   'P 1'
_cell_length_a   6.55192955
_cell_length_b   6.55192955
_cell_length_c   8.92239831
_cell_angle_alpha   84.98767608
_cell_angle_beta   84.98767608
_cell_angle_gamma   122.33698424
_symmetry_Int_Tables_number   1
_chemical_formula_structural   BaYbAl2SiN5O2
_chemical_formula_sum   'Ba2 Yb2 Al4 Si2 N10 O4'
_cell_volume   318.26322442
_cell_formula_units_Z   2
loop_
 _symmetry_equiv_pos_site_id
 _symmetry_equiv_pos_as_xyz
  1  'x, y, z'
loop_
 _atom_site_type_symbol
 _atom_site_label
 _atom_site_symmetry_multiplicity
 _atom_site_fract_x
 _atom_site_fract_y
 _atom_site_fract_z
 _atom_site_occupancy
  Ba  Ba0  1  0.66789800  0.39738000  0.82021900  1
  Ba  Ba1  1  0.39738000  0.66789800  0.32021900  1
  Yb  Yb2  1  0.71158400  0.29007700  0.20691600  1
  Yb  Yb3  1  0.29007700  0.71158400  0.70691600  1
  Al  Al4  1  0.34860900  0.16488000  0.52543900  1
  Al  Al5  1  0.80132300  0.14156600  0.56689500  1
  Al  Al6  1  0.16488000  0.34860900  0.02543900  1
  Al  Al7  1  0.14156600  0.80132300  0.06689500  1
  Si  Si8  1  0.87130200  0.63508500  0.45639200  1
  Si  Si9  1  0.63508500  0.87130200  0.95639200  1
  N  N10  1  0.99817800  0.00770500  0.96509600  1
  N  N11  1  0.48923200  0.98940200  0.05228500  1
  N  N12  1  0.49587000  0.56401600  0.00854400  1
  N  N13  1  0.02519800  0.51934600  0.98456600  1
  N  N14  1  0.98940200  0.48923200  0.55228500  1
  N  N15  1  0.01446200  0.91380900  0.83165800  1
  N  N16  1  0.56401600  0.49587000  0.50854400  1
  N  N17  1  0.00770500  0.99817800  0.46509600  1
  N  N18  1  0.51934600  0.02519800  0.48456600  1
  N  N19  1  0.91380900  0.01446200  0.33165800  1
  O  O20  1  0.24064300  0.05447700  0.73721600  1
  O  O21  1  0.67860400  0.97933900  0.76627300  1
  O  O22  1  0.05447700  0.24064300  0.23721600  1
  O  O23  1  0.97933900  0.67860400  0.26627300  1
