# generated using pymatgen
data_Sr8Ru7O24
_symmetry_space_group_name_H-M   'P 1'
_cell_length_a   5.59062300
_cell_length_b   5.59062300
_cell_length_c   48.37201600
_cell_angle_alpha   90.00000000
_cell_angle_beta   90.00000000
_cell_angle_gamma   90.00000000
_symmetry_Int_Tables_number   1
_chemical_formula_structural   Sr8Ru7O24
_chemical_formula_sum   'Sr24 Ru21 O72'
_cell_volume   1511.87052981
_cell_formula_units_Z   3
loop_
 _symmetry_equiv_pos_site_id
 _symmetry_equiv_pos_as_xyz
  1  'x, y, z'
loop_
 _atom_site_type_symbol
 _atom_site_label
 _atom_site_symmetry_multiplicity
 _atom_site_fract_x
 _atom_site_fract_y
 _atom_site_fract_z
 _atom_site_occupancy
  Sr  Sr0  1  0.00000000  0.50000000  0.03792000  1
  Sr  Sr1  1  0.50000000  0.00000000  0.12819600  1
  Sr  Sr2  1  0.50000000  0.00000000  0.03792000  1
  Sr  Sr3  1  0.00000000  0.50000000  0.20362000  1
  Sr  Sr4  1  0.00000000  0.50000000  0.12819600  1
  Sr  Sr5  1  0.50000000  0.00000000  0.29117200  1
  Sr  Sr6  1  0.50000000  0.00000000  0.20362000  1
  Sr  Sr7  1  0.00000000  0.50000000  0.37498800  1
  Sr  Sr8  1  0.00000000  0.50000000  0.29117200  1
  Sr  Sr9  1  0.50000000  0.00000000  0.45832400  1
  Sr  Sr10  1  0.50000000  0.00000000  0.37498800  1
  Sr  Sr11  1  0.00000000  0.50000000  0.54167600  1
  Sr  Sr12  1  0.00000000  0.50000000  0.45832400  1
  Sr  Sr13  1  0.50000000  0.00000000  0.62501200  1
  Sr  Sr14  1  0.50000000  0.00000000  0.54167600  1
  Sr  Sr15  1  0.00000000  0.50000000  0.70882800  1
  Sr  Sr16  1  0.00000000  0.50000000  0.62501200  1
  Sr  Sr17  1  0.50000000  0.00000000  0.79638000  1
  Sr  Sr18  1  0.50000000  0.00000000  0.70882800  1
  Sr  Sr19  1  0.00000000  0.50000000  0.87180400  1
  Sr  Sr20  1  0.00000000  0.50000000  0.79638000  1
  Sr  Sr21  1  0.50000000  0.00000000  0.96208000  1
  Sr  Sr22  1  0.50000000  0.00000000  0.87180400  1
  Sr  Sr23  1  0.00000000  0.50000000  0.96208000  1
  Ru  Ru24  1  0.50000000  0.50000000  0.08252900  1
  Ru  Ru25  1  0.00000000  0.00000000  0.08367600  1
  Ru  Ru26  1  0.50000000  0.50000000  0.24954400  1
  Ru  Ru27  1  0.50000000  0.50000000  0.16582400  1
  Ru  Ru28  1  0.00000000  0.00000000  0.33317400  1
  Ru  Ru29  1  0.00000000  0.00000000  0.24903100  1
  Ru  Ru30  1  0.50000000  0.50000000  0.41675400  1
  Ru  Ru31  1  0.50000000  0.50000000  0.33307500  1
  Ru  Ru32  1  0.00000000  0.00000000  0.50000000  1
  Ru  Ru33  1  0.00000000  0.00000000  0.41682000  1
  Ru  Ru34  1  0.50000000  0.50000000  0.58324600  1
  Ru  Ru35  1  0.50000000  0.50000000  0.50000000  1
  Ru  Ru36  1  0.00000000  0.00000000  0.66682600  1
  Ru  Ru37  1  0.00000000  0.00000000  0.58318000  1
  Ru  Ru38  1  0.50000000  0.50000000  0.75045600  1
  Ru  Ru39  1  0.50000000  0.50000000  0.66692500  1
  Ru  Ru40  1  0.00000000  0.00000000  0.75096900  1
  Ru  Ru41  1  0.50000000  0.50000000  0.91747100  1
  Ru  Ru42  1  0.50000000  0.50000000  0.83417600  1
  Ru  Ru43  1  0.00000000  0.00000000  0.00000000  1
  Ru  Ru44  1  0.00000000  0.00000000  0.91632400  1
  O  O45  1  0.50000000  0.50000000  0.04483900  1
  O  O46  1  0.80005900  0.69891000  0.08350800  1
  O  O47  1  0.30109000  0.80005900  0.08350800  1
  O  O48  1  0.00000000  0.00000000  0.12179200  1
  O  O49  1  0.00000000  0.00000000  0.04153300  1
  O  O50  1  0.28405400  0.23796600  0.16688700  1
  O  O51  1  0.69891000  0.19994100  0.08350800  1
  O  O52  1  0.76203400  0.28405400  0.16688700  1
  O  O53  1  0.19994100  0.30109000  0.08350800  1
  O  O54  1  0.50000000  0.50000000  0.20930700  1
  O  O55  1  0.50000000  0.50000000  0.12533400  1
  O  O56  1  0.79466300  0.70510500  0.25099800  1
  O  O57  1  0.23796600  0.71594600  0.16688700  1
  O  O58  1  0.29489500  0.79466300  0.25099800  1
  O  O59  1  0.71594600  0.76203400  0.16688700  1
  O  O60  1  0.00000000  0.00000000  0.29271500  1
  O  O61  1  0.00000000  0.00000000  0.21099800  1
  O  O62  1  0.29442900  0.20536500  0.33368000  1
  O  O63  1  0.70510500  0.20533700  0.25099800  1
  O  O64  1  0.79463500  0.29442900  0.33368000  1
  O  O65  1  0.20533700  0.29489500  0.25099800  1
  O  O66  1  0.50000000  0.50000000  0.37514700  1
  O  O67  1  0.50000000  0.50000000  0.29168900  1
  O  O68  1  0.79557900  0.70399500  0.41686900  1
  O  O69  1  0.20536500  0.70557100  0.33368000  1
  O  O70  1  0.29600500  0.79557900  0.41686900  1
  O  O71  1  0.70557100  0.79463500  0.33368000  1
  O  O72  1  0.00000000  0.00000000  0.45854400  1
  O  O73  1  0.00000000  0.00000000  0.37547700  1
  O  O74  1  0.29553200  0.20447100  0.50000000  1
  O  O75  1  0.70399500  0.20442100  0.41686900  1
  O  O76  1  0.79552900  0.29553200  0.50000000  1
  O  O77  1  0.20442100  0.29600500  0.41686900  1
  O  O78  1  0.50000000  0.50000000  0.54156400  1
  O  O79  1  0.50000000  0.50000000  0.45843600  1
  O  O80  1  0.79557900  0.70399500  0.58313100  1
  O  O81  1  0.20447100  0.70446800  0.50000000  1
  O  O82  1  0.29600500  0.79557900  0.58313100  1
  O  O83  1  0.70446800  0.79552900  0.50000000  1
  O  O84  1  0.00000000  0.00000000  0.62452300  1
  O  O85  1  0.00000000  0.00000000  0.54145600  1
  O  O86  1  0.29442900  0.20536500  0.66632000  1
  O  O87  1  0.70399500  0.20442100  0.58313100  1
  O  O88  1  0.79463500  0.29442900  0.66632000  1
  O  O89  1  0.20442100  0.29600500  0.58313100  1
  O  O90  1  0.50000000  0.50000000  0.70831100  1
  O  O91  1  0.50000000  0.50000000  0.62485300  1
  O  O92  1  0.79466300  0.70510500  0.74900200  1
  O  O93  1  0.20536500  0.70557100  0.66632000  1
  O  O94  1  0.29489500  0.79466300  0.74900200  1
  O  O95  1  0.70557100  0.79463500  0.66632000  1
  O  O96  1  0.00000000  0.00000000  0.78900200  1
  O  O97  1  0.00000000  0.00000000  0.70728500  1
  O  O98  1  0.28405400  0.23796600  0.83311300  1
  O  O99  1  0.70510500  0.20533700  0.74900200  1
  O  O100  1  0.76203400  0.28405400  0.83311300  1
  O  O101  1  0.20533700  0.29489500  0.74900200  1
  O  O102  1  0.50000000  0.50000000  0.87466600  1
  O  O103  1  0.50000000  0.50000000  0.79069300  1
  O  O104  1  0.80005900  0.69891000  0.91649200  1
  O  O105  1  0.23796600  0.71594600  0.83311300  1
  O  O106  1  0.30109000  0.80005900  0.91649200  1
  O  O107  1  0.71594600  0.76203400  0.83311300  1
  O  O108  1  0.00000000  0.00000000  0.95846700  1
  O  O109  1  0.00000000  0.00000000  0.87820800  1
  O  O110  1  0.26371800  0.21410800  0.00000000  1
  O  O111  1  0.69891000  0.19994100  0.91649200  1
  O  O112  1  0.78589200  0.26371800  0.00000000  1
  O  O113  1  0.19994100  0.30109000  0.91649200  1
  O  O114  1  0.50000000  0.50000000  0.95516100  1
  O  O115  1  0.21410800  0.73628200  0.00000000  1
  O  O116  1  0.73628200  0.78589200  0.00000000  1
