# generated using pymatgen
data_Ti3Fe5O12
_symmetry_space_group_name_H-M   'P 1'
_cell_length_a   5.53278800
_cell_length_b   7.57800918
_cell_length_c   10.28086120
_cell_angle_alpha   89.94873124
_cell_angle_beta   89.74808607
_cell_angle_gamma   83.52330796
_symmetry_Int_Tables_number   1
_chemical_formula_structural   Ti3Fe5O12
_chemical_formula_sum   'Ti6 Fe10 O24'
_cell_volume   428.29577847
_cell_formula_units_Z   2
loop_
 _symmetry_equiv_pos_site_id
 _symmetry_equiv_pos_as_xyz
  1  'x, y, z'
loop_
 _atom_site_type_symbol
 _atom_site_label
 _atom_site_symmetry_multiplicity
 _atom_site_fract_x
 _atom_site_fract_y
 _atom_site_fract_z
 _atom_site_occupancy
  Ti  Ti0  1  0.28997100  0.14284900  0.49516100  1
  Ti  Ti1  1  0.79774900  0.64496100  0.25525600  1
  Ti  Ti2  1  0.20225100  0.35503900  0.74474400  1
  Ti  Ti3  1  0.28625500  0.14280900  0.99961000  1
  Ti  Ti4  1  0.71002900  0.85715100  0.50483900  1
  Ti  Ti5  1  0.71374500  0.85719100  0.00039000  1
  Fe  Fe6  1  0.70336300  0.35668000  0.00276600  1
  Fe  Fe7  1  0.79068700  0.64969300  0.75067200  1
  Fe  Fe8  1  0.20527000  0.84991600  0.74751300  1
  Fe  Fe9  1  0.29663700  0.64332000  0.99723400  1
  Fe  Fe10  1  0.71073900  0.35416500  0.50058300  1
  Fe  Fe11  1  0.78869200  0.14865200  0.74935500  1
  Fe  Fe12  1  0.21130800  0.85134800  0.25064500  1
  Fe  Fe13  1  0.28926100  0.64583500  0.49941700  1
  Fe  Fe14  1  0.79473000  0.15008400  0.25248700  1
  Fe  Fe15  1  0.20931300  0.35030700  0.24932800  1
  O  O16  1  0.64736000  0.59895700  0.92405700  1
  O  O17  1  0.00816400  0.24999700  0.91202000  1
  O  O18  1  0.16283700  0.58874200  0.82638400  1
  O  O19  1  0.16076900  0.10799300  0.67028900  1
  O  O20  1  0.35155300  0.90952700  0.93085300  1
  O  O21  1  0.51551200  0.75286000  0.64901400  1
  O  O22  1  0.48274800  0.25717500  0.85061200  1
  O  O23  1  0.65128700  0.08714700  0.56722800  1
  O  O24  1  0.65492300  0.60625100  0.41289200  1
  O  O25  1  0.84652900  0.89439400  0.83884700  1
  O  O26  1  0.86257900  0.41037800  0.68276400  1
  O  O27  1  0.01586600  0.23953200  0.40187400  1
  O  O28  1  0.98413400  0.76046800  0.59812600  1
  O  O29  1  0.13742100  0.58962200  0.31723600  1
  O  O30  1  0.15347100  0.10560600  0.16115300  1
  O  O31  1  0.34507700  0.39374900  0.58710800  1
  O  O32  1  0.34871300  0.91285300  0.43277200  1
  O  O33  1  0.51725200  0.74282500  0.14938800  1
  O  O34  1  0.48448800  0.24714000  0.35098600  1
  O  O35  1  0.64844700  0.09047300  0.06914700  1
  O  O36  1  0.83923100  0.89200700  0.32971100  1
  O  O37  1  0.83716300  0.41125800  0.17361600  1
  O  O38  1  0.99183600  0.75000300  0.08798000  1
  O  O39  1  0.35264000  0.40104300  0.07594300  1
