# generated using pymatgen
data_Hg15(As2Cl3)4
_symmetry_space_group_name_H-M   'P 1'
_cell_length_a   12.53975000
_cell_length_b   12.55112800
_cell_length_c   25.06789200
_cell_angle_alpha   90.00000000
_cell_angle_beta   90.00000000
_cell_angle_gamma   90.00000000
_symmetry_Int_Tables_number   1
_chemical_formula_structural   Hg15(As2Cl3)4
_chemical_formula_sum   'Hg60 As32 Cl48'
_cell_volume   3945.38557004
_cell_formula_units_Z   4
loop_
 _symmetry_equiv_pos_site_id
 _symmetry_equiv_pos_as_xyz
  1  'x, y, z'
loop_
 _atom_site_type_symbol
 _atom_site_label
 _atom_site_symmetry_multiplicity
 _atom_site_fract_x
 _atom_site_fract_y
 _atom_site_fract_z
 _atom_site_occupancy
  Hg  Hg0  1  0.99994100  0.00001200  0.87474400  1
  Hg  Hg1  1  0.50004800  0.00000900  0.62474400  1
  Hg  Hg2  1  0.29051900  0.02679900  0.98446300  1
  Hg  Hg3  1  0.21002900  0.02654100  0.23456900  1
  Hg  Hg4  1  0.28980200  0.02608700  0.48472100  1
  Hg  Hg5  1  0.20968700  0.02646400  0.73461600  1
  Hg  Hg6  1  0.71895400  0.21016100  0.88830100  1
  Hg  Hg7  1  0.71930800  0.20968200  0.38824900  1
  Hg  Hg8  1  0.78064300  0.20982100  0.13833100  1
  Hg  Hg9  1  0.78108300  0.21003300  0.63822200  1
  Hg  Hg10  1  0.47369100  0.21937500  0.26988300  1
  Hg  Hg11  1  0.02668100  0.21926000  0.02011000  1
  Hg  Hg12  1  0.47322200  0.21879600  0.77027200  1
  Hg  Hg13  1  0.02649500  0.21891700  0.52001400  1
  Hg  Hg14  1  0.52649500  0.28108300  0.02001400  1
  Hg  Hg15  1  0.97322200  0.28120400  0.27027200  1
  Hg  Hg16  1  0.97369100  0.28062500  0.76988300  1
  Hg  Hg17  1  0.52668100  0.28074000  0.52011000  1
  Hg  Hg18  1  0.21895400  0.28983900  0.38830100  1
  Hg  Hg19  1  0.21930800  0.29031800  0.88824900  1
  Hg  Hg20  1  0.28108300  0.28996700  0.13822200  1
  Hg  Hg21  1  0.28064300  0.29017900  0.63833100  1
  Hg  Hg22  1  0.78980200  0.47391300  0.98472100  1
  Hg  Hg23  1  0.79051900  0.47320100  0.48446300  1
  Hg  Hg24  1  0.71002900  0.47345900  0.73456900  1
  Hg  Hg25  1  0.70968700  0.47353600  0.23461600  1
  Hg  Hg26  1  0.50002800  0.50000600  0.62499900  1
  Hg  Hg27  1  0.00004800  0.49999100  0.12474400  1
  Hg  Hg28  1  0.50004800  0.50000900  0.87525600  1
  Hg  Hg29  1  0.00002800  0.49999400  0.37500100  1
  Hg  Hg30  1  0.99994100  0.50001200  0.62525600  1
  Hg  Hg31  1  0.49994100  0.49998800  0.37474400  1
  Hg  Hg32  1  0.28980200  0.52608700  0.01527900  1
  Hg  Hg33  1  0.29051900  0.52679900  0.51553700  1
  Hg  Hg34  1  0.21002900  0.52654100  0.26543100  1
  Hg  Hg35  1  0.20968700  0.52646400  0.76538400  1
  Hg  Hg36  1  0.71930800  0.70968200  0.11175100  1
  Hg  Hg37  1  0.78064300  0.70982100  0.36166900  1
  Hg  Hg38  1  0.71895400  0.71016100  0.61169900  1
  Hg  Hg39  1  0.78108300  0.71003300  0.86177800  1
  Hg  Hg40  1  0.02649500  0.71891700  0.97998600  1
  Hg  Hg41  1  0.47369100  0.71937500  0.23011700  1
  Hg  Hg42  1  0.02668100  0.71926000  0.47989000  1
  Hg  Hg43  1  0.47322200  0.71879600  0.72972800  1
  Hg  Hg44  1  0.97322200  0.78120400  0.22972800  1
  Hg  Hg45  1  0.52668100  0.78074000  0.97989000  1
  Hg  Hg46  1  0.97369100  0.78062500  0.73011700  1
  Hg  Hg47  1  0.52649500  0.78108300  0.47998600  1
  Hg  Hg48  1  0.21895400  0.78983900  0.11169900  1
  Hg  Hg49  1  0.28108300  0.78996700  0.36177800  1
  Hg  Hg50  1  0.21930800  0.79031800  0.61175100  1
  Hg  Hg51  1  0.28064300  0.79017900  0.86166900  1
  Hg  Hg52  1  0.70968700  0.97353600  0.26538400  1
  Hg  Hg53  1  0.79051900  0.97320100  0.01553700  1
  Hg  Hg54  1  0.71002900  0.97345900  0.76543100  1
  Hg  Hg55  1  0.78980200  0.97391300  0.51527900  1
  Hg  Hg56  1  0.00004800  0.99999100  0.37525600  1
  Hg  Hg57  1  0.49994100  0.99998800  0.12525600  1
  Hg  Hg58  1  0.50002800  0.00000600  0.87500100  1
  Hg  Hg59  1  0.00002800  0.99999400  0.12499900  1
  As  As60  1  0.66702200  0.16714500  0.29144500  1
  As  As61  1  0.83251100  0.16750400  0.04128700  1
  As  As62  1  0.83285200  0.16699400  0.54144400  1
  As  As63  1  0.66753100  0.16732300  0.79127700  1
  As  As64  1  0.28134200  0.21869300  0.23429200  1
  As  As65  1  0.28096400  0.21880800  0.73448200  1
  As  As66  1  0.21899400  0.21901100  0.98443000  1
  As  As67  1  0.21867900  0.21847800  0.48437800  1
  As  As68  1  0.78096400  0.28119200  0.23448200  1
  As  As69  1  0.71867900  0.28152200  0.98437800  1
  As  As70  1  0.78134200  0.28130700  0.73429200  1
  As  As71  1  0.71899400  0.28098900  0.48443000  1
  As  As72  1  0.16753100  0.33267700  0.29127700  1
  As  As73  1  0.16702200  0.33285500  0.79144500  1
  As  As74  1  0.33285200  0.33300600  0.04144400  1
  As  As75  1  0.33251100  0.33249600  0.54128700  1
  As  As76  1  0.66702200  0.66714500  0.20855500  1
  As  As77  1  0.83285200  0.66699400  0.95855600  1
  As  As78  1  0.83251100  0.66750400  0.45871300  1
  As  As79  1  0.66753100  0.66732300  0.70872300  1
  As  As80  1  0.21867900  0.71847800  0.01562200  1
  As  As81  1  0.28134200  0.71869300  0.26570800  1
  As  As82  1  0.21899400  0.71901100  0.51557000  1
  As  As83  1  0.28096400  0.71880800  0.76551800  1
  As  As84  1  0.78096400  0.78119200  0.26551800  1
  As  As85  1  0.71899400  0.78098900  0.01557000  1
  As  As86  1  0.78134200  0.78130700  0.76570800  1
  As  As87  1  0.71867900  0.78152200  0.51562200  1
  As  As88  1  0.16753100  0.83267700  0.20872300  1
  As  As89  1  0.33251100  0.83249600  0.95871300  1
  As  As90  1  0.33285200  0.83300600  0.45855600  1
  As  As91  1  0.16702200  0.83285500  0.70855500  1
  Cl  Cl92  1  0.28876500  0.03435200  0.10410800  1
  Cl  Cl93  1  0.28657300  0.03426300  0.60439600  1
  Cl  Cl94  1  0.21336100  0.03410100  0.35429000  1
  Cl  Cl95  1  0.21126400  0.03450100  0.85421100  1
  Cl  Cl96  1  0.53457200  0.04152900  0.01930400  1
  Cl  Cl97  1  0.96551800  0.04169300  0.26930300  1
  Cl  Cl98  1  0.96602400  0.04134100  0.76844200  1
  Cl  Cl99  1  0.53387100  0.04152600  0.51844600  1
  Cl  Cl100  1  0.54158900  0.21336500  0.14198300  1
  Cl  Cl101  1  0.95872700  0.21324900  0.89204900  1
  Cl  Cl102  1  0.54145500  0.21111800  0.64222600  1
  Cl  Cl103  1  0.95824200  0.21123100  0.39217200  1
  Cl  Cl104  1  0.04145500  0.28888200  0.14222600  1
  Cl  Cl105  1  0.45872700  0.28675100  0.39204900  1
  Cl  Cl106  1  0.45824200  0.28876900  0.89217200  1
  Cl  Cl107  1  0.04158900  0.28663500  0.64198300  1
  Cl  Cl108  1  0.03387100  0.45847400  0.01844600  1
  Cl  Cl109  1  0.03457200  0.45847100  0.51930400  1
  Cl  Cl110  1  0.46602400  0.45865900  0.26844200  1
  Cl  Cl111  1  0.46551800  0.45830700  0.76930300  1
  Cl  Cl112  1  0.71126400  0.46549900  0.35421100  1
  Cl  Cl113  1  0.78657300  0.46573700  0.10439600  1
  Cl  Cl114  1  0.71336100  0.46589900  0.85429000  1
  Cl  Cl115  1  0.78876500  0.46564800  0.60410800  1
  Cl  Cl116  1  0.21336100  0.53410100  0.14571000  1
  Cl  Cl117  1  0.28657300  0.53426300  0.89560400  1
  Cl  Cl118  1  0.21126400  0.53450100  0.64578900  1
  Cl  Cl119  1  0.28876500  0.53435200  0.39589200  1
  Cl  Cl120  1  0.53387100  0.54152600  0.98155400  1
  Cl  Cl121  1  0.53457200  0.54152900  0.48069600  1
  Cl  Cl122  1  0.96551800  0.54169300  0.23069700  1
  Cl  Cl123  1  0.96602400  0.54134100  0.73155800  1
  Cl  Cl124  1  0.54158900  0.71336500  0.35801700  1
  Cl  Cl125  1  0.54145500  0.71111800  0.85777400  1
  Cl  Cl126  1  0.95824200  0.71123100  0.10782800  1
  Cl  Cl127  1  0.95872700  0.71324900  0.60795100  1
  Cl  Cl128  1  0.04145500  0.78888200  0.35777400  1
  Cl  Cl129  1  0.45872700  0.78675100  0.10795100  1
  Cl  Cl130  1  0.04158900  0.78663500  0.85801700  1
  Cl  Cl131  1  0.45824200  0.78876900  0.60782800  1
  Cl  Cl132  1  0.03457200  0.95847100  0.98069600  1
  Cl  Cl133  1  0.46602400  0.95865900  0.23155800  1
  Cl  Cl134  1  0.03387100  0.95847400  0.48155400  1
  Cl  Cl135  1  0.46551800  0.95830700  0.73069700  1
  Cl  Cl136  1  0.78876500  0.96564800  0.89589200  1
  Cl  Cl137  1  0.78657300  0.96573700  0.39560400  1
  Cl  Cl138  1  0.71126400  0.96549900  0.14578900  1
  Cl  Cl139  1  0.71336100  0.96589900  0.64571000  1
