# generated using pymatgen
data_Yb5S9
_symmetry_space_group_name_H-M   'P 1'
_cell_length_a   8.32896500
_cell_length_b   9.42355392
_cell_length_c   9.63377098
_cell_angle_alpha   76.15716560
_cell_angle_beta   69.98361147
_cell_angle_gamma   70.89775130
_symmetry_Int_Tables_number   1
_chemical_formula_structural   Yb5S9
_chemical_formula_sum   'Yb10 S18'
_cell_volume   664.41371005
_cell_formula_units_Z   2
loop_
 _symmetry_equiv_pos_site_id
 _symmetry_equiv_pos_as_xyz
  1  'x, y, z'
loop_
 _atom_site_type_symbol
 _atom_site_label
 _atom_site_symmetry_multiplicity
 _atom_site_fract_x
 _atom_site_fract_y
 _atom_site_fract_z
 _atom_site_occupancy
  Yb  Yb0  1  0.67746400  0.18031700  0.81260800  1
  Yb  Yb1  1  0.88220100  0.82888300  0.04114500  1
  Yb  Yb2  1  0.55404600  0.67235300  0.84255500  1
  Yb  Yb3  1  0.44595400  0.32764700  0.15744500  1
  Yb  Yb4  1  0.11779900  0.17111700  0.95885500  1
  Yb  Yb5  1  0.76042100  0.00550300  0.39088400  1
  Yb  Yb6  1  0.32253600  0.81968300  0.18739200  1
  Yb  Yb7  1  0.25568400  0.52564600  0.64830100  1
  Yb  Yb8  1  0.74431600  0.47435400  0.35169900  1
  Yb  Yb9  1  0.23957900  0.99449700  0.60911600  1
  S  S10  1  0.96939800  0.30651600  0.72804100  1
  S  S11  1  0.59607900  0.91645800  0.93929000  1
  S  S12  1  0.21473300  0.87396700  0.91169200  1
  S  S13  1  0.91713600  0.68960000  0.79948300  1
  S  S14  1  0.08286400  0.31040000  0.20051700  1
  S  S15  1  0.41578500  0.43990500  0.86415900  1
  S  S16  1  0.58421500  0.56009500  0.13584100  1
  S  S17  1  0.40392100  0.08354200  0.06071000  1
  S  S18  1  0.51028800  0.87346300  0.36190200  1
  S  S19  1  0.78526700  0.12603300  0.08830800  1
  S  S20  1  0.04294700  0.12184200  0.36225000  1
  S  S21  1  0.97964500  0.62409000  0.50003400  1
  S  S22  1  0.03060200  0.69348400  0.27195900  1
  S  S23  1  0.02035500  0.37591000  0.49996600  1
  S  S24  1  0.50551500  0.69489500  0.54782300  1
  S  S25  1  0.49448500  0.30510500  0.45217700  1
  S  S26  1  0.48971200  0.12653700  0.63809800  1
  S  S27  1  0.95705300  0.87815800  0.63775000  1
