# generated using pymatgen
data_Ba2Yb2Al4Si3(N5O2)2
_symmetry_space_group_name_H-M   'P 1'
_cell_length_a   6.80729900
_cell_length_b   7.18355406
_cell_length_c   8.25062304
_cell_angle_alpha   100.46623204
_cell_angle_beta   92.05557910
_cell_angle_gamma   114.82908848
_symmetry_Int_Tables_number   1
_chemical_formula_structural   Ba2Yb2Al4Si3(N5O2)2
_chemical_formula_sum   'Ba2 Yb2 Al4 Si3 N10 O4'
_cell_volume   357.21983992
_cell_formula_units_Z   1
loop_
 _symmetry_equiv_pos_site_id
 _symmetry_equiv_pos_as_xyz
  1  'x, y, z'
loop_
 _atom_site_type_symbol
 _atom_site_label
 _atom_site_symmetry_multiplicity
 _atom_site_fract_x
 _atom_site_fract_y
 _atom_site_fract_z
 _atom_site_occupancy
  Ba  Ba0  1  0.61385700  0.31809900  0.15451100  1
  Ba  Ba1  1  0.41354800  0.76061700  0.61343500  1
  Yb  Yb2  1  0.65350300  0.29820400  0.80702000  1
  Yb  Yb3  1  0.17885800  0.55904500  0.20924000  1
  Al  Al4  1  0.83979000  0.17292100  0.45961800  1
  Al  Al5  1  0.08929600  0.77097200  0.91381300  1
  Al  Al6  1  0.54569200  0.82160100  0.04071600  1
  Al  Al7  1  0.18503500  0.38519200  0.84592300  1
  Si  Si8  1  0.87634800  0.60743600  0.50014400  1
  Si  Si9  1  0.96396700  0.92862000  0.19759700  1
  Si  Si10  1  0.43153900  0.28375700  0.49908800  1
  N  N11  1  0.97743400  0.77483600  0.34898700  1
  N  N12  1  0.43762200  0.53217700  0.00865200  1
  N  N13  1  0.99874100  0.49686100  0.94842700  1
  N  N14  1  0.20289200  0.89418100  0.38259000  1
  N  N15  1  0.23493100  0.08739000  0.33820700  1
  N  N16  1  0.39164700  0.93635200  0.94066200  1
  N  N17  1  0.75555500  0.99984600  0.23340700  1
  N  N18  1  0.99175500  0.44017600  0.43474000  1
  N  N19  1  0.59636700  0.51344200  0.45211100  1
  N  N20  1  0.93632300  0.15101900  0.69080800  1
  O  O21  1  0.97270100  0.73241900  0.69639500  1
  O  O22  1  0.58247000  0.15824200  0.53611500  1
  O  O23  1  0.78072200  0.04081800  0.78027300  1
  O  O24  1  0.34940600  0.33577800  0.67941900  1
