# generated using pymatgen
data_K2Al4Fe5Si5(HO6)4
_symmetry_space_group_name_H-M   'P 1'
_cell_length_a   6.65624100
_cell_length_b   7.79562043
_cell_length_c   11.49506221
_cell_angle_alpha   78.35222674
_cell_angle_beta   83.75604957
_cell_angle_gamma   78.02415340
_symmetry_Int_Tables_number   1
_chemical_formula_structural   K2Al4Fe5Si5(HO6)4
_chemical_formula_sum   'K2 Al4 Fe5 Si5 H4 O24'
_cell_volume   570.08193746
_cell_formula_units_Z   1
loop_
 _symmetry_equiv_pos_site_id
 _symmetry_equiv_pos_as_xyz
  1  'x, y, z'
loop_
 _atom_site_type_symbol
 _atom_site_label
 _atom_site_symmetry_multiplicity
 _atom_site_fract_x
 _atom_site_fract_y
 _atom_site_fract_z
 _atom_site_occupancy
  K  K0  1  0.07251800  0.89127900  0.89294900  1
  K  K1  1  0.90382800  0.51162700  0.43608500  1
  Al  Al2  1  0.95742100  0.53803400  0.70834300  1
  Al  Al3  1  0.22949500  0.73894100  0.49583200  1
  Al  Al4  1  0.49164900  0.55493100  0.70403100  1
  Al  Al5  1  0.26582000  0.25994800  0.81204400  1
  Fe  Fe6  1  0.50828200  0.42487000  0.31191900  1
  Fe  Fe7  1  0.61166500  0.06250800  0.74722100  1
  Fe  Fe8  1  0.88529600  0.09893100  0.41029600  1
  Fe  Fe9  1  0.18301100  0.79628300  0.25034200  1
  Fe  Fe10  1  0.32956000  0.48735600  0.03412100  1
  Si  Si11  1  0.82428400  0.43285200  0.13191300  1
  Si  Si12  1  0.84525800  0.75552200  0.18476100  1
  Si  Si13  1  0.48557200  0.09404300  0.22445200  1
  Si  Si14  1  0.34409700  0.09678400  0.48282700  1
  Si  Si15  1  0.67009100  0.69122600  0.89448800  1
  H  H16  1  0.40034300  0.21395900  0.55459900  1
  H  H17  1  0.41668200  0.78659800  0.06893400  1
  H  H18  1  0.86130900  0.28095400  0.98657600  1
  H  H19  1  0.74452900  0.89930900  0.58318100  1
  O  O20  1  0.67770700  0.62003800  0.22029300  1
  O  O21  1  0.81608700  0.30631100  0.27656500  1
  O  O22  1  0.28480700  0.34080100  0.94220000  1
  O  O23  1  0.99735300  0.57286000  0.10276900  1
  O  O24  1  0.37669800  0.88345300  0.52672800  1
  O  O25  1  0.44465300  0.31008700  0.16966500  1
  O  O26  1  0.51029000  0.31923600  0.73683000  1
  O  O27  1  0.00952400  0.85608900  0.41438100  1
  O  O28  1  0.29404800  0.73284500  0.09106600  1
  O  O29  1  0.65833200  0.89980100  0.90473700  1
  O  O30  1  0.69069500  0.96086000  0.17481500  1
  O  O31  1  0.52681700  0.11784900  0.36559200  1
  O  O32  1  0.75842300  0.02153000  0.58739600  1
  O  O33  1  0.10931500  0.18885400  0.44754100  1
  O  O34  1  0.28317300  0.01025600  0.23323400  1
  O  O35  1  0.90313200  0.25495800  0.06811900  1
  O  O36  1  0.21337100  0.60400800  0.64100200  1
  O  O37  1  0.31142200  0.60488900  0.38275500  1
  O  O38  1  0.02003200  0.31285400  0.76217600  1
  O  O39  1  0.72894400  0.59938300  0.62839200  1
  O  O40  1  0.89739000  0.64845200  0.82784500  1
  O  O41  1  0.65043700  0.54175000  0.02167000  1
  O  O42  1  0.47141000  0.65218500  0.83418600  1
  O  O43  1  0.34265400  0.04375200  0.77454500  1
