# generated using pymatgen
data_Ho2Se3
_symmetry_space_group_name_H-M   'P 1'
_cell_length_a   14.35324729
_cell_length_b   14.35324729
_cell_length_c   14.35324729
_cell_angle_alpha   144.82636429
_cell_angle_beta   144.82636429
_cell_angle_gamma   50.59335659
_symmetry_Int_Tables_number   1
_chemical_formula_structural   Ho2Se3
_chemical_formula_sum   'Ho16 Se24'
_cell_volume   976.28664058
_cell_formula_units_Z   8
loop_
 _symmetry_equiv_pos_site_id
 _symmetry_equiv_pos_as_xyz
  1  'x, y, z'
loop_
 _atom_site_type_symbol
 _atom_site_label
 _atom_site_symmetry_multiplicity
 _atom_site_fract_x
 _atom_site_fract_y
 _atom_site_fract_z
 _atom_site_occupancy
  Ho  Ho0  1  0.71965200  0.59472600  0.39375800  1
  Ho  Ho1  1  0.20096800  0.32589400  0.60624200  1
  Ho  Ho2  1  0.41783800  0.91783800  0.50000000  1
  Ho  Ho3  1  0.99221200  0.62500000  0.86721200  1
  Ho  Ho4  1  0.33216200  0.33216200  0.00000000  1
  Ho  Ho5  1  0.03034800  0.92410600  0.37507400  1
  Ho  Ho6  1  0.54903200  0.65527400  0.62492600  1
  Ho  Ho7  1  0.75778800  0.12500000  0.13278800  1
  Ho  Ho8  1  0.34472600  0.96965200  0.89375800  1
  Ho  Ho9  1  0.66783800  0.66783800  0.00000000  1
  Ho  Ho10  1  0.37500000  0.24221200  0.36721200  1
  Ho  Ho11  1  0.87500000  0.00778800  0.63278800  1
  Ho  Ho12  1  0.07589400  0.45096800  0.10624200  1
  Ho  Ho13  1  0.08216200  0.58216200  0.50000000  1
  Ho  Ho14  1  0.67410600  0.28034800  0.87507400  1
  Ho  Ho15  1  0.40527400  0.79903200  0.12492600  1
  Se  Se16  1  0.50014600  0.25486800  0.88553900  1
  Se  Se17  1  0.71126300  0.82582400  0.74698400  1
  Se  Se18  1  0.36932900  0.61460700  0.11446100  1
  Se  Se19  1  0.24985400  0.63539300  0.25472200  1
  Se  Se20  1  0.38067100  0.99513200  0.74527800  1
  Se  Se21  1  0.67116000  0.42417600  0.38543900  1
  Se  Se22  1  0.07884000  0.96427900  0.25301600  1
  Se  Se23  1  0.84687200  0.59124800  0.90268700  1
  Se  Se24  1  0.03873700  0.28572100  0.61456100  1
  Se  Se25  1  0.05581500  0.15312800  0.74437600  1
  Se  Se26  1  0.68856100  0.94418500  0.09731300  1
  Se  Se27  1  0.57582400  0.96126300  0.24698400  1
  Se  Se28  1  0.71427900  0.32884000  0.75301600  1
  Se  Se29  1  0.00486800  0.75014600  0.38553900  1
  Se  Se30  1  0.40875200  0.31143900  0.25562400  1
  Se  Se31  1  0.17417600  0.92116000  0.88543900  1
  Se  Se32  1  0.36460700  0.61932900  0.61446100  1
  Se  Se33  1  0.38539300  0.49985400  0.75472200  1
  Se  Se34  1  0.03572100  0.28873700  0.11456100  1
  Se  Se35  1  0.90312800  0.30581500  0.24437600  1
  Se  Se36  1  0.06143900  0.65875200  0.75562400  1
  Se  Se37  1  0.34124800  0.09687200  0.40268700  1
  Se  Se38  1  0.74513200  0.63067100  0.24527800  1
  Se  Se39  1  0.69418500  0.93856100  0.59731300  1
