# generated using pymatgen
data_K5Sb4
_symmetry_space_group_name_H-M   'P 1'
_cell_length_a   6.55516400
_cell_length_b   6.88699927
_cell_length_c   8.47646893
_cell_angle_alpha   91.52932332
_cell_angle_beta   90.04318576
_cell_angle_gamma   96.19120925
_symmetry_Int_Tables_number   1
_chemical_formula_structural   K5Sb4
_chemical_formula_sum   'K5 Sb4'
_cell_volume   380.30367269
_cell_formula_units_Z   1
loop_
 _symmetry_equiv_pos_site_id
 _symmetry_equiv_pos_as_xyz
  1  'x, y, z'
loop_
 _atom_site_type_symbol
 _atom_site_label
 _atom_site_symmetry_multiplicity
 _atom_site_fract_x
 _atom_site_fract_y
 _atom_site_fract_z
 _atom_site_occupancy
  K  K0  1  0.73540400  0.29230200  0.97725800  1
  K  K1  1  0.70907100  0.97777100  0.35921200  1
  K  K2  1  0.00000000  0.50000000  0.50000000  1
  K  K3  1  0.29092900  0.02222900  0.64078800  1
  K  K4  1  0.26459600  0.70769800  0.02274200  1
  Sb  Sb5  1  0.51675200  0.47557400  0.33384900  1
  Sb  Sb6  1  0.77956300  0.82119400  0.78609800  1
  Sb  Sb7  1  0.22043700  0.17880600  0.21390200  1
  Sb  Sb8  1  0.48324800  0.52442600  0.66615100  1
