# generated using pymatgen
data_CaLaVFeO6
_symmetry_space_group_name_H-M   'P 1'
_cell_length_a   5.46313200
_cell_length_b   5.46571968
_cell_length_c   12.52339564
_cell_angle_alpha   102.33645920
_cell_angle_beta   102.35625413
_cell_angle_gamma   90.93108749
_symmetry_Int_Tables_number   1
_chemical_formula_structural   CaLaVFeO6
_chemical_formula_sum   'Ca3 La3 V3 Fe3 O18'
_cell_volume   356.09807055
_cell_formula_units_Z   3
loop_
 _symmetry_equiv_pos_site_id
 _symmetry_equiv_pos_as_xyz
  1  'x, y, z'
loop_
 _atom_site_type_symbol
 _atom_site_label
 _atom_site_symmetry_multiplicity
 _atom_site_fract_x
 _atom_site_fract_y
 _atom_site_fract_z
 _atom_site_occupancy
  Ca  Ca0  1  0.92065700  0.40544500  0.83399500  1
  Ca  Ca1  1  0.58862000  0.07054200  0.16733000  1
  Ca  Ca2  1  0.25464300  0.74144300  0.50182200  1
  La  La3  1  0.74399100  0.25341500  0.49702400  1
  La  La4  1  0.41239700  0.92194700  0.83118900  1
  La  La5  1  0.07919800  0.58677300  0.16467800  1
  V  V6  1  0.00009700  0.99916800  0.99980700  1
  V  V7  1  0.83161800  0.83136300  0.66583200  1
  V  V8  1  0.16527700  0.16529500  0.33348200  1
  Fe  Fe9  1  0.66474800  0.66431900  0.33212100  1
  Fe  Fe10  1  0.33287600  0.33222400  0.66617500  1
  Fe  Fe11  1  0.49963700  0.49860400  0.99939000  1
  O  O12  1  0.34617700  0.45663400  0.32446500  1
  O  O13  1  0.47204300  0.97556200  0.33654400  1
  O  O14  1  0.01358500  0.12191400  0.65572100  1
  O  O15  1  0.73606100  0.71847900  0.50105600  1
  O  O16  1  0.92761100  0.94827800  0.83398800  1
  O  O17  1  0.13977000  0.64361500  0.66865300  1
  O  O18  1  0.18459500  0.69368800  0.99246700  1
  O  O19  1  0.69602300  0.80984200  0.99022600  1
  O  O20  1  0.59335100  0.61367300  0.16637600  1
  O  O21  1  0.40270300  0.38470900  0.83179300  1
  O  O22  1  0.30436400  0.18817600  0.01173400  1
  O  O23  1  0.81094400  0.30231900  0.00295900  1
  O  O24  1  0.85687400  0.35233200  0.32647700  1
  O  O25  1  0.06868200  0.05267500  0.16579000  1
  O  O26  1  0.26063000  0.28069800  0.49855200  1
  O  O27  1  0.98908600  0.87510500  0.34648900  1
  O  O28  1  0.52534900  0.01950500  0.65897600  1
  O  O29  1  0.65651600  0.54128700  0.67862300  1
