# generated using pymatgen
data_Eu2Al42O65
_symmetry_space_group_name_H-M   'P 1'
_cell_length_a   5.68986500
_cell_length_b   11.44100809
_cell_length_c   19.80264673
_cell_angle_alpha   99.13917410
_cell_angle_beta   89.62158317
_cell_angle_gamma   104.12595156
_symmetry_Int_Tables_number   1
_chemical_formula_structural   Eu2Al42O65
_chemical_formula_sum   'Eu2 Al42 O65'
_cell_volume   1233.56169512
_cell_formula_units_Z   1
loop_
 _symmetry_equiv_pos_site_id
 _symmetry_equiv_pos_as_xyz
  1  'x, y, z'
loop_
 _atom_site_type_symbol
 _atom_site_label
 _atom_site_symmetry_multiplicity
 _atom_site_fract_x
 _atom_site_fract_y
 _atom_site_fract_z
 _atom_site_occupancy
  Eu  Eu0  1  0.50678900  0.49941000  0.49619000  1
  Eu  Eu1  1  0.00089800  0.52048900  0.75889500  1
  Al  Al2  1  0.00122600  0.00065000  0.00053400  1
  Al  Al3  1  0.38890600  0.77786900  0.14788000  1
  Al  Al4  1  0.13905000  0.77884000  0.02498900  1
  Al  Al5  1  0.64124500  0.77944000  0.02501800  1
  Al  Al6  1  0.52580900  0.05285900  0.08896700  1
  Al  Al7  1  0.67872200  0.35784600  0.11269100  1
  Al  Al8  1  0.82035100  0.64014500  0.13599200  1
  Al  Al9  1  0.88710500  0.78186800  0.39644400  1
  Al  Al10  1  0.64323600  0.78234800  0.27068700  1
  Al  Al11  1  0.13531300  0.78265400  0.27051200  1
  Al  Al12  1  0.97451500  0.94998900  0.16272100  1
  Al  Al13  1  0.02768500  0.06135200  0.33681500  1
  Al  Al14  1  0.50253300  0.00661900  0.25152400  1
  Al  Al15  1  0.87076400  0.22961600  0.22872500  1
  Al  Al16  1  0.35880800  0.22923800  0.22776300  1
  Al  Al17  1  0.11099400  0.22212000  0.10325100  1
  Al  Al18  1  0.32712700  0.66897000  0.38110000  1
  Al  Al19  1  0.37689400  0.74717600  0.64333900  1
  Al  Al20  1  0.13112000  0.76695400  0.52503600  1
  Al  Al21  1  0.64197800  0.78305100  0.52606300  1
  Al  Al22  1  0.47424400  0.95234700  0.41280000  1
  Al  Al23  1  0.52284800  0.04349900  0.58522500  1
  Al  Al24  1  0.00052600  0.99876500  0.49947000  1
  Al  Al25  1  0.35667300  0.21531100  0.47227400  1
  Al  Al26  1  0.86696800  0.22839100  0.47289900  1
  Al  Al27  1  0.62386300  0.25146200  0.35395300  1
  Al  Al28  1  0.66047800  0.31442200  0.61383600  1
  Al  Al29  1  0.89313900  0.78439500  0.89942400  1
  Al  Al30  1  0.64760200  0.76881400  0.77155000  1
  Al  Al31  1  0.14104800  0.79154400  0.77412000  1
  Al  Al32  1  0.96922600  0.93582700  0.66128000  1
  Al  Al33  1  0.02845500  0.05369500  0.83821200  1
  Al  Al34  1  0.50049200  0.99333800  0.74855500  1
  Al  Al35  1  0.86086500  0.20923100  0.72823100  1
  Al  Al36  1  0.35606400  0.21651300  0.72921100  1
  Al  Al37  1  0.11139200  0.21757500  0.60246900  1
  Al  Al38  1  0.17710500  0.35217400  0.86489300  1
  Al  Al39  1  0.33204700  0.65228400  0.89082300  1
  Al  Al40  1  0.47506300  0.94778700  0.91247600  1
  Al  Al41  1  0.36236500  0.22016300  0.97767500  1
  Al  Al42  1  0.85964600  0.21947500  0.97778500  1
  Al  Al43  1  0.61121300  0.21979600  0.85372700  1
  O  O44  1  0.14444200  0.28987500  0.02481200  1
  O  O45  1  0.44206600  0.88480400  0.07537000  1
  O  O46  1  0.54870600  0.10275300  0.18057800  1
  O  O47  1  0.29013900  0.10136500  0.04614500  1
  O  O48  1  0.81176400  0.10211900  0.04659000  1
  O  O49  1  0.64616000  0.29818500  0.27270400  1
  O  O50  1  0.40009100  0.30059200  0.14866200  1
  O  O51  1  0.89911500  0.30110200  0.14932300  1
  O  O52  1  0.65060900  0.30173700  0.02365000  1
  O  O53  1  0.84929600  0.69928900  0.22444200  1
  O  O54  1  0.59927200  0.69851600  0.09949900  1
  O  O55  1  0.10095100  0.69917500  0.09992800  1
  O  O56  1  0.94079700  0.88726500  0.32461600  1
  O  O57  1  0.68455300  0.89701200  0.20292500  1
  O  O58  1  0.94874500  0.89684300  0.06993600  1
  O  O59  1  0.21125000  0.89829500  0.20377000  1
  O  O60  1  0.05469400  0.10322100  0.43216200  1
  O  O61  1  0.78478400  0.10358100  0.29834800  1
  O  O62  1  0.32026800  0.10659600  0.30154700  1
  O  O63  1  0.05654700  0.11348500  0.17227200  1
  O  O64  1  0.15439000  0.29653800  0.52730300  1
  O  O65  1  0.89225600  0.30709700  0.40462200  1
  O  O66  1  0.15028400  0.30190300  0.27076900  1
  O  O67  1  0.42867000  0.31812400  0.41213100  1
  O  O68  1  0.34241100  0.68163400  0.46942900  1
  O  O69  1  0.08159800  0.69688600  0.34504300  1
  O  O70  1  0.60593300  0.69730600  0.34623200  1
  O  O71  1  0.35432400  0.70925200  0.22553100  1
  O  O72  1  0.44254600  0.88306700  0.56711800  1
  O  O73  1  0.18124800  0.89126800  0.45138400  1
  O  O74  1  0.44638400  0.89528600  0.32182700  1
  O  O75  1  0.71064100  0.89516400  0.45202000  1
  O  O76  1  0.55618300  0.10472500  0.67764500  1
  O  O77  1  0.28900100  0.10561700  0.55061300  1
  O  O78  1  0.81816200  0.11125700  0.55188600  1
  O  O79  1  0.55662800  0.11342600  0.43641800  1
  O  O80  1  0.65270100  0.29487900  0.77437100  1
  O  O81  1  0.39240800  0.30437100  0.65509700  1
  O  O82  1  0.91952700  0.31210600  0.65738700  1
  O  O83  1  0.65595400  0.31687700  0.52829500  1
  O  O84  1  0.57487200  0.68169200  0.58778100  1
  O  O85  1  0.86149100  0.68654800  0.73635000  1
  O  O86  1  0.10287100  0.69480300  0.59646400  1
  O  O87  1  0.84378300  0.70157800  0.47254900  1
  O  O88  1  0.94404900  0.88987900  0.82368200  1
  O  O89  1  0.67965600  0.88639800  0.70046300  1
  O  O90  1  0.21178500  0.89626900  0.70351700  1
  O  O91  1  0.94322300  0.89694100  0.56831400  1
  O  O92  1  0.05258300  0.10138000  0.92969600  1
  O  O93  1  0.78620200  0.09996200  0.79497000  1
  O  O94  1  0.31928600  0.10478000  0.79583500  1
  O  O95  1  0.05491000  0.11095400  0.67471500  1
  O  O96  1  0.89716300  0.29243500  0.90008400  1
  O  O97  1  0.14362400  0.29508900  0.77369900  1
  O  O98  1  0.40158300  0.29728400  0.90070400  1
  O  O99  1  0.21904100  0.50205000  0.85668600  1
  O  O100  1  0.35418400  0.70298600  0.97851900  1
  O  O101  1  0.10747200  0.70719700  0.85019300  1
  O  O102  1  0.60794400  0.70695300  0.85195300  1
  O  O103  1  0.34745800  0.69717400  0.72744900  1
  O  O104  1  0.18509800  0.89747100  0.95151600  1
  O  O105  1  0.44502700  0.89871100  0.81902500  1
  O  O106  1  0.71469500  0.89902700  0.95231400  1
  O  O107  1  0.55712700  0.11382500  0.92488300  1
  O  O108  1  0.85697800  0.70969400  0.97521300  1
