# generated using pymatgen
data_AlPO4
_symmetry_space_group_name_H-M   'P 1'
_cell_length_a   8.64080200
_cell_length_b   13.77801104
_cell_length_c   14.06738022
_cell_angle_alpha   118.53342251
_cell_angle_beta   90.16262509
_cell_angle_gamma   90.12162357
_symmetry_Int_Tables_number   1
_chemical_formula_structural   AlPO4
_chemical_formula_sum   'Al12 P12 O48'
_cell_volume   1471.32804168
_cell_formula_units_Z   12
loop_
 _symmetry_equiv_pos_site_id
 _symmetry_equiv_pos_as_xyz
  1  'x, y, z'
loop_
 _atom_site_type_symbol
 _atom_site_label
 _atom_site_symmetry_multiplicity
 _atom_site_fract_x
 _atom_site_fract_y
 _atom_site_fract_z
 _atom_site_occupancy
  Al  Al0  1  0.17830400  0.54056200  0.66538300  1
  Al  Al1  1  0.30751100  0.12411800  0.66937900  1
  Al  Al2  1  0.69732600  0.12642900  0.66984500  1
  Al  Al3  1  0.67518800  0.66873100  0.54138900  1
  Al  Al4  1  0.31534400  0.87952200  0.33093400  1
  Al  Al5  1  0.68735400  0.87997300  0.33287900  1
  Al  Al6  1  0.82294200  0.67388400  0.12255700  1
  Al  Al7  1  0.18606600  0.67184000  0.12078100  1
  Al  Al8  1  0.81847700  0.45725000  0.32855300  1
  Al  Al9  1  0.18776100  0.45146500  0.33123500  1
  Al  Al10  1  0.68571400  0.44907500  0.12059700  1
  Al  Al11  1  0.31999600  0.45056100  0.12088900  1
  P  P12  1  0.67323900  0.53399100  0.87164000  1
  P  P13  1  0.32291100  0.53814100  0.87429900  1
  P  P14  1  0.80154100  0.53550800  0.66481300  1
  P  P15  1  0.17502700  0.33646700  0.87691200  1
  P  P16  1  0.83096600  0.33691800  0.87712300  1
  P  P17  1  0.32334400  0.33252600  0.46499400  1
  P  P18  1  0.67370800  0.33229200  0.46321600  1
  P  P19  1  0.17777000  0.13078200  0.46093400  1
  P  P20  1  0.82732900  0.13280300  0.46310000  1
  P  P21  1  0.17891500  0.87483300  0.54372400  1
  P  P22  1  0.81808900  0.87926200  0.54958000  1
  P  P23  1  0.30744600  0.66937500  0.54671600  1
  O  O24  1  0.70414900  0.62813400  0.97804900  1
  O  O25  1  0.49999600  0.50273100  0.83624500  1
  O  O26  1  0.25936700  0.56738300  0.78962900  1
  O  O27  1  0.73074700  0.56020400  0.77703400  1
  O  O28  1  0.80587400  0.36293100  0.98937300  1
  O  O29  1  0.74362800  0.62093100  0.63744000  1
  O  O30  1  0.74450400  0.41771100  0.83777100  1
  O  O31  1  0.26013000  0.41721500  0.84001700  1
  O  O32  1  0.97474100  0.52720000  0.67098300  1
  O  O33  1  0.00230000  0.36046200  0.85206700  1
  O  O34  1  0.25326200  0.40768300  0.57513000  1
  O  O35  1  0.73849000  0.41306900  0.58243400  1
  O  O36  1  0.79026400  0.22148400  0.79061400  1
  O  O37  1  0.21321800  0.22027000  0.78934000  1
  O  O38  1  0.50233700  0.13221500  0.67040100  1
  O  O39  1  0.50114100  0.31554200  0.49001300  1
  O  O40  1  0.21874200  0.16692400  0.57778100  1
  O  O41  1  0.78864100  0.17082100  0.58032500  1
  O  O42  1  0.69670000  0.36518000  0.38011000  1
  O  O43  1  0.23062300  0.98927100  0.63025000  1
  O  O44  1  0.78824300  0.99959100  0.63335400  1
  O  O45  1  0.26115800  0.21048700  0.42300600  1
  O  O46  1  0.74700500  0.21701800  0.42978800  1
  O  O47  1  0.00274600  0.16631200  0.45762600  1
  O  O48  1  0.00121700  0.86312900  0.55657600  1
  O  O49  1  0.24209500  0.79036300  0.58024300  1
  O  O50  1  0.74847500  0.80383000  0.58955700  1
  O  O51  1  0.20667200  0.01504700  0.37912300  1
  O  O52  1  0.79131700  0.01904600  0.38020100  1
  O  O53  1  0.22566300  0.63926000  0.62718800  1
  O  O54  1  0.22305100  0.84276300  0.43003600  1
  O  O55  1  0.78128600  0.85088900  0.43494500  1
  O  O56  1  0.47774800  0.69041700  0.57727300  1
  O  O57  1  0.50099500  0.91709900  0.37653900  1
  O  O58  1  0.75575200  0.80487900  0.20725300  1
  O  O59  1  0.25060200  0.80442100  0.20443100  1
  O  O60  1  0.27272000  0.58950300  0.43076900  1
  O  O61  1  0.72341400  0.57607300  0.41759700  1
  O  O62  1  0.00337100  0.65550300  0.06587100  1
  O  O63  1  0.00334300  0.44750100  0.37414200  1
  O  O64  1  0.75079500  0.57763200  0.15202800  1
  O  O65  1  0.24938300  0.57862800  0.15787900  1
  O  O66  1  0.31119900  0.36637500  0.38059200  1
  O  O67  1  0.31110500  0.62355500  0.98745600  1
  O  O68  1  0.25859800  0.40181700  0.20657700  1
  O  O69  1  0.76085900  0.39449400  0.19822400  1
  O  O70  1  0.50215600  0.41889200  0.06566700  1
  O  O71  1  0.19791600  0.36180800  0.98958100  1
