# generated using pymatgen
data_Bi16Ru16O55
_symmetry_space_group_name_H-M   'P 1'
_cell_length_a   7.32720135
_cell_length_b   7.32720112
_cell_length_c   58.57632230
_cell_angle_alpha   59.97543524
_cell_angle_beta   59.97543627
_cell_angle_gamma   59.99921564
_symmetry_Int_Tables_number   1
_chemical_formula_structural   Bi16Ru16O55
_chemical_formula_sum   'Bi32 Ru32 O110'
_cell_volume   2222.89741623
_cell_formula_units_Z   2
loop_
 _symmetry_equiv_pos_site_id
 _symmetry_equiv_pos_as_xyz
  1  'x, y, z'
loop_
 _atom_site_type_symbol
 _atom_site_label
 _atom_site_symmetry_multiplicity
 _atom_site_fract_x
 _atom_site_fract_y
 _atom_site_fract_z
 _atom_site_occupancy
  Bi  Bi0  1  0.50314984  0.98626786  0.06343383  1
  Bi  Bi1  1  0.50311857  0.50311857  0.06344241  1
  Bi  Bi2  1  -0.00003225  0.49995290  0.18750553  1
  Bi  Bi3  1  0.50687991  0.50687991  0.12242003  1
  Bi  Bi4  1  0.49995290  -0.00003225  0.18750553  1
  Bi  Bi5  1  0.98626786  0.50314984  0.06343383  1
  Bi  Bi6  1  0.50003654  0.50003654  0.18749329  1
  Bi  Bi7  1  0.01354068  0.49689593  0.31158514  1
  Bi  Bi8  1  0.49318750  0.49318750  0.25255502  1
  Bi  Bi9  1  0.49689593  0.01354068  0.31158514  1
  Bi  Bi10  1  0.49688626  0.49688626  0.31158785  1
  Bi  Bi11  1  0.00082968  0.50000705  0.43739665  1
  Bi  Bi12  1  0.50307757  0.50307757  0.37384578  1
  Bi  Bi13  1  0.50000705  0.00082968  0.43739665  1
  Bi  Bi14  1  0.49998962  0.49998962  0.43739914  1
  Bi  Bi15  1  0.50018444  0.50018444  0.49993075  1
  Bi  Bi16  1  0.49990045  0.49990045  0.56251557  1
  Bi  Bi17  1  0.49997915  -0.00004243  0.68750741  1
  Bi  Bi18  1  0.49989737  0.00007424  0.56251598  1
  Bi  Bi19  1  0.49994364  0.49994364  0.62502135  1
  Bi  Bi20  1  0.00007424  0.49989737  0.56251598  1
  Bi  Bi21  1  0.50000578  0.50000578  0.68750363  1
  Bi  Bi22  1  -0.00005759  0.50015058  0.81247192  1
  Bi  Bi23  1  0.50015058  -0.00005759  0.81247192  1
  Bi  Bi24  1  0.50000331  0.50000331  0.74999888  1
  Bi  Bi25  1  -0.00004243  0.49997915  0.68750741  1
  Bi  Bi26  1  0.50013117  0.50013117  0.81247464  1
  Bi  Bi27  1  0.99919321  0.50003392  0.93759563  1
  Bi  Bi28  1  0.49984586  0.49984586  0.87505749  1
  Bi  Bi29  1  0.50003392  0.99919321  0.93759563  1
  Bi  Bi30  1  0.50001036  0.50001036  0.93759848  1
  Bi  Bi31  1  0.49698343  0.49698343  0.00113079  1
  Ru  Ru32  1  0.00007917  0.00007917  0.00003885  1
  Ru  Ru33  1  0.00005273  0.49953948  0.00004068  1
  Ru  Ru34  1  0.49953948  0.00005273  0.00004068  1
  Ru  Ru35  1  0.99945635  0.99945635  0.12510565  1
  Ru  Ru36  1  0.99951312  0.50027478  0.12509117  1
  Ru  Ru37  1  0.50027478  0.99951312  0.12509117  1
  Ru  Ru38  1  0.00041948  0.00041948  0.24992491  1
  Ru  Ru39  1  0.00047571  0.49976770  0.24991921  1
  Ru  Ru40  1  0.49976770  0.00047571  0.24991921  1
  Ru  Ru41  1  0.99987836  0.99987836  0.37497277  1
  Ru  Ru42  1  0.99994916  0.99994916  0.06252929  1
  Ru  Ru43  1  0.99986076  0.50046227  0.37497448  1
  Ru  Ru44  1  0.50046227  0.99986076  0.37497448  1
  Ru  Ru45  1  0.99988421  0.99988421  0.50004332  1
  Ru  Ru46  1  -0.00004716  -0.00004716  0.18750529  1
  Ru  Ru47  1  0.99987521  0.49988473  0.50004356  1
  Ru  Ru48  1  0.49988473  0.99987521  0.50004356  1
  Ru  Ru49  1  -0.00015381  -0.00015381  0.62505225  1
  Ru  Ru50  1  0.00002560  0.00002560  0.31249245  1
  Ru  Ru51  1  -0.00012885  0.49988875  0.62505003  1
  Ru  Ru52  1  0.00025976  0.00025976  0.74991696  1
  Ru  Ru53  1  0.49988875  -0.00012885  0.62505003  1
  Ru  Ru54  1  0.99976809  0.99976809  0.43758805  1
  Ru  Ru55  1  0.00027055  0.50014185  0.74991560  1
  Ru  Ru56  1  0.50014185  0.00027055  0.74991560  1
  Ru  Ru57  1  0.99999516  0.99999516  0.56250108  1
  Ru  Ru58  1  0.00014586  0.50003884  0.87495458  1
  Ru  Ru59  1  0.00017568  0.00017568  0.87495044  1
  Ru  Ru60  1  0.00004298  0.00004298  0.81248448  1
  Ru  Ru61  1  -0.00000987  -0.00000987  0.68750020  1
  Ru  Ru62  1  0.50003884  0.00014586  0.87495458  1
  Ru  Ru63  1  0.00024954  0.00024954  0.93740600  1
  O  O64  1  0.07841322  0.66959656  0.01033730  1
  O  O65  1  0.08030945  0.08030945  0.08375151  1
  O  O66  1  0.66959656  0.07841322  0.01033730  1
  O  O67  1  0.36466126  0.36466126  0.05074921  1
  O  O68  1  0.08050814  0.66958422  0.08367099  1
  O  O69  1  0.08096445  0.67171037  0.13456197  1
  O  O70  1  0.32765807  0.92187248  0.04107767  1
  O  O71  1  0.32874005  0.32874005  0.11525828  1
  O  O72  1  0.08048360  0.08048360  0.20872535  1
  O  O73  1  0.66939152  0.66939152  0.01034023  1
  O  O74  1  0.66958422  0.08050814  0.08367099  1
  O  O75  1  0.92187248  0.32765807  0.04107767  1
  O  O76  1  0.67171037  0.08096445  0.13456197  1
  O  O77  1  0.38398029  0.38398029  0.16850768  1
  O  O78  1  0.08039248  0.66924835  0.20874523  1
  O  O79  1  0.32810285  0.92065534  0.11528192  1
  O  O80  1  0.07931736  0.67144028  0.25970809  1
  O  O81  1  0.32861507  0.32861507  0.24046528  1
  O  O82  1  0.33074794  0.91943782  0.16630154  1
  O  O83  1  0.07819777  0.07819777  0.33390143  1
  O  O84  1  0.67103049  0.67103049  0.13459338  1
  O  O85  1  0.92065534  0.32810285  0.11528192  1
  O  O86  1  0.66924835  0.08039248  0.20874523  1
  O  O87  1  0.92190367  0.92190367  0.04105060  1
  O  O88  1  0.67144028  0.07931736  0.25970809  1
  O  O89  1  0.61600192  0.61600192  0.20649997  1
  O  O90  1  0.91943782  0.33074794  0.16630154  1
  O  O91  1  0.32875953  0.91900045  0.24044967  1
  O  O92  1  0.07818349  0.67236219  0.33390936  1
  O  O93  1  0.07898467  0.67072110  0.38493610  1
  O  O94  1  0.33072437  0.33072437  0.36463641  1
  O  O95  1  0.07924139  0.07924139  0.45887766  1
  O  O96  1  0.33027245  0.91971826  0.29128358  1
  O  O97  1  0.67236219  0.07818349  0.33390936  1
  O  O98  1  0.67153879  0.67153879  0.25970580  1
  O  O99  1  0.91967135  0.91967135  0.16620920  1
  O  O100  1  0.91900045  0.32875953  0.24044967  1
  O  O101  1  0.67072110  0.07898467  0.38493610  1
  O  O102  1  0.37851760  0.37851760  0.42055557  1
  O  O103  1  0.63531571  0.63531571  0.32425703  1
  O  O104  1  0.91971826  0.33027245  0.29128358  1
  O  O105  1  0.07928859  0.67055839  0.45885810  1
  O  O106  1  0.33078260  0.92143484  0.36463550  1
  O  O107  1  0.32871363  0.92079396  0.41621248  1
  O  O108  1  0.07895570  0.67132218  0.50982714  1
  O  O109  1  0.07960651  0.07960651  0.58378603  1
  O  O110  1  0.32905620  0.32905620  0.49012385  1
  O  O111  1  0.92143484  0.33078260  0.36463550  1
  O  O112  1  0.67055839  0.07928859  0.45885810  1
  O  O113  1  0.67079664  0.67079664  0.38493105  1
  O  O114  1  0.91968293  0.91968293  0.29129769  1
  O  O115  1  0.92079396  0.32871363  0.41621248  1
  O  O116  1  0.67132218  0.07895570  0.50982714  1
  O  O117  1  0.07962787  0.67055354  0.58377259  1
  O  O118  1  0.62528924  0.62528924  0.45301657  1
  O  O119  1  0.37487917  0.37487917  0.54692054  1
  O  O120  1  0.32890176  0.92094031  0.49013078  1
  O  O121  1  0.07914089  0.67076094  0.63493525  1
  O  O122  1  0.32954975  0.32954975  0.61501725  1
  O  O123  1  0.07929586  0.07929586  0.70882889  1
  O  O124  1  0.32893757  0.92084613  0.54117243  1
  O  O125  1  0.67055354  0.07962787  0.58377259  1
  O  O126  1  0.92094031  0.32890176  0.49013078  1
  O  O127  1  0.92076034  0.92076034  0.41622227  1
  O  O128  1  0.67117496  0.67117496  0.50983135  1
  O  O129  1  0.67076094  0.07914089  0.63493525  1
  O  O130  1  0.92084613  0.32893757  0.54117243  1
  O  O131  1  0.07922140  0.67070870  0.70885722  1
  O  O132  1  0.32945093  0.92079366  0.61501905  1
  O  O133  1  0.37491073  0.37491073  0.67190847  1
  O  O134  1  0.62495568  0.62495568  0.57814157  1
  O  O135  1  0.32920955  0.32920955  0.74007522  1
  O  O136  1  0.07904661  0.07904661  0.83384588  1
  O  O137  1  0.32935384  0.92069883  0.66615540  1
  O  O138  1  0.07924448  0.67035581  0.75997104  1
  O  O139  1  0.67064411  0.67064411  0.63494262  1
  O  O140  1  0.92088460  0.92088460  0.54115317  1
  O  O141  1  0.92079366  0.32945093  0.61501905  1
  O  O142  1  0.67070870  0.07922140  0.70885722  1
  O  O143  1  0.67035581  0.07924448  0.75997104  1
  O  O144  1  0.62517195  0.62517195  0.70306090  1
  O  O145  1  0.37508249  0.37508249  0.79684371  1
  O  O146  1  0.32941990  0.92091322  0.74006550  1
  O  O147  1  0.92069883  0.32935384  0.66615540  1
  O  O148  1  0.07905824  0.67112635  0.83384578  1
  O  O149  1  0.32934618  0.92045936  0.79121550  1
  O  O150  1  0.32874871  0.32874871  0.86518149  1
  O  O151  1  0.07908670  0.07908670  0.95883647  1
  O  O152  1  0.07905315  0.67098044  0.88487218  1
  O  O153  1  0.92091322  0.32941990  0.74006550  1
  O  O154  1  0.67112635  0.07905824  0.83384578  1
  O  O155  1  0.67055773  0.67055773  0.75996337  1
  O  O156  1  0.92074940  0.92074940  0.66614012  1
  O  O157  1  0.67098044  0.07905315  0.88487218  1
  O  O158  1  0.37470683  0.37470683  0.92198512  1
  O  O159  1  0.62510872  0.62510872  0.82808458  1
  O  O160  1  0.92045936  0.32934618  0.79121550  1
  O  O161  1  0.32874732  0.92104784  0.86518439  1
  O  O162  1  0.07916028  0.67122663  0.95880607  1
  O  O163  1  0.32916591  0.32916591  0.99007992  1
  O  O164  1  0.32954542  0.92074499  0.91612159  1
  O  O165  1  0.92039541  0.92039541  0.79124268  1
  O  O166  1  0.92104784  0.32874732  0.86518439  1
  O  O167  1  0.67122663  0.07916028  0.95880607  1
  O  O168  1  0.67100073  0.67100073  0.88486871  1
  O  O169  1  0.92074499  0.32954542  0.91612159  1
  O  O170  1  0.62147047  0.62147047  0.95444807  1
  O  O171  1  0.32892721  0.92110802  0.99009021  1
  O  O172  1  0.92110802  0.32892721  0.99009021  1
  O  O173  1  0.92072387  0.92072387  0.91612477  1
