# generated using pymatgen
data_CsCoH18N6(ClO2)4
_symmetry_space_group_name_H-M   'P 1'
_cell_length_a   10.41388640
_cell_length_b   10.41388640
_cell_length_c   10.41388560
_cell_angle_alpha   44.35201066
_cell_angle_beta   44.35201066
_cell_angle_gamma   44.35201315
_symmetry_Int_Tables_number   1
_chemical_formula_structural   CsCoH18N6(ClO2)4
_chemical_formula_sum   'Cs1 Co1 H18 N6 Cl4 O8'
_cell_volume   501.65813255
_cell_formula_units_Z   1
loop_
 _symmetry_equiv_pos_site_id
 _symmetry_equiv_pos_as_xyz
  1  'x, y, z'
loop_
 _atom_site_type_symbol
 _atom_site_label
 _atom_site_symmetry_multiplicity
 _atom_site_fract_x
 _atom_site_fract_y
 _atom_site_fract_z
 _atom_site_occupancy
  Cs  Cs0  1  0.50233200  0.50233200  0.50233200  1
  Co  Co1  1  0.97645300  0.97645300  0.97645300  1
  H  H2  1  0.64436700  0.98194000  0.18821800  1
  H  H3  1  0.98194000  0.64436700  0.18821800  1
  H  H4  1  0.98194000  0.18821800  0.64436700  1
  H  H5  1  0.18821800  0.98194000  0.64436700  1
  H  H6  1  0.64436700  0.18821800  0.98194000  1
  H  H7  1  0.18821800  0.64436700  0.98194000  1
  H  H8  1  0.79633100  0.79633100  0.50233400  1
  H  H9  1  0.79261500  0.01005600  0.29552900  1
  H  H10  1  0.01005600  0.79261500  0.29552900  1
  H  H11  1  0.91841400  0.91841400  0.41172300  1
  H  H12  1  0.79633100  0.50233400  0.79633100  1
  H  H13  1  0.50233400  0.79633100  0.79633100  1
  H  H14  1  0.29552900  0.01005600  0.79261500  1
  H  H15  1  0.01005600  0.29552900  0.79261500  1
  H  H16  1  0.79261500  0.29552900  0.01005600  1
  H  H17  1  0.29552900  0.79261500  0.01005600  1
  H  H18  1  0.41172300  0.91841400  0.91841400  1
  H  H19  1  0.91841400  0.41172300  0.91841400  1
  N  N20  1  0.70818700  0.08340800  0.08340800  1
  N  N21  1  0.08340800  0.70818700  0.08340800  1
  N  N22  1  0.08340800  0.08340800  0.70818700  1
  N  N23  1  0.88180300  0.88180300  0.37493100  1
  N  N24  1  0.37493100  0.88180300  0.88180300  1
  N  N25  1  0.88180300  0.37493100  0.88180300  1
  Cl  Cl26  1  0.18618200  0.18618200  0.18618200  1
  Cl  Cl27  1  0.38316100  0.38316100  0.38316100  1
  Cl  Cl28  1  0.63912000  0.63912000  0.63912000  1
  Cl  Cl29  1  0.80937800  0.80937800  0.80937800  1
  O  O30  1  0.13353600  0.13353600  0.13353600  1
  O  O31  1  0.68936300  0.68936300  0.99350200  1
  O  O32  1  0.99350200  0.68936300  0.68936300  1
  O  O33  1  0.68936300  0.99350200  0.68936300  1
  O  O34  1  0.30481300  0.00023000  0.30481300  1
  O  O35  1  0.00023000  0.30481300  0.30481300  1
  O  O36  1  0.30481300  0.30481300  0.00023000  1
  O  O37  1  0.86061400  0.86061400  0.86061400  1
