# generated using pymatgen
data_CeGaAg
_symmetry_space_group_name_H-M   'P 1'
_cell_length_a   4.68280800
_cell_length_b   7.47630100
_cell_length_c   7.79077500
_cell_angle_alpha   90.00000000
_cell_angle_beta   90.00000000
_cell_angle_gamma   90.00000000
_symmetry_Int_Tables_number   1
_chemical_formula_structural   CeGaAg
_chemical_formula_sum   'Ce4 Ga4 Ag4'
_cell_volume   272.75567263
_cell_formula_units_Z   4
loop_
 _symmetry_equiv_pos_site_id
 _symmetry_equiv_pos_as_xyz
  1  'x, y, z'
loop_
 _atom_site_type_symbol
 _atom_site_label
 _atom_site_symmetry_multiplicity
 _atom_site_fract_x
 _atom_site_fract_y
 _atom_site_fract_z
 _atom_site_occupancy
  Ce  Ce0  1  0.75000000  0.00340400  0.29647200  1
  Ce  Ce1  1  0.25000000  0.00340400  0.70352800  1
  Ce  Ce2  1  0.75000000  0.49636200  0.20290000  1
  Ce  Ce3  1  0.25000000  0.49636200  0.79710000  1
  Ga  Ga4  1  0.75000000  0.70921900  0.58416500  1
  Ga  Ga5  1  0.25000000  0.70921900  0.41583500  1
  Ga  Ga6  1  0.75000000  0.79165500  0.91611600  1
  Ga  Ga7  1  0.25000000  0.79165500  0.08388400  1
  Ag  Ag8  1  0.75000000  0.32602300  0.58952700  1
  Ag  Ag9  1  0.25000000  0.32602300  0.41047300  1
  Ag  Ag10  1  0.75000000  0.17323700  0.91040800  1
  Ag  Ag11  1  0.25000000  0.17323700  0.08959200  1
