# generated using pymatgen
data_Gd7Ti8O26
_symmetry_space_group_name_H-M   'P 1'
_cell_length_a   7.21672173
_cell_length_b   14.47264813
_cell_length_c   12.43051010
_cell_angle_alpha   30.47189418
_cell_angle_beta   55.89209917
_cell_angle_gamma   61.34398117
_symmetry_Int_Tables_number   1
_chemical_formula_structural   Gd7Ti8O26
_chemical_formula_sum   'Gd7 Ti8 O26'
_cell_volume   545.11485671
_cell_formula_units_Z   1
loop_
 _symmetry_equiv_pos_site_id
 _symmetry_equiv_pos_as_xyz
  1  'x, y, z'
loop_
 _atom_site_type_symbol
 _atom_site_label
 _atom_site_symmetry_multiplicity
 _atom_site_fract_x
 _atom_site_fract_y
 _atom_site_fract_z
 _atom_site_occupancy
  Gd  Gd0  1  0.99474300  0.25398800  0.98765300  1
  Gd  Gd1  1  0.98401600  0.52990200  0.98097400  1
  Gd  Gd2  1  0.48319600  0.99576400  0.98177300  1
  Gd  Gd3  1  0.00707600  0.74462800  0.02723400  1
  Gd  Gd4  1  0.48900300  0.48894500  0.02832200  1
  Gd  Gd5  1  0.99841600  0.23208300  0.51375000  1
  Gd  Gd6  1  0.98171400  0.76514300  0.48590900  1
  Ti  Ti7  1  0.02058300  0.99580900  0.48890000  1
  Ti  Ti8  1  0.49716400  0.29070900  0.96119600  1
  Ti  Ti9  1  0.97454500  0.53151500  0.49119400  1
  Ti  Ti10  1  0.51343800  0.74669600  0.99692200  1
  Ti  Ti11  1  0.55112000  0.24047900  0.48712600  1
  Ti  Ti12  1  0.50643100  0.50000800  0.50229400  1
  Ti  Ti13  1  0.48654700  0.71424400  0.53764900  1
  Ti  Ti14  1  0.49296700  0.99381100  0.50061800  1
  O  O15  1  0.19850700  0.17745500  0.18302300  1
  O  O16  1  0.11339900  0.50305300  0.13332000  1
  O  O17  1  0.57127700  0.20207700  0.17524600  1
  O  O18  1  0.38880300  0.21773000  0.42844500  1
  O  O19  1  0.19968100  0.64833200  0.21789300  1
  O  O20  1  0.59901900  0.49565700  0.16655600  1
  O  O21  1  0.16544300  0.50665400  0.58017700  1
  O  O22  1  0.12512800  0.00506400  0.12735100  1
  O  O23  1  0.54302600  0.30540900  0.57069800  1
  O  O24  1  0.57808300  0.69219200  0.18202900  1
  O  O25  1  0.85309700  0.20849300  0.40823600  1
  O  O26  1  0.43583000  0.72170700  0.39712000  1
  O  O27  1  0.17127600  0.79610200  0.57310700  1
  O  O28  1  0.43784300  0.28293800  0.83553000  1
  O  O29  1  0.83130400  0.48426900  0.44109200  1
  O  O30  1  0.38698000  0.50146100  0.85451300  1
  O  O31  1  0.17409400  0.00048900  0.57762700  1
  O  O32  1  0.81485300  0.31683800  0.81631400  1
  O  O33  1  0.81443500  0.71828700  0.41128700  1
  O  O34  1  0.57145500  0.81645700  0.55100300  1
  O  O35  1  0.42040500  0.78894600  0.83489300  1
  O  O36  1  0.86672700  0.50330900  0.87344900  1
  O  O37  1  0.81060000  0.00402500  0.43252100  1
  O  O38  1  0.45984400  0.99616900  0.80421900  1
  O  O39  1  0.83378200  0.79537300  0.82583900  1
  O  O40  1  0.85286300  0.00020000  0.87614200  1
