# generated using pymatgen
data_CdGeO3
_symmetry_space_group_name_H-M   'P 1'
_cell_length_a   6.07045139
_cell_length_b   6.07045139
_cell_length_c   5.22793700
_cell_angle_alpha   90.00000000
_cell_angle_beta   90.00000000
_cell_angle_gamma   126.46686609
_symmetry_Int_Tables_number   1
_chemical_formula_structural   CdGeO3
_chemical_formula_sum   'Cd2 Ge2 O6'
_cell_volume   154.93044510
_cell_formula_units_Z   2
loop_
 _symmetry_equiv_pos_site_id
 _symmetry_equiv_pos_as_xyz
  1  'x, y, z'
loop_
 _atom_site_type_symbol
 _atom_site_label
 _atom_site_symmetry_multiplicity
 _atom_site_fract_x
 _atom_site_fract_y
 _atom_site_fract_z
 _atom_site_occupancy
  Cd  Cd0  1  0.11579400  0.88420600  0.24295200  1
  Cd  Cd1  1  0.88420600  0.11579400  0.74295200  1
  Ge  Ge2  1  0.44132700  0.55867300  0.31390600  1
  Ge  Ge3  1  0.55867300  0.44132700  0.81390600  1
  O  O4  1  0.26090100  0.28993100  0.05027700  1
  O  O5  1  0.71006900  0.73909900  0.05027700  1
  O  O6  1  0.28988500  0.71011500  0.41195500  1
  O  O7  1  0.28993100  0.26090100  0.55027700  1
  O  O8  1  0.73909900  0.71006900  0.55027700  1
  O  O9  1  0.71011500  0.28988500  0.91195500  1
