# generated using pymatgen
data_Na7Bi3P12(Pb5O24)2
_symmetry_space_group_name_H-M   'P 1'
_cell_length_a   9.74487300
_cell_length_b   9.80639202
_cell_length_c   14.33344195
_cell_angle_alpha   89.98978082
_cell_angle_beta   90.05668243
_cell_angle_gamma   119.78360985
_symmetry_Int_Tables_number   1
_chemical_formula_structural   Na7Bi3P12(Pb5O24)2
_chemical_formula_sum   'Na7 Bi3 P12 Pb10 O48'
_cell_volume   1188.80101775
_cell_formula_units_Z   1
loop_
 _symmetry_equiv_pos_site_id
 _symmetry_equiv_pos_as_xyz
  1  'x, y, z'
loop_
 _atom_site_type_symbol
 _atom_site_label
 _atom_site_symmetry_multiplicity
 _atom_site_fract_x
 _atom_site_fract_y
 _atom_site_fract_z
 _atom_site_occupancy
  Na  Na0  1  0.99860300  0.72009400  0.12494800  1
  Na  Na1  1  0.33147300  0.66428100  0.50854400  1
  Na  Na2  1  0.33216800  0.66839600  0.99657100  1
  Na  Na3  1  0.33445000  0.66730200  0.74154000  1
  Na  Na4  1  0.66342100  0.33150700  0.75171700  1
  Na  Na5  1  0.67154900  0.33593000  0.25123100  1
  Na  Na6  1  0.00041000  0.27697500  0.37592700  1
  Bi  Bi7  1  0.31760400  0.65231300  0.24604200  1
  Bi  Bi8  1  0.67406100  0.34745900  0.99891400  1
  Bi  Bi9  1  0.67841900  0.33474500  0.49353100  1
  P  P10  1  0.59981100  0.98118400  0.87895400  1
  P  P11  1  0.59606400  0.97657600  0.37570700  1
  P  P12  1  0.02507500  0.62382300  0.88106500  1
  P  P13  1  0.03182400  0.62683600  0.37265800  1
  P  P14  1  0.62506600  0.59785400  0.62282600  1
  P  P15  1  0.62047900  0.59363500  0.12692600  1
  P  P16  1  0.38106600  0.40497600  0.87854200  1
  P  P17  1  0.37880300  0.40531900  0.37511700  1
  P  P18  1  0.96729400  0.36933200  0.12957900  1
  P  P19  1  0.97202100  0.37426700  0.62056700  1
  P  P20  1  0.40080100  0.02578100  0.62273400  1
  P  P21  1  0.40161400  0.02071800  0.12767300  1
  Pb  Pb22  1  0.00614300  0.74472800  0.62814300  1
  Pb  Pb23  1  0.73862100  0.99439500  0.62706400  1
  Pb  Pb24  1  0.75123900  0.00337700  0.12773200  1
  Pb  Pb25  1  0.73975800  0.74851100  0.87430000  1
  Pb  Pb26  1  0.74203400  0.74428000  0.37301800  1
  Pb  Pb27  1  0.25562000  0.25039100  0.12771600  1
  Pb  Pb28  1  0.25623500  0.26351100  0.62305800  1
  Pb  Pb29  1  0.24903400  0.99667100  0.37580900  1
  Pb  Pb30  1  0.24961600  0.99045500  0.87491400  1
  Pb  Pb31  1  0.00902800  0.26285800  0.87149000  1
  O  O32  1  0.07929400  0.73029100  0.28306100  1
  O  O33  1  0.07980200  0.73632400  0.96555500  1
  O  O34  1  0.06816400  0.72962900  0.79217500  1
  O  O35  1  0.07840400  0.74039300  0.45783300  1
  O  O36  1  0.41562400  0.89013300  0.87431200  1
  O  O37  1  0.41008800  0.88473000  0.37283300  1
  O  O38  1  0.33198200  0.84780100  0.62108400  1
  O  O39  1  0.33631000  0.84131800  0.13000900  1
  O  O40  1  0.66481400  0.93553300  0.79183300  1
  O  O41  1  0.65386400  0.92057300  0.96397700  1
  O  O42  1  0.65054200  0.92289200  0.28756300  1
  O  O43  1  0.65581400  0.92245700  0.46024500  1
  O  O44  1  0.11503200  0.52950400  0.87707700  1
  O  O45  1  0.13045700  0.54139300  0.37166600  1
  O  O46  1  0.51738300  0.66954500  0.62083300  1
  O  O47  1  0.49958100  0.65329700  0.12663500  1
  O  O48  1  0.15125400  0.48022400  0.61932400  1
  O  O49  1  0.14857700  0.49342100  0.13118900  1
  O  O50  1  0.47218000  0.58800100  0.87268400  1
  O  O51  1  0.46989700  0.59158900  0.37951600  1
  O  O52  1  0.73641300  0.66188100  0.20927500  1
  O  O53  1  0.74170200  0.65984700  0.70726500  1
  O  O54  1  0.73167500  0.63370900  0.53331000  1
  O  O55  1  0.71795300  0.63108200  0.03439700  1
  O  O56  1  0.26991700  0.35098300  0.96487500  1
  O  O57  1  0.25979600  0.33353100  0.45577600  1
  O  O58  1  0.26981500  0.33800200  0.79202700  1
  O  O59  1  0.28272000  0.36863100  0.28199200  1
  O  O60  1  0.52845000  0.41217200  0.62685600  1
  O  O61  1  0.52899100  0.40671700  0.12995200  1
  O  O62  1  0.84217800  0.50593500  0.88276500  1
  O  O63  1  0.85077500  0.50447100  0.37702100  1
  O  O64  1  0.49883700  0.34091000  0.88212600  1
  O  O65  1  0.50061300  0.34639900  0.37508100  1
  O  O66  1  0.86826400  0.45412600  0.12663700  1
  O  O67  1  0.88377400  0.47356400  0.62591000  1
  O  O68  1  0.36295200  0.09392000  0.53289800  1
  O  O69  1  0.33945500  0.08018300  0.70704200  1
  O  O70  1  0.34887500  0.07633900  0.03924500  1
  O  O71  1  0.34393100  0.07844500  0.21228100  1
  O  O72  1  0.66623600  0.16185500  0.88296900  1
  O  O73  1  0.65872300  0.15639900  0.37704200  1
  O  O74  1  0.58838300  0.11669500  0.62545100  1
  O  O75  1  0.58782100  0.11261400  0.12606300  1
  O  O76  1  0.91801200  0.25892200  0.70519500  1
  O  O77  1  0.89880500  0.27179700  0.53035400  1
  O  O78  1  0.92260700  0.25632200  0.21354800  1
  O  O79  1  0.92386300  0.26702200  0.03868900  1
