# generated using pymatgen
data_Gd3NbO7
_symmetry_space_group_name_H-M   'P 1'
_cell_length_a   5.53962800
_cell_length_b   7.65351400
_cell_length_c   8.31726729
_cell_angle_alpha   65.55424193
_cell_angle_beta   90.00000000
_cell_angle_gamma   90.00000000
_symmetry_Int_Tables_number   1
_chemical_formula_structural   Gd3NbO7
_chemical_formula_sum   'Gd6 Nb2 O14'
_cell_volume   321.02007009
_cell_formula_units_Z   2
loop_
 _symmetry_equiv_pos_site_id
 _symmetry_equiv_pos_as_xyz
  1  'x, y, z'
loop_
 _atom_site_type_symbol
 _atom_site_label
 _atom_site_symmetry_multiplicity
 _atom_site_fract_x
 _atom_site_fract_y
 _atom_site_fract_z
 _atom_site_occupancy
  Gd  Gd0  1  0.00621400  0.00098400  0.00683000  1
  Gd  Gd1  1  0.99378600  0.50098400  0.00683000  1
  Gd  Gd2  1  0.54137400  0.09220600  0.24646900  1
  Gd  Gd3  1  0.45862600  0.59220600  0.24646900  1
  Gd  Gd4  1  0.53340700  0.40384700  0.76363500  1
  Gd  Gd5  1  0.46659300  0.90384700  0.76363500  1
  Nb  Nb6  1  0.99112600  0.73856000  0.50712000  1
  Nb  Nb7  1  0.00887400  0.23856000  0.50712000  1
  O  O8  1  0.78302100  0.25014400  0.00271300  1
  O  O9  1  0.19132200  0.85175000  0.29909000  1
  O  O10  1  0.74330800  0.56607800  0.50507500  1
  O  O11  1  0.21697900  0.75014400  0.00271300  1
  O  O12  1  0.33487100  0.35711600  0.13964900  1
  O  O13  1  0.30912200  0.14939000  0.82649900  1
  O  O14  1  0.80867800  0.35175000  0.29909000  1
  O  O15  1  0.79377100  0.95124800  0.48884300  1
  O  O16  1  0.25669200  0.06607800  0.50507500  1
  O  O17  1  0.19814300  0.64366400  0.71034800  1
  O  O18  1  0.69087800  0.64939000  0.82649900  1
  O  O19  1  0.66512900  0.85711600  0.13964900  1
  O  O20  1  0.20622900  0.45124800  0.48884300  1
  O  O21  1  0.80185700  0.14366400  0.71034800  1
