# generated using pymatgen
data_Al6Bi24Cl23
_symmetry_space_group_name_H-M   'P 1'
_cell_length_a   16.74752369
_cell_length_b   16.86644452
_cell_length_c   18.81898857
_cell_angle_alpha   90.67339468
_cell_angle_beta   87.96432283
_cell_angle_gamma   113.67942665
_symmetry_Int_Tables_number   1
_chemical_formula_structural   Al6Bi24Cl23
_chemical_formula_sum   'Al12 Bi48 Cl46'
_cell_volume   4865.17546822
_cell_formula_units_Z   2
loop_
 _symmetry_equiv_pos_site_id
 _symmetry_equiv_pos_as_xyz
  1  'x, y, z'
loop_
 _atom_site_type_symbol
 _atom_site_label
 _atom_site_symmetry_multiplicity
 _atom_site_fract_x
 _atom_site_fract_y
 _atom_site_fract_z
 _atom_site_occupancy
  Al  Al0  1  0.31898695  0.74278769  0.96034588  1
  Al  Al1  1  0.36744107  0.62874532  0.10097808  1
  Al  Al2  1  0.31583841  0.68913514  0.49321089  1
  Al  Al3  1  0.39613099  0.34495958  0.25778358  1
  Al  Al4  1  0.63319712  0.66069597  0.75041213  1
  Al  Al5  1  0.74837972  0.42750491  0.45697837  1
  Al  Al6  1  0.62956641  0.30785725  0.57998132  1
  Al  Al7  1  0.76209840  0.42089997  0.04704609  1
  Al  Al8  1  0.93729870  0.93580710  0.54241843  1
  Al  Al9  1  0.92761020  0.94185937  0.95311196  1
  Al  Al10  1  0.67060869  0.28158181  0.90696584  1
  Al  Al11  1  0.75314115  0.11510763  0.24905685  1
  Bi  Bi12  1  0.07587897  0.71749771  0.62775718  1
  Bi  Bi13  1  0.06238044  0.77788943  0.86752247  1
  Bi  Bi14  1  0.14684314  0.98814085  0.25017811  1
  Bi  Bi15  1  0.17529559  0.72098566  0.76333294  1
  Bi  Bi16  1  0.20009721  0.84894480  0.16616030  1
  Bi  Bi17  1  0.19613567  0.84493949  0.32902076  1
  Bi  Bi18  1  0.01097335  0.44639102  0.15661821  1
  Bi  Bi19  1  0.00276013  0.45003197  0.32499293  1
  Bi  Bi20  1  0.06178076  0.18978195  0.24607364  1
  Bi  Bi21  1  0.39814632  0.92964858  0.32839522  1
  Bi  Bi22  1  0.40293210  0.93559359  0.16160759  1
  Bi  Bi23  1  0.15378930  0.37738153  0.16249909  1
  Bi  Bi24  1  0.14441582  0.37989403  0.32760048  1
  Bi  Bi25  1  0.55538733  0.86839951  0.76195104  1
  Bi  Bi26  1  0.24607434  0.43839161  0.74794593  1
  Bi  Bi27  1  0.21099979  0.30457115  0.86921766  1
  Bi  Bi28  1  0.22521027  0.29449866  0.63830184  1
  Bi  Bi29  1  0.18200907  0.15762732  0.75824383  1
  Bi  Bi30  1  0.69179781  0.96974565  0.87323418  1
  Bi  Bi31  1  0.69541954  0.93669832  0.64072267  1
  Bi  Bi32  1  0.68969248  0.82700801  0.33003729  1
  Bi  Bi33  1  0.68882208  0.82248840  0.16683146  1
  Bi  Bi34  1  0.53689923  0.64163163  0.17397569  1
  Bi  Bi35  1  0.54271508  0.64264336  0.33649516  1
  Bi  Bi36  1  0.41156115  0.42204370  0.67144946  1
  Bi  Bi37  1  0.40513401  0.43044346  0.83545422  1
  Bi  Bi38  1  0.35648749  0.23144582  0.84376625  1
  Bi  Bi39  1  0.36512191  0.21493103  0.68159920  1
  Bi  Bi40  1  0.29138252  0.04343185  0.36348198  1
  Bi  Bi41  1  0.29651419  0.04855001  0.13352598  1
  Bi  Bi42  1  0.85649203  0.79226784  0.24508639  1
  Bi  Bi43  1  0.74315825  0.67543593  0.36432915  1
  Bi  Bi44  1  0.74184932  0.66967773  0.13356787  1
  Bi  Bi45  1  0.63692550  0.53973987  0.25232700  1
  Bi  Bi46  1  0.43647519  0.10661640  0.24691119  1
  Bi  Bi47  1  0.87718592  0.61658852  0.67289046  1
  Bi  Bi48  1  0.89254484  0.62063386  0.83504705  1
  Bi  Bi49  1  0.55043870  0.04170802  0.82822790  1
  Bi  Bi50  1  0.55468309  0.02064060  0.66679820  1
  Bi  Bi51  1  0.98083897  0.80170916  0.72396347  1
  Bi  Bi52  1  0.00180205  0.51670162  0.71103031  1
  Bi  Bi53  1  0.05786799  0.57968133  0.86910734  1
  Bi  Bi54  1  0.75573982  0.13847805  0.66090789  1
  Bi  Bi55  1  0.74460949  0.16897016  0.82371557  1
  Bi  Bi56  1  0.85187419  0.30483500  0.23972042  1
  Bi  Bi57  1  0.83078899  0.03339905  0.75160938  1
  Bi  Bi58  1  0.96638519  0.25028431  0.12628043  1
  Bi  Bi59  1  0.95301025  0.25457579  0.36034449  1
  Cl  Cl60  1  0.29431637  0.85572045  0.94191905  1
  Cl  Cl61  1  0.30380760  0.74835462  0.59373451  1
  Cl  Cl62  1  0.19800405  0.66168794  0.43492485  1
  Cl  Cl63  1  0.21987098  0.65775026  0.03533699  1
  Cl  Cl64  1  0.12430685  0.48844652  0.63960841  1
  Cl  Cl65  1  0.09375763  0.43450999  0.85739509  1
  Cl  Cl66  1  0.32833111  0.68038211  0.86286920  1
  Cl  Cl67  1  0.05393808  0.06964977  0.34540174  1
  Cl  Cl68  1  0.43977259  0.77355593  0.01768294  1
  Cl  Cl69  1  0.42704160  0.78311092  0.43321655  1
  Cl  Cl70  1  0.34796915  0.52788022  0.02146031  1
  Cl  Cl71  1  0.33963102  0.57450058  0.50549599  1
  Cl  Cl72  1  0.36076836  0.45664191  0.26190372  1
  Cl  Cl73  1  0.27574013  0.23095736  0.26607276  1
  Cl  Cl74  1  0.56135573  0.64050871  0.85063439  1
  Cl  Cl75  1  0.55371146  0.67284040  0.66707161  1
  Cl  Cl76  1  0.47148308  0.34465228  0.34789730  1
  Cl  Cl77  1  0.46185433  0.34326417  0.15866704  1
  Cl  Cl78  1  0.75302962  0.77405296  0.75589203  1
  Cl  Cl79  1  0.66347220  0.54831407  0.72840878  1
  Cl  Cl80  1  0.39978746  0.07226521  0.73442811  1
  Cl  Cl81  1  0.79939598  0.83848164  0.95188776  1
  Cl  Cl82  1  0.81519744  0.82342694  0.55216674  1
  Cl  Cl83  1  0.63393581  0.42940909  0.52438676  1
  Cl  Cl84  1  0.67508267  0.42651132  0.96408724  1
  Cl  Cl85  1  0.52968522  0.19928584  0.53751836  1
  Cl  Cl86  1  0.54288160  0.20306667  0.95771122  1
  Cl  Cl87  1  0.63994504  0.32625293  0.68926787  1
  Cl  Cl88  1  0.70018791  0.38964875  0.14964153  1
  Cl  Cl89  1  0.70730258  0.37693866  0.35650994  1
  Cl  Cl90  1  0.98139191  0.97046031  0.84366934  1
  Cl  Cl91  1  0.01237526  0.89840582  0.00954457  1
  Cl  Cl92  1  0.02940632  0.90089402  0.48261885  1
  Cl  Cl93  1  0.99083571  0.73907447  0.24975962  1
  Cl  Cl94  1  0.87443789  0.54102258  0.04531555  1
  Cl  Cl95  1  0.85703321  0.54502276  0.46721829  1
  Cl  Cl96  1  0.79100258  0.31219770  0.00920176  1
  Cl  Cl97  1  0.76006517  0.32418532  0.52684653  1
  Cl  Cl98  1  0.68347307  0.11394216  0.34635564  1
  Cl  Cl99  1  0.68010120  0.10288350  0.15636499  1
  Cl  Cl100  1  0.87910368  0.35944133  0.71441535  1
  Cl  Cl101  1  0.82504997  0.03596964  0.24955234  1
  Cl  Cl102  1  0.91745448  0.05776138  0.99261200  1
  Cl  Cl103  1  0.91284690  0.04427104  0.50771411  1
  Cl  Cl104  1  0.07237314  0.07509570  0.14581063  1
  Cl  Cl105  1  0.99086617  0.97174598  0.64965399  1
