# generated using pymatgen
data_Gd2Ti2O7
_symmetry_space_group_name_H-M   'P 1'
_cell_length_a   7.27369502
_cell_length_b   7.27369539
_cell_length_c   29.05051938
_cell_angle_alpha   59.50497646
_cell_angle_beta   59.50497473
_cell_angle_gamma   59.63461755
_symmetry_Int_Tables_number   1
_chemical_formula_structural   Gd2Ti2O7
_chemical_formula_sum   'Gd16 Ti16 O56'
_cell_volume   1075.63094997
_cell_formula_units_Z   8
loop_
 _symmetry_equiv_pos_site_id
 _symmetry_equiv_pos_as_xyz
  1  'x, y, z'
loop_
 _atom_site_type_symbol
 _atom_site_label
 _atom_site_symmetry_multiplicity
 _atom_site_fract_x
 _atom_site_fract_y
 _atom_site_fract_z
 _atom_site_occupancy
  Gd  Gd0  1  0.50097690  -0.00120440  -0.00032310  1
  Gd  Gd1  1  0.47629433  0.47629433  0.01352601  1
  Gd  Gd2  1  0.49893872  0.00070393  0.25019981  1
  Gd  Gd3  1  -0.00118377  -0.00118377  0.12501438  1
  Gd  Gd4  1  0.52363444  0.52363444  0.23632166  1
  Gd  Gd5  1  -0.00120440  0.50097690  -0.00032310  1
  Gd  Gd6  1  0.50107168  0.00074848  0.49807613  1
  Gd  Gd7  1  0.00572285  0.00572285  0.37503655  1
  Gd  Gd8  1  0.00070393  0.49893872  0.25019981  1
  Gd  Gd9  1  -0.00563674  -0.00563674  0.50330445  1
  Gd  Gd10  1  0.49889605  -0.00069023  0.75194778  1
  Gd  Gd11  1  -0.00055169  -0.00055169  0.62497344  1
  Gd  Gd12  1  0.00074848  0.50107168  0.49807613  1
  Gd  Gd13  1  0.00789093  0.00789093  0.74563717  1
  Gd  Gd14  1  -0.00620245  -0.00620245  0.87534708  1
  Gd  Gd15  1  -0.00069023  0.49889605  0.75194778  1
  Ti  Ti16  1  0.01897877  0.01897877  0.98869312  1
  Ti  Ti17  1  0.50204066  0.00022336  0.12398514  1
  Ti  Ti18  1  0.49906023  0.49906023  0.12517729  1
  Ti  Ti19  1  0.50612836  0.00214593  0.37133158  1
  Ti  Ti20  1  0.98753334  0.98753334  0.25889924  1
  Ti  Ti21  1  0.00022336  0.50204066  0.12398514  1
  Ti  Ti22  1  0.49776370  0.49776370  0.37516193  1
  Ti  Ti23  1  0.50063676  0.00118558  0.62439378  1
  Ti  Ti24  1  0.50560108  0.50560108  0.49786670  1
  Ti  Ti25  1  0.50013236  0.50013236  0.62490082  1
  Ti  Ti26  1  0.00214593  0.50612836  0.37133158  1
  Ti  Ti27  1  0.49752289  0.49752289  0.75078149  1
  Ti  Ti28  1  0.49549379  -0.00068478  0.87772457  1
  Ti  Ti29  1  0.00118558  0.50063676  0.62439378  1
  Ti  Ti30  1  0.50226216  0.50226216  0.87478521  1
  Ti  Ti31  1  -0.00068478  0.49549379  0.87772457  1
  O  O32  1  0.10748020  0.10748020  0.02974116  1
  O  O33  1  0.26144497  0.26144497  0.09768865  1
  O  O34  1  0.07448467  0.69352202  0.04341924  1
  O  O35  1  0.17406978  0.59691365  0.13709156  1
  O  O36  1  0.10795468  0.10795468  0.28365806  1
  O  O37  1  0.69352202  0.07448467  0.04341924  1
  O  O38  1  0.60692519  0.60692519  0.04160267  1
  O  O39  1  0.59691365  0.17406978  0.13709156  1
  O  O40  1  0.13916760  0.61327596  0.29017432  1
  O  O41  1  0.19062328  0.19062328  0.38778346  1
  O  O42  1  0.40190310  0.82617681  0.11310145  1
  O  O43  1  0.39269694  0.39269694  0.20847923  1
  O  O44  1  0.17818289  0.57295733  0.39409136  1
  O  O45  1  0.30480543  0.92526409  0.20703179  1
  O  O46  1  0.82617681  0.40190310  0.11310145  1
  O  O47  1  0.12613645  0.12613645  0.53060684  1
  O  O48  1  0.61327596  0.13916760  0.29017432  1
  O  O49  1  0.59904200  0.59904200  0.28895642  1
  O  O50  1  0.73971759  0.73971759  0.15240794  1
  O  O51  1  0.92526409  0.30480543  0.20703179  1
  O  O52  1  0.57295733  0.17818289  0.39409136  1
  O  O53  1  0.17107678  0.17107678  0.64480237  1
  O  O54  1  0.17255085  0.57893685  0.54309723  1
  O  O55  1  0.41293091  0.83344331  0.35675104  1
  O  O56  1  0.42564591  0.42564591  0.45623214  1
  O  O57  1  0.17208291  0.57776199  0.64409859  1
  O  O58  1  0.12384655  0.12384655  0.78064874  1
  O  O59  1  0.42467031  0.82856456  0.45599233  1
  O  O60  1  0.83344331  0.41293091  0.35675104  1
  O  O61  1  0.89204239  0.89204239  0.22020202  1
  O  O62  1  0.57893685  0.17255085  0.54309723  1
  O  O63  1  0.58081547  0.58081547  0.54225382  1
  O  O64  1  0.82856456  0.42467031  0.45599233  1
  O  O65  1  0.83962404  0.83962404  0.35342237  1
  O  O66  1  0.57776199  0.17208291  0.64409859  1
  O  O67  1  0.15864000  0.15864000  0.89771744  1
  O  O68  1  0.17101041  0.57352506  0.79482535  1
  O  O69  1  0.41901079  0.41901079  0.70801676  1
  O  O70  1  0.42204544  0.82687455  0.60622826  1
  O  O71  1  0.82687455  0.42204544  0.60622826  1
  O  O72  1  0.87581290  0.87581290  0.46953831  1
  O  O73  1  0.16657705  0.58678738  0.89330310  1
  O  O74  1  0.41999734  0.82683184  0.70721158  1
  O  O75  1  0.57352506  0.17101041  0.79482535  1
  O  O76  1  0.57492157  0.57492157  0.79388517  1
  O  O77  1  0.82902707  0.82902707  0.60511461  1
  O  O78  1  0.82683184  0.41999734  0.70721158  1
  O  O79  1  0.58678738  0.16657705  0.89330310  1
  O  O80  1  0.40047356  0.40047356  0.96114900  1
  O  O81  1  0.42621292  0.82149569  0.85632235  1
  O  O82  1  0.82149569  0.42621292  0.85632235  1
  O  O83  1  0.87382479  0.87382479  0.71962537  1
  O  O84  1  0.38290119  0.86287441  0.96033646  1
  O  O85  1  0.80683371  0.80683371  0.86365384  1
  O  O86  1  0.86287441  0.38290119  0.96033646  1
  O  O87  1  0.89215164  0.89215164  0.96656371  1
