# generated using pymatgen
data_Na5Zr4Si3(PO8)3
_symmetry_space_group_name_H-M   'P 1'
_cell_length_a   9.32225789
_cell_length_b   9.32225789
_cell_length_c   9.32225855
_cell_angle_alpha   58.57630181
_cell_angle_beta   58.57630181
_cell_angle_gamma   58.57630087
_symmetry_Int_Tables_number   1
_chemical_formula_structural   Na5Zr4Si3(PO8)3
_chemical_formula_sum   'Na5 Zr4 Si3 P3 O24'
_cell_volume   554.21075941
_cell_formula_units_Z   1
loop_
 _symmetry_equiv_pos_site_id
 _symmetry_equiv_pos_as_xyz
  1  'x, y, z'
loop_
 _atom_site_type_symbol
 _atom_site_label
 _atom_site_symmetry_multiplicity
 _atom_site_fract_x
 _atom_site_fract_y
 _atom_site_fract_z
 _atom_site_occupancy
  Na  Na0  1  0.74468900  0.74468900  0.74468900  1
  Na  Na1  1  0.13965100  0.86034900  0.50000000  1
  Na  Na2  1  0.50000000  0.13965100  0.86034900  1
  Na  Na3  1  0.86034900  0.50000000  0.13965100  1
  Na  Na4  1  0.25531100  0.25531100  0.25531100  1
  Zr  Zr5  1  0.89912400  0.89912400  0.89912400  1
  Zr  Zr6  1  0.10087600  0.10087600  0.10087600  1
  Zr  Zr7  1  0.39733100  0.39733100  0.39733100  1
  Zr  Zr8  1  0.60266900  0.60266900  0.60266900  1
  Si  Si9  1  0.50000000  0.78980800  0.21019200  1
  Si  Si10  1  0.78980800  0.21019200  0.50000000  1
  Si  Si11  1  0.21019200  0.50000000  0.78980800  1
  P  P12  1  0.29815700  0.00000000  0.70184300  1
  P  P13  1  0.70184300  0.29815700  0.00000000  1
  P  P14  1  0.00000000  0.70184400  0.29815700  1
  O  O15  1  0.04412700  0.86126200  0.25904200  1
  O  O16  1  0.25904200  0.04412700  0.86126200  1
  O  O17  1  0.67410000  0.82240000  0.02916200  1
  O  O18  1  0.86126200  0.25904200  0.04412700  1
  O  O19  1  0.32590000  0.97083800  0.17760000  1
  O  O20  1  0.51174000  0.76304000  0.39187600  1
  O  O21  1  0.82240000  0.02916200  0.67410000  1
  O  O22  1  0.97083800  0.17760000  0.32590000  1
  O  O23  1  0.17760000  0.32590000  0.97083800  1
  O  O24  1  0.13873800  0.95587300  0.74095800  1
  O  O25  1  0.47180100  0.83617000  0.68655900  1
  O  O26  1  0.74095800  0.13873800  0.95587300  1
  O  O27  1  0.76304000  0.39187600  0.51174000  1
  O  O28  1  0.02916200  0.67410000  0.82240000  1
  O  O29  1  0.39187600  0.51174000  0.76304000  1
  O  O30  1  0.31344100  0.16383000  0.52819900  1
  O  O31  1  0.52819900  0.31344100  0.16383000  1
  O  O32  1  0.68655900  0.47180100  0.83617000  1
  O  O33  1  0.95587300  0.74095800  0.13873800  1
  O  O34  1  0.16383000  0.52819900  0.31344100  1
  O  O35  1  0.60812400  0.23696000  0.48826000  1
  O  O36  1  0.83617000  0.68655900  0.47180100  1
  O  O37  1  0.23696000  0.48826000  0.60812400  1
  O  O38  1  0.48826000  0.60812400  0.23696000  1
