# generated using pymatgen
data_Ca3(PO4)2
_symmetry_space_group_name_H-M   'P 1'
_cell_length_a   14.40690110
_cell_length_b   14.40690110
_cell_length_c   14.40690181
_cell_angle_alpha   43.44266059
_cell_angle_beta   43.44266059
_cell_angle_gamma   43.44266096
_symmetry_Int_Tables_number   1
_chemical_formula_structural   Ca3(PO4)2
_chemical_formula_sum   'Ca21 P14 O56'
_cell_volume   1282.72628506
_cell_formula_units_Z   7
loop_
 _symmetry_equiv_pos_site_id
 _symmetry_equiv_pos_as_xyz
  1  'x, y, z'
loop_
 _atom_site_type_symbol
 _atom_site_label
 _atom_site_symmetry_multiplicity
 _atom_site_fract_x
 _atom_site_fract_y
 _atom_site_fract_z
 _atom_site_occupancy
  Ca  Ca0  1  0.76765100  0.76765100  0.76765100  1
  Ca  Ca1  1  0.39643900  0.82984300  0.85615100  1
  Ca  Ca2  1  0.85615100  0.39643900  0.82984300  1
  Ca  Ca3  1  0.82984300  0.85615100  0.39643900  1
  Ca  Ca4  1  0.78580100  0.20883900  0.81576200  1
  Ca  Ca5  1  0.20883900  0.81576200  0.78580100  1
  Ca  Ca6  1  0.36844200  0.35015600  0.88416400  1
  Ca  Ca7  1  0.81576200  0.78580100  0.20883900  1
  Ca  Ca8  1  0.67119000  0.09968000  0.72268600  1
  Ca  Ca9  1  0.09968000  0.72268600  0.67119000  1
  Ca  Ca10  1  0.35015600  0.88416400  0.36844200  1
  Ca  Ca11  1  0.88416400  0.36844200  0.35015600  1
  Ca  Ca12  1  0.30198400  0.32356800  0.69932800  1
  Ca  Ca13  1  0.72268600  0.67119000  0.09968000  1
  Ca  Ca14  1  0.69932800  0.30198400  0.32356800  1
  Ca  Ca15  1  0.32356800  0.69932800  0.30198400  1
  Ca  Ca16  1  0.17931500  0.21593100  0.59983300  1
  Ca  Ca17  1  0.59983300  0.17931500  0.21593100  1
  Ca  Ca18  1  0.21593100  0.59983300  0.17931500  1
  Ca  Ca19  1  0.26773300  0.26773300  0.26773300  1
  Ca  Ca20  1  0.07975500  0.07975500  0.07975500  1
  P  P21  1  0.00260900  0.00260900  0.00260900  1
  P  P22  1  0.43181800  0.96141300  0.00642200  1
  P  P23  1  0.00642200  0.43181800  0.96141300  1
  P  P24  1  0.96141300  0.00642200  0.43181800  1
  P  P25  1  0.48801900  0.46022500  0.94551400  1
  P  P26  1  0.46022500  0.94551400  0.48801900  1
  P  P27  1  0.94551400  0.48801900  0.46022500  1
  P  P28  1  0.49934900  0.49934900  0.49934900  1
  P  P29  1  0.02660200  0.61029900  0.57921600  1
  P  P30  1  0.61029900  0.57921600  0.02660200  1
  P  P31  1  0.57921600  0.02660200  0.61029900  1
  P  P32  1  0.53151800  0.08333200  0.10138000  1
  P  P33  1  0.10138000  0.53151800  0.08333200  1
  P  P34  1  0.08333200  0.10138000  0.53151800  1
  O  O35  1  0.96372900  0.96372900  0.96372900  1
  O  O36  1  0.90625600  0.60243800  0.89199500  1
  O  O37  1  0.60243800  0.89199500  0.90625600  1
  O  O38  1  0.89199500  0.90625600  0.60243800  1
  O  O39  1  0.62691800  0.04888000  0.46056700  1
  O  O40  1  0.46056700  0.62691800  0.04888000  1
  O  O41  1  0.04888000  0.46056700  0.62691800  1
  O  O42  1  0.65114600  0.39213100  0.91378400  1
  O  O43  1  0.40031000  0.63199600  0.89464700  1
  O  O44  1  0.39213100  0.91378400  0.65114600  1
  O  O45  1  0.89464700  0.40031000  0.63199600  1
  O  O46  1  0.49266100  0.40816800  0.87866700  1
  O  O47  1  0.91378400  0.65114600  0.39213100  1
  O  O48  1  0.63199600  0.89464700  0.40031000  1
  O  O49  1  0.82456600  0.09062300  0.73594800  1
  O  O50  1  0.19310800  0.58694700  0.89744200  1
  O  O51  1  0.40816800  0.87866700  0.49266100  1
  O  O52  1  0.87866700  0.49266100  0.40816800  1
  O  O53  1  0.89744200  0.19310800  0.58694700  1
  O  O54  1  0.09062300  0.73594800  0.82456600  1
  O  O55  1  0.15997100  0.42814900  0.88025700  1
  O  O56  1  0.52146600  0.36798900  0.64560800  1
  O  O57  1  0.38065200  0.13210400  0.91999000  1
  O  O58  1  0.36798900  0.64560800  0.52146600  1
  O  O59  1  0.58694700  0.89744200  0.19310800  1
  O  O60  1  0.64560800  0.52146600  0.36798900  1
  O  O61  1  0.73594800  0.82456600  0.09062300  1
  O  O62  1  0.03727700  0.33046600  0.92337500  1
  O  O63  1  0.88025700  0.15997100  0.42814900  1
  O  O64  1  0.13210400  0.91999000  0.38065200  1
  O  O65  1  0.45969400  0.45969400  0.45969400  1
  O  O66  1  0.58894300  0.14552100  0.58593400  1
  O  O67  1  0.14552100  0.58593400  0.58894300  1
  O  O68  1  0.42814900  0.88025700  0.15997100  1
  O  O69  1  0.91999000  0.38065200  0.13210400  1
  O  O70  1  0.39553400  0.07464300  0.70604300  1
  O  O71  1  0.92337500  0.03727700  0.33046600  1
  O  O72  1  0.02798300  0.14908500  0.87737500  1
  O  O73  1  0.31477200  0.23124500  0.61256000  1
  O  O74  1  0.58593400  0.58894300  0.14552100  1
  O  O75  1  0.61256000  0.31477200  0.23124500  1
  O  O76  1  0.07464300  0.70604300  0.39553400  1
  O  O77  1  0.33046600  0.92337500  0.03727700  1
  O  O78  1  0.70604300  0.39553400  0.07464300  1
  O  O79  1  0.23124500  0.61256000  0.31477200  1
  O  O80  1  0.87737500  0.02798300  0.14908500  1
  O  O81  1  0.09514700  0.07740000  0.64887200  1
  O  O82  1  0.12177000  0.40406000  0.39158100  1
  O  O83  1  0.39158100  0.12177000  0.40406000  1
  O  O84  1  0.14908500  0.87737500  0.02798300  1
  O  O85  1  0.40406000  0.39158100  0.12177000  1
  O  O86  1  0.55623700  0.12715200  0.95185100  1
  O  O87  1  0.64887200  0.09514700  0.07740000  1
  O  O88  1  0.07740000  0.64887200  0.09514700  1
  O  O89  1  0.12715200  0.95185100  0.55623700  1
  O  O90  1  0.95185100  0.55623700  0.12715200  1
