# generated using pymatgen
data_Yb15Mg5Ge16
_symmetry_space_group_name_H-M   'P 1'
_cell_length_a   7.79948900
_cell_length_b   7.20616200
_cell_length_c   31.22715076
_cell_angle_alpha   76.75702366
_cell_angle_beta   90.00000000
_cell_angle_gamma   90.00000000
_symmetry_Int_Tables_number   1
_chemical_formula_structural   Yb15Mg5Ge16
_chemical_formula_sum   'Yb30 Mg10 Ge32'
_cell_volume   1708.42985135
_cell_formula_units_Z   2
loop_
 _symmetry_equiv_pos_site_id
 _symmetry_equiv_pos_as_xyz
  1  'x, y, z'
loop_
 _atom_site_type_symbol
 _atom_site_label
 _atom_site_symmetry_multiplicity
 _atom_site_fract_x
 _atom_site_fract_y
 _atom_site_fract_z
 _atom_site_occupancy
  Yb  Yb0  1  0.06234300  0.03583900  0.95387100  1
  Yb  Yb1  1  0.07897200  0.18885900  0.79736300  1
  Yb  Yb2  1  0.07217900  0.52902600  0.45247700  1
  Yb  Yb3  1  0.06206700  0.69227900  0.29882100  1
  Yb  Yb4  1  0.58084500  0.89191300  0.93699800  1
  Yb  Yb5  1  0.57685900  0.00932100  0.81478600  1
  Yb  Yb6  1  0.55797800  0.38299200  0.43659100  1
  Yb  Yb7  1  0.56660300  0.51930400  0.31367100  1
  Yb  Yb8  1  0.06726700  0.98509700  0.68471400  1
  Yb  Yb9  1  0.06927700  0.49018000  0.18567000  1
  Yb  Yb10  1  0.07538900  0.60184100  0.06224800  1
  Yb  Yb11  1  0.57685100  0.80627600  0.69965000  1
  Yb  Yb12  1  0.58048500  0.96085300  0.54811000  1
  Yb  Yb13  1  0.56576600  0.45562000  0.04909500  1
  Yb  Yb14  1  0.57236800  0.31825600  0.20238800  1
  Yb  Yb15  1  0.92782100  0.52902600  0.95247700  1
  Yb  Yb16  1  0.93793300  0.69227900  0.79882100  1
  Yb  Yb17  1  0.93765700  0.03583900  0.45387100  1
  Yb  Yb18  1  0.92102800  0.18885900  0.29736300  1
  Yb  Yb19  1  0.44202200  0.38299200  0.93659100  1
  Yb  Yb20  1  0.43339700  0.51930400  0.81367100  1
  Yb  Yb21  1  0.41915500  0.89191300  0.43699800  1
  Yb  Yb22  1  0.42314100  0.00932100  0.31478600  1
  Yb  Yb23  1  0.93072300  0.49018000  0.68567000  1
  Yb  Yb24  1  0.92461100  0.60184100  0.56224800  1
  Yb  Yb25  1  0.93273300  0.98509700  0.18471400  1
  Yb  Yb26  1  0.42763200  0.31825600  0.70238800  1
  Yb  Yb27  1  0.43423400  0.45562000  0.54909500  1
  Yb  Yb28  1  0.42314900  0.80627600  0.19965000  1
  Yb  Yb29  1  0.41951500  0.96085300  0.04811000  1
  Mg  Mg30  1  0.72556700  0.21569200  0.62880900  1
  Mg  Mg31  1  0.73326500  0.73286100  0.11751400  1
  Mg  Mg32  1  0.05575100  0.12528200  0.56360200  1
  Mg  Mg33  1  0.23016300  0.77113700  0.88331900  1
  Mg  Mg34  1  0.21671400  0.28689600  0.36878900  1
  Mg  Mg35  1  0.26673500  0.73286100  0.61751400  1
  Mg  Mg36  1  0.27443300  0.21569200  0.12880900  1
  Mg  Mg37  1  0.94424900  0.12528200  0.06360200  1
  Mg  Mg38  1  0.78328600  0.28689600  0.86878900  1
  Mg  Mg39  1  0.76983700  0.77113700  0.38331900  1
  Ge  Ge40  1  0.15810400  0.34949800  0.62363100  1
  Ge  Ge41  1  0.15184500  0.85550200  0.12267300  1
  Ge  Ge42  1  0.77704700  0.11294500  0.73174300  1
  Ge  Ge43  1  0.77920600  0.31890600  0.51465600  1
  Ge  Ge44  1  0.78437700  0.61400200  0.23378600  1
  Ge  Ge45  1  0.77245900  0.82189000  0.02141700  1
  Ge  Ge46  1  0.89335200  0.90305500  0.87536200  1
  Ge  Ge47  1  0.87804600  0.40085500  0.37539200  1
  Ge  Ge48  1  0.38092300  0.09724600  0.62664400  1
  Ge  Ge49  1  0.38233800  0.60081900  0.12333800  1
  Ge  Ge50  1  0.29938600  0.90173900  0.76157400  1
  Ge  Ge51  1  0.27355200  0.38980800  0.26778300  1
  Ge  Ge52  1  0.28223500  0.67323900  0.98111100  1
  Ge  Ge53  1  0.27708300  0.16961600  0.49144600  1
  Ge  Ge54  1  0.66833400  0.64555100  0.87604300  1
  Ge  Ge55  1  0.65724200  0.14580800  0.37491200  1
  Ge  Ge56  1  0.84815500  0.85550200  0.62267300  1
  Ge  Ge57  1  0.84189600  0.34949800  0.12363100  1
  Ge  Ge58  1  0.22754100  0.82189000  0.52141700  1
  Ge  Ge59  1  0.22079400  0.31890600  0.01465600  1
  Ge  Ge60  1  0.21562300  0.61400200  0.73378600  1
  Ge  Ge61  1  0.22295300  0.11294500  0.23174300  1
  Ge  Ge62  1  0.12195400  0.40085500  0.87539200  1
  Ge  Ge63  1  0.10664800  0.90305500  0.37536200  1
  Ge  Ge64  1  0.61766200  0.60081900  0.62333800  1
  Ge  Ge65  1  0.61907700  0.09724600  0.12664400  1
  Ge  Ge66  1  0.72291700  0.16961600  0.99144600  1
  Ge  Ge67  1  0.72644800  0.38980800  0.76778300  1
  Ge  Ge68  1  0.70061400  0.90173900  0.26157400  1
  Ge  Ge69  1  0.71776500  0.67323900  0.48111100  1
  Ge  Ge70  1  0.34275800  0.14580800  0.87491200  1
  Ge  Ge71  1  0.33166600  0.64555100  0.37604300  1
