# generated using pymatgen
data_Sr3Pr4O9
_symmetry_space_group_name_H-M   'P 1'
_cell_length_a   7.03805000
_cell_length_b   9.22830473
_cell_length_c   9.81458351
_cell_angle_alpha   91.88620129
_cell_angle_beta   97.10518280
_cell_angle_gamma   107.51936991
_symmetry_Int_Tables_number   1
_chemical_formula_structural   Sr3Pr4O9
_chemical_formula_sum   'Sr6 Pr8 O18'
_cell_volume   601.55428068
_cell_formula_units_Z   2
loop_
 _symmetry_equiv_pos_site_id
 _symmetry_equiv_pos_as_xyz
  1  'x, y, z'
loop_
 _atom_site_type_symbol
 _atom_site_label
 _atom_site_symmetry_multiplicity
 _atom_site_fract_x
 _atom_site_fract_y
 _atom_site_fract_z
 _atom_site_occupancy
  Sr  Sr0  1  0.09003900  0.73670100  0.92685000  1
  Sr  Sr1  1  0.78055000  0.77569100  0.42583400  1
  Sr  Sr2  1  0.52665000  0.62449200  0.06023100  1
  Sr  Sr3  1  0.83789700  0.19904100  0.44820400  1
  Sr  Sr4  1  0.64961900  0.34541800  0.73198600  1
  Sr  Sr5  1  0.08563400  0.32211900  0.92403900  1
  Pr  Pr6  1  0.51527000  0.16884300  0.03903000  1
  Pr  Pr7  1  0.19365800  0.63842900  0.61864800  1
  Pr  Pr8  1  0.93782500  0.00320000  0.15490800  1
  Pr  Pr9  1  0.68811100  0.92702200  0.76639500  1
  Pr  Pr10  1  0.35206500  0.32806800  0.35567100  1
  Pr  Pr11  1  0.96350800  0.52751600  0.23758900  1
  Pr  Pr12  1  0.17324700  0.05678200  0.66978800  1
  Pr  Pr13  1  0.35469000  0.93609400  0.37344600  1
  O  O14  1  0.29617100  0.12043900  0.20009000  1
  O  O15  1  0.10222400  0.72427700  0.40586100  1
  O  O16  1  0.51051900  0.82478800  0.55249800  1
  O  O17  1  0.62053300  0.93267700  0.25295600  1
  O  O18  1  0.01027000  0.01254500  0.92701000  1
  O  O19  1  0.18356300  0.54824400  0.08730700  1
  O  O20  1  0.12482300  0.42599500  0.44559500  1
  O  O21  1  0.42990900  0.74518600  0.84895200  1
  O  O22  1  0.99460000  0.81327900  0.66844900  1
  O  O23  1  0.63000600  0.50250300  0.30282600  1
  O  O24  1  0.89639000  0.74318500  0.12336400  1
  O  O25  1  0.05900700  0.04168200  0.41998300  1
  O  O26  1  0.49130300  0.19658400  0.51116100  1
  O  O27  1  0.46379000  0.37079800  0.93538900  1
  O  O28  1  0.50329000  0.08972200  0.81213300  1
  O  O29  1  0.85100200  0.24560200  0.13049500  1
  O  O30  1  0.98193200  0.50376300  0.77059100  1
  O  O31  1  0.92090600  0.16150900  0.68391900  1
