# generated using pymatgen
data_Co3(AsO4)2
_symmetry_space_group_name_H-M   'P 1'
_cell_length_a   7.50243700
_cell_length_b   7.71309678
_cell_length_c   9.71036317
_cell_angle_alpha   110.79610297
_cell_angle_beta   107.94727748
_cell_angle_gamma   92.15968759
_symmetry_Int_Tables_number   1
_chemical_formula_structural   Co3(AsO4)2
_chemical_formula_sum   'Co9 As6 O24'
_cell_volume   492.85834088
_cell_formula_units_Z   3
loop_
 _symmetry_equiv_pos_site_id
 _symmetry_equiv_pos_as_xyz
  1  'x, y, z'
loop_
 _atom_site_type_symbol
 _atom_site_label
 _atom_site_symmetry_multiplicity
 _atom_site_fract_x
 _atom_site_fract_y
 _atom_site_fract_z
 _atom_site_occupancy
  Co  Co0  1  0.16639800  0.60813700  0.75382800  1
  Co  Co1  1  0.19096500  0.21557700  0.41388000  1
  Co  Co2  1  0.84882800  0.91108500  0.24554300  1
  Co  Co3  1  0.58443100  0.15964900  0.73209300  1
  Co  Co4  1  0.41711000  0.40482400  0.99462800  1
  Co  Co5  1  0.11728000  0.56148900  0.07836300  1
  Co  Co6  1  0.78992900  0.75492300  0.60344600  1
  Co  Co7  1  0.47598000  0.98039000  0.93635600  1
  Co  Co8  1  0.45599800  0.39262400  0.30778300  1
  As  As9  1  0.63883400  0.64877800  0.85831000  1
  As  As10  1  0.10050300  0.97845500  0.05265800  1
  As  As11  1  0.10620900  0.13222900  0.64614300  1
  As  As12  1  0.48465900  0.94688000  0.40443000  1
  As  As13  1  0.12189100  0.64196200  0.41893500  1
  As  As14  1  0.82009700  0.28784000  0.12139300  1
  O  O15  1  0.23601300  0.87391000  0.93405500  1
  O  O16  1  0.82721500  0.69137100  0.80242700  1
  O  O17  1  0.43035100  0.69152400  0.74762700  1
  O  O18  1  0.92849600  0.17003900  0.24614100  1
  O  O19  1  0.29045100  0.12783700  0.23778600  1
  O  O20  1  0.11524200  0.33102700  0.59679100  1
  O  O21  1  0.45088600  0.18335500  0.52538400  1
  O  O22  1  0.21370100  0.49736100  0.90680400  1
  O  O23  1  0.62068300  0.43819700  0.88667900  1
  O  O24  1  0.05630900  0.80165900  0.13426400  1
  O  O25  1  0.64909800  0.81943100  0.03866000  1
  O  O26  1  0.69550900  0.97390600  0.36905300  1
  O  O27  1  0.09798400  0.99171500  0.45036100  1
  O  O28  1  0.93107100  0.06570400  0.70102900  1
  O  O29  1  0.33099200  0.14666400  0.78645100  1
  O  O30  1  0.37902600  0.54178200  0.18013400  1
  O  O31  1  0.57058500  0.89437000  0.57782900  1
  O  O32  1  0.87615700  0.53684500  0.26087900  1
  O  O33  1  0.70818400  0.09777300  0.92643600  1
  O  O34  1  0.04278700  0.69159500  0.58228900  1
  O  O35  1  0.65696100  0.50444000  0.46458400  1
  O  O36  1  0.25212800  0.44900900  0.40880400  1
  O  O37  1  0.00345600  0.33356000  0.04903000  1
  O  O38  1  0.56760300  0.27208300  0.11871800  1
