# generated using pymatgen
data_Na3DyTi2Nb2O12
_symmetry_space_group_name_H-M   'P 1'
_cell_length_a   5.47232500
_cell_length_b   5.63279100
_cell_length_c   15.47606700
_cell_angle_alpha   90.00000000
_cell_angle_beta   90.00000000
_cell_angle_gamma   90.00000000
_symmetry_Int_Tables_number   1
_chemical_formula_structural   Na3DyTi2Nb2O12
_chemical_formula_sum   'Na6 Dy2 Ti4 Nb4 O24'
_cell_volume   477.04145477
_cell_formula_units_Z   2
loop_
 _symmetry_equiv_pos_site_id
 _symmetry_equiv_pos_as_xyz
  1  'x, y, z'
loop_
 _atom_site_type_symbol
 _atom_site_label
 _atom_site_symmetry_multiplicity
 _atom_site_fract_x
 _atom_site_fract_y
 _atom_site_fract_z
 _atom_site_occupancy
  Na  Na0  1  0.75407600  0.96718600  0.24825700  1
  Na  Na1  1  0.75407600  0.96718600  0.75174300  1
  Na  Na2  1  0.24592400  0.46718600  0.75174300  1
  Na  Na3  1  0.24592400  0.46718600  0.24825700  1
  Na  Na4  1  0.25787000  0.51298100  0.50000000  1
  Na  Na5  1  0.74213000  0.01298100  0.50000000  1
  Dy  Dy6  1  0.26454300  0.56814900  0.00000000  1
  Dy  Dy7  1  0.73545700  0.06814900  0.00000000  1
  Ti  Ti8  1  0.76521200  0.52987900  0.87347200  1
  Ti  Ti9  1  0.76521200  0.52987900  0.12652800  1
  Ti  Ti10  1  0.23478800  0.02987900  0.12652800  1
  Ti  Ti11  1  0.23478800  0.02987900  0.87347200  1
  Nb  Nb12  1  0.74752800  0.48129900  0.37261500  1
  Nb  Nb13  1  0.74752800  0.48129900  0.62738500  1
  Nb  Nb14  1  0.25247200  0.98129900  0.62738500  1
  Nb  Nb15  1  0.25247200  0.98129900  0.37261500  1
  O  O16  1  0.84843100  0.46517800  0.00000000  1
  O  O17  1  0.82816700  0.49048800  0.50000000  1
  O  O18  1  0.96714200  0.22122700  0.35275200  1
  O  O19  1  0.94655100  0.19413200  0.13634800  1
  O  O20  1  0.96714200  0.22122700  0.64724800  1
  O  O21  1  0.94655100  0.19413200  0.86365200  1
  O  O22  1  0.05344900  0.69413200  0.13634800  1
  O  O23  1  0.03285800  0.72122700  0.35275200  1
  O  O24  1  0.03285800  0.72122700  0.64724800  1
  O  O25  1  0.05344900  0.69413200  0.86365200  1
  O  O26  1  0.15156900  0.96517800  0.00000000  1
  O  O27  1  0.17183300  0.99048800  0.50000000  1
  O  O28  1  0.32260800  0.02077700  0.75451100  1
  O  O29  1  0.32260800  0.02077700  0.24548900  1
  O  O30  1  0.45114900  0.28164200  0.90742700  1
  O  O31  1  0.45114900  0.28164200  0.09257300  1
  O  O32  1  0.46465700  0.28569400  0.60687100  1
  O  O33  1  0.46465700  0.28569400  0.39312900  1
  O  O34  1  0.54885100  0.78164200  0.90742700  1
  O  O35  1  0.54885100  0.78164200  0.09257300  1
  O  O36  1  0.53534300  0.78569400  0.39312900  1
  O  O37  1  0.53534300  0.78569400  0.60687100  1
  O  O38  1  0.67739200  0.52077700  0.24548900  1
  O  O39  1  0.67739200  0.52077700  0.75451100  1
