# generated using pymatgen
data_CeBeSiHO5
_symmetry_space_group_name_H-M   'P 1'
_cell_length_a   7.68774500
_cell_length_b   5.52019900
_cell_length_c   8.58752884
_cell_angle_alpha   78.00970371
_cell_angle_beta   90.00000000
_cell_angle_gamma   90.00000000
_symmetry_Int_Tables_number   1
_chemical_formula_structural   CeBeSiHO5
_chemical_formula_sum   'Ce4 Be4 Si4 H4 O20'
_cell_volume   356.48555275
_cell_formula_units_Z   4
loop_
 _symmetry_equiv_pos_site_id
 _symmetry_equiv_pos_as_xyz
  1  'x, y, z'
loop_
 _atom_site_type_symbol
 _atom_site_label
 _atom_site_symmetry_multiplicity
 _atom_site_fract_x
 _atom_site_fract_y
 _atom_site_fract_z
 _atom_site_occupancy
  Ce  Ce0  1  0.87637000  0.98769600  0.31896600  1
  Ce  Ce1  1  0.62363000  0.98769600  0.81896600  1
  Ce  Ce2  1  0.37637000  0.01230400  0.18103400  1
  Ce  Ce3  1  0.12363000  0.01230400  0.68103400  1
  Be  Be4  1  0.89956400  0.39913500  0.95023600  1
  Be  Be5  1  0.60043600  0.39913500  0.45023600  1
  Be  Be6  1  0.39956400  0.60086500  0.54976400  1
  Be  Be7  1  0.10043600  0.60086500  0.04976400  1
  Si  Si8  1  0.29916800  0.46538900  0.82935000  1
  Si  Si9  1  0.20083200  0.46538900  0.32935000  1
  Si  Si10  1  0.79916800  0.53461100  0.67065000  1
  Si  Si11  1  0.70083200  0.53461100  0.17065000  1
  H  H12  1  0.58587600  0.98644100  0.46647200  1
  H  H13  1  0.91412400  0.98644100  0.96647200  1
  H  H14  1  0.08587600  0.01355900  0.03352800  1
  H  H15  1  0.41412400  0.01355900  0.53352800  1
  O  O16  1  0.59710800  0.51991300  0.60753900  1
  O  O17  1  0.90289200  0.51991300  0.10753900  1
  O  O18  1  0.26294700  0.41308700  0.65156300  1
  O  O19  1  0.23705300  0.41308700  0.15156300  1
  O  O20  1  0.58232900  0.76633300  0.08320200  1
  O  O21  1  0.91767100  0.76633300  0.58320200  1
  O  O22  1  0.12221500  0.74417600  0.30089700  1
  O  O23  1  0.37778500  0.74417600  0.80089700  1
  O  O24  1  0.35192300  0.89240400  0.48597100  1
  O  O25  1  0.14807700  0.89240400  0.98597100  1
  O  O26  1  0.85192300  0.10759600  0.01402900  1
  O  O27  1  0.64807700  0.10759600  0.51402900  1
  O  O28  1  0.62221500  0.25582400  0.19910300  1
  O  O29  1  0.87778500  0.25582400  0.69910300  1
  O  O30  1  0.08232900  0.23366700  0.41679800  1
  O  O31  1  0.41767100  0.23366700  0.91679800  1
  O  O32  1  0.76294700  0.58691300  0.84843700  1
  O  O33  1  0.73705300  0.58691300  0.34843700  1
  O  O34  1  0.09710800  0.48008700  0.89246100  1
  O  O35  1  0.40289200  0.48008700  0.39246100  1
