# generated using pymatgen
data_CoP2O7
_symmetry_space_group_name_H-M   'P 1'
_cell_length_a   8.70486500
_cell_length_b   6.96333600
_cell_length_c   9.36471160
_cell_angle_alpha   71.97803615
_cell_angle_beta   90.00000000
_cell_angle_gamma   90.00000000
_symmetry_Int_Tables_number   1
_chemical_formula_structural   CoP2O7
_chemical_formula_sum   'Co4 P8 O28'
_cell_volume   539.79144286
_cell_formula_units_Z   4
loop_
 _symmetry_equiv_pos_site_id
 _symmetry_equiv_pos_as_xyz
  1  'x, y, z'
loop_
 _atom_site_type_symbol
 _atom_site_label
 _atom_site_symmetry_multiplicity
 _atom_site_fract_x
 _atom_site_fract_y
 _atom_site_fract_z
 _atom_site_occupancy
  Co  Co0  1  0.07374900  0.67718200  0.20498900  1
  Co  Co1  1  0.42625100  0.67718200  0.70498900  1
  Co  Co2  1  0.57374900  0.32281800  0.29501100  1
  Co  Co3  1  0.92625100  0.32281800  0.79501100  1
  P  P4  1  0.71127700  0.52249100  0.53120400  1
  P  P5  1  0.25029200  0.09011100  0.24417900  1
  P  P6  1  0.75029200  0.90988900  0.25582100  1
  P  P7  1  0.24970800  0.09011100  0.74417900  1
  P  P8  1  0.78872300  0.52249100  0.03120400  1
  P  P9  1  0.74970800  0.90988900  0.75582100  1
  P  P10  1  0.21127700  0.47750900  0.96879600  1
  P  P11  1  0.28872300  0.47750900  0.46879600  1
  O  O12  1  0.12984100  0.49611900  0.38602800  1
  O  O13  1  0.20979900  0.25664100  0.08670800  1
  O  O14  1  0.27017200  0.88620200  0.71626500  1
  O  O15  1  0.08777800  0.12941100  0.79045500  1
  O  O16  1  0.87015900  0.50388100  0.61397200  1
  O  O17  1  0.79020100  0.74335900  0.91329200  1
  O  O18  1  0.20590000  0.63721500  0.05013600  1
  O  O19  1  0.91920900  0.51535200  0.14015600  1
  O  O20  1  0.58777800  0.87058900  0.70954500  1
  O  O21  1  0.70590000  0.36278500  0.44986400  1
  O  O22  1  0.37015900  0.49611900  0.88602800  1
  O  O23  1  0.87296600  0.90294200  0.64043100  1
  O  O24  1  0.62984100  0.50388100  0.11397200  1
  O  O25  1  0.72982800  0.11379800  0.28373500  1
  O  O26  1  0.41920900  0.48464800  0.35984400  1
  O  O27  1  0.79410000  0.36278500  0.94986400  1
  O  O28  1  0.91222200  0.87058900  0.20954500  1
  O  O29  1  0.22982800  0.88620200  0.21626500  1
  O  O30  1  0.12703400  0.09705800  0.35956900  1
  O  O31  1  0.58079100  0.51535200  0.64015600  1
  O  O32  1  0.29020100  0.25664100  0.58670800  1
  O  O33  1  0.29410000  0.63721500  0.55013600  1
  O  O34  1  0.08079100  0.48464800  0.85984400  1
  O  O35  1  0.41222200  0.12941100  0.29045500  1
  O  O36  1  0.70979900  0.74335900  0.41329200  1
  O  O37  1  0.62703400  0.90294200  0.14043100  1
  O  O38  1  0.77017200  0.11379800  0.78373500  1
  O  O39  1  0.37296600  0.09705800  0.85956900  1
