# generated using pymatgen
data_CaPr2Ti2ZnO9
_symmetry_space_group_name_H-M   'P 1'
_cell_length_a   5.50055700
_cell_length_b   5.72497536
_cell_length_c   23.41610877
_cell_angle_alpha   89.94756530
_cell_angle_beta   89.84813343
_cell_angle_gamma   89.70022783
_symmetry_Int_Tables_number   1
_chemical_formula_structural   CaPr2Ti2ZnO9
_chemical_formula_sum   'Ca4 Pr8 Ti8 Zn4 O36'
_cell_volume   737.37323835
_cell_formula_units_Z   4
loop_
 _symmetry_equiv_pos_site_id
 _symmetry_equiv_pos_as_xyz
  1  'x, y, z'
loop_
 _atom_site_type_symbol
 _atom_site_label
 _atom_site_symmetry_multiplicity
 _atom_site_fract_x
 _atom_site_fract_y
 _atom_site_fract_z
 _atom_site_occupancy
  Ca  Ca0  1  0.50780400  0.44950700  0.41173400  1
  Ca  Ca1  1  0.50713000  0.44964500  0.08046500  1
  Ca  Ca2  1  0.00511800  0.06015800  0.58639900  1
  Ca  Ca3  1  0.00893500  0.05859400  0.25539500  1
  Pr  Pr4  1  0.98282700  0.94059800  0.74769800  1
  Pr  Pr5  1  0.98462800  0.93191000  0.41324000  1
  Pr  Pr6  1  0.98689400  0.93239700  0.08288700  1
  Pr  Pr7  1  0.51694000  0.44297200  0.74924300  1
  Pr  Pr8  1  0.48588400  0.55763000  0.91810600  1
  Pr  Pr9  1  0.48407500  0.55947200  0.58351700  1
  Pr  Pr10  1  0.48448400  0.56045200  0.25313300  1
  Pr  Pr11  1  0.01818300  0.05744500  0.91800100  1
  Ti  Ti12  1  0.97007700  0.48202800  0.49672500  1
  Ti  Ti13  1  0.96995600  0.48178600  0.16582900  1
  Ti  Ti14  1  0.47419100  0.01215800  0.50127100  1
  Ti  Ti15  1  0.50853200  0.00311000  0.00076200  1
  Ti  Ti16  1  0.49082000  0.00331500  0.66542500  1
  Ti  Ti17  1  0.47384400  0.01333000  0.16947500  1
  Ti  Ti18  1  0.50085300  0.00723100  0.33314200  1
  Ti  Ti19  1  0.00211200  0.50030800  0.83324300  1
  Zn  Zn20  1  0.50162300  0.99967500  0.83323100  1
  Zn  Zn21  1  0.99936300  0.49487700  0.00296800  1
  Zn  Zn22  1  0.99850700  0.49586600  0.66444500  1
  Zn  Zn23  1  0.99758000  0.49110100  0.33396100  1
  O  O24  1  0.90925100  0.47262300  0.91417200  1
  O  O25  1  0.91447900  0.47213000  0.57739400  1
  O  O26  1  0.91608300  0.47309500  0.24593800  1
  O  O27  1  0.79363400  0.18672900  0.34680800  1
  O  O28  1  0.81146100  0.21264200  0.81598100  1
  O  O29  1  0.79587000  0.20610300  0.48203600  1
  O  O30  1  0.78768300  0.19203000  0.68060200  1
  O  O31  1  0.79610800  0.20577200  0.15086400  1
  O  O32  1  0.79480400  0.18753000  0.01530000  1
  O  O33  1  0.71280700  0.69484500  0.81735500  1
  O  O34  1  0.69036400  0.71225600  0.68035100  1
  O  O35  1  0.70917200  0.69819800  0.48329200  1
  O  O36  1  0.69415500  0.71433800  0.34811700  1
  O  O37  1  0.69356700  0.71482500  0.01845000  1
  O  O38  1  0.70951200  0.69821100  0.15206100  1
  O  O39  1  0.59249700  0.97316400  0.92087200  1
  O  O40  1  0.59223900  0.97785500  0.57958100  1
  O  O41  1  0.59193700  0.97908900  0.24860500  1
  O  O42  1  0.41823700  0.02791000  0.41776400  1
  O  O43  1  0.40774100  0.02628900  0.74579200  1
  O  O44  1  0.41729300  0.03078000  0.08678800  1
  O  O45  1  0.31007700  0.28576400  0.98503700  1
  O  O46  1  0.29303400  0.30672000  0.84926900  1
  O  O47  1  0.31439300  0.29190500  0.65023400  1
  O  O48  1  0.29874200  0.28905700  0.51530600  1
  O  O49  1  0.31555100  0.28930500  0.31928500  1
  O  O50  1  0.29880900  0.28914500  0.18432100  1
  O  O51  1  0.21362200  0.80892300  0.98746700  1
  O  O52  1  0.21395900  0.81116000  0.64891100  1
  O  O53  1  0.19472900  0.78577300  0.85084400  1
  O  O54  1  0.21824700  0.81119600  0.31888200  1
  O  O55  1  0.21515000  0.80689100  0.51494300  1
  O  O56  1  0.21571300  0.80705900  0.18349800  1
  O  O57  1  0.09350200  0.52841300  0.75242700  1
  O  O58  1  0.09729400  0.52348100  0.42129400  1
  O  O59  1  0.09792400  0.52322900  0.08986200  1
