# generated using pymatgen
data_YbV4O8
_symmetry_space_group_name_H-M   'P 1'
_cell_length_a   7.48017500
_cell_length_b   7.50115911
_cell_length_c   7.67140213
_cell_angle_alpha   102.00965210
_cell_angle_beta   104.57849562
_cell_angle_gamma   117.52185046
_symmetry_Int_Tables_number   1
_chemical_formula_structural   YbV4O8
_chemical_formula_sum   'Yb2 V8 O16'
_cell_volume   342.03807150
_cell_formula_units_Z   2
loop_
 _symmetry_equiv_pos_site_id
 _symmetry_equiv_pos_as_xyz
  1  'x, y, z'
loop_
 _atom_site_type_symbol
 _atom_site_label
 _atom_site_symmetry_multiplicity
 _atom_site_fract_x
 _atom_site_fract_y
 _atom_site_fract_z
 _atom_site_occupancy
  Yb  Yb0  1  0.27417000  0.02017300  0.06773500  1
  Yb  Yb1  1  0.72583000  0.97982700  0.93226500  1
  V  V2  1  0.26420800  0.55501400  0.76063100  1
  V  V3  1  0.21983200  0.29697400  0.41137700  1
  V  V4  1  0.28615800  0.87201500  0.52845000  1
  V  V5  1  0.39658200  0.63978700  0.24487100  1
  V  V6  1  0.60341800  0.36021300  0.75512900  1
  V  V7  1  0.71384200  0.12798500  0.47155000  1
  V  V8  1  0.78016800  0.70302600  0.58862300  1
  V  V9  1  0.73579200  0.44498600  0.23936900  1
  O  O10  1  0.95351000  0.91184100  0.80953300  1
  O  O11  1  0.28159100  0.49018200  0.96668300  1
  O  O12  1  0.03808000  0.29453900  0.55434900  1
  O  O13  1  0.32228300  0.82613000  0.79903000  1
  O  O14  1  0.36899300  0.90531700  0.30502600  1
  O  O15  1  0.22154200  0.55230000  0.38679100  1
  O  O16  1  0.48236000  0.40680100  0.29323700  1
  O  O17  1  0.31038700  0.16003300  0.57873400  1
  O  O18  1  0.68961300  0.83996700  0.42126600  1
  O  O19  1  0.51764000  0.59319900  0.70676300  1
  O  O20  1  0.77845800  0.44770000  0.61320900  1
  O  O21  1  0.63100700  0.09468300  0.69497400  1
  O  O22  1  0.67771700  0.17387000  0.20097000  1
  O  O23  1  0.96192000  0.70546100  0.44565100  1
  O  O24  1  0.71840900  0.50981800  0.03331700  1
  O  O25  1  0.04649000  0.08815900  0.19046700  1
