# generated using pymatgen
data_Al2NiO4
_symmetry_space_group_name_H-M   'P 1'
_cell_length_a   5.78660246
_cell_length_b   9.96213084
_cell_length_c   5.80888786
_cell_angle_alpha   90.14651089
_cell_angle_beta   59.91702906
_cell_angle_gamma   73.19223147
_symmetry_Int_Tables_number   1
_chemical_formula_structural   Al2NiO4
_chemical_formula_sum   'Al8 Ni4 O16'
_cell_volume   272.94680209
_cell_formula_units_Z   4
loop_
 _symmetry_equiv_pos_site_id
 _symmetry_equiv_pos_as_xyz
  1  'x, y, z'
loop_
 _atom_site_type_symbol
 _atom_site_label
 _atom_site_symmetry_multiplicity
 _atom_site_fract_x
 _atom_site_fract_y
 _atom_site_fract_z
 _atom_site_occupancy
  Al  Al0  1  0.49834200  0.24964900  0.25055800  1
  Al  Al1  1  0.50085600  0.74967900  0.75121200  1
  Al  Al2  1  0.49931900  0.50013700  0.99997400  1
  Al  Al3  1  0.50084400  0.00006500  0.49927200  1
  Al  Al4  1  0.49927400  0.25042200  0.75063100  1
  Al  Al5  1  0.50208500  0.75004200  0.24952500  1
  Al  Al6  1  0.99923200  0.24997500  0.74928300  1
  Al  Al7  1  0.99998400  0.75025000  0.25039100  1
  Ni  Ni8  1  0.87933300  0.93532300  0.80762200  1
  Ni  Ni9  1  0.12707500  0.06438100  0.18320000  1
  Ni  Ni10  1  0.87260900  0.43525900  0.31090300  1
  Ni  Ni11  1  0.12635300  0.56456600  0.68398200  1
  O  O12  1  0.73189400  0.14492500  0.88386300  1
  O  O13  1  0.73885900  0.64490500  0.38385900  1
  O  O14  1  0.26391300  0.35495800  0.61993000  1
  O  O15  1  0.26176100  0.85494800  0.12187000  1
  O  O16  1  0.73707700  0.36845400  0.66157400  1
  O  O17  1  0.73579700  0.86840800  0.15983300  1
  O  O18  1  0.26391900  0.13342000  0.83518200  1
  O  O19  1  0.26700300  0.63308600  0.33560000  1
  O  O20  1  0.73365400  0.36646300  0.10053500  1
  O  O21  1  0.73111100  0.86893600  0.60676000  1
  O  O22  1  0.28988500  0.36856400  0.10729500  1
  O  O23  1  0.29746100  0.86657200  0.60389800  1
  O  O24  1  0.70829800  0.13187900  0.39760000  1
  O  O25  1  0.70894300  0.63179500  0.89830900  1
  O  O26  1  0.26176500  0.13139800  0.39893600  1
  O  O27  1  0.26335600  0.63154000  0.89840300  1
