# generated using pymatgen
data_CrPO4
_symmetry_space_group_name_H-M   'P 1'
_cell_length_a   4.79367359
_cell_length_b   4.79367359
_cell_length_c   15.52987564
_cell_angle_alpha   84.68436761
_cell_angle_beta   84.68436761
_cell_angle_gamma   101.62875196
_symmetry_Int_Tables_number   1
_chemical_formula_structural   CrPO4
_chemical_formula_sum   'Cr4 P4 O16'
_cell_volume   345.76308314
_cell_formula_units_Z   4
loop_
 _symmetry_equiv_pos_site_id
 _symmetry_equiv_pos_as_xyz
  1  'x, y, z'
loop_
 _atom_site_type_symbol
 _atom_site_label
 _atom_site_symmetry_multiplicity
 _atom_site_fract_x
 _atom_site_fract_y
 _atom_site_fract_z
 _atom_site_occupancy
  Cr  Cr0  1  0.08799000  0.41112900  0.75003700  1
  Cr  Cr1  1  0.91201000  0.58887100  0.24996300  1
  Cr  Cr2  1  0.58887100  0.91201000  0.74996300  1
  Cr  Cr3  1  0.41112900  0.08799000  0.25003700  1
  P  P4  1  0.74165000  0.56710700  0.63020700  1
  P  P5  1  0.25835000  0.43289300  0.36979300  1
  P  P6  1  0.43289300  0.25835000  0.86979300  1
  P  P7  1  0.56710700  0.74165000  0.13020700  1
  O  O8  1  0.73645300  0.91388700  0.20351500  1
  O  O9  1  0.74306900  0.20662100  0.83526600  1
  O  O10  1  0.20662100  0.74306900  0.33526600  1
  O  O11  1  0.82753300  0.66877100  0.53862300  1
  O  O12  1  0.43141000  0.61595100  0.66601700  1
  O  O13  1  0.26354700  0.08611300  0.79648500  1
  O  O14  1  0.66877100  0.82753300  0.03862300  1
  O  O15  1  0.08611300  0.26354700  0.29648500  1
  O  O16  1  0.33122900  0.17246700  0.96137700  1
  O  O17  1  0.79337900  0.25693100  0.66473400  1
  O  O18  1  0.25693100  0.79337900  0.16473400  1
  O  O19  1  0.56859000  0.38404900  0.33398300  1
  O  O20  1  0.61595100  0.43141000  0.16601700  1
  O  O21  1  0.38404900  0.56859000  0.83398300  1
  O  O22  1  0.17246700  0.33122900  0.46137700  1
  O  O23  1  0.91388700  0.73645300  0.70351500  1
