# generated using pymatgen
data_PtN2
_symmetry_space_group_name_H-M   'P 1'
_cell_length_a   4.86865800
_cell_length_b   4.86865800
_cell_length_c   4.86865800
_cell_angle_alpha   90.00000000
_cell_angle_beta   90.00000000
_cell_angle_gamma   90.00000000
_symmetry_Int_Tables_number   1
_chemical_formula_structural   PtN2
_chemical_formula_sum   'Pt4 N8'
_cell_volume   115.40584507
_cell_formula_units_Z   4
loop_
 _symmetry_equiv_pos_site_id
 _symmetry_equiv_pos_as_xyz
  1  'x, y, z'
loop_
 _atom_site_type_symbol
 _atom_site_label
 _atom_site_symmetry_multiplicity
 _atom_site_fract_x
 _atom_site_fract_y
 _atom_site_fract_z
 _atom_site_occupancy
  Pt  Pt0  1  0.50000000  0.50000000  0.00000000  1
  Pt  Pt1  1  0.50000000  0.00000000  0.50000000  1
  Pt  Pt2  1  0.00000000  0.50000000  0.50000000  1
  Pt  Pt3  1  0.00000000  0.00000000  0.00000000  1
  N  N4  1  0.08389700  0.91610300  0.41610300  1
  N  N5  1  0.91610300  0.41610300  0.08389700  1
  N  N6  1  0.41610300  0.08389700  0.91610300  1
  N  N7  1  0.58389700  0.58389700  0.58389700  1
  N  N8  1  0.91610300  0.08389700  0.58389700  1
  N  N9  1  0.08389700  0.58389700  0.91610300  1
  N  N10  1  0.58389700  0.91610300  0.08389700  1
  N  N11  1  0.41610300  0.41610300  0.41610300  1
