# generated using pymatgen
data_Mo2Cl4O
_symmetry_space_group_name_H-M   'P 1'
_cell_length_a   6.16858933
_cell_length_b   6.16858933
_cell_length_c   6.71670380
_cell_angle_alpha   62.20243023
_cell_angle_beta   62.20243023
_cell_angle_gamma   63.29939824
_symmetry_Int_Tables_number   1
_chemical_formula_structural   Mo2Cl4O
_chemical_formula_sum   'Mo2 Cl4 O1'
_cell_volume   191.01675754
_cell_formula_units_Z   1
loop_
 _symmetry_equiv_pos_site_id
 _symmetry_equiv_pos_as_xyz
  1  'x, y, z'
loop_
 _atom_site_type_symbol
 _atom_site_label
 _atom_site_symmetry_multiplicity
 _atom_site_fract_x
 _atom_site_fract_y
 _atom_site_fract_z
 _atom_site_occupancy
  Mo  Mo0  1  0.50112100  0.89559900  0.29655300  1
  Mo  Mo1  1  0.10440100  0.49887900  0.70344700  1
  Cl  Cl2  1  0.70951600  0.76317500  0.92498300  1
  Cl  Cl3  1  0.24298700  0.07149700  0.63697300  1
  Cl  Cl4  1  0.92850300  0.75701300  0.36302700  1
  Cl  Cl5  1  0.23682500  0.29048400  0.07501700  1
  O  O6  1  0.43690900  0.56309100  0.50000000  1
