# generated using pymatgen
data_CsPO4
_symmetry_space_group_name_H-M   'P 1'
_cell_length_a   9.34528108
_cell_length_b   9.34528108
_cell_length_c   5.86549700
_cell_angle_alpha   90.00000000
_cell_angle_beta   90.00000000
_cell_angle_gamma   144.47509355
_symmetry_Int_Tables_number   1
_chemical_formula_structural   CsPO4
_chemical_formula_sum   'Cs2 P2 O8'
_cell_volume   297.65154358
_cell_formula_units_Z   2
loop_
 _symmetry_equiv_pos_site_id
 _symmetry_equiv_pos_as_xyz
  1  'x, y, z'
loop_
 _atom_site_type_symbol
 _atom_site_label
 _atom_site_symmetry_multiplicity
 _atom_site_fract_x
 _atom_site_fract_y
 _atom_site_fract_z
 _atom_site_occupancy
  Cs  Cs0  1  0.06642700  0.81034300  0.50000000  1
  Cs  Cs1  1  0.81034300  0.06642700  0.50000000  1
  P  P2  1  0.48129800  0.21973000  0.00000000  1
  P  P3  1  0.21973000  0.48129800  0.00000000  1
  O  O4  1  0.19522800  0.98933800  0.00000000  1
  O  O5  1  0.98933800  0.19522800  0.00000000  1
  O  O6  1  0.53260900  0.09719400  0.00000000  1
  O  O7  1  0.09719400  0.53260900  0.00000000  1
  O  O8  1  0.59160000  0.37831600  0.21568100  1
  O  O9  1  0.37831600  0.59160000  0.78431900  1
  O  O10  1  0.59160000  0.37831600  0.78431900  1
  O  O11  1  0.37831600  0.59160000  0.21568100  1
