# generated using pymatgen
data_AsH2C2NCl2O
_symmetry_space_group_name_H-M   'P 1'
_cell_length_a   7.74227973
_cell_length_b   7.74227973
_cell_length_c   17.45693300
_cell_angle_alpha   90.00000000
_cell_angle_beta   90.00000000
_cell_angle_gamma   138.14798842
_symmetry_Int_Tables_number   1
_chemical_formula_structural   AsH2C2NCl2O
_chemical_formula_sum   'As4 H8 C8 N4 Cl8 O4'
_cell_volume   698.18016209
_cell_formula_units_Z   4
loop_
 _symmetry_equiv_pos_site_id
 _symmetry_equiv_pos_as_xyz
  1  'x, y, z'
loop_
 _atom_site_type_symbol
 _atom_site_label
 _atom_site_symmetry_multiplicity
 _atom_site_fract_x
 _atom_site_fract_y
 _atom_site_fract_z
 _atom_site_occupancy
  As  As0  1  0.37356000  0.62644000  0.70805400  1
  As  As1  1  0.62644000  0.37356000  0.29194600  1
  As  As2  1  0.12644000  0.87356000  0.20805400  1
  As  As3  1  0.87356000  0.12644000  0.79194600  1
  H  H4  1  0.83914200  0.51407400  0.84006200  1
  H  H5  1  0.51407400  0.83914200  0.15993800  1
  H  H6  1  0.01407400  0.33914200  0.34006200  1
  H  H7  1  0.33914200  0.01407400  0.65993800  1
  H  H8  1  0.16085800  0.48592600  0.15993800  1
  H  H9  1  0.48592600  0.16085800  0.84006200  1
  H  H10  1  0.98592600  0.66085800  0.65993800  1
  H  H11  1  0.66085800  0.98592600  0.34006200  1
  C  C12  1  0.63733100  0.36266900  0.86329600  1
  C  C13  1  0.36266900  0.63733100  0.13670400  1
  C  C14  1  0.86266900  0.13733100  0.36329600  1
  C  C15  1  0.13733100  0.86266900  0.63670400  1
  C  C16  1  0.53122400  0.46877600  0.97411700  1
  C  C17  1  0.46877600  0.53122400  0.02588300  1
  C  C18  1  0.96877600  0.03122400  0.47411700  1
  C  C19  1  0.03122400  0.96877600  0.52588300  1
  N  N20  1  0.58562500  0.41437500  0.92126700  1
  N  N21  1  0.41437500  0.58562500  0.07873300  1
  N  N22  1  0.91437500  0.08562500  0.42126700  1
  N  N23  1  0.08562500  0.91437500  0.57873300  1
  Cl  Cl24  1  0.25191200  0.74808800  0.83889900  1
  Cl  Cl25  1  0.74808800  0.25191200  0.16110100  1
  Cl  Cl26  1  0.24808800  0.75191200  0.33889900  1
  Cl  Cl27  1  0.75191200  0.24808800  0.66110100  1
  Cl  Cl28  1  0.45875600  0.54124400  0.59557800  1
  Cl  Cl29  1  0.54124400  0.45875600  0.40442200  1
  Cl  Cl30  1  0.04124400  0.95875600  0.09557800  1
  Cl  Cl31  1  0.95875600  0.04124400  0.90442200  1
  O  O32  1  0.69063200  0.80936800  0.75000000  1
  O  O33  1  0.80936800  0.69063200  0.25000000  1
  O  O34  1  0.30936800  0.19063200  0.25000000  1
  O  O35  1  0.19063200  0.30936800  0.75000000  1
