# generated using pymatgen
data_La2NiO4
_symmetry_space_group_name_H-M   'P 1'
_cell_length_a   7.07748515
_cell_length_b   7.07748515
_cell_length_c   7.34320200
_cell_angle_alpha   90.00000000
_cell_angle_beta   90.00000000
_cell_angle_gamma   147.46324480
_symmetry_Int_Tables_number   1
_chemical_formula_structural   La2NiO4
_chemical_formula_sum   'La4 Ni2 O8'
_cell_volume   197.83218033
_cell_formula_units_Z   2
loop_
 _symmetry_equiv_pos_site_id
 _symmetry_equiv_pos_as_xyz
  1  'x, y, z'
loop_
 _atom_site_type_symbol
 _atom_site_label
 _atom_site_symmetry_multiplicity
 _atom_site_fract_x
 _atom_site_fract_y
 _atom_site_fract_z
 _atom_site_occupancy
  La  La0  1  0.28362300  0.71637700  0.14443200  1
  La  La1  1  0.71637700  0.28362300  0.64443200  1
  La  La2  1  0.05306300  0.94693700  0.34774900  1
  La  La3  1  0.94693700  0.05306300  0.84774900  1
  Ni  Ni4  1  0.60954000  0.39046000  0.03720800  1
  Ni  Ni5  1  0.39046000  0.60954000  0.53720800  1
  O  O6  1  0.54320100  0.45679900  0.63569000  1
  O  O7  1  0.76619500  0.23380500  0.98330800  1
  O  O8  1  0.35348600  0.64651400  0.79253100  1
  O  O9  1  0.23380500  0.76619500  0.48330800  1
  O  O10  1  0.64651400  0.35348600  0.29253100  1
  O  O11  1  0.89759400  0.10240600  0.49638200  1
  O  O12  1  0.45679900  0.54320100  0.13569000  1
  O  O13  1  0.10240600  0.89759400  0.99638200  1
