# generated using pymatgen
data_LaTiAlPbO6
_symmetry_space_group_name_H-M   'P 1'
_cell_length_a   3.90594400
_cell_length_b   5.49647000
_cell_length_c   22.05656900
_cell_angle_alpha   90.00000000
_cell_angle_beta   90.00000000
_cell_angle_gamma   90.00000000
_symmetry_Int_Tables_number   1
_chemical_formula_structural   LaTiAlPbO6
_chemical_formula_sum   'La4 Ti4 Al4 Pb4 O24'
_cell_volume   473.53036282
_cell_formula_units_Z   4
loop_
 _symmetry_equiv_pos_site_id
 _symmetry_equiv_pos_as_xyz
  1  'x, y, z'
loop_
 _atom_site_type_symbol
 _atom_site_label
 _atom_site_symmetry_multiplicity
 _atom_site_fract_x
 _atom_site_fract_y
 _atom_site_fract_z
 _atom_site_occupancy
  La  La0  1  0.00000000  0.75000000  0.31823900  1
  La  La1  1  0.00000000  0.75000000  0.56197100  1
  La  La2  1  0.00000000  0.25000000  0.68176100  1
  La  La3  1  0.00000000  0.25000000  0.43802900  1
  Ti  Ti4  1  0.50000000  0.75000000  0.93530400  1
  Ti  Ti5  1  0.50000000  0.75000000  0.19268100  1
  Ti  Ti6  1  0.50000000  0.25000000  0.06469600  1
  Ti  Ti7  1  0.50000000  0.25000000  0.80731900  1
  Al  Al8  1  0.50000000  0.75000000  0.43917900  1
  Al  Al9  1  0.50000000  0.25000000  0.31716800  1
  Al  Al10  1  0.50000000  0.25000000  0.56082100  1
  Al  Al11  1  0.50000000  0.75000000  0.68283200  1
  Pb  Pb12  1  0.00000000  0.75000000  0.80699400  1
  Pb  Pb13  1  0.00000000  0.25000000  0.93803600  1
  Pb  Pb14  1  0.00000000  0.75000000  0.06196400  1
  Pb  Pb15  1  0.00000000  0.25000000  0.19300600  1
  O  O16  1  0.00000000  0.75000000  0.93773000  1
  O  O17  1  0.00000000  0.25000000  0.06227000  1
  O  O18  1  0.00000000  0.75000000  0.43763200  1
  O  O19  1  0.00000000  0.75000000  0.68049900  1
  O  O20  1  0.50000000  0.00102200  0.87206000  1
  O  O21  1  0.50000000  0.49897800  0.87206000  1
  O  O22  1  0.50000000  0.50000000  0.00000000  1
  O  O23  1  0.50000000  0.00000000  0.00000000  1
  O  O24  1  0.50000000  0.99897800  0.12794000  1
  O  O25  1  0.50000000  0.50102200  0.12794000  1
  O  O26  1  0.50000000  0.50422600  0.25742600  1
  O  O27  1  0.50000000  0.99577400  0.25742600  1
  O  O28  1  0.50000000  0.99924200  0.37790200  1
  O  O29  1  0.50000000  0.50075800  0.37790200  1
  O  O30  1  0.50000000  0.00000000  0.50000000  1
  O  O31  1  0.50000000  0.50000000  0.50000000  1
  O  O32  1  0.50000000  0.00075800  0.62209800  1
  O  O33  1  0.50000000  0.49924200  0.62209800  1
  O  O34  1  0.50000000  0.49577400  0.74257400  1
  O  O35  1  0.50000000  0.00422600  0.74257400  1
  O  O36  1  0.00000000  0.25000000  0.80422700  1
  O  O37  1  0.00000000  0.75000000  0.19577300  1
  O  O38  1  0.00000000  0.25000000  0.31950100  1
  O  O39  1  0.00000000  0.25000000  0.56236800  1
