# generated using pymatgen
data_MnSnO3
_symmetry_space_group_name_H-M   'P 1'
_cell_length_a   5.45773923
_cell_length_b   5.71570121
_cell_length_c   5.45904291
_cell_angle_alpha   89.99914042
_cell_angle_beta   59.99152320
_cell_angle_gamma   61.49001909
_symmetry_Int_Tables_number   1
_chemical_formula_structural   MnSnO3
_chemical_formula_sum   'Mn2 Sn2 O6'
_cell_volume   123.04270445
_cell_formula_units_Z   2
loop_
 _symmetry_equiv_pos_site_id
 _symmetry_equiv_pos_as_xyz
  1  'x, y, z'
loop_
 _atom_site_type_symbol
 _atom_site_label
 _atom_site_symmetry_multiplicity
 _atom_site_fract_x
 _atom_site_fract_y
 _atom_site_fract_z
 _atom_site_occupancy
  Mn  Mn0  1  0.27184800  0.59219200  0.86408200  1
  Mn  Mn1  1  0.27230000  0.09152300  0.36384200  1
  Sn  Sn2  1  0.70456000  0.44304600  0.14772600  1
  Sn  Sn3  1  0.70444400  0.94312800  0.64778400  1
  O  O4  1  0.19768600  0.23840200  0.77117300  1
  O  O5  1  0.53290600  0.23808900  0.03118300  1
  O  O6  1  0.79293500  0.23842000  0.43593500  1
  O  O7  1  0.19762600  0.73849600  0.53108200  1
  O  O8  1  0.53292200  0.73819100  0.93594600  1
  O  O9  1  0.79277400  0.73851500  0.27124700  1
