# generated using pymatgen
data_TbSb2
_symmetry_space_group_name_H-M   'P 1'
_cell_length_a   4.35313264
_cell_length_b   4.35313264
_cell_length_c   17.76695300
_cell_angle_alpha   90.00000000
_cell_angle_beta   90.00000000
_cell_angle_gamma   90.07196107
_symmetry_Int_Tables_number   1
_chemical_formula_structural   TbSb2
_chemical_formula_sum   'Tb4 Sb8'
_cell_volume   336.67929644
_cell_formula_units_Z   4
loop_
 _symmetry_equiv_pos_site_id
 _symmetry_equiv_pos_as_xyz
  1  'x, y, z'
loop_
 _atom_site_type_symbol
 _atom_site_label
 _atom_site_symmetry_multiplicity
 _atom_site_fract_x
 _atom_site_fract_y
 _atom_site_fract_z
 _atom_site_occupancy
  Tb  Tb0  1  0.35961400  0.35961400  0.88949600  1
  Tb  Tb1  1  0.64038600  0.64038600  0.11050400  1
  Tb  Tb2  1  0.14038600  0.14038600  0.38949600  1
  Tb  Tb3  1  0.85961400  0.85961400  0.61050400  1
  Sb  Sb4  1  0.36285100  0.36285100  0.56512300  1
  Sb  Sb5  1  0.63714900  0.63714900  0.43487700  1
  Sb  Sb6  1  0.13714900  0.13714900  0.06512300  1
  Sb  Sb7  1  0.86285100  0.86285100  0.93487700  1
  Sb  Sb8  1  0.37504500  0.87504500  0.75000000  1
  Sb  Sb9  1  0.12495500  0.62495500  0.25000000  1
  Sb  Sb10  1  0.62495500  0.12495500  0.25000000  1
  Sb  Sb11  1  0.87504500  0.37504500  0.75000000  1
