# generated using pymatgen
data_Mg11AlFeSi11O36
_symmetry_space_group_name_H-M   'P 1'
_cell_length_a   5.00545300
_cell_length_b   7.00227626
_cell_length_c   14.51612131
_cell_angle_alpha   90.00228137
_cell_angle_beta   90.08585220
_cell_angle_gamma   90.10274709
_symmetry_Int_Tables_number   1
_chemical_formula_structural   Mg11AlFeSi11O36
_chemical_formula_sum   'Mg11 Al1 Fe1 Si11 O36'
_cell_volume   508.78234342
_cell_formula_units_Z   1
loop_
 _symmetry_equiv_pos_site_id
 _symmetry_equiv_pos_as_xyz
  1  'x, y, z'
loop_
 _atom_site_type_symbol
 _atom_site_label
 _atom_site_symmetry_multiplicity
 _atom_site_fract_x
 _atom_site_fract_y
 _atom_site_fract_z
 _atom_site_occupancy
  Mg  Mg0  1  0.05937600  0.74537600  0.99654900  1
  Mg  Mg1  1  0.55734800  0.74687600  0.83654900  1
  Mg  Mg2  1  0.44418900  0.25313200  0.82818500  1
  Mg  Mg3  1  0.94116900  0.24923700  0.67119300  1
  Mg  Mg4  1  0.05881800  0.74953700  0.66030400  1
  Mg  Mg5  1  0.55808100  0.75040100  0.50489800  1
  Mg  Mg6  1  0.44159900  0.24965600  0.49530800  1
  Mg  Mg7  1  0.94084900  0.25024000  0.33970700  1
  Mg  Mg8  1  0.05820200  0.75090600  0.32918500  1
  Mg  Mg9  1  0.55664000  0.74825000  0.17175600  1
  Mg  Mg10  1  0.43970700  0.25218400  0.16263700  1
  Al  Al11  1  0.49903400  0.50359700  0.99891500  1
  Fe  Fe12  1  0.93272900  0.25665200  0.00561700  1
  Si  Si13  1  0.00195500  0.99556600  0.83275500  1
  Si  Si14  1  0.00577800  0.50533300  0.83171400  1
  Si  Si15  1  0.50065800  0.49913500  0.66614200  1
  Si  Si16  1  0.50020700  0.00021100  0.66691000  1
  Si  Si17  1  0.99986600  0.50001600  0.50006200  1
  Si  Si18  1  0.99987300  0.99999400  0.50012400  1
  Si  Si19  1  0.49942400  0.50016300  0.33406400  1
  Si  Si20  1  0.49984200  0.00056600  0.33343400  1
  Si  Si21  1  0.99859300  0.00132200  0.16838200  1
  Si  Si22  1  0.99576700  0.49823500  0.16937200  1
  Si  Si23  1  0.49988500  0.99667100  0.99810200  1
  O  O24  1  0.54018000  0.23837000  0.96463800  1
  O  O25  1  0.80373000  0.94108600  0.93444300  1
  O  O26  1  0.81592600  0.54765900  0.93256600  1
  O  O27  1  0.30039200  0.55150900  0.89266600  1
  O  O28  1  0.29914400  0.94283400  0.89759400  1
  O  O29  1  0.03388100  0.24577900  0.86979300  1
  O  O30  1  0.96317800  0.75135100  0.79610200  1
  O  O31  1  0.70392800  0.44644800  0.76673800  1
  O  O32  1  0.70148300  0.05357900  0.76793400  1
  O  O33  1  0.20003000  0.44471200  0.73046400  1
  O  O34  1  0.20165500  0.05433400  0.73227900  1
  O  O35  1  0.46489700  0.74974500  0.70022400  1
  O  O36  1  0.53439900  0.24952400  0.63189200  1
  O  O37  1  0.79885200  0.55334100  0.60064300  1
  O  O38  1  0.79899500  0.94687400  0.60119100  1
  O  O39  1  0.29922500  0.55314200  0.56502200  1
  O  O40  1  0.29871500  0.94694400  0.56542200  1
  O  O41  1  0.03402500  0.24983100  0.53411900  1
  O  O42  1  0.96571000  0.75020100  0.46582700  1
  O  O43  1  0.70092300  0.05325700  0.43470800  1
  O  O44  1  0.70049100  0.44670900  0.43498300  1
  O  O45  1  0.20063900  0.05280400  0.39864500  1
  O  O46  1  0.20068100  0.44696700  0.39908000  1
  O  O47  1  0.46499200  0.75045100  0.36790400  1
  O  O48  1  0.53434500  0.25038300  0.29959300  1
  O  O49  1  0.79907000  0.55433600  0.26967100  1
  O  O50  1  0.79730000  0.94669300  0.26822200  1
  O  O51  1  0.29844100  0.55316800  0.23247800  1
  O  O52  1  0.30068100  0.94743200  0.23136700  1
  O  O53  1  0.03620700  0.24841400  0.20443300  1
  O  O54  1  0.96370200  0.75324600  0.13345300  1
  O  O55  1  0.70633100  0.06130300  0.10024600  1
  O  O56  1  0.70484400  0.44411300  0.10515000  1
  O  O57  1  0.18582400  0.44623400  0.06774900  1
  O  O58  1  0.19564100  0.06212900  0.06480200  1
  O  O59  1  0.46195500  0.76184200  0.03609400  1
