# generated using pymatgen
data_K6Ba2CaU6O24
_symmetry_space_group_name_H-M   'P 1'
_cell_length_a   7.55616374
_cell_length_b   7.55616374
_cell_length_c   24.68279900
_cell_angle_alpha   90.00000000
_cell_angle_beta   90.00000000
_cell_angle_gamma   109.47813298
_symmetry_Int_Tables_number   1
_chemical_formula_structural   K6Ba2CaU6O24
_chemical_formula_sum   'K12 Ba4 Ca2 U12 O48'
_cell_volume   1328.62474846
_cell_formula_units_Z   2
loop_
 _symmetry_equiv_pos_site_id
 _symmetry_equiv_pos_as_xyz
  1  'x, y, z'
loop_
 _atom_site_type_symbol
 _atom_site_label
 _atom_site_symmetry_multiplicity
 _atom_site_fract_x
 _atom_site_fract_y
 _atom_site_fract_z
 _atom_site_occupancy
  K  K0  1  0.00543500  0.50543500  0.25148700  1
  K  K1  1  0.00000000  0.50000000  0.00000000  1
  K  K2  1  0.25000000  0.25000000  0.12449500  1
  K  K3  1  0.50000000  0.00000000  0.00000000  1
  K  K4  1  0.49456500  0.99456500  0.25148700  1
  K  K5  1  0.75000000  0.75000000  0.12449500  1
  K  K6  1  0.99456500  0.49456500  0.74851300  1
  K  K7  1  0.75000000  0.75000000  0.87550500  1
  K  K8  1  0.25000000  0.25000000  0.87550500  1
  K  K9  1  0.50543500  0.00543500  0.74851300  1
  K  K10  1  0.50000000  0.00000000  0.50000000  1
  K  K11  1  0.00000000  0.50000000  0.50000000  1
  Ba  Ba12  1  0.25000000  0.25000000  0.62582500  1
  Ba  Ba13  1  0.75000000  0.75000000  0.62582500  1
  Ba  Ba14  1  0.75000000  0.75000000  0.37417500  1
  Ba  Ba15  1  0.25000000  0.25000000  0.37417500  1
  Ca  Ca16  1  0.75000000  0.25000000  0.12470300  1
  Ca  Ca17  1  0.25000000  0.75000000  0.87529700  1
  U  U18  1  0.50044300  0.49955700  0.24755000  1
  U  U19  1  0.00000000  0.00000000  0.00000000  1
  U  U20  1  0.99955700  0.00044300  0.24755000  1
  U  U21  1  0.49955700  0.50044300  0.75245000  1
  U  U22  1  0.25000000  0.75000000  0.12401600  1
  U  U23  1  0.50000000  0.50000000  0.00000000  1
  U  U24  1  0.00000000  0.00000000  0.50000000  1
  U  U25  1  0.75000000  0.25000000  0.87598400  1
  U  U26  1  0.00044300  0.99955700  0.75245000  1
  U  U27  1  0.25000000  0.75000000  0.62596600  1
  U  U28  1  0.50000000  0.50000000  0.50000000  1
  U  U29  1  0.75000000  0.25000000  0.37403400  1
  O  O30  1  0.39721200  0.60278800  0.30533900  1
  O  O31  1  0.61832000  0.38168000  0.31382700  1
  O  O32  1  0.75000000  0.75000000  0.25220000  1
  O  O33  1  0.88569000  0.11431000  0.19232900  1
  O  O34  1  0.88723600  0.11276400  0.05636800  1
  O  O35  1  0.88168000  0.11832000  0.31382700  1
  O  O36  1  0.12447400  0.87552600  0.06218700  1
  O  O37  1  0.12676200  0.87323800  0.18632100  1
  O  O38  1  0.25000000  0.25000000  0.00000000  1
  O  O39  1  0.02384800  0.52384800  0.12488800  1
  O  O40  1  0.38569000  0.61431000  0.80767100  1
  O  O41  1  0.10278800  0.89721200  0.30533900  1
  O  O42  1  0.47615200  0.97615200  0.12488800  1
  O  O43  1  0.25000000  0.25000000  0.25220000  1
  O  O44  1  0.37552600  0.62447400  0.06218700  1
  O  O45  1  0.62676200  0.37323800  0.81367900  1
  O  O46  1  0.62447400  0.37552600  0.93781300  1
  O  O47  1  0.37323800  0.62676200  0.18632100  1
  O  O48  1  0.75000000  0.75000000  0.74780000  1
  O  O49  1  0.52384800  0.02384800  0.87511200  1
  O  O50  1  0.89553500  0.10446500  0.55714700  1
  O  O51  1  0.38723600  0.61276400  0.94363200  1
  O  O52  1  0.61431000  0.38569000  0.19232900  1
  O  O53  1  0.61276400  0.38723600  0.05636800  1
  O  O54  1  0.97615200  0.47615200  0.87511200  1
  O  O55  1  0.75000000  0.75000000  0.00000000  1
  O  O56  1  0.87323800  0.12676200  0.81367900  1
  O  O57  1  0.12051500  0.87948500  0.56538400  1
  O  O58  1  0.11832000  0.88168000  0.68617300  1
  O  O59  1  0.25000000  0.25000000  0.50000000  1
  O  O60  1  0.87552600  0.12447400  0.93781300  1
  O  O61  1  0.89721200  0.10278800  0.69466100  1
  O  O62  1  0.03186900  0.53186900  0.62516400  1
  O  O63  1  0.39553500  0.60446500  0.44285300  1
  O  O64  1  0.11431000  0.88569000  0.80767100  1
  O  O65  1  0.11276400  0.88723600  0.94363200  1
  O  O66  1  0.46813100  0.96813100  0.62516400  1
  O  O67  1  0.37948500  0.62051500  0.56538400  1
  O  O68  1  0.25000000  0.25000000  0.74780000  1
  O  O69  1  0.62051500  0.37948500  0.43461600  1
  O  O70  1  0.38168000  0.61832000  0.68617300  1
  O  O71  1  0.53186900  0.03186900  0.37483600  1
  O  O72  1  0.60278800  0.39721200  0.69466100  1
  O  O73  1  0.60446500  0.39553500  0.55714700  1
  O  O74  1  0.96813100  0.46813100  0.37483600  1
  O  O75  1  0.75000000  0.75000000  0.50000000  1
  O  O76  1  0.87948500  0.12051500  0.43461600  1
  O  O77  1  0.10446500  0.89553500  0.44285300  1
