# generated using pymatgen
data_Ba2La6Mg4Ti3WO24
_symmetry_space_group_name_H-M   'P 1'
_cell_length_a   5.88703616
_cell_length_b   5.88703616
_cell_length_c   37.76414200
_cell_angle_alpha   89.68380071
_cell_angle_beta   89.68380071
_cell_angle_gamma   56.62733915
_symmetry_Int_Tables_number   1
_chemical_formula_structural   Ba2La6Mg4Ti3WO24
_chemical_formula_sum   'Ba4 La12 Mg8 Ti6 W2 O48'
_cell_volume   1092.97041207
_cell_formula_units_Z   2
loop_
 _symmetry_equiv_pos_site_id
 _symmetry_equiv_pos_as_xyz
  1  'x, y, z'
loop_
 _atom_site_type_symbol
 _atom_site_label
 _atom_site_symmetry_multiplicity
 _atom_site_fract_x
 _atom_site_fract_y
 _atom_site_fract_z
 _atom_site_occupancy
  Ba  Ba0  1  0.66093700  0.66093700  0.96869800  1
  Ba  Ba1  1  0.01119500  0.01119500  0.09355700  1
  Ba  Ba2  1  0.33906300  0.33906300  0.03130200  1
  Ba  Ba3  1  0.98880500  0.98880500  0.90644300  1
  La  La4  1  0.89273000  0.89273000  0.21655700  1
  La  La5  1  0.08378600  0.08378600  0.34745000  1
  La  La6  1  0.38262200  0.38262200  0.13860500  1
  La  La7  1  0.22959000  0.22959000  0.46264200  1
  La  La8  1  0.49466400  0.49466400  0.29511000  1
  La  La9  1  0.35255200  0.35255200  0.58418200  1
  La  La10  1  0.64744800  0.64744800  0.41581800  1
  La  La11  1  0.50533600  0.50533600  0.70489000  1
  La  La12  1  0.77041000  0.77041000  0.53735800  1
  La  La13  1  0.61737800  0.61737800  0.86139500  1
  La  La14  1  0.91621400  0.91621400  0.65255000  1
  La  La15  1  0.10727000  0.10727000  0.78344300  1
  Mg  Mg16  1  0.19405500  0.19405500  0.26109100  1
  Mg  Mg17  1  0.15187800  0.15187800  0.18616500  1
  Mg  Mg18  1  0.00000000  0.00000000  0.00000000  1
  Mg  Mg19  1  0.38011900  0.38011900  0.37876300  1
  Mg  Mg20  1  0.80594500  0.80594500  0.73890900  1
  Mg  Mg21  1  0.50000000  0.50000000  0.50000000  1
  Mg  Mg22  1  0.84812200  0.84812200  0.81383500  1
  Mg  Mg23  1  0.61988100  0.61988100  0.62123700  1
  Ti  Ti24  1  0.61071900  0.61071900  0.19733300  1
  Ti  Ti25  1  0.79805900  0.79805900  0.31540600  1
  Ti  Ti26  1  0.93419000  0.93419000  0.44242200  1
  Ti  Ti27  1  0.06581000  0.06581000  0.55757800  1
  Ti  Ti28  1  0.20194100  0.20194100  0.68459400  1
  Ti  Ti29  1  0.38928100  0.38928100  0.80266700  1
  W  W30  1  0.32377200  0.32377200  0.93640500  1
  W  W31  1  0.67622800  0.67622800  0.06359500  1
  O  O32  1  0.65599300  0.17212500  0.96625300  1
  O  O33  1  0.82377700  0.82377700  0.03247300  1
  O  O34  1  0.17212500  0.65599300  0.96625300  1
  O  O35  1  0.82787500  0.34400700  0.03374700  1
  O  O36  1  0.99141600  0.49926900  0.09203600  1
  O  O37  1  0.17622300  0.17622300  0.96752700  1
  O  O38  1  0.77513600  0.77513600  0.16701600  1
  O  O39  1  0.34400700  0.82787500  0.03374700  1
  O  O40  1  0.49926900  0.99141600  0.09203600  1
  O  O41  1  0.78220700  0.28013300  0.16731400  1
  O  O42  1  0.96996000  0.44561300  0.22148700  1
  O  O43  1  0.50930500  0.50930500  0.09258900  1
  O  O44  1  0.92721400  0.92721400  0.28011500  1
  O  O45  1  0.28013300  0.78220700  0.16731400  1
  O  O46  1  0.44561300  0.96996000  0.22148700  1
  O  O47  1  0.92832700  0.43150000  0.29748400  1
  O  O48  1  0.13271600  0.64400100  0.34123800  1
  O  O49  1  0.47535700  0.47535700  0.23154700  1
  O  O50  1  0.09848900  0.09848900  0.40648100  1
  O  O51  1  0.43150000  0.92832700  0.29748400  1
  O  O52  1  0.64400100  0.13271600  0.34123800  1
  O  O53  1  0.09273900  0.59330500  0.41604500  1
  O  O54  1  0.29324900  0.79196300  0.46408500  1
  O  O55  1  0.61153900  0.61153900  0.35738500  1
  O  O56  1  0.20960500  0.20960500  0.52520800  1
  O  O57  1  0.59330500  0.09273900  0.41604500  1
  O  O58  1  0.79196300  0.29324900  0.46408500  1
  O  O59  1  0.20803700  0.70675100  0.53591500  1
  O  O60  1  0.40669500  0.90726100  0.58395500  1
  O  O61  1  0.79039500  0.79039500  0.47479200  1
  O  O62  1  0.38846100  0.38846100  0.64261500  1
  O  O63  1  0.70675100  0.20803700  0.53591500  1
  O  O64  1  0.90726100  0.40669500  0.58395500  1
  O  O65  1  0.35599900  0.86728400  0.65876200  1
  O  O66  1  0.56850000  0.07167300  0.70251600  1
  O  O67  1  0.90151100  0.90151100  0.59351900  1
  O  O68  1  0.52464300  0.52464300  0.76845300  1
  O  O69  1  0.86728400  0.35599900  0.65876200  1
  O  O70  1  0.07167300  0.56850000  0.70251600  1
  O  O71  1  0.55438700  0.03004000  0.77851300  1
  O  O72  1  0.71986700  0.21779300  0.83268600  1
  O  O73  1  0.07278600  0.07278600  0.71988500  1
  O  O74  1  0.49069500  0.49069500  0.90741100  1
  O  O75  1  0.03004000  0.55438700  0.77851300  1
  O  O76  1  0.21779300  0.71986700  0.83268600  1
  O  O77  1  0.50073100  0.00858400  0.90796400  1
  O  O78  1  0.22486400  0.22486400  0.83298400  1
  O  O79  1  0.00858400  0.50073100  0.90796400  1
