# generated using pymatgen
data_K4Na2FeH3F12
_symmetry_space_group_name_H-M   'P 1'
_cell_length_a   6.13850600
_cell_length_b   5.88180100
_cell_length_c   8.54935380
_cell_angle_alpha   85.99567871
_cell_angle_beta   90.00000000
_cell_angle_gamma   90.00000000
_symmetry_Int_Tables_number   1
_chemical_formula_structural   K4Na2FeH3F12
_chemical_formula_sum   'K4 Na2 Fe1 H3 F12'
_cell_volume   307.92489332
_cell_formula_units_Z   1
loop_
 _symmetry_equiv_pos_site_id
 _symmetry_equiv_pos_as_xyz
  1  'x, y, z'
loop_
 _atom_site_type_symbol
 _atom_site_label
 _atom_site_symmetry_multiplicity
 _atom_site_fract_x
 _atom_site_fract_y
 _atom_site_fract_z
 _atom_site_occupancy
  K  K0  1  0.50222700  0.95190300  0.76037800  1
  K  K1  1  0.99363300  0.50729200  0.26306300  1
  K  K2  1  0.50222700  0.04809700  0.23962200  1
  K  K3  1  0.99363300  0.49270800  0.73693700  1
  Na  Na4  1  0.00779800  0.00000000  0.00000000  1
  Na  Na5  1  0.49164400  0.50000000  0.50000000  1
  Fe  Fe6  1  0.99713900  0.00000000  0.50000000  1
  H  H7  1  0.37987500  0.62920700  0.12690200  1
  H  H8  1  0.37987500  0.37079300  0.87309800  1
  H  H9  1  0.75301200  0.50000000  0.00000000  1
  F  F10  1  0.76724400  0.23745700  0.49390600  1
  F  F11  1  0.99304700  0.98992200  0.73099000  1
  F  F12  1  0.99304700  0.01007800  0.26901000  1
  F  F13  1  0.22350400  0.23430700  0.49308200  1
  F  F14  1  0.28551600  0.25653900  0.96188800  1
  F  F15  1  0.28551600  0.74346100  0.03811200  1
  F  F16  1  0.46036400  0.52810900  0.23348000  1
  F  F17  1  0.46036400  0.47189100  0.76652000  1
  F  F18  1  0.76979300  0.30410300  0.00889200  1
  F  F19  1  0.76979300  0.69589700  0.99110800  1
  F  F20  1  0.76724400  0.76254300  0.50609400  1
  F  F21  1  0.22350400  0.76569300  0.50691800  1
