# generated using pymatgen
data_Na3Mg4CrSi8(O11F)2
_symmetry_space_group_name_H-M   'P 1'
_cell_length_a   8.14976500
_cell_length_b   8.68441311
_cell_length_c   15.44138485
_cell_angle_alpha   102.29536049
_cell_angle_beta   86.46546778
_cell_angle_gamma   116.25188539
_symmetry_Int_Tables_number   1
_chemical_formula_structural   Na3Mg4CrSi8(O11F)2
_chemical_formula_sum   'Na6 Mg8 Cr2 Si16 O44 F4'
_cell_volume   957.01423112
_cell_formula_units_Z   2
loop_
 _symmetry_equiv_pos_site_id
 _symmetry_equiv_pos_as_xyz
  1  'x, y, z'
loop_
 _atom_site_type_symbol
 _atom_site_label
 _atom_site_symmetry_multiplicity
 _atom_site_fract_x
 _atom_site_fract_y
 _atom_site_fract_z
 _atom_site_occupancy
  Na  Na0  1  0.87205100  0.24494700  0.27620700  1
  Na  Na1  1  0.37489300  0.05296000  0.47439400  1
  Na  Na2  1  0.62510700  0.94704000  0.52560600  1
  Na  Na3  1  0.12794900  0.75505300  0.72379300  1
  Na  Na4  1  0.46511900  0.82763900  0.03713600  1
  Na  Na5  1  0.53488100  0.17236100  0.96286400  1
  Mg  Mg6  1  0.96353400  0.61135500  0.08116100  1
  Mg  Mg7  1  0.02769800  0.71585800  0.47612300  1
  Mg  Mg8  1  0.97230200  0.28414200  0.52387700  1
  Mg  Mg9  1  0.03646600  0.38864500  0.91883900  1
  Mg  Mg10  1  0.44591600  0.50564800  0.76864800  1
  Mg  Mg11  1  0.28045800  0.36049600  0.08725700  1
  Mg  Mg12  1  0.71954200  0.63950400  0.91274300  1
  Mg  Mg13  1  0.55408400  0.49435200  0.23135200  1
  Cr  Cr14  1  0.52397300  0.85714800  0.24998200  1
  Cr  Cr15  1  0.47602700  0.14285200  0.75001800  1
  Si  Si16  1  0.29103000  0.07204300  0.17357600  1
  Si  Si17  1  0.85891400  0.88591600  0.10708000  1
  Si  Si18  1  0.07873600  0.01482900  0.64027600  1
  Si  Si19  1  0.69058100  0.69236000  0.62858500  1
  Si  Si20  1  0.30941900  0.30764000  0.37141500  1
  Si  Si21  1  0.92126400  0.98517100  0.35972400  1
  Si  Si22  1  0.14108600  0.11408400  0.89292000  1
  Si  Si23  1  0.70897000  0.92795700  0.82642400  1
  Si  Si24  1  0.31619700  0.56779800  0.54297100  1
  Si  Si25  1  0.67396100  0.35537600  0.64216300  1
  Si  Si26  1  0.92698900  0.62704000  0.30888800  1
  Si  Si27  1  0.81132500  0.24417300  0.10443200  1
  Si  Si28  1  0.18867500  0.75582700  0.89556800  1
  Si  Si29  1  0.07301100  0.37296000  0.69111200  1
  Si  Si30  1  0.32603900  0.64462400  0.35783700  1
  Si  Si31  1  0.68380300  0.43220200  0.45702900  1
  O  O32  1  0.48594300  0.28312200  0.41453200  1
  O  O33  1  0.84891200  0.07435800  0.44385500  1
  O  O34  1  0.37453400  0.61139300  0.24528800  1
  O  O35  1  0.14498400  0.09407100  0.35757900  1
  O  O36  1  0.52711900  0.14015900  0.62426700  1
  O  O37  1  0.84633700  0.57859400  0.20953900  1
  O  O38  1  0.24254000  0.36467700  0.48612100  1
  O  O39  1  0.75720000  0.34790300  0.52404800  1
  O  O40  1  0.54744300  0.46690700  0.62532400  1
  O  O41  1  0.37135900  0.93304700  0.18331500  1
  O  O42  1  0.18500500  0.53406000  0.63281300  1
  O  O43  1  0.81499500  0.46594000  0.36718700  1
  O  O44  1  0.75746000  0.63532300  0.51387900  1
  O  O45  1  0.62864100  0.06695300  0.81668500  1
  O  O46  1  0.45255700  0.53309300  0.37467600  1
  O  O47  1  0.24280000  0.65209700  0.47595200  1
  O  O48  1  0.15366300  0.42140600  0.79046100  1
  O  O49  1  0.47288100  0.85984100  0.37573300  1
  O  O50  1  0.85501600  0.90592900  0.64242100  1
  O  O51  1  0.62546600  0.38860700  0.75471200  1
  O  O52  1  0.15108800  0.92564200  0.55614500  1
  O  O53  1  0.51405700  0.71687800  0.58546800  1
  O  O54  1  0.63695200  0.74431900  0.74428300  1
  O  O55  1  0.38029900  0.24815200  0.87087500  1
  O  O56  1  0.20272100  0.04042200  0.72869200  1
  O  O57  1  0.15607800  0.65434700  0.98164900  1
  O  O58  1  0.55450600  0.55441600  0.10595800  1
  O  O59  1  0.86666000  0.32365400  0.66207000  1
  O  O60  1  0.35618800  0.17115500  0.08989300  1
  O  O61  1  0.86130400  0.73557200  0.02486300  1
  O  O62  1  0.83286600  0.04944500  0.08611900  1
  O  O63  1  0.10953600  0.21271100  0.63044800  1
  O  O64  1  0.05845100  0.94684100  0.15949900  1
  O  O65  1  0.94154900  0.05315900  0.84050100  1
  O  O66  1  0.64381200  0.82884500  0.91010700  1
  O  O67  1  0.89046400  0.78728900  0.36955200  1
  O  O68  1  0.16713400  0.95055500  0.91388100  1
  O  O69  1  0.13869600  0.26442800  0.97513700  1
  O  O70  1  0.13334000  0.67634600  0.33793000  1
  O  O71  1  0.44549400  0.44558400  0.89404200  1
  O  O72  1  0.84392200  0.34565300  0.01835100  1
  O  O73  1  0.79727900  0.95957800  0.27130800  1
  O  O74  1  0.61970100  0.75184800  0.12912500  1
  O  O75  1  0.36304800  0.25568100  0.25571700  1
  F  F76  1  0.13775100  0.37596400  0.33796300  1
  F  F77  1  0.86224900  0.62403600  0.66203700  1
  F  F78  1  0.94351900  0.62378400  0.85449600  1
  F  F79  1  0.05648100  0.37621600  0.14550400  1
