# generated using pymatgen
data_KNaMg5(Si2O5)6
_symmetry_space_group_name_H-M   'P 1'
_cell_length_a   10.35252109
_cell_length_b   10.35252109
_cell_length_c   14.17783900
_cell_angle_alpha   90.00000000
_cell_angle_beta   90.00000000
_cell_angle_gamma   119.99999422
_symmetry_Int_Tables_number   1
_chemical_formula_structural   KNaMg5(Si2O5)6
_chemical_formula_sum   'K2 Na2 Mg10 Si24 O60'
_cell_volume   1315.93047769
_cell_formula_units_Z   2
loop_
 _symmetry_equiv_pos_site_id
 _symmetry_equiv_pos_as_xyz
  1  'x, y, z'
loop_
 _atom_site_type_symbol
 _atom_site_label
 _atom_site_symmetry_multiplicity
 _atom_site_fract_x
 _atom_site_fract_y
 _atom_site_fract_z
 _atom_site_occupancy
  K  K0  1  0.00000000  0.00000000  0.50000000  1
  K  K1  1  0.00000000  0.00000000  0.00000000  1
  Na  Na2  1  0.33333300  0.66666700  0.25000000  1
  Na  Na3  1  0.66666700  0.33333300  0.75000000  1
  Mg  Mg4  1  0.00000000  0.50458200  0.50000000  1
  Mg  Mg5  1  0.33333300  0.66666700  0.99483300  1
  Mg  Mg6  1  0.50458200  0.00000000  0.50000000  1
  Mg  Mg7  1  0.33333300  0.66666700  0.50516700  1
  Mg  Mg8  1  0.49541800  0.49541800  0.00000000  1
  Mg  Mg9  1  0.49541800  0.49541800  0.50000000  1
  Mg  Mg10  1  0.66666700  0.33333300  0.00516700  1
  Mg  Mg11  1  0.50458200  0.00000000  0.00000000  1
  Mg  Mg12  1  0.66666700  0.33333300  0.49483300  1
  Mg  Mg13  1  0.00000000  0.50458200  0.00000000  1
  Si  Si14  1  0.11502900  0.76892200  0.13600400  1
  Si  Si15  1  0.11502900  0.76892200  0.36399600  1
  Si  Si16  1  0.23365300  0.88674500  0.63634200  1
  Si  Si17  1  0.23365300  0.88674500  0.86365800  1
  Si  Si18  1  0.11325500  0.34690700  0.86365800  1
  Si  Si19  1  0.11325500  0.34690700  0.63634200  1
  Si  Si20  1  0.23107800  0.34610700  0.13600400  1
  Si  Si21  1  0.23107800  0.34610700  0.36399600  1
  Si  Si22  1  0.65389300  0.88497100  0.36399600  1
  Si  Si23  1  0.65389300  0.88497100  0.13600400  1
  Si  Si24  1  0.34610700  0.23107800  0.86399600  1
  Si  Si25  1  0.34610700  0.23107800  0.63600400  1
  Si  Si26  1  0.65309300  0.76634700  0.86365800  1
  Si  Si27  1  0.65309300  0.76634700  0.63634200  1
  Si  Si28  1  0.34690700  0.11325500  0.36365800  1
  Si  Si29  1  0.34690700  0.11325500  0.13634200  1
  Si  Si30  1  0.76634700  0.65309300  0.13634200  1
  Si  Si31  1  0.76634700  0.65309300  0.36365800  1
  Si  Si32  1  0.88497100  0.65389300  0.86399600  1
  Si  Si33  1  0.88497100  0.65389300  0.63600400  1
  Si  Si34  1  0.76892200  0.11502900  0.63600400  1
  Si  Si35  1  0.76892200  0.11502900  0.86399600  1
  Si  Si36  1  0.88674500  0.23365300  0.13634200  1
  Si  Si37  1  0.88674500  0.23365300  0.36365800  1
  O  O38  1  0.05746000  0.77670600  0.60809500  1
  O  O39  1  0.05746000  0.77670600  0.89190500  1
  O  O40  1  0.21284000  0.94473700  0.10519000  1
  O  O41  1  0.21284000  0.94473700  0.39481000  1
  O  O42  1  0.13639400  0.75860900  0.25000000  1
  O  O43  1  0.15980900  0.66002600  0.08224800  1
  O  O44  1  0.15980900  0.66002600  0.41775200  1
  O  O45  1  0.24754200  0.88294000  0.75000000  1
  O  O46  1  0.15242200  0.49601600  0.92076400  1
  O  O47  1  0.15242200  0.49601600  0.57923600  1
  O  O48  1  0.34359400  0.84757800  0.92076400  1
  O  O49  1  0.34359400  0.84757800  0.57923600  1
  O  O50  1  0.05526300  0.26810300  0.10519000  1
  O  O51  1  0.05526300  0.26810300  0.39481000  1
  O  O52  1  0.11706000  0.36460100  0.75000000  1
  O  O53  1  0.24139100  0.37778400  0.25000000  1
  O  O54  1  0.22329400  0.28075500  0.89190500  1
  O  O55  1  0.22329400  0.28075500  0.60809500  1
  O  O56  1  0.50021700  0.84019100  0.41775200  1
  O  O57  1  0.50021700  0.84019100  0.08224800  1
  O  O58  1  0.33997400  0.49978300  0.08224800  1
  O  O59  1  0.33997400  0.49978300  0.41775200  1
  O  O60  1  0.28075500  0.22329400  0.39190500  1
  O  O61  1  0.28075500  0.22329400  0.10809500  1
  O  O62  1  0.62221600  0.86360600  0.25000000  1
  O  O63  1  0.50398400  0.65640600  0.92076400  1
  O  O64  1  0.50398400  0.65640600  0.57923600  1
  O  O65  1  0.63539900  0.75245800  0.75000000  1
  O  O66  1  0.26810300  0.05526300  0.89481000  1
  O  O67  1  0.26810300  0.05526300  0.60519000  1
  O  O68  1  0.71924500  0.94254000  0.89190500  1
  O  O69  1  0.71924500  0.94254000  0.60809500  1
  O  O70  1  0.37778400  0.24139100  0.75000000  1
  O  O71  1  0.49978300  0.33997400  0.91775200  1
  O  O72  1  0.49978300  0.33997400  0.58224800  1
  O  O73  1  0.36460100  0.11706000  0.25000000  1
  O  O74  1  0.73189700  0.78716000  0.39481000  1
  O  O75  1  0.73189700  0.78716000  0.10519000  1
  O  O76  1  0.65640600  0.50398400  0.07923600  1
  O  O77  1  0.65640600  0.50398400  0.42076400  1
  O  O78  1  0.49601600  0.15242200  0.42076400  1
  O  O79  1  0.49601600  0.15242200  0.07923600  1
  O  O80  1  0.78716000  0.73189700  0.89481000  1
  O  O81  1  0.78716000  0.73189700  0.60519000  1
  O  O82  1  0.75245800  0.63539900  0.25000000  1
  O  O83  1  0.86360600  0.62221600  0.75000000  1
  O  O84  1  0.94254000  0.71924500  0.10809500  1
  O  O85  1  0.94254000  0.71924500  0.39190500  1
  O  O86  1  0.66002600  0.15980900  0.91775200  1
  O  O87  1  0.66002600  0.15980900  0.58224800  1
  O  O88  1  0.84019100  0.50021700  0.91775200  1
  O  O89  1  0.84019100  0.50021700  0.58224800  1
  O  O90  1  0.75860900  0.13639400  0.75000000  1
  O  O91  1  0.84757800  0.34359400  0.07923600  1
  O  O92  1  0.84757800  0.34359400  0.42076400  1
  O  O93  1  0.88294000  0.24754200  0.25000000  1
  O  O94  1  0.77670600  0.05746000  0.10809500  1
  O  O95  1  0.77670600  0.05746000  0.39190500  1
  O  O96  1  0.94473700  0.21284000  0.60519000  1
  O  O97  1  0.94473700  0.21284000  0.89481000  1
