# generated using pymatgen
data_Na2Sc4Zn2(MoO4)9
_symmetry_space_group_name_H-M   'P 1'
_cell_length_a   9.64102400
_cell_length_b   9.64111523
_cell_length_c   23.70134701
_cell_angle_alpha   89.79902870
_cell_angle_beta   89.80001243
_cell_angle_gamma   60.28259415
_symmetry_Int_Tables_number   1
_chemical_formula_structural   Na2Sc4Zn2(MoO4)9
_chemical_formula_sum   'Na4 Sc8 Zn4 Mo18 O72'
_cell_volume   1913.28740470
_cell_formula_units_Z   2
loop_
 _symmetry_equiv_pos_site_id
 _symmetry_equiv_pos_as_xyz
  1  'x, y, z'
loop_
 _atom_site_type_symbol
 _atom_site_label
 _atom_site_symmetry_multiplicity
 _atom_site_fract_x
 _atom_site_fract_y
 _atom_site_fract_z
 _atom_site_occupancy
  Na  Na0  1  0.99741200  0.99817900  0.00082300  1
  Na  Na1  1  0.33120100  0.33056000  0.16789400  1
  Na  Na2  1  0.66461700  0.66386000  0.33391900  1
  Na  Na3  1  0.33097800  0.33095800  0.66694500  1
  Sc  Sc4  1  0.51866800  0.51830500  0.12133500  1
  Sc  Sc5  1  0.18032400  0.18069000  0.45422400  1
  Sc  Sc6  1  0.85094800  0.85289600  0.28766000  1
  Sc  Sc7  1  0.84742200  0.84745700  0.78780100  1
  Sc  Sc8  1  0.81943200  0.81956000  0.54486700  1
  Sc  Sc9  1  0.51818700  0.51802800  0.62012800  1
  Sc  Sc10  1  0.48658700  0.48582300  0.87794400  1
  Sc  Sc11  1  0.18516300  0.18346100  0.95361900  1
  Zn  Zn12  1  0.81363000  0.81590500  0.04688400  1
  Zn  Zn13  1  0.48279100  0.48027700  0.37938400  1
  Zn  Zn14  1  0.14794200  0.14855500  0.21379800  1
  Zn  Zn15  1  0.14816100  0.14799400  0.71261000  1
  Mo  Mo16  1  0.81037400  0.09452400  0.15380500  1
  Mo  Mo17  1  0.28741800  0.71387200  0.25038300  1
  Mo  Mo18  1  0.23634100  0.52603700  0.01227700  1
  Mo  Mo19  1  0.42764500  0.14370800  0.32069100  1
  Mo  Mo20  1  0.38043900  0.95412900  0.08375500  1
  Mo  Mo21  1  0.47725000  0.76009400  0.48721400  1
  Mo  Mo22  1  0.85965800  0.57036400  0.17848200  1
  Mo  Mo23  1  0.95431900  0.38015000  0.58437100  1
  Mo  Mo24  1  0.90232600  0.19361600  0.34467600  1
  Mo  Mo25  1  0.09627900  0.80975000  0.65515700  1
  Mo  Mo26  1  0.04891000  0.61855600  0.41618500  1
  Mo  Mo27  1  0.14386400  0.42670100  0.82063800  1
  Mo  Mo28  1  0.52292600  0.23958400  0.51175300  1
  Mo  Mo29  1  0.62097900  0.04673500  0.91764100  1
  Mo  Mo30  1  0.56864300  0.85994100  0.67858000  1
  Mo  Mo31  1  0.76312800  0.47664100  0.98833400  1
  Mo  Mo32  1  0.71549300  0.28504400  0.74951200  1
  Mo  Mo33  1  0.18963600  0.90623900  0.84502400  1
  O  O34  1  0.87457000  0.68179800  0.12143600  1
  O  O35  1  0.80218900  0.63477500  0.00177100  1
  O  O36  1  0.56956200  0.93067900  0.06553000  1
  O  O37  1  0.69907500  0.53022400  0.16500700  1
  O  O38  1  0.65074000  0.45969900  0.04567100  1
  O  O39  1  0.85611400  0.98562000  0.08890500  1
  O  O40  1  0.40338000  0.76222900  0.10146400  1
  O  O41  1  0.61885800  0.27799000  0.14742900  1
  O  O42  1  0.42427600  0.63677400  0.30827800  1
  O  O43  1  0.54016000  0.34934400  0.45459000  1
  O  O44  1  0.36566100  0.57496200  0.19132400  1
  O  O45  1  0.46846200  0.30074000  0.33458300  1
  O  O46  1  0.34709300  0.47934100  0.07771200  1
  O  O47  1  0.61123400  0.95196500  0.31427800  1
  O  O48  1  0.23802000  0.59582100  0.39869800  1
  O  O49  1  0.36408200  0.19883700  0.49801200  1
  O  O50  1  0.05694500  0.71353800  0.01854300  1
  O  O51  1  0.31906100  0.18921700  0.25565300  1
  O  O52  1  0.31662900  0.12671800  0.37891500  1
  O  O53  1  0.30306400  0.09098900  0.14169100  1
  O  O54  1  0.52167800  0.65255700  0.42232400  1
  O  O55  1  0.07163300  0.42784700  0.43447900  1
  O  O56  1  0.24154000  0.03248900  0.02472900  1
  O  O57  1  0.29247200  0.94389800  0.48050200  1
  O  O58  1  0.04791400  0.38978500  0.18485400  1
  O  O59  1  0.09146600  0.30240600  0.64185300  1
  O  O60  1  0.26372400  0.90325100  0.23204800  1
  O  O61  1  0.20694400  0.01595600  0.78788200  1
  O  O62  1  0.81294500  0.68128500  0.24432800  1
  O  O63  1  0.03363500  0.24761900  0.52532600  1
  O  O64  1  0.01450000  0.20792400  0.28765300  1
  O  O65  1  0.13535600  0.96788300  0.66840300  1
  O  O66  1  0.01579200  0.15003100  0.40895100  1
  O  O67  1  0.27843400  0.61834700  0.64804500  1
  O  O68  1  0.96754700  0.13531200  0.16790500  1
  O  O69  1  0.90440100  0.26272600  0.73209800  1
  O  O70  1  0.09576500  0.73647200  0.26815700  1
  O  O71  1  0.03079800  0.86547700  0.83136300  1
  O  O72  1  0.72200900  0.38240600  0.35164900  1
  O  O73  1  0.98373300  0.85227000  0.59106300  1
  O  O74  1  0.86386800  0.03128700  0.33149800  1
  O  O75  1  0.98432900  0.79328100  0.71268200  1
  O  O76  1  0.96841000  0.75188400  0.47508800  1
  O  O77  1  0.18847500  0.31908300  0.75573400  1
  O  O78  1  0.79303800  0.98301700  0.21181100  1
  O  O79  1  0.73826700  0.09437400  0.76775300  1
  O  O80  1  0.90861100  0.69798600  0.35787400  1
  O  O81  1  0.95921000  0.61049800  0.81378900  1
  O  O82  1  0.70805800  0.05587300  0.51895700  1
  O  O83  1  0.75813500  0.96884900  0.97515700  1
  O  O84  1  0.92918400  0.57194600  0.56588600  1
  O  O85  1  0.47809300  0.34842300  0.57799100  1
  O  O86  1  0.70031800  0.91431900  0.85860800  1
  O  O87  1  0.68177600  0.87428100  0.62078700  1
  O  O88  1  0.68174800  0.81642600  0.74241400  1
  O  O89  1  0.94502300  0.28534500  0.98125100  1
  O  O90  1  0.63618600  0.80080900  0.50170200  1
  O  O91  1  0.76194100  0.40338500  0.60162400  1
  O  O92  1  0.38937900  0.04796100  0.68536300  1
  O  O93  1  0.65029300  0.51913700  0.92434300  1
  O  O94  1  0.53029400  0.69845300  0.66504800  1
  O  O95  1  0.63514600  0.41867700  0.80836300  1
  O  O96  1  0.45934800  0.64994800  0.54553300  1
  O  O97  1  0.57517600  0.36480900  0.69125100  1
  O  O98  1  0.37478600  0.72253700  0.85226300  1
  O  O99  1  0.59583400  0.23866400  0.89924800  1
  O  O100  1  0.14461900  0.01499100  0.91127300  1
  O  O101  1  0.34900300  0.54095600  0.95452900  1
  O  O102  1  0.30284500  0.46758800  0.83511300  1
  O  O103  1  0.42862700  0.07027700  0.93492600  1
  O  O104  1  0.19660100  0.36626000  0.99844600  1
  O  O105  1  0.12615900  0.31661200  0.87895000  1
