# generated using pymatgen
data_Mn3(P2O7)2
_symmetry_space_group_name_H-M   'P 1'
_cell_length_a   8.21627400
_cell_length_b   7.21341000
_cell_length_c   9.53371665
_cell_angle_alpha   69.95928823
_cell_angle_beta   90.00000000
_cell_angle_gamma   90.00000000
_symmetry_Int_Tables_number   1
_chemical_formula_structural   Mn3(P2O7)2
_chemical_formula_sum   'Mn6 P8 O28'
_cell_volume   530.82472848
_cell_formula_units_Z   2
loop_
 _symmetry_equiv_pos_site_id
 _symmetry_equiv_pos_as_xyz
  1  'x, y, z'
loop_
 _atom_site_type_symbol
 _atom_site_label
 _atom_site_symmetry_multiplicity
 _atom_site_fract_x
 _atom_site_fract_y
 _atom_site_fract_z
 _atom_site_occupancy
  Mn  Mn0  1  0.13110200  0.80589800  0.02521000  1
  Mn  Mn1  1  0.36889800  0.80589800  0.52521000  1
  Mn  Mn2  1  0.86889800  0.19410200  0.97479000  1
  Mn  Mn3  1  0.63110200  0.19410200  0.47479000  1
  Mn  Mn4  1  0.00000000  0.00000000  0.50000000  1
  Mn  Mn5  1  0.50000000  0.00000000  0.00000000  1
  P  P6  1  0.46046900  0.59849500  0.29353200  1
  P  P7  1  0.28581700  0.10732300  0.69897500  1
  P  P8  1  0.21418300  0.10732300  0.19897500  1
  P  P9  1  0.71418300  0.89267700  0.30102500  1
  P  P10  1  0.03953100  0.59849500  0.79353200  1
  P  P11  1  0.78581700  0.89267700  0.80102500  1
  P  P12  1  0.53953100  0.40150500  0.70646800  1
  P  P13  1  0.96046900  0.40150500  0.20646800  1
  O  O14  1  0.62257900  0.86075700  0.87567500  1
  O  O15  1  0.91138700  0.98075900  0.88370200  1
  O  O16  1  0.39125800  0.71601100  0.13938600  1
  O  O17  1  0.35366100  0.62417600  0.41818300  1
  O  O18  1  0.35967600  0.31532700  0.69278500  1
  O  O19  1  0.85366100  0.37582400  0.08181700  1
  O  O20  1  0.71886400  0.00846900  0.12965000  1
  O  O21  1  0.00685200  0.38040800  0.81774900  1
  O  O22  1  0.41138700  0.01924100  0.61629800  1
  O  O23  1  0.99314800  0.61959200  0.18225100  1
  O  O24  1  0.14633900  0.62417600  0.91818300  1
  O  O25  1  0.85967600  0.68467300  0.80721500  1
  O  O26  1  0.87742100  0.86075700  0.37567500  1
  O  O27  1  0.37742100  0.13924300  0.12432500  1
  O  O28  1  0.12257900  0.13924300  0.62432500  1
  O  O29  1  0.28113600  0.99153100  0.87035000  1
  O  O30  1  0.50685200  0.61959200  0.68225100  1
  O  O31  1  0.14032400  0.31532700  0.19278500  1
  O  O32  1  0.64032400  0.68467300  0.30721500  1
  O  O33  1  0.89125800  0.28398900  0.36061400  1
  O  O34  1  0.49314800  0.38040800  0.31774900  1
  O  O35  1  0.08861300  0.01924100  0.11629800  1
  O  O36  1  0.64633900  0.37582400  0.58181700  1
  O  O37  1  0.58861300  0.98075900  0.38370200  1
  O  O38  1  0.21886400  0.99153100  0.37035000  1
  O  O39  1  0.10874200  0.71601100  0.63938600  1
  O  O40  1  0.78113600  0.00846900  0.62965000  1
  O  O41  1  0.60874200  0.28398900  0.86061400  1
