# generated using pymatgen
data_NaCa3MgFe(Si2O7)2
_symmetry_space_group_name_H-M   'P 1'
_cell_length_a   5.91945400
_cell_length_b   10.12881800
_cell_length_c   11.42194300
_cell_angle_alpha   90.00000000
_cell_angle_beta   90.00000000
_cell_angle_gamma   90.00000000
_symmetry_Int_Tables_number   1
_chemical_formula_structural   NaCa3MgFe(Si2O7)2
_chemical_formula_sum   'Na2 Ca6 Mg2 Fe2 Si8 O28'
_cell_volume   684.82626141
_cell_formula_units_Z   2
loop_
 _symmetry_equiv_pos_site_id
 _symmetry_equiv_pos_as_xyz
  1  'x, y, z'
loop_
 _atom_site_type_symbol
 _atom_site_label
 _atom_site_symmetry_multiplicity
 _atom_site_fract_x
 _atom_site_fract_y
 _atom_site_fract_z
 _atom_site_occupancy
  Na  Na0  1  0.14634200  0.48741000  0.25000000  1
  Na  Na1  1  0.14634200  0.51259000  0.75000000  1
  Ca  Ca2  1  0.06453900  0.19590200  0.75000000  1
  Ca  Ca3  1  0.06453900  0.80409800  0.25000000  1
  Ca  Ca4  1  0.79231200  0.18960600  0.40060200  1
  Ca  Ca5  1  0.79231200  0.18960600  0.09939800  1
  Ca  Ca6  1  0.79231200  0.81039400  0.59939800  1
  Ca  Ca7  1  0.79231200  0.81039400  0.90060200  1
  Mg  Mg8  1  0.27996400  0.00000000  0.00000000  1
  Mg  Mg9  1  0.27996400  0.00000000  0.50000000  1
  Fe  Fe10  1  0.45952400  0.50000000  0.50000000  1
  Fe  Fe11  1  0.45952400  0.50000000  0.00000000  1
  Si  Si12  1  0.33337200  0.21641700  0.36302400  1
  Si  Si13  1  0.33337200  0.78358300  0.63697600  1
  Si  Si14  1  0.33337200  0.78358300  0.86302400  1
  Si  Si15  1  0.33337200  0.21641700  0.13697600  1
  Si  Si16  1  0.59748400  0.68454000  0.25000000  1
  Si  Si17  1  0.60285300  0.95361100  0.25000000  1
  Si  Si18  1  0.59748400  0.31546000  0.75000000  1
  Si  Si19  1  0.60285300  0.04638900  0.75000000  1
  O  O20  1  0.86121100  0.36807800  0.75000000  1
  O  O21  1  0.86121100  0.63192200  0.25000000  1
  O  O22  1  0.44915500  0.05042600  0.13854200  1
  O  O23  1  0.42762900  0.59804300  0.34590100  1
  O  O24  1  0.42762900  0.59804300  0.15409900  1
  O  O25  1  0.44915500  0.94957400  0.63854200  1
  O  O26  1  0.44915500  0.05042600  0.36145800  1
  O  O27  1  0.42762900  0.40195700  0.65409900  1
  O  O28  1  0.44915500  0.94957400  0.86145800  1
  O  O29  1  0.42762900  0.40195700  0.84590100  1
  O  O30  1  0.14083300  0.25370800  0.25000000  1
  O  O31  1  0.53783200  0.75349400  0.75000000  1
  O  O32  1  0.53783200  0.24650600  0.25000000  1
  O  O33  1  0.14083300  0.74629200  0.75000000  1
  O  O34  1  0.61138400  0.17404200  0.64934900  1
  O  O35  1  0.61138400  0.82595800  0.14934900  1
  O  O36  1  0.61138400  0.17404200  0.85065100  1
  O  O37  1  0.61138400  0.82595800  0.35065100  1
  O  O38  1  0.47549100  0.67723600  0.55748000  1
  O  O39  1  0.13661000  0.83199300  0.53402900  1
  O  O40  1  0.13661000  0.83199300  0.96597100  1
  O  O41  1  0.13661000  0.16800700  0.03402900  1
  O  O42  1  0.47549100  0.67723600  0.94252000  1
  O  O43  1  0.13661000  0.16800700  0.46597100  1
  O  O44  1  0.47549100  0.32276400  0.05748000  1
  O  O45  1  0.47549100  0.32276400  0.44252000  1
  O  O46  1  0.85751400  0.02037800  0.25000000  1
  O  O47  1  0.85751400  0.97962200  0.75000000  1
