# generated using pymatgen
data_CaRe2H6C(NO5)2
_symmetry_space_group_name_H-M   'P 1'
_cell_length_a   7.44432400
_cell_length_b   9.25117321
_cell_length_c   9.31243224
_cell_angle_alpha   111.56349882
_cell_angle_beta   91.29682901
_cell_angle_gamma   104.93102741
_symmetry_Int_Tables_number   1
_chemical_formula_structural   CaRe2H6C(NO5)2
_chemical_formula_sum   'Ca2 Re4 H12 C2 N4 O20'
_cell_volume   571.37724680
_cell_formula_units_Z   2
loop_
 _symmetry_equiv_pos_site_id
 _symmetry_equiv_pos_as_xyz
  1  'x, y, z'
loop_
 _atom_site_type_symbol
 _atom_site_label
 _atom_site_symmetry_multiplicity
 _atom_site_fract_x
 _atom_site_fract_y
 _atom_site_fract_z
 _atom_site_occupancy
  Ca  Ca0  1  0.41893800  0.78389800  0.51618900  1
  Ca  Ca1  1  0.58106200  0.21610200  0.48381100  1
  Re  Re2  1  0.16272400  0.38450600  0.63903500  1
  Re  Re3  1  0.83727600  0.61549400  0.36096500  1
  Re  Re4  1  0.28305100  0.32671200  0.17106100  1
  Re  Re5  1  0.71694900  0.67328800  0.82893900  1
  H  H6  1  0.15698800  0.72012000  0.01442100  1
  H  H7  1  0.84301200  0.27988000  0.98557900  1
  H  H8  1  0.37395200  0.72596000  0.09287900  1
  H  H9  1  0.62604800  0.27404000  0.90712100  1
  H  H10  1  0.98186700  0.88078500  0.17039000  1
  H  H11  1  0.01813300  0.11921500  0.82961000  1
  H  H12  1  0.07488600  0.00868800  0.36307100  1
  H  H13  1  0.92511400  0.99131200  0.63692900  1
  H  H14  1  0.14928600  0.85266600  0.76961400  1
  H  H15  1  0.85071400  0.14733400  0.23038600  1
  H  H16  1  0.34345500  0.98437700  0.83958300  1
  H  H17  1  0.65654500  0.01562300  0.16041700  1
  C  C18  1  0.24578200  0.87865800  0.24426000  1
  C  C19  1  0.75421800  0.12134200  0.75574000  1
  N  N20  1  0.26177600  0.77103900  0.10490300  1
  N  N21  1  0.73822400  0.22896100  0.89509700  1
  N  N22  1  0.08777200  0.92555600  0.25863500  1
  N  N23  1  0.91222800  0.07444400  0.74136500  1
  O  O24  1  0.27190300  0.53196000  0.56821500  1
  O  O25  1  0.72809700  0.46804000  0.43178500  1
  O  O26  1  0.26690600  0.22477000  0.57549200  1
  O  O27  1  0.73309400  0.77523000  0.42450800  1
  O  O28  1  0.92345000  0.30722500  0.56506400  1
  O  O29  1  0.07655000  0.69277500  0.43493600  1
  O  O30  1  0.18746000  0.46962200  0.84233100  1
  O  O31  1  0.81254000  0.53037800  0.15766900  1
  O  O32  1  0.37477500  0.53890400  0.25627800  1
  O  O33  1  0.62522500  0.46109600  0.74372200  1
  O  O34  1  0.37920500  0.23819900  0.27869100  1
  O  O35  1  0.62079500  0.76180100  0.72130900  1
  O  O36  1  0.03658300  0.26931200  0.16350300  1
  O  O37  1  0.96341700  0.73068800  0.83649700  1
  O  O38  1  0.33602200  0.25039200  0.98046500  1
  O  O39  1  0.66397800  0.74960800  0.01953500  1
  O  O40  1  0.26731200  0.90717200  0.74143700  1
  O  O41  1  0.73268800  0.09282800  0.25856300  1
  O  O42  1  0.37615600  0.93459700  0.35906000  1
  O  O43  1  0.62384400  0.06540300  0.64094000  1
