# generated using pymatgen
data_UH12(NO4)2
_symmetry_space_group_name_H-M   'P 1'
_cell_length_a   5.65348400
_cell_length_b   5.99691994
_cell_length_c   6.31418669
_cell_angle_alpha   105.01186833
_cell_angle_beta   90.80529243
_cell_angle_gamma   96.05479218
_symmetry_Int_Tables_number   1
_chemical_formula_structural   UH12(NO4)2
_chemical_formula_sum   'U1 H12 N2 O8'
_cell_volume   205.42280685
_cell_formula_units_Z   1
loop_
 _symmetry_equiv_pos_site_id
 _symmetry_equiv_pos_as_xyz
  1  'x, y, z'
loop_
 _atom_site_type_symbol
 _atom_site_label
 _atom_site_symmetry_multiplicity
 _atom_site_fract_x
 _atom_site_fract_y
 _atom_site_fract_z
 _atom_site_occupancy
  U  U0  1  0.50000000  0.50000000  0.50000000  1
  H  H1  1  0.28312700  0.61068700  0.95118800  1
  H  H2  1  0.71687300  0.38931300  0.04881200  1
  H  H3  1  0.20518500  0.79311400  0.82710900  1
  H  H4  1  0.79481500  0.20688600  0.17289100  1
  H  H5  1  0.05348400  0.63861600  0.30755000  1
  H  H6  1  0.94651600  0.36138400  0.69245000  1
  H  H7  1  0.22504200  0.89779100  0.39275700  1
  H  H8  1  0.77495800  0.10220900  0.60724300  1
  H  H9  1  0.35341800  0.16913200  0.84723700  1
  H  H10  1  0.64658200  0.83086800  0.15276300  1
  H  H11  1  0.20621900  0.14527300  0.05001300  1
  H  H12  1  0.79378100  0.85472700  0.94998700  1
  N  N13  1  0.77906800  0.27968700  0.63545900  1
  N  N14  1  0.22093200  0.72031300  0.36454100  1
  O  O15  1  0.70415700  0.76951400  0.61034200  1
  O  O16  1  0.29584300  0.23048600  0.38965800  1
  O  O17  1  0.61172700  0.36206800  0.79383400  1
  O  O18  1  0.38827300  0.63793200  0.20616600  1
  O  O19  1  0.77427300  0.37624000  0.19628100  1
  O  O20  1  0.22572700  0.62376000  0.80371900  1
  O  O21  1  0.79192400  0.91419500  0.11008100  1
  O  O22  1  0.20807600  0.08580500  0.88991900  1
