# generated using pymatgen
data_Na9Sr2La9Ti20O60
_symmetry_space_group_name_H-M   'P 1'
_cell_length_a   5.52198137
_cell_length_b   5.52080521
_cell_length_c   55.20974822
_cell_angle_alpha   60.09111154
_cell_angle_beta   60.05716681
_cell_angle_gamma   60.11486556
_symmetry_Int_Tables_number   1
_chemical_formula_structural   Na9Sr2La9Ti20O60
_chemical_formula_sum   'Na9 Sr2 La9 Ti20 O60'
_cell_volume   1192.50513710
_cell_formula_units_Z   1
loop_
 _symmetry_equiv_pos_site_id
 _symmetry_equiv_pos_as_xyz
  1  'x, y, z'
loop_
 _atom_site_type_symbol
 _atom_site_label
 _atom_site_symmetry_multiplicity
 _atom_site_fract_x
 _atom_site_fract_y
 _atom_site_fract_z
 _atom_site_occupancy
  Na  Na0  1  0.24809312  0.24706592  0.12586282  1
  Na  Na1  1  0.25091948  0.25180643  0.22448393  1
  Na  Na2  1  0.25180545  0.25256927  0.32430621  1
  Na  Na3  1  0.25046705  0.25062949  0.42485403  1
  Na  Na4  1  0.25025494  0.25036555  0.52493310  1
  Na  Na5  1  0.25027844  0.25066712  0.62486255  1
  Na  Na6  1  0.24989613  0.25029503  0.72495369  1
  Na  Na7  1  0.25094387  0.25187037  0.82453454  1
  Na  Na8  1  0.24885350  0.24902502  0.92536646  1
  Sr  Sr9  1  0.24808600  0.24656807  0.02590035  1
  Sr  Sr10  1  0.74795342  0.74235992  0.07677186  1
  La  La11  1  0.75325233  0.74744969  0.17485040  1
  La  La12  1  0.75223083  0.75042600  0.27445725  1
  La  La13  1  0.75332825  0.75099647  0.37434680  1
  La  La14  1  0.75201799  0.74973131  0.47480905  1
  La  La15  1  0.75236010  0.75018348  0.57463752  1
  La  La16  1  0.75091147  0.75005582  0.67483701  1
  La  La17  1  0.75044867  0.74957827  0.77491296  1
  La  La18  1  0.75180170  0.74979725  0.87501127  1
  La  La19  1  0.75151959  0.74948153  0.97476860  1
  Ti  Ti20  1  0.99839916  0.99640552  0.00067374  1
  Ti  Ti21  1  0.00400709  0.98688821  0.10155271  1
  Ti  Ti22  1  0.49666007  0.48519830  0.05278111  1
  Ti  Ti23  1  0.00228021  0.99809316  0.19977343  1
  Ti  Ti24  1  0.50139948  0.49724914  0.15048810  1
  Ti  Ti25  1  0.50313200  0.50036804  0.24963655  1
  Ti  Ti26  1  0.00241446  0.00036842  0.39937906  1
  Ti  Ti27  1  0.00222089  0.00111601  0.29924839  1
  Ti  Ti28  1  0.50408131  0.50097902  0.34941932  1
  Ti  Ti29  1  0.50434891  0.50055729  0.44946874  1
  Ti  Ti30  1  0.00229109  0.00036039  0.49941866  1
  Ti  Ti31  1  0.50348989  0.50002148  0.54967184  1
  Ti  Ti32  1  0.00087027  0.00009444  0.69964720  1
  Ti  Ti33  1  0.00175969  0.99971479  0.59958329  1
  Ti  Ti34  1  0.50291429  0.50042083  0.64968751  1
  Ti  Ti35  1  0.00066068  -0.00014968  0.79975262  1
  Ti  Ti36  1  0.50243548  0.50030679  0.74978180  1
  Ti  Ti37  1  0.00073291  0.00126784  0.89959507  1
  Ti  Ti38  1  0.50277146  0.50032918  0.84984235  1
  Ti  Ti39  1  0.50265413  0.50241283  0.94946761  1
  O  O40  1  0.21270241  0.28408731  0.07467863  1
  O  O41  1  0.29635817  0.75475277  0.01991687  1
  O  O42  1  0.74778825  0.21632282  0.02851749  1
  O  O43  1  0.24676302  0.78562540  0.07162938  1
  O  O44  1  0.71596368  0.24949417  0.07863815  1
  O  O45  1  0.19767506  0.29922963  0.17552476  1
  O  O46  1  0.78350798  0.71735254  0.02421914  1
  O  O47  1  0.28038487  0.74871211  0.12230861  1
  O  O48  1  0.74637305  0.20142918  0.13036325  1
  O  O49  1  0.24764144  0.79360470  0.17105995  1
  O  O50  1  0.70462784  0.24997918  0.17967793  1
  O  O51  1  0.19844669  0.30373401  0.27467706  1
  O  O52  1  0.78708521  0.70801099  0.12639113  1
  O  O53  1  0.30230852  0.74916118  0.21978205  1
  O  O54  1  0.75057687  0.19805064  0.23016601  1
  O  O55  1  0.25043527  0.79466395  0.27036586  1
  O  O56  1  0.70784145  0.25222209  0.27895040  1
  O  O57  1  0.19854243  0.30338916  0.37470992  1
  O  O58  1  0.79323537  0.70702656  0.22496145  1
  O  O59  1  0.30216553  0.75176030  0.31947024  1
  O  O60  1  0.75054022  0.20002025  0.32980747  1
  O  O61  1  0.25116896  0.79294223  0.37053204  1
  O  O62  1  0.70925202  0.25092183  0.37883608  1
  O  O63  1  0.19708027  0.30356799  0.47491722  1
  O  O64  1  0.79282976  0.70964227  0.32460009  1
  O  O65  1  0.30175885  0.75161608  0.41962847  1
  O  O66  1  0.74922845  0.19919778  0.43000609  1
  O  O67  1  0.25071795  0.79285583  0.47070138  1
  O  O68  1  0.70778535  0.25005298  0.47906818  1
  O  O69  1  0.19679443  0.30342712  0.57496447  1
  O  O70  1  0.79243198  0.70868147  0.42476678  1
  O  O71  1  0.30053104  0.75152705  0.51982268  1
  O  O72  1  0.74852477  0.19969187  0.53005767  1
  O  O73  1  0.25039371  0.79321133  0.57072698  1
  O  O74  1  0.70743248  0.24997019  0.57914362  1
  O  O75  1  0.19646372  0.30287876  0.67510501  1
  O  O76  1  0.79217671  0.70811584  0.52488307  1
  O  O77  1  0.30109584  0.75112512  0.61982888  1
  O  O78  1  0.74850164  0.19895465  0.63019126  1
  O  O79  1  0.25008763  0.79260532  0.67086309  1
  O  O80  1  0.70722336  0.24937511  0.67928345  1
  O  O81  1  0.19655529  0.30240842  0.77516378  1
  O  O82  1  0.79204778  0.70782515  0.62498612  1
  O  O83  1  0.30097218  0.75040181  0.71996067  1
  O  O84  1  0.74839886  0.19803276  0.73031760  1
  O  O85  1  0.25042603  0.79151033  0.77097780  1
  O  O86  1  0.70773756  0.24866833  0.77929447  1
  O  O87  1  0.19557504  0.30291963  0.87517063  1
  O  O88  1  0.79187301  0.70714985  0.72513163  1
  O  O89  1  0.30042086  0.75063069  0.82002029  1
  O  O90  1  0.74799742  0.19847931  0.83031601  1
  O  O91  1  0.24961704  0.79202683  0.87098979  1
  O  O92  1  0.70630152  0.24768028  0.87940171  1
  O  O93  1  0.19821759  0.30337477  0.97538132  1
  O  O94  1  0.79147204  0.70701485  0.82520159  1
  O  O95  1  0.29910868  0.75139459  0.92007849  1
  O  O96  1  0.74779142  0.20045255  0.93007105  1
  O  O97  1  0.25035788  0.78906552  0.97126791  1
  O  O98  1  0.70595446  0.25121336  0.97903983  1
  O  O99  1  0.79178728  0.70783720  0.92515756  1
