# generated using pymatgen
data_NbIr
_symmetry_space_group_name_H-M   'P 1'
_cell_length_a   2.87229600
_cell_length_b   4.89446700
_cell_length_c   13.90158800
_cell_angle_alpha   90.00000000
_cell_angle_beta   90.00000000
_cell_angle_gamma   90.00000000
_symmetry_Int_Tables_number   1
_chemical_formula_structural   NbIr
_chemical_formula_sum   'Nb6 Ir6'
_cell_volume   195.43350068
_cell_formula_units_Z   6
loop_
 _symmetry_equiv_pos_site_id
 _symmetry_equiv_pos_as_xyz
  1  'x, y, z'
loop_
 _atom_site_type_symbol
 _atom_site_label
 _atom_site_symmetry_multiplicity
 _atom_site_fract_x
 _atom_site_fract_y
 _atom_site_fract_z
 _atom_site_occupancy
  Nb  Nb0  1  0.00000000  0.04420800  0.25000000  1
  Nb  Nb1  1  0.00000000  0.95579200  0.75000000  1
  Nb  Nb2  1  0.00000000  0.32329900  0.58447200  1
  Nb  Nb3  1  0.00000000  0.67670100  0.41552800  1
  Nb  Nb4  1  0.00000000  0.32329900  0.91552800  1
  Nb  Nb5  1  0.00000000  0.67670100  0.08447200  1
  Ir  Ir6  1  0.50000000  0.53810600  0.25000000  1
  Ir  Ir7  1  0.50000000  0.46189400  0.75000000  1
  Ir  Ir8  1  0.50000000  0.82203100  0.58335400  1
  Ir  Ir9  1  0.50000000  0.17796900  0.41664600  1
  Ir  Ir10  1  0.50000000  0.82203100  0.91664600  1
  Ir  Ir11  1  0.50000000  0.17796900  0.08335400  1
