# generated using pymatgen
data_Rb2PH3SO8
_symmetry_space_group_name_H-M   'P 1'
_cell_length_a   7.76131500
_cell_length_b   8.28920462
_cell_length_c   9.19247691
_cell_angle_alpha   90.07844152
_cell_angle_beta   110.43039673
_cell_angle_gamma   93.89218051
_symmetry_Int_Tables_number   1
_chemical_formula_structural   Rb2PH3SO8
_chemical_formula_sum   'Rb4 P2 H6 S2 O16'
_cell_volume   552.72141113
_cell_formula_units_Z   2
loop_
 _symmetry_equiv_pos_site_id
 _symmetry_equiv_pos_as_xyz
  1  'x, y, z'
loop_
 _atom_site_type_symbol
 _atom_site_label
 _atom_site_symmetry_multiplicity
 _atom_site_fract_x
 _atom_site_fract_y
 _atom_site_fract_z
 _atom_site_occupancy
  Rb  Rb0  1  0.72559100  0.66799800  0.14044900  1
  Rb  Rb1  1  0.76183900  0.17602200  0.39270200  1
  Rb  Rb2  1  0.23816100  0.82397800  0.60729800  1
  Rb  Rb3  1  0.27440900  0.33200200  0.85955100  1
  P  P4  1  0.19286000  0.78391500  0.04441400  1
  P  P5  1  0.80714000  0.21608500  0.95558600  1
  H  H6  1  0.00000000  0.00000000  0.00000000  1
  H  H7  1  0.41720800  0.50120600  0.25431000  1
  H  H8  1  0.14161900  0.02780700  0.28379000  1
  H  H9  1  0.50000000  0.50000000  0.50000000  1
  H  H10  1  0.85838100  0.97219300  0.71621000  1
  H  H11  1  0.58279200  0.49879400  0.74569000  1
  S  S12  1  0.24177600  0.30627300  0.39974800  1
  S  S13  1  0.75822400  0.69372700  0.60025200  1
  O  O14  1  0.85418300  0.04244600  0.99825400  1
  O  O15  1  0.66409000  0.27543000  0.01043800  1
  O  O16  1  0.41942700  0.42486900  0.17360700  1
  O  O17  1  0.09882200  0.69270500  0.13721200  1
  O  O18  1  0.38167600  0.22964700  0.34189700  1
  O  O19  1  0.05428600  0.99736200  0.33654200  1
  O  O20  1  0.77934800  0.80988500  0.47429000  1
  O  O21  1  0.65202200  0.54047300  0.49664500  1
  O  O22  1  0.34797800  0.45952700  0.50335500  1
  O  O23  1  0.22065200  0.19011500  0.52571000  1
  O  O24  1  0.94571400  0.00263800  0.66345800  1
  O  O25  1  0.61832400  0.77035300  0.65810300  1
  O  O26  1  0.90117800  0.30729500  0.86278800  1
  O  O27  1  0.58057300  0.57513100  0.82639300  1
  O  O28  1  0.33591000  0.72457000  0.98956200  1
  O  O29  1  0.14581700  0.95755400  0.00174600  1
