# generated using pymatgen
data_Na3Ca2Fe5(SiO3)10
_symmetry_space_group_name_H-M   'P 1'
_cell_length_a   9.44521900
_cell_length_b   10.35727519
_cell_length_c   12.36968239
_cell_angle_alpha   109.20813622
_cell_angle_beta   94.04490426
_cell_angle_gamma   92.81400979
_symmetry_Int_Tables_number   1
_chemical_formula_structural   Na3Ca2Fe5(SiO3)10
_chemical_formula_sum   'Na6 Ca4 Fe10 Si20 O60'
_cell_volume   1136.51068866
_cell_formula_units_Z   2
loop_
 _symmetry_equiv_pos_site_id
 _symmetry_equiv_pos_as_xyz
  1  'x, y, z'
loop_
 _atom_site_type_symbol
 _atom_site_label
 _atom_site_symmetry_multiplicity
 _atom_site_fract_x
 _atom_site_fract_y
 _atom_site_fract_z
 _atom_site_occupancy
  Na  Na0  1  0.19863200  0.79569000  0.87175700  1
  Na  Na1  1  0.62083600  0.00773700  0.68779200  1
  Na  Na2  1  0.01770500  0.21156200  0.48764900  1
  Na  Na3  1  0.41332900  0.38379800  0.27347700  1
  Na  Na4  1  0.75596200  0.19043400  0.11096500  1
  Na  Na5  1  0.81802400  0.60801000  0.08724400  1
  Ca  Ca6  1  0.18646200  0.40243100  0.91421400  1
  Ca  Ca7  1  0.58625700  0.59865500  0.71063900  1
  Ca  Ca8  1  0.97387000  0.78812400  0.51380500  1
  Ca  Ca9  1  0.40459200  0.00395500  0.32272000  1
  Fe  Fe10  1  0.04917100  0.13120700  0.97153100  1
  Fe  Fe11  1  0.46581800  0.32694500  0.77058000  1
  Fe  Fe12  1  0.34332800  0.07037400  0.83613300  1
  Fe  Fe13  1  0.86499000  0.52127400  0.56635600  1
  Fe  Fe14  1  0.74393900  0.26885600  0.62832500  1
  Fe  Fe15  1  0.26220600  0.72374300  0.36898500  1
  Fe  Fe16  1  0.13883400  0.46846000  0.42811600  1
  Fe  Fe17  1  0.66798700  0.92562200  0.16808500  1
  Fe  Fe18  1  0.54491000  0.66261300  0.22774300  1
  Fe  Fe19  1  0.92944300  0.87567000  0.03069100  1
  Si  Si20  1  0.77621800  0.30011400  0.90099000  1
  Si  Si21  1  0.90567000  0.54017100  0.83705300  1
  Si  Si22  1  0.17730100  0.49521700  0.69876800  1
  Si  Si23  1  0.49973400  0.66011200  0.96249200  1
  Si  Si24  1  0.30319000  0.74495600  0.63743200  1
  Si  Si25  1  0.62535100  0.90908300  0.89886800  1
  Si  Si26  1  0.57240900  0.69353400  0.49974200  1
  Si  Si27  1  0.89630500  0.86336100  0.76431700  1
  Si  Si28  1  0.70167300  0.93765700  0.43983200  1
  Si  Si29  1  0.02544400  0.10709800  0.70037000  1
  Si  Si30  1  0.97268300  0.89195500  0.30395400  1
  Si  Si31  1  0.29650000  0.06061500  0.56573100  1
  Si  Si32  1  0.08961800  0.13916400  0.24079800  1
  Si  Si33  1  0.42948100  0.30809700  0.49969500  1
  Si  Si34  1  0.30935600  0.01469000  0.09400600  1
  Si  Si35  1  0.69926200  0.25512700  0.36199500  1
  Si  Si36  1  0.50817500  0.33690300  0.04060500  1
  Si  Si37  1  0.82737900  0.50331900  0.29687200  1
  Si  Si38  1  0.09625700  0.47139900  0.16032600  1
  Si  Si39  1  0.24238500  0.71963900  0.10272100  1
  O  O40  1  0.25766800  0.04421600  0.97649000  1
  O  O41  1  0.40611800  0.28596500  0.91172600  1
  O  O42  1  0.86293300  0.18059300  0.92552500  1
  O  O43  1  0.67125800  0.25663200  0.77924800  1
  O  O44  1  0.89875900  0.42306900  0.90361900  1
  O  O45  1  0.87028600  0.68238000  0.92642200  1
  O  O46  1  0.79850400  0.48134400  0.71884600  1
  O  O47  1  0.07811800  0.54815400  0.81173800  1
  O  O48  1  0.32838400  0.64794700  0.98721300  1
  O  O49  1  0.27102700  0.38463300  0.73383100  1
  O  O50  1  0.06995600  0.44771700  0.58373300  1
  O  O51  1  0.53078400  0.51850700  0.86413800  1
  O  O52  1  0.28750900  0.62941500  0.70509900  1
  O  O53  1  0.51782300  0.77152100  0.89155300  1
  O  O54  1  0.26611400  0.88854200  0.72806200  1
  O  O55  1  0.20249500  0.69380300  0.51560700  1
  O  O56  1  0.53083600  0.01729500  0.86336800  1
  O  O57  1  0.47251800  0.75114300  0.61134100  1
  O  O58  1  0.72458700  0.84714000  0.78615000  1
  O  O59  1  0.65902800  0.58001700  0.53258200  1
  O  O60  1  0.46810600  0.65452800  0.38001000  1
  O  O61  1  0.99504300  0.92757900  0.88482400  1
  O  O62  1  0.94098500  0.72391300  0.67470600  1
  O  O63  1  0.68733200  0.82506500  0.51002500  1
  O  O64  1  0.91372300  0.97494800  0.69161100  1
  O  O65  1  0.66201600  0.08203200  0.52852200  1
  O  O66  1  0.60001400  0.87643200  0.32002200  1
  O  O67  1  0.12927900  0.15472800  0.82234100  1
  O  O68  1  0.93465800  0.22133200  0.67202700  1
  O  O69  1  0.87253700  0.94003200  0.41577800  1
  O  O70  1  0.12676800  0.04944700  0.59093200  1
  O  O71  1  0.07118800  0.78361800  0.33739700  1
  O  O72  1  0.87798000  0.83989800  0.18281100  1
  O  O73  1  0.39325800  0.12053100  0.69021300  1
  O  O74  1  0.33471800  0.91826100  0.47149600  1
  O  O75  1  0.07634700  0.02811000  0.31191900  1
  O  O76  1  0.32164400  0.17195100  0.49572300  1
  O  O77  1  0.05731900  0.28329100  0.32714900  1
  O  O78  1  0.00107800  0.08912100  0.11330900  1
  O  O79  1  0.53293800  0.34899100  0.62210800  1
  O  O80  1  0.34587800  0.42601400  0.47618000  1
  O  O81  1  0.26027100  0.12893700  0.21191200  1
  O  O82  1  0.52653600  0.24158300  0.38863100  1
  O  O83  1  0.45218200  0.96031600  0.13042400  1
  O  O84  1  0.79043100  0.30938200  0.48827000  1
  O  O85  1  0.73920200  0.11197700  0.27692300  1
  O  O86  1  0.49629000  0.22750600  0.10381400  1
  O  O87  1  0.72237900  0.37100300  0.29716600  1
  O  O88  1  0.46282500  0.48746800  0.12127100  1
  O  O89  1  0.92986100  0.56050800  0.41619800  1
  O  O90  1  0.72971600  0.61603800  0.27194100  1
  O  O91  1  0.67483700  0.36199700  0.00583400  1
  O  O92  1  0.92796100  0.45957500  0.18594500  1
  O  O93  1  0.20140500  0.52437000  0.27870600  1
  O  O94  1  0.12876700  0.32776200  0.06358100  1
  O  O95  1  0.12028900  0.59186100  0.09238000  1
  O  O96  1  0.33741500  0.75480500  0.22568400  1
  O  O97  1  0.18811200  0.86103500  0.08162200  1
  O  O98  1  0.59696900  0.70943300  0.08477400  1
  O  O99  1  0.72635100  0.95722400  0.01616400  1
