# generated using pymatgen
data_Ca3Si2(H3O5)2
_symmetry_space_group_name_H-M   'P 1'
_cell_length_a   8.66435709
_cell_length_b   8.66435709
_cell_length_c   11.68601872
_cell_angle_alpha   56.20323294
_cell_angle_beta   56.20323294
_cell_angle_gamma   38.31638819
_symmetry_Int_Tables_number   1
_chemical_formula_structural   Ca3Si2(H3O5)2
_chemical_formula_sum   'Ca6 Si4 H12 O20'
_cell_volume   439.61266580
_cell_formula_units_Z   2
loop_
 _symmetry_equiv_pos_site_id
 _symmetry_equiv_pos_as_xyz
  1  'x, y, z'
loop_
 _atom_site_type_symbol
 _atom_site_label
 _atom_site_symmetry_multiplicity
 _atom_site_fract_x
 _atom_site_fract_y
 _atom_site_fract_z
 _atom_site_occupancy
  Ca  Ca0  1  0.55945600  0.13643700  0.20687900  1
  Ca  Ca1  1  0.13643700  0.55945600  0.70687900  1
  Ca  Ca2  1  0.85678200  0.46747800  0.28723900  1
  Ca  Ca3  1  0.46747800  0.85678200  0.78723900  1
  Ca  Ca4  1  0.00416400  0.56822500  0.45970400  1
  Ca  Ca5  1  0.56822500  0.00416400  0.95970400  1
  Si  Si6  1  0.33055000  0.94618500  0.49647200  1
  Si  Si7  1  0.94618500  0.33055000  0.99647200  1
  Si  Si8  1  0.65383400  0.11848300  0.49707500  1
  Si  Si9  1  0.11848300  0.65383400  0.99707500  1
  H  H10  1  0.83710500  0.14117000  0.26278700  1
  H  H11  1  0.14117000  0.83710500  0.76278700  1
  H  H12  1  0.03002100  0.99762000  0.49684400  1
  H  H13  1  0.99762000  0.03002100  0.99684400  1
  H  H14  1  0.26393800  0.66153500  0.12702100  1
  H  H15  1  0.66153500  0.26393800  0.62702100  1
  H  H16  1  0.35825700  0.62500300  0.23276700  1
  H  H17  1  0.62500300  0.35825700  0.73276700  1
  H  H18  1  0.22161200  0.98085100  0.20254400  1
  H  H19  1  0.98085100  0.22161200  0.70254400  1
  H  H20  1  0.32872500  0.80621400  0.34019000  1
  H  H21  1  0.80621400  0.32872500  0.84019000  1
  O  O22  1  0.95539500  0.25515600  0.15721900  1
  O  O23  1  0.25515600  0.95539500  0.65721900  1
  O  O24  1  0.75684100  0.06575600  0.33943000  1
  O  O25  1  0.06575600  0.75684100  0.83943000  1
  O  O26  1  0.76484000  0.22333300  0.47755600  1
  O  O27  1  0.22333300  0.76484000  0.97755600  1
  O  O28  1  0.22017700  0.83877300  0.50793400  1
  O  O29  1  0.83877300  0.22017700  0.00793400  1
  O  O30  1  0.83053000  0.79489600  0.10286300  1
  O  O31  1  0.79489600  0.83053000  0.60286300  1
  O  O32  1  0.31247900  0.34493500  0.05573900  1
  O  O33  1  0.34493500  0.31247900  0.55573900  1
  O  O34  1  0.18221000  0.23532600  0.39069100  1
  O  O35  1  0.23532600  0.18221000  0.89069100  1
  O  O36  1  0.63485400  0.76290600  0.41802900  1
  O  O37  1  0.76290600  0.63485400  0.91802900  1
  O  O38  1  0.29476400  0.57149500  0.22738200  1
  O  O39  1  0.57149500  0.29476400  0.72738200  1
  O  O40  1  0.38494400  0.80824200  0.23788700  1
  O  O41  1  0.80824200  0.38494400  0.73788700  1
