# generated using pymatgen
data_Na3PH24SO15
_symmetry_space_group_name_H-M   'P 1'
_cell_length_a   13.88060149
_cell_length_b   13.88060149
_cell_length_c   13.88060149
_cell_angle_alpha   39.30765132
_cell_angle_beta   39.30765132
_cell_angle_gamma   39.30765256
_symmetry_Int_Tables_number   1
_chemical_formula_structural   Na3PH24SO15
_chemical_formula_sum   'Na6 P2 H48 S2 O30'
_cell_volume   965.74110978
_cell_formula_units_Z   2
loop_
 _symmetry_equiv_pos_site_id
 _symmetry_equiv_pos_as_xyz
  1  'x, y, z'
loop_
 _atom_site_type_symbol
 _atom_site_label
 _atom_site_symmetry_multiplicity
 _atom_site_fract_x
 _atom_site_fract_y
 _atom_site_fract_z
 _atom_site_occupancy
  Na  Na0  1  0.23460800  0.23460800  0.23460800  1
  Na  Na1  1  0.37645000  0.37645000  0.37645000  1
  Na  Na2  1  0.62355000  0.62355000  0.62355000  1
  Na  Na3  1  0.76539200  0.76539200  0.76539200  1
  Na  Na4  1  0.84818300  0.84818300  0.84818300  1
  Na  Na5  1  0.15181700  0.15181700  0.15181700  1
  P  P6  1  0.52716400  0.52716400  0.52716400  1
  P  P7  1  0.47283600  0.47283600  0.47283600  1
  H  H8  1  0.44946100  0.26108300  0.87699900  1
  H  H9  1  0.87699900  0.44946100  0.26108300  1
  H  H10  1  0.55759900  0.36043500  0.84342900  1
  H  H11  1  0.26108300  0.87699900  0.44946100  1
  H  H12  1  0.80636600  0.23746400  0.82772000  1
  H  H13  1  0.84342900  0.55759900  0.36043500  1
  H  H14  1  0.97629400  0.46810200  0.40914000  1
  H  H15  1  0.36043500  0.84342900  0.55759900  1
  H  H16  1  0.46810200  0.40914000  0.97629400  1
  H  H17  1  0.82772000  0.80636600  0.23746400  1
  H  H18  1  0.23746400  0.82772000  0.80636600  1
  H  H19  1  0.76253600  0.19363400  0.17228000  1
  H  H20  1  0.40914000  0.97629400  0.46810200  1
  H  H21  1  0.00712800  0.32424300  0.78674800  1
  H  H22  1  0.02370600  0.59086000  0.53189800  1
  H  H23  1  0.59086000  0.53189800  0.02370600  1
  H  H24  1  0.63956500  0.44240100  0.15657100  1
  H  H25  1  0.32424300  0.78674800  0.00712800  1
  H  H26  1  0.17228000  0.76253600  0.19363400  1
  H  H27  1  0.10321000  0.28687900  0.88145700  1
  H  H28  1  0.78674800  0.00712800  0.32424300  1
  H  H29  1  0.15657100  0.63956500  0.44240100  1
  H  H30  1  0.53189800  0.02370600  0.59086000  1
  H  H31  1  0.19677400  0.38039600  0.79240900  1
  H  H32  1  0.19363400  0.17228000  0.76253600  1
  H  H33  1  0.91756800  0.48898000  0.97945100  1
  H  H34  1  0.28687900  0.88145700  0.10321000  1
  H  H35  1  0.73891700  0.55053900  0.12300100  1
  H  H36  1  0.44240100  0.15657100  0.63956500  1
  H  H37  1  0.38039600  0.79240900  0.19677400  1
  H  H38  1  0.12300100  0.73891700  0.55053900  1
  H  H39  1  0.88145700  0.10321000  0.28687900  1
  H  H40  1  0.97945100  0.91756800  0.48898000  1
  H  H41  1  0.48898000  0.97945100  0.91756800  1
  H  H42  1  0.55053900  0.12300100  0.73891700  1
  H  H43  1  0.02054900  0.51102000  0.08243200  1
  H  H44  1  0.79240900  0.19677400  0.38039600  1
  H  H45  1  0.20759100  0.61960400  0.80322600  1
  H  H46  1  0.61960400  0.80322600  0.20759100  1
  H  H47  1  0.08243200  0.02054900  0.51102000  1
  H  H48  1  0.11854300  0.71312100  0.89679000  1
  H  H49  1  0.51102000  0.08243200  0.02054900  1
  H  H50  1  0.71312100  0.89679000  0.11854300  1
  H  H51  1  0.80322600  0.20759100  0.61960400  1
  H  H52  1  0.21325200  0.67575700  0.99287200  1
  H  H53  1  0.89679000  0.11854300  0.71312100  1
  H  H54  1  0.67575700  0.99287200  0.21325200  1
  H  H55  1  0.99287200  0.21325200  0.67575700  1
  S  S56  1  0.30628100  0.30628100  0.30628100  1
  S  S57  1  0.69371900  0.69371900  0.69371900  1
  O  O58  1  0.57154600  0.39891900  0.86647100  1
  O  O59  1  0.13653600  0.29542600  0.43705600  1
  O  O60  1  0.29542600  0.43705600  0.13653600  1
  O  O61  1  0.86647100  0.57154600  0.39891900  1
  O  O62  1  0.39891900  0.86647100  0.57154600  1
  O  O63  1  0.43705600  0.13653600  0.29542600  1
  O  O64  1  0.60108100  0.42845400  0.13352900  1
  O  O65  1  0.86346400  0.56294400  0.70457400  1
  O  O66  1  0.56294400  0.70457400  0.86346400  1
  O  O67  1  0.13352900  0.60108100  0.42845400  1
  O  O68  1  0.70457400  0.86346400  0.56294400  1
  O  O69  1  0.11609700  0.33268400  0.90244700  1
  O  O70  1  0.42845400  0.13352900  0.60108100  1
  O  O71  1  0.81131300  0.59034500  0.00103200  1
  O  O72  1  0.33268400  0.90244700  0.11609700  1
  O  O73  1  0.00103200  0.81131300  0.59034500  1
  O  O74  1  0.59034500  0.00103200  0.81131300  1
  O  O75  1  0.90244700  0.11609700  0.33268400  1
  O  O76  1  0.99896800  0.40965500  0.18868700  1
  O  O77  1  0.09755300  0.66731600  0.88390300  1
  O  O78  1  0.66731600  0.88390300  0.09755300  1
  O  O79  1  0.18868700  0.99896800  0.40965500  1
  O  O80  1  0.40965500  0.18868700  0.99896800  1
  O  O81  1  0.88390300  0.09755300  0.66731600  1
  O  O82  1  0.15937400  0.77588100  0.91579000  1
  O  O83  1  0.77588100  0.91579000  0.15937400  1
  O  O84  1  0.91579000  0.15937400  0.77588100  1
  O  O85  1  0.22411900  0.84062600  0.08421000  1
  O  O86  1  0.84062600  0.08421000  0.22411900  1
  O  O87  1  0.08421000  0.22411900  0.84062600  1
