# generated using pymatgen
data_H22RuN7(ClO2)4
_symmetry_space_group_name_H-M   'P 1'
_cell_length_a   7.55535812
_cell_length_b   7.55535812
_cell_length_c   10.76549349
_cell_angle_alpha   69.00838157
_cell_angle_beta   69.00838157
_cell_angle_gamma   57.48210615
_symmetry_Int_Tables_number   1
_chemical_formula_structural   H22RuN7(ClO2)4
_chemical_formula_sum   'H22 Ru1 N7 Cl4 O8'
_cell_volume   472.96451949
_cell_formula_units_Z   1
loop_
 _symmetry_equiv_pos_site_id
 _symmetry_equiv_pos_as_xyz
  1  'x, y, z'
loop_
 _atom_site_type_symbol
 _atom_site_label
 _atom_site_symmetry_multiplicity
 _atom_site_fract_x
 _atom_site_fract_y
 _atom_site_fract_z
 _atom_site_occupancy
  H  H0  1  0.46126200  0.64259600  0.44987700  1
  H  H1  1  0.64259600  0.46126200  0.44987700  1
  H  H2  1  0.33802300  0.54210800  0.52605200  1
  H  H3  1  0.54210800  0.33802300  0.52605200  1
  H  H4  1  0.41425800  0.80751300  0.75085300  1
  H  H5  1  0.01614700  0.78592300  0.84193000  1
  H  H6  1  0.80751300  0.41425800  0.75085300  1
  H  H7  1  0.88889000  0.46783500  0.85241900  1
  H  H8  1  0.46783500  0.88889000  0.85241900  1
  H  H9  1  0.78592300  0.01614700  0.84193000  1
  H  H10  1  0.21489000  0.50222000  0.07063600  1
  H  H11  1  0.19222300  0.70123500  0.11976700  1
  H  H12  1  0.97313300  0.69051100  0.12145200  1
  H  H13  1  0.12121000  0.52047400  0.24241800  1
  H  H14  1  0.21003300  0.21003300  0.07549300  1
  H  H15  1  0.50222000  0.21489000  0.07063600  1
  H  H16  1  0.70123500  0.19222300  0.11976700  1
  H  H17  1  0.97484000  0.20761100  0.13011600  1
  H  H18  1  0.20761100  0.97484000  0.13011600  1
  H  H19  1  0.69051100  0.97313300  0.12145200  1
  H  H20  1  0.52047400  0.12121000  0.24241800  1
  H  H21  1  0.11798700  0.11798700  0.24932500  1
  Ru  Ru22  1  0.06238300  0.06238300  0.89154900  1
  N  N23  1  0.35309200  0.87108700  0.83577000  1
  N  N24  1  0.91847100  0.91847100  0.88482600  1
  N  N25  1  0.87108700  0.35309200  0.83577000  1
  N  N26  1  0.49831800  0.49831800  0.53024600  1
  N  N27  1  0.12482800  0.60258400  0.14208500  1
  N  N28  1  0.60258400  0.12482800  0.14208500  1
  N  N29  1  0.12662700  0.12662700  0.14961300  1
  Cl  Cl30  1  0.83534700  0.83534700  0.53159000  1
  Cl  Cl31  1  0.61212300  0.61212300  0.18248100  1
  Cl  Cl32  1  0.34593300  0.34593300  0.91200600  1
  Cl  Cl33  1  0.17422700  0.17422700  0.44616100  1
  O  O34  1  0.88458700  0.88458700  0.38240900  1
  O  O35  1  0.30558700  0.97701500  0.38955200  1
  O  O36  1  0.29664200  0.29664200  0.39092200  1
  O  O37  1  0.97701500  0.30558700  0.38955200  1
  O  O38  1  0.71516200  0.71516200  0.58168400  1
  O  O39  1  0.03556600  0.70731000  0.58248800  1
  O  O40  1  0.70731000  0.03556600  0.58248800  1
  O  O41  1  0.12539000  0.12539000  0.59126900  1
