# generated using pymatgen
data_SrAlSi5N7O2
_symmetry_space_group_name_H-M   'P 1'
_cell_length_a   7.11004400
_cell_length_b   6.60251700
_cell_length_c   9.69953389
_cell_angle_alpha   56.90462896
_cell_angle_beta   90.00000000
_cell_angle_gamma   90.00000000
_symmetry_Int_Tables_number   1
_chemical_formula_structural   SrAlSi5N7O2
_chemical_formula_sum   'Sr2 Al2 Si10 N14 O4'
_cell_volume   381.46418661
_cell_formula_units_Z   2
loop_
 _symmetry_equiv_pos_site_id
 _symmetry_equiv_pos_as_xyz
  1  'x, y, z'
loop_
 _atom_site_type_symbol
 _atom_site_label
 _atom_site_symmetry_multiplicity
 _atom_site_fract_x
 _atom_site_fract_y
 _atom_site_fract_z
 _atom_site_occupancy
  Sr  Sr0  1  0.30484700  0.10282800  0.04806600  1
  Sr  Sr1  1  0.69515300  0.10282800  0.54806600  1
  Al  Al2  1  0.50935700  0.54187600  0.68730200  1
  Al  Al3  1  0.49064300  0.54187600  0.18730200  1
  Si  Si4  1  0.85376400  0.66793400  0.53367300  1
  Si  Si5  1  0.45641000  0.96589400  0.37020400  1
  Si  Si6  1  0.14623600  0.66793400  0.03367300  1
  Si  Si7  1  0.54359000  0.96589400  0.87020400  1
  Si  Si8  1  0.94088300  0.02760100  0.92476100  1
  Si  Si9  1  0.80761700  0.53954600  0.27437900  1
  Si  Si10  1  0.14380400  0.36484700  0.44557000  1
  Si  Si11  1  0.05911700  0.02760100  0.42476100  1
  Si  Si12  1  0.19238300  0.53954600  0.77437900  1
  Si  Si13  1  0.85619600  0.36484700  0.94557000  1
  N  N14  1  0.40044300  0.88363100  0.56903500  1
  N  N15  1  0.59955700  0.88363100  0.06903500  1
  N  N16  1  0.80199400  0.83165300  0.10668800  1
  N  N17  1  0.23961000  0.56068100  0.23707000  1
  N  N18  1  0.07254500  0.49592000  0.95088900  1
  N  N19  1  0.19800600  0.83165300  0.60668800  1
  N  N20  1  0.76039000  0.56068100  0.73707000  1
  N  N21  1  0.74988900  0.29050400  0.14203000  1
  N  N22  1  0.55131300  0.23495900  0.20063800  1
  N  N23  1  0.92745500  0.49592000  0.45088900  1
  N  N24  1  0.25011100  0.29050400  0.64203000  1
  N  N25  1  0.44868700  0.23495900  0.70063800  1
  N  N26  1  0.11277100  0.28616400  0.75895200  1
  N  N27  1  0.88722900  0.28616400  0.25895200  1
  O  O28  1  0.62254900  0.74021800  0.44430000  1
  O  O29  1  0.37745100  0.74021800  0.94430000  1
  O  O30  1  0.77076100  0.99684400  0.80644200  1
  O  O31  1  0.22923900  0.99684400  0.30644200  1
