# generated using pymatgen
data_Na3LaTi2Nb2O12
_symmetry_space_group_name_H-M   'P 1'
_cell_length_a   7.92743700
_cell_length_b   7.78049500
_cell_length_c   11.04108281
_cell_angle_alpha   45.21802939
_cell_angle_beta   90.00000000
_cell_angle_gamma   90.00000000
_symmetry_Int_Tables_number   1
_chemical_formula_structural   Na3LaTi2Nb2O12
_chemical_formula_sum   'Na6 La2 Ti4 Nb4 O24'
_cell_volume   483.37374538
_cell_formula_units_Z   2
loop_
 _symmetry_equiv_pos_site_id
 _symmetry_equiv_pos_as_xyz
  1  'x, y, z'
loop_
 _atom_site_type_symbol
 _atom_site_label
 _atom_site_symmetry_multiplicity
 _atom_site_fract_x
 _atom_site_fract_y
 _atom_site_fract_z
 _atom_site_occupancy
  Na  Na0  1  0.24525800  0.50000000  0.25000000  1
  Na  Na1  1  0.74882900  0.50000000  0.25000000  1
  Na  Na2  1  0.25117100  0.50000000  0.75000000  1
  Na  Na3  1  0.75474200  0.50000000  0.75000000  1
  Na  Na4  1  0.75834500  0.00000000  0.75000000  1
  Na  Na5  1  0.24165500  0.00000000  0.25000000  1
  La  La6  1  0.25846300  0.00000000  0.75000000  1
  La  La7  1  0.74153700  0.00000000  0.25000000  1
  Ti  Ti8  1  0.50000000  0.00000000  0.00000000  1
  Ti  Ti9  1  0.50000000  0.00000000  0.50000000  1
  Ti  Ti10  1  0.00000000  0.50000000  0.50000000  1
  Ti  Ti11  1  0.00000000  0.50000000  0.00000000  1
  Nb  Nb12  1  0.50000000  0.50000000  0.50000000  1
  Nb  Nb13  1  0.50000000  0.50000000  0.00000000  1
  Nb  Nb14  1  0.00000000  0.00000000  0.00000000  1
  Nb  Nb15  1  0.00000000  0.00000000  0.50000000  1
  O  O16  1  0.24788600  0.46838100  0.49877900  1
  O  O17  1  0.25255700  0.03395200  0.49903700  1
  O  O18  1  0.48120400  0.80682500  0.44566500  1
  O  O19  1  0.51662800  0.71030200  0.24786000  1
  O  O20  1  0.51662800  0.28969800  0.25214000  1
  O  O21  1  0.48120400  0.19317500  0.05433500  1
  O  O22  1  0.51879600  0.80682500  0.94566500  1
  O  O23  1  0.48337200  0.71030200  0.74786000  1
  O  O24  1  0.48337200  0.28969800  0.75214000  1
  O  O25  1  0.74744300  0.03395200  0.99903700  1
  O  O26  1  0.75211400  0.46838100  0.99877900  1
  O  O27  1  0.51879600  0.19317500  0.55433500  1
  O  O28  1  0.02308200  0.29613900  0.95599600  1
  O  O29  1  0.74744300  0.96604800  0.50096300  1
  O  O30  1  0.75211400  0.53161900  0.50122100  1
  O  O31  1  0.00608700  0.19875200  0.74756100  1
  O  O32  1  0.00608700  0.80124800  0.75243900  1
  O  O33  1  0.02308200  0.70386100  0.54400400  1
  O  O34  1  0.97691800  0.29613900  0.45599600  1
  O  O35  1  0.99391300  0.19875200  0.24756100  1
  O  O36  1  0.99391300  0.80124800  0.25243900  1
  O  O37  1  0.97691800  0.70386100  0.04400400  1
  O  O38  1  0.24788600  0.53161900  0.00122100  1
  O  O39  1  0.25255700  0.96604800  0.00096300  1
