# generated using pymatgen
data_Zr2H16SN3(O2F3)3
_symmetry_space_group_name_H-M   'P 1'
_cell_length_a   8.03980552
_cell_length_b   8.03980552
_cell_length_c   12.30338767
_cell_angle_alpha   69.18127509
_cell_angle_beta   69.18127509
_cell_angle_gamma   79.44441077
_symmetry_Int_Tables_number   1
_chemical_formula_structural   Zr2H16SN3(O2F3)3
_chemical_formula_sum   'Zr4 H32 S2 N6 O12 F18'
_cell_volume   693.34138185
_cell_formula_units_Z   2
loop_
 _symmetry_equiv_pos_site_id
 _symmetry_equiv_pos_as_xyz
  1  'x, y, z'
loop_
 _atom_site_type_symbol
 _atom_site_label
 _atom_site_symmetry_multiplicity
 _atom_site_fract_x
 _atom_site_fract_y
 _atom_site_fract_z
 _atom_site_occupancy
  Zr  Zr0  1  0.88392400  0.24347000  0.61144400  1
  Zr  Zr1  1  0.24347000  0.88392400  0.61144400  1
  Zr  Zr2  1  0.11607600  0.75653000  0.38855600  1
  Zr  Zr3  1  0.75653000  0.11607600  0.38855600  1
  H  H4  1  0.37051200  0.96705800  0.15138900  1
  H  H5  1  0.96705800  0.37051200  0.15138900  1
  H  H6  1  0.62948800  0.03294200  0.84861100  1
  H  H7  1  0.03294200  0.62948800  0.84861100  1
  H  H8  1  0.43634900  0.75445000  0.18331000  1
  H  H9  1  0.75445000  0.43634900  0.18331000  1
  H  H10  1  0.56365100  0.24555000  0.81669000  1
  H  H11  1  0.24555000  0.56365100  0.81669000  1
  H  H12  1  0.80821700  0.27612100  0.92315500  1
  H  H13  1  0.27612100  0.80821700  0.92315500  1
  H  H14  1  0.19178300  0.72387900  0.07684500  1
  H  H15  1  0.72387900  0.19178300  0.07684500  1
  H  H16  1  0.94763400  0.18571400  0.00595400  1
  H  H17  1  0.18571400  0.94763400  0.00595400  1
  H  H18  1  0.05236600  0.81428600  0.99404600  1
  H  H19  1  0.81428600  0.05236600  0.99404600  1
  H  H20  1  0.82775100  0.66554500  0.69208000  1
  H  H21  1  0.66554500  0.82775100  0.69208000  1
  H  H22  1  0.17224900  0.33445500  0.30792000  1
  H  H23  1  0.33445500  0.17224900  0.30792000  1
  H  H24  1  0.64178500  0.64178500  0.66718700  1
  H  H25  1  0.35821500  0.35821500  0.33281300  1
  H  H26  1  0.63454100  0.63454100  0.80838400  1
  H  H27  1  0.36545900  0.36545900  0.19161600  1
  H  H28  1  0.40400500  0.40400500  0.65962900  1
  H  H29  1  0.59599500  0.59599500  0.34037100  1
  H  H30  1  0.19392400  0.35687300  0.68031300  1
  H  H31  1  0.35687300  0.19392400  0.68031300  1
  H  H32  1  0.80607600  0.64312700  0.31968700  1
  H  H33  1  0.64312700  0.80607600  0.31968700  1
  H  H34  1  0.36079600  0.36079600  0.55014900  1
  H  H35  1  0.63920400  0.63920400  0.44985100  1
  S  S36  1  0.28831100  0.28831100  0.00151400  1
  S  S37  1  0.71168900  0.71168900  0.99848600  1
  N  N38  1  0.17710700  0.82289300  0.00000000  1
  N  N39  1  0.82289300  0.17710700  0.00000000  1
  N  N40  1  0.69097900  0.69097900  0.71584000  1
  N  N41  1  0.30902100  0.30902100  0.28416000  1
  N  N42  1  0.67082200  0.67082200  0.35623300  1
  N  N43  1  0.32917800  0.32917800  0.64376700  1
  O  O44  1  0.17727900  0.41490600  0.06664100  1
  O  O45  1  0.41490600  0.17727900  0.06664100  1
  O  O46  1  0.82272100  0.58509400  0.93335900  1
  O  O47  1  0.58509400  0.82272100  0.93335900  1
  O  O48  1  0.82764600  0.82764600  0.00839200  1
  O  O49  1  0.17235400  0.17235400  0.99160800  1
  O  O50  1  0.60587500  0.60587500  0.12693000  1
  O  O51  1  0.39412500  0.39412500  0.87307000  1
  O  O52  1  0.34242500  0.84394700  0.21045200  1
  O  O53  1  0.84394700  0.34242500  0.21045200  1
  O  O54  1  0.65757500  0.15605300  0.78954800  1
  O  O55  1  0.15605300  0.65757500  0.78954800  1
  F  F56  1  0.03146900  0.03146900  0.29797100  1
  F  F57  1  0.96853100  0.96853100  0.70202900  1
  F  F58  1  0.83078700  0.83078700  0.46367000  1
  F  F59  1  0.16921300  0.16921300  0.53633000  1
  F  F60  1  0.04261900  0.68350100  0.27065800  1
  F  F61  1  0.68350100  0.04261900  0.27065800  1
  F  F62  1  0.95738100  0.31649900  0.72934200  1
  F  F63  1  0.31649900  0.95738100  0.72934200  1
  F  F64  1  0.06924700  0.73046500  0.58242800  1
  F  F65  1  0.73046500  0.06924700  0.58242800  1
  F  F66  1  0.93075300  0.26953500  0.41757200  1
  F  F67  1  0.26953500  0.93075300  0.41757200  1
  F  F68  1  0.32219100  0.57535100  0.40142900  1
  F  F69  1  0.57535100  0.32219100  0.40142900  1
  F  F70  1  0.67780900  0.42464900  0.59857100  1
  F  F71  1  0.42464900  0.67780900  0.59857100  1
  F  F72  1  0.00000000  0.50000000  0.50000000  1
  F  F73  1  0.50000000  0.00000000  0.50000000  1
