# generated using pymatgen
data_NaH3SO5
_symmetry_space_group_name_H-M   'P 1'
_cell_length_a   5.61112818
_cell_length_b   5.61112818
_cell_length_c   8.02822505
_cell_angle_alpha   71.06144836
_cell_angle_beta   71.06144836
_cell_angle_gamma   90.18707900
_symmetry_Int_Tables_number   1
_chemical_formula_structural   NaH3SO5
_chemical_formula_sum   'Na2 H6 S2 O10'
_cell_volume   224.46923868
_cell_formula_units_Z   2
loop_
 _symmetry_equiv_pos_site_id
 _symmetry_equiv_pos_as_xyz
  1  'x, y, z'
loop_
 _atom_site_type_symbol
 _atom_site_label
 _atom_site_symmetry_multiplicity
 _atom_site_fract_x
 _atom_site_fract_y
 _atom_site_fract_z
 _atom_site_occupancy
  Na  Na0  1  0.44623500  0.51947800  0.49323600  1
  Na  Na1  1  0.51947800  0.44623500  0.99323600  1
  H  H2  1  0.52032800  0.12561200  0.77630400  1
  H  H3  1  0.12561100  0.52032800  0.27630400  1
  H  H4  1  0.78927400  0.28286200  0.68087400  1
  H  H5  1  0.28286200  0.78927400  0.18087400  1
  H  H6  1  0.82842800  0.90905500  0.00079500  1
  H  H7  1  0.90905500  0.82842800  0.50079500  1
  S  S8  1  0.11702600  0.88337200  0.74927100  1
  S  S9  1  0.88337200  0.11702600  0.24927100  1
  O  O10  1  0.12253100  0.15629900  0.65810400  1
  O  O11  1  0.15629900  0.12253100  0.15810400  1
  O  O12  1  0.08898400  0.73372100  0.63389500  1
  O  O13  1  0.73372100  0.08898400  0.13389500  1
  O  O14  1  0.85697100  0.79087600  0.92519900  1
  O  O15  1  0.79087600  0.85697100  0.42519900  1
  O  O16  1  0.32561600  0.81700900  0.82082300  1
  O  O17  1  0.81700900  0.32561600  0.32082300  1
  O  O18  1  0.60850000  0.29862400  0.73449800  1
  O  O19  1  0.29862400  0.60850000  0.23449800  1
