# generated using pymatgen
data_CoP4(H5O8)2
_symmetry_space_group_name_H-M   'P 1'
_cell_length_a   7.22090173
_cell_length_b   8.46157087
_cell_length_c   10.68820471
_cell_angle_alpha   98.42994295
_cell_angle_beta   92.27676590
_cell_angle_gamma   99.72874700
_symmetry_Int_Tables_number   1
_chemical_formula_structural   CoP4(H5O8)2
_chemical_formula_sum   'Co2 P8 H20 O32'
_cell_volume   635.31048398
_cell_formula_units_Z   2
loop_
 _symmetry_equiv_pos_site_id
 _symmetry_equiv_pos_as_xyz
  1  'x, y, z'
loop_
 _atom_site_type_symbol
 _atom_site_label
 _atom_site_symmetry_multiplicity
 _atom_site_fract_x
 _atom_site_fract_y
 _atom_site_fract_z
 _atom_site_occupancy
  Co  Co0  1  0.49999900  0.50000000  0.75000000  1
  Co  Co1  1  0.50000100  0.50000100  0.25000100  1
  P  P2  1  0.32574000  0.27890600  0.46722200  1
  P  P3  1  0.32622100  0.27882200  0.96647100  1
  P  P4  1  0.67426000  0.72109100  0.03277700  1
  P  P5  1  0.67377900  0.72118000  0.53352900  1
  P  P6  1  0.81916800  0.25810900  0.27305800  1
  P  P7  1  0.82011200  0.25832300  0.77378000  1
  P  P8  1  0.18083200  0.74189100  0.22694100  1
  P  P9  1  0.17988700  0.74167600  0.72622100  1
  H  H10  1  0.58328000  0.23800600  0.06489300  1
  H  H11  1  0.58257200  0.23806700  0.56683100  1
  H  H12  1  0.41672200  0.76199700  0.43510800  1
  H  H13  1  0.41742900  0.76193300  0.93316700  1
  H  H14  1  0.07890400  0.16340500  0.05201600  1
  H  H15  1  0.07879900  0.16330600  0.55275500  1
  H  H16  1  0.92109700  0.83660100  0.44798600  1
  H  H17  1  0.92120000  0.83668800  0.94724200  1
  H  H18  1  0.63141800  0.09616000  0.36405800  1
  H  H19  1  0.63202900  0.09547100  0.86353200  1
  H  H20  1  0.36858100  0.90384000  0.13594000  1
  H  H21  1  0.36796800  0.90453500  0.63647400  1
  H  H22  1  0.12703400  0.26644100  0.25967000  1
  H  H23  1  0.12777300  0.26813700  0.75964100  1
  H  H24  1  0.87296700  0.73356100  0.24033100  1
  H  H25  1  0.87222400  0.73185800  0.74035800  1
  H  H26  1  0.80481800  0.46433300  0.41868300  1
  H  H27  1  0.80637200  0.46454000  0.91890100  1
  H  H28  1  0.19518500  0.53566800  0.08131600  1
  H  H29  1  0.19362600  0.53545900  0.58109700  1
  O  O30  1  0.50463000  0.19471800  0.48226200  1
  O  O31  1  0.50484000  0.19421000  0.98055900  1
  O  O32  1  0.49537300  0.80528400  0.01773600  1
  O  O33  1  0.49516000  0.80579000  0.51944200  1
  O  O34  1  0.14630200  0.14557500  0.47409700  1
  O  O35  1  0.14705200  0.14546100  0.97371400  1
  O  O36  1  0.85370100  0.85442100  0.02590200  1
  O  O37  1  0.85294700  0.85454200  0.52628700  1
  O  O38  1  0.31651800  0.32227300  0.33320400  1
  O  O39  1  0.31521300  0.32361700  0.83289000  1
  O  O40  1  0.68348100  0.67772800  0.16679700  1
  O  O41  1  0.68478600  0.67638100  0.66710900  1
  O  O42  1  0.33904300  0.41977100  0.07611300  1
  O  O43  1  0.33743200  0.42015800  0.57660900  1
  O  O44  1  0.66096100  0.58023300  0.42388700  1
  O  O45  1  0.66256300  0.57983700  0.92339100  1
  O  O46  1  0.73099300  0.08492500  0.30305300  1
  O  O47  1  0.73257000  0.08463500  0.80325000  1
  O  O48  1  0.26900600  0.91507500  0.19694400  1
  O  O49  1  0.26742400  0.91536700  0.69675300  1
  O  O50  1  0.00072500  0.23169500  0.20365100  1
  O  O51  1  0.00110300  0.23222500  0.70355900  1
  O  O52  1  0.99927600  0.76830600  0.29634900  1
  O  O53  1  0.99889500  0.76777000  0.79644200  1
  O  O54  1  0.88471300  0.37551400  0.39956500  1
  O  O55  1  0.88624200  0.37539200  0.90045600  1
  O  O56  1  0.11528700  0.62448500  0.10043500  1
  O  O57  1  0.11375800  0.62460900  0.59954200  1
  O  O58  1  0.68130100  0.32501600  0.19222200  1
  O  O59  1  0.68100200  0.32538200  0.69403900  1
  O  O60  1  0.31870100  0.67498600  0.30777800  1
  O  O61  1  0.31900000  0.67461800  0.80596000  1
