# generated using pymatgen
data_Fe3H4(S2O9)2
_symmetry_space_group_name_H-M   'P 1'
_cell_length_a   14.55877600
_cell_length_b   5.19202200
_cell_length_c   9.77382166
_cell_angle_alpha   60.79625469
_cell_angle_beta   90.00000000
_cell_angle_gamma   90.00000000
_symmetry_Int_Tables_number   1
_chemical_formula_structural   Fe3H4(S2O9)2
_chemical_formula_sum   'Fe6 H8 S8 O36'
_cell_volume   644.88965279
_cell_formula_units_Z   2
loop_
 _symmetry_equiv_pos_site_id
 _symmetry_equiv_pos_as_xyz
  1  'x, y, z'
loop_
 _atom_site_type_symbol
 _atom_site_label
 _atom_site_symmetry_multiplicity
 _atom_site_fract_x
 _atom_site_fract_y
 _atom_site_fract_z
 _atom_site_occupancy
  Fe  Fe0  1  0.00000000  0.00000000  0.00000000  1
  Fe  Fe1  1  0.50000000  0.00000000  0.50000000  1
  Fe  Fe2  1  0.84699900  0.27746500  0.47389400  1
  Fe  Fe3  1  0.65300100  0.27746500  0.97389400  1
  Fe  Fe4  1  0.15300100  0.72253500  0.52610600  1
  Fe  Fe5  1  0.34699900  0.72253500  0.02610600  1
  H  H6  1  0.82699800  0.87144400  0.95321600  1
  H  H7  1  0.67300200  0.87144400  0.45321600  1
  H  H8  1  0.17300200  0.12855600  0.04678400  1
  H  H9  1  0.32699800  0.12855600  0.54678400  1
  H  H10  1  0.89191200  0.64159300  0.93766100  1
  H  H11  1  0.60808800  0.64159300  0.43766100  1
  H  H12  1  0.10808800  0.35840700  0.06233900  1
  H  H13  1  0.39191200  0.35840700  0.56233900  1
  S  S14  1  0.06719400  0.40396000  0.32210400  1
  S  S15  1  0.43280600  0.40396000  0.82210400  1
  S  S16  1  0.93280600  0.59604000  0.67789600  1
  S  S17  1  0.56719400  0.59604000  0.17789600  1
  S  S18  1  0.82920300  0.98787500  0.23020400  1
  S  S19  1  0.67079700  0.98787500  0.73020400  1
  S  S20  1  0.17079700  0.01212500  0.76979600  1
  S  S21  1  0.32920300  0.01212500  0.26979600  1
  O  O22  1  0.06257900  0.58390100  0.14917600  1
  O  O23  1  0.43742100  0.58390100  0.64917600  1
  O  O24  1  0.93742100  0.41609900  0.85082400  1
  O  O25  1  0.56257900  0.41609900  0.35082400  1
  O  O26  1  0.97470300  0.37010800  0.39208800  1
  O  O27  1  0.52529700  0.37010800  0.89208800  1
  O  O28  1  0.02529700  0.62989200  0.60791200  1
  O  O29  1  0.47470300  0.62989200  0.10791200  1
  O  O30  1  0.12981600  0.54616200  0.38520400  1
  O  O31  1  0.37018400  0.54616200  0.88520400  1
  O  O32  1  0.87018400  0.45383800  0.61479600  1
  O  O33  1  0.62981600  0.45383800  0.11479600  1
  O  O34  1  0.10514500  0.11339500  0.35653100  1
  O  O35  1  0.39485500  0.11339500  0.85653100  1
  O  O36  1  0.89485500  0.88660500  0.64346900  1
  O  O37  1  0.60514500  0.88660500  0.14346900  1
  O  O38  1  0.79833500  0.67240000  0.30404600  1
  O  O39  1  0.70166500  0.67240000  0.80404600  1
  O  O40  1  0.20166500  0.32760000  0.69595400  1
  O  O41  1  0.29833500  0.32760000  0.19595400  1
  O  O42  1  0.92812000  0.01836600  0.19835200  1
  O  O43  1  0.57188000  0.01836600  0.69835200  1
  O  O44  1  0.07188000  0.98163400  0.80164800  1
  O  O45  1  0.42812000  0.98163400  0.30164800  1
  O  O46  1  0.80275500  0.10002700  0.34005200  1
  O  O47  1  0.69724500  0.10002700  0.84005200  1
  O  O48  1  0.19724500  0.89997300  0.65994800  1
  O  O49  1  0.30275500  0.89997300  0.15994800  1
  O  O50  1  0.77835900  0.15855900  0.07915800  1
  O  O51  1  0.72164100  0.15855900  0.57915800  1
  O  O52  1  0.22164100  0.84144100  0.92084200  1
  O  O53  1  0.27835900  0.84144100  0.42084200  1
  O  O54  1  0.88603600  0.76828900  0.98612800  1
  O  O55  1  0.61396400  0.76828900  0.48612800  1
  O  O56  1  0.11396400  0.23171100  0.01387200  1
  O  O57  1  0.38603600  0.23171100  0.51387200  1
