# generated using pymatgen
data_Ca2Mn7Si10H12O35
_symmetry_space_group_name_H-M   'P 1'
_cell_length_a   8.97644700
_cell_length_b   9.03434076
_cell_length_c   18.83712505
_cell_angle_alpha   86.25001810
_cell_angle_beta   83.38641241
_cell_angle_gamma   84.58593154
_symmetry_Int_Tables_number   1
_chemical_formula_structural   Ca2Mn7Si10H12O35
_chemical_formula_sum   'Ca4 Mn14 Si20 H24 O70'
_cell_volume   1508.38665599
_cell_formula_units_Z   2
loop_
 _symmetry_equiv_pos_site_id
 _symmetry_equiv_pos_as_xyz
  1  'x, y, z'
loop_
 _atom_site_type_symbol
 _atom_site_label
 _atom_site_symmetry_multiplicity
 _atom_site_fract_x
 _atom_site_fract_y
 _atom_site_fract_z
 _atom_site_occupancy
  Ca  Ca0  1  0.28845800  0.10022900  0.11923400  1
  Ca  Ca1  1  0.28878600  0.10078600  0.62004600  1
  Ca  Ca2  1  0.71154200  0.89977100  0.88076600  1
  Ca  Ca3  1  0.71121400  0.89921400  0.37995400  1
  Mn  Mn4  1  0.00045400  0.00158000  0.75040500  1
  Mn  Mn5  1  0.03048100  0.66417800  0.82533700  1
  Mn  Mn6  1  0.99954600  0.99842000  0.24959500  1
  Mn  Mn7  1  0.03245300  0.66348100  0.32474700  1
  Mn  Mn8  1  0.35235600  0.43997500  0.80261500  1
  Mn  Mn9  1  0.32598100  0.77504100  0.21046200  1
  Mn  Mn10  1  0.35193000  0.43952200  0.30229100  1
  Mn  Mn11  1  0.32664000  0.77581500  0.71157300  1
  Mn  Mn12  1  0.67401900  0.22495900  0.78953800  1
  Mn  Mn13  1  0.64764400  0.56002500  0.19738500  1
  Mn  Mn14  1  0.67336000  0.22418500  0.28842700  1
  Mn  Mn15  1  0.64807000  0.56047800  0.69770900  1
  Mn  Mn16  1  0.96951900  0.33582200  0.17466300  1
  Mn  Mn17  1  0.96754700  0.33651900  0.67525300  1
  Si  Si18  1  0.03621400  0.28281000  0.84557700  1
  Si  Si19  1  0.03704300  0.27951000  0.34295500  1
  Si  Si20  1  0.32225100  0.08083000  0.80716800  1
  Si  Si21  1  0.24586100  0.73422700  0.05100900  1
  Si  Si22  1  0.32197800  0.07949000  0.30710700  1
  Si  Si23  1  0.35934200  0.77298800  0.88651800  1
  Si  Si24  1  0.34344600  0.44423600  0.12712200  1
  Si  Si25  1  0.24770300  0.73437100  0.55150400  1
  Si  Si26  1  0.35923200  0.77307300  0.38643800  1
  Si  Si27  1  0.34559000  0.44413800  0.62815900  1
  Si  Si28  1  0.65655400  0.55576400  0.87287800  1
  Si  Si29  1  0.64065800  0.22701200  0.11348200  1
  Si  Si30  1  0.75413900  0.26577300  0.94899100  1
  Si  Si31  1  0.65441000  0.55586200  0.37184100  1
  Si  Si32  1  0.64076800  0.22692700  0.61356200  1
  Si  Si33  1  0.67774900  0.91917000  0.19283200  1
  Si  Si34  1  0.75229700  0.26562900  0.44849600  1
  Si  Si35  1  0.67802200  0.92051000  0.69289300  1
  Si  Si36  1  0.96378600  0.71719000  0.15442300  1
  Si  Si37  1  0.96295700  0.72049000  0.65704500  1
  H  H38  1  0.03427700  0.93341500  0.88859400  1
  H  H39  1  0.01774000  0.65146400  0.47866900  1
  H  H40  1  0.02464600  0.49092200  0.55723800  1
  H  H41  1  0.03442100  0.93750900  0.38747700  1
  H  H42  1  0.22910300  0.45639000  0.94071400  1
  H  H43  1  0.31239900  0.04434900  0.96398200  1
  H  H44  1  0.32151100  0.21701100  0.96496900  1
  H  H45  1  0.22986200  0.46806800  0.43778100  1
  H  H46  1  0.31295500  0.04554600  0.46402700  1
  H  H47  1  0.39830800  0.45455100  0.95322600  1
  H  H48  1  0.32339900  0.21851500  0.46483300  1
  H  H49  1  0.40014000  0.45170300  0.45175200  1
  H  H50  1  0.60169200  0.54544900  0.04677400  1
  H  H51  1  0.67848900  0.78298900  0.03503100  1
  H  H52  1  0.59986000  0.54829700  0.54824800  1
  H  H53  1  0.68760100  0.95565100  0.03601800  1
  H  H54  1  0.77089700  0.54361000  0.05928600  1
  H  H55  1  0.67660100  0.78148500  0.53516700  1
  H  H56  1  0.68704500  0.95445400  0.53597300  1
  H  H57  1  0.77013800  0.53193200  0.56221900  1
  H  H58  1  0.96572300  0.06658500  0.11140600  1
  H  H59  1  0.96557900  0.06249100  0.61252300  1
  H  H60  1  0.97535400  0.50907800  0.44276200  1
  H  H61  1  0.98226000  0.34853600  0.52133100  1
  O  O62  1  0.02445000  0.10886700  0.14428100  1
  O  O63  1  0.11349000  0.43849000  0.82628300  1
  O  O64  1  0.17109900  0.14763800  0.85804100  1
  O  O65  1  0.06706300  0.71213700  0.07607900  1
  O  O66  1  0.02638000  0.10561200  0.64420100  1
  O  O67  1  0.06120700  0.76277400  0.21721100  1
  O  O68  1  0.05223700  0.58001000  0.44177900  1
  O  O69  1  0.11469800  0.43201100  0.31893700  1
  O  O70  1  0.16930600  0.14405300  0.35845300  1
  O  O71  1  0.19735800  0.35363800  0.14493700  1
  O  O72  1  0.06649400  0.70691200  0.57680700  1
  O  O73  1  0.06505700  0.76638400  0.71744900  1
  O  O74  1  0.28084900  0.69196600  0.82788800  1
  O  O75  1  0.26352400  0.00619100  0.23947600  1
  O  O76  1  0.25678000  0.78598900  0.96458700  1
  O  O77  1  0.31965500  0.12446700  0.99555700  1
  O  O78  1  0.32908100  0.40831000  0.92625800  1
  O  O79  1  0.20002400  0.35362700  0.64746300  1
  O  O80  1  0.33752900  0.56487600  0.05638200  1
  O  O81  1  0.43446900  0.21122400  0.78680800  1
  O  O82  1  0.31064000  0.84644300  0.10024900  1
  O  O83  1  0.28364600  0.69358000  0.32656700  1
  O  O84  1  0.26433500  0.00645200  0.73965500  1
  O  O85  1  0.25763400  0.78837400  0.46536800  1
  O  O86  1  0.31706700  0.12631900  0.49572400  1
  O  O87  1  0.40172400  0.94465600  0.85971200  1
  O  O88  1  0.32716500  0.40824000  0.42595800  1
  O  O89  1  0.39685200  0.53042400  0.19276000  1
  O  O90  1  0.33669900  0.56486700  0.55731700  1
  O  O91  1  0.43381800  0.21010200  0.28710200  1
  O  O92  1  0.47710200  0.31357700  0.09799800  1
  O  O93  1  0.30885700  0.84707700  0.60108400  1
  O  O94  1  0.52289800  0.68642300  0.90200200  1
  O  O95  1  0.40259100  0.94466400  0.36002900  1
  O  O96  1  0.60314800  0.46957600  0.80724000  1
  O  O97  1  0.39849500  0.53155000  0.69337700  1
  O  O98  1  0.59827600  0.05534400  0.14028800  1
  O  O99  1  0.47852400  0.31504600  0.59704900  1
  O  O100  1  0.68936000  0.15355700  0.89975100  1
  O  O101  1  0.52147600  0.68495400  0.40295100  1
  O  O102  1  0.56553100  0.78877600  0.21319200  1
  O  O103  1  0.66247100  0.43512400  0.94361800  1
  O  O104  1  0.60150600  0.46845000  0.30662300  1
  O  O105  1  0.67091900  0.59169000  0.07374200  1
  O  O106  1  0.59740900  0.05533600  0.63997100  1
  O  O107  1  0.68034500  0.87553300  0.00444300  1
  O  O108  1  0.74322000  0.21401100  0.03541300  1
  O  O109  1  0.73647600  0.99380900  0.76052400  1
  O  O110  1  0.71915100  0.30803400  0.17211200  1
  O  O111  1  0.69114300  0.15292300  0.39891600  1
  O  O112  1  0.56618200  0.78989800  0.71289800  1
  O  O113  1  0.66330100  0.43513300  0.44268300  1
  O  O114  1  0.80264200  0.64636200  0.85506300  1
  O  O115  1  0.67283500  0.59176000  0.57404200  1
  O  O116  1  0.68293300  0.87368100  0.50427600  1
  O  O117  1  0.74236600  0.21162600  0.53463200  1
  O  O118  1  0.73566500  0.99354800  0.26034500  1
  O  O119  1  0.71635400  0.30642000  0.67343300  1
  O  O120  1  0.93879300  0.23722600  0.78278900  1
  O  O121  1  0.93293700  0.28786300  0.92392100  1
  O  O122  1  0.79997600  0.64637300  0.35253700  1
  O  O123  1  0.82890100  0.85236200  0.14195900  1
  O  O124  1  0.88651000  0.56151000  0.17371700  1
  O  O125  1  0.93494300  0.23361600  0.28255100  1
  O  O126  1  0.97555000  0.89113300  0.85571900  1
  O  O127  1  0.93350600  0.29308800  0.42319300  1
  O  O128  1  0.83069400  0.85594700  0.64154700  1
  O  O129  1  0.88530200  0.56798900  0.68106300  1
  O  O130  1  0.94776300  0.41999000  0.55822100  1
  O  O131  1  0.97362000  0.89438800  0.35579900  1
