# generated using pymatgen
data_KSr3La8Mn12O36
_symmetry_space_group_name_H-M   'P 1'
_cell_length_a   16.67674200
_cell_length_b   5.52132200
_cell_length_c   7.83233625
_cell_angle_alpha   89.41859304
_cell_angle_beta   90.00000000
_cell_angle_gamma   90.00000000
_symmetry_Int_Tables_number   1
_chemical_formula_structural   KSr3La8Mn12O36
_chemical_formula_sum   'K1 Sr3 La8 Mn12 O36'
_cell_volume   721.14608344
_cell_formula_units_Z   1
loop_
 _symmetry_equiv_pos_site_id
 _symmetry_equiv_pos_as_xyz
  1  'x, y, z'
loop_
 _atom_site_type_symbol
 _atom_site_label
 _atom_site_symmetry_multiplicity
 _atom_site_fract_x
 _atom_site_fract_y
 _atom_site_fract_z
 _atom_site_occupancy
  K  K0  1  0.16663300  0.00000000  0.50000000  1
  Sr  Sr1  1  0.83272600  0.00000000  0.00000000  1
  Sr  Sr2  1  0.66756600  0.50000000  0.50000000  1
  Sr  Sr3  1  0.50050900  0.00000000  0.00000000  1
  La  La4  1  0.83376600  0.00000000  0.50000000  1
  La  La5  1  0.33207600  0.50000000  0.50000000  1
  La  La6  1  0.66659000  0.50000000  0.00000000  1
  La  La7  1  0.16576700  0.00000000  0.00000000  1
  La  La8  1  0.50194100  0.00000000  0.50000000  1
  La  La9  1  0.00142400  0.50000000  0.50000000  1
  La  La10  1  0.33203700  0.50000000  0.00000000  1
  La  La11  1  0.99907200  0.50000000  0.00000000  1
  Mn  Mn12  1  0.00052500  0.00049900  0.25057000  1
  Mn  Mn13  1  0.50016300  0.50064000  0.75071200  1
  Mn  Mn14  1  0.83266900  0.50037900  0.24947900  1
  Mn  Mn15  1  0.83266900  0.49962100  0.75052100  1
  Mn  Mn16  1  0.66670000  0.99988800  0.74992200  1
  Mn  Mn17  1  0.66670000  0.00011200  0.25007800  1
  Mn  Mn18  1  0.50016300  0.49936000  0.24928800  1
  Mn  Mn19  1  0.33292800  0.00045000  0.74938200  1
  Mn  Mn20  1  0.33292800  0.99955000  0.25061800  1
  Mn  Mn21  1  0.16696300  0.49970500  0.25305700  1
  Mn  Mn22  1  0.16696300  0.50029500  0.74694300  1
  Mn  Mn23  1  0.00052500  0.99950100  0.74943000  1
  O  O24  1  0.90995500  0.22924000  0.72191200  1
  O  O25  1  0.98734500  0.00000000  0.00000000  1
  O  O26  1  0.90995500  0.77076000  0.27808800  1
  O  O27  1  0.74202500  0.72464000  0.22434800  1
  O  O28  1  0.92540000  0.72305600  0.72498500  1
  O  O29  1  0.82215500  0.50000000  0.50000000  1
  O  O30  1  0.85013600  0.50000000  0.00000000  1
  O  O31  1  0.74202500  0.27536000  0.77565200  1
  O  O32  1  0.92540000  0.27694400  0.27501500  1
  O  O33  1  0.57463500  0.22608600  0.72386300  1
  O  O34  1  0.75721000  0.23016600  0.23119400  1
  O  O35  1  0.65383300  0.00000000  0.00000000  1
  O  O36  1  0.68327800  0.00000000  0.50000000  1
  O  O37  1  0.57463500  0.77391400  0.27613700  1
  O  O38  1  0.75721000  0.76983400  0.76880600  1
  O  O39  1  0.40762300  0.72236700  0.23065700  1
  O  O40  1  0.58937400  0.73019400  0.72977200  1
  O  O41  1  0.48208300  0.50000000  0.50000000  1
  O  O42  1  0.51668600  0.50000000  0.00000000  1
  O  O43  1  0.40762300  0.27763300  0.76934300  1
  O  O44  1  0.58937400  0.26980600  0.27022800  1
  O  O45  1  0.24646900  0.23904300  0.74212000  1
  O  O46  1  0.42297500  0.23138300  0.23289700  1
  O  O47  1  0.31689600  0.00000000  0.00000000  1
  O  O48  1  0.35196400  0.00000000  0.50000000  1
  O  O49  1  0.24646900  0.76095700  0.25788000  1
  O  O50  1  0.42297500  0.76861700  0.76710300  1
  O  O51  1  0.07395200  0.72319800  0.22199000  1
  O  O52  1  0.26132300  0.71867900  0.73629400  1
  O  O53  1  0.14986900  0.50000000  0.50000000  1
  O  O54  1  0.18183900  0.50000000  0.00000000  1
  O  O55  1  0.07395200  0.27680200  0.77801000  1
  O  O56  1  0.26132300  0.28132100  0.26370600  1
  O  O57  1  0.08780000  0.23505000  0.21356200  1
  O  O58  1  0.00642700  0.00000000  0.50000000  1
  O  O59  1  0.08780000  0.76495000  0.78643800  1
