# generated using pymatgen
data_V4NiS8
_symmetry_space_group_name_H-M   'P 1'
_cell_length_a   6.47286281
_cell_length_b   6.47286281
_cell_length_c   7.86673383
_cell_angle_alpha   53.36553755
_cell_angle_beta   53.36553755
_cell_angle_gamma   61.50082397
_symmetry_Int_Tables_number   1
_chemical_formula_structural   V4NiS8
_chemical_formula_sum   'V4 Ni1 S8'
_cell_volume   208.45655170
_cell_formula_units_Z   1
loop_
 _symmetry_equiv_pos_site_id
 _symmetry_equiv_pos_as_xyz
  1  'x, y, z'
loop_
 _atom_site_type_symbol
 _atom_site_label
 _atom_site_symmetry_multiplicity
 _atom_site_fract_x
 _atom_site_fract_y
 _atom_site_fract_z
 _atom_site_occupancy
  V  V0  1  0.28612700  0.71387300  0.00000000  1
  V  V1  1  0.71387300  0.28612700  0.00000000  1
  V  V2  1  0.26890500  0.26890500  0.47198000  1
  V  V3  1  0.73109500  0.73109500  0.52802000  1
  Ni  Ni4  1  0.00000000  0.00000000  0.50000000  1
  S  S5  1  0.02821800  0.02821800  0.17095600  1
  S  S6  1  0.97178200  0.97178200  0.82904400  1
  S  S7  1  0.55646800  0.55646800  0.16667100  1
  S  S8  1  0.44353200  0.44353200  0.83332900  1
  S  S9  1  0.54081800  0.04098000  0.67296600  1
  S  S10  1  0.95902000  0.45918200  0.32703400  1
  S  S11  1  0.04098000  0.54081800  0.67296600  1
  S  S12  1  0.45918200  0.95902000  0.32703400  1
