# generated using pymatgen
data_Ca2Cu2Si3(HO3)4
_symmetry_space_group_name_H-M   'P 1'
_cell_length_a   13.30996100
_cell_length_b   5.45221000
_cell_length_c   7.10363101
_cell_angle_alpha   86.80726539
_cell_angle_beta   90.00000000
_cell_angle_gamma   90.00000000
_symmetry_Int_Tables_number   1
_chemical_formula_structural   Ca2Cu2Si3(HO3)4
_chemical_formula_sum   'Ca4 Cu4 Si6 H8 O24'
_cell_volume   514.70114194
_cell_formula_units_Z   2
loop_
 _symmetry_equiv_pos_site_id
 _symmetry_equiv_pos_as_xyz
  1  'x, y, z'
loop_
 _atom_site_type_symbol
 _atom_site_label
 _atom_site_symmetry_multiplicity
 _atom_site_fract_x
 _atom_site_fract_y
 _atom_site_fract_z
 _atom_site_occupancy
  Ca  Ca0  1  0.60546600  0.95557000  0.12303900  1
  Ca  Ca1  1  0.10546600  0.04443000  0.87696100  1
  Ca  Ca2  1  0.39453400  0.04443000  0.87696100  1
  Ca  Ca3  1  0.89453400  0.95557000  0.12303900  1
  Cu  Cu4  1  0.75000000  0.77683900  0.48138500  1
  Cu  Cu5  1  0.25000000  0.22316100  0.51861500  1
  Cu  Cu6  1  0.75000000  0.29248600  0.56016900  1
  Cu  Cu7  1  0.25000000  0.70751400  0.43983100  1
  Si  Si8  1  0.57701300  0.53889300  0.77751000  1
  Si  Si9  1  0.07701300  0.46110700  0.22249000  1
  Si  Si10  1  0.42298700  0.46110700  0.22249000  1
  Si  Si11  1  0.92298700  0.53889300  0.77751000  1
  Si  Si12  1  0.75000000  0.44765400  0.08556500  1
  Si  Si13  1  0.25000000  0.55234600  0.91443500  1
  H  H14  1  0.59005300  0.99256800  0.64082500  1
  H  H15  1  0.09005300  0.00743200  0.35917500  1
  H  H16  1  0.40994700  0.00743200  0.35917500  1
  H  H17  1  0.90994700  0.99256800  0.64082500  1
  H  H18  1  0.59245000  0.19427300  0.45841300  1
  H  H19  1  0.09245000  0.80572700  0.54158700  1
  H  H20  1  0.40755000  0.80572700  0.54158700  1
  H  H21  1  0.90755000  0.19427300  0.45841300  1
  O  O22  1  0.75000000  0.20647700  0.22734300  1
  O  O23  1  0.25000000  0.79352300  0.77265700  1
  O  O24  1  0.64950300  0.41751600  0.95115000  1
  O  O25  1  0.14950300  0.58248400  0.04885000  1
  O  O26  1  0.35049700  0.58248400  0.04885000  1
  O  O27  1  0.85049700  0.41751600  0.95115000  1
  O  O28  1  0.65127000  0.54644800  0.58491600  1
  O  O29  1  0.15127000  0.45355200  0.41508400  1
  O  O30  1  0.34873000  0.45355200  0.41508400  1
  O  O31  1  0.84873000  0.54644800  0.58491600  1
  O  O32  1  0.75000000  0.71584200  0.17591700  1
  O  O33  1  0.25000000  0.28415800  0.82408300  1
  O  O34  1  0.54952100  0.82789800  0.81377300  1
  O  O35  1  0.04952100  0.17210200  0.18622700  1
  O  O36  1  0.45047900  0.17210200  0.18622700  1
  O  O37  1  0.95047900  0.82789800  0.81377300  1
  O  O38  1  0.51258100  0.64830100  0.25101200  1
  O  O39  1  0.01258100  0.35169900  0.74898800  1
  O  O40  1  0.48741900  0.35169900  0.74898800  1
  O  O41  1  0.98741900  0.64830100  0.25101200  1
  O  O42  1  0.63097000  0.05936900  0.52240300  1
  O  O43  1  0.13097000  0.94063100  0.47759700  1
  O  O44  1  0.36903000  0.94063100  0.47759700  1
  O  O45  1  0.86903000  0.05936900  0.52240300  1
