# generated using pymatgen
data_B3H7N
_symmetry_space_group_name_H-M   'P 1'
_cell_length_a   5.09335100
_cell_length_b   10.16287400
_cell_length_c   10.71472187
_cell_angle_alpha   61.73050356
_cell_angle_beta   90.00000000
_cell_angle_gamma   90.00000000
_symmetry_Int_Tables_number   1
_chemical_formula_structural   B3H7N
_chemical_formula_sum   'B12 H28 N4'
_cell_volume   488.47647774
_cell_formula_units_Z   4
loop_
 _symmetry_equiv_pos_site_id
 _symmetry_equiv_pos_as_xyz
  1  'x, y, z'
loop_
 _atom_site_type_symbol
 _atom_site_label
 _atom_site_symmetry_multiplicity
 _atom_site_fract_x
 _atom_site_fract_y
 _atom_site_fract_z
 _atom_site_occupancy
  B  B0  1  0.95052500  0.76507900  0.70709800  1
  B  B1  1  0.54947500  0.26507900  0.70709800  1
  B  B2  1  0.04947500  0.23492100  0.29290200  1
  B  B3  1  0.45052500  0.73492100  0.29290200  1
  B  B4  1  0.19806700  0.70130600  0.87532700  1
  B  B5  1  0.30193300  0.20130600  0.87532700  1
  B  B6  1  0.80193300  0.29869400  0.12467300  1
  B  B7  1  0.69806700  0.79869400  0.12467300  1
  B  B8  1  0.19425600  0.89122600  0.68343000  1
  B  B9  1  0.30574400  0.39122600  0.68343000  1
  B  B10  1  0.80574400  0.10877400  0.31657000  1
  B  B11  1  0.69425600  0.60877400  0.31657000  1
  H  H12  1  0.17861100  0.79205400  0.63012300  1
  H  H13  1  0.32138900  0.29205400  0.63012300  1
  H  H14  1  0.82138900  0.20794600  0.36987700  1
  H  H15  1  0.67861100  0.70794600  0.36987700  1
  H  H16  1  0.80858500  0.70822300  0.65737400  1
  H  H17  1  0.69141500  0.20822300  0.65737400  1
  H  H18  1  0.19141500  0.29177700  0.34262600  1
  H  H19  1  0.30858500  0.79177700  0.34262600  1
  H  H20  1  0.02468700  0.64129700  0.82542800  1
  H  H21  1  0.47531300  0.14129700  0.82542800  1
  H  H22  1  0.97531300  0.35870300  0.17457200  1
  H  H23  1  0.52468700  0.85870300  0.17457200  1
  H  H24  1  0.36701200  0.60798300  0.90210100  1
  H  H25  1  0.13298800  0.10798300  0.90210100  1
  H  H26  1  0.63298800  0.39201700  0.09789900  1
  H  H27  1  0.86701200  0.89201700  0.09789900  1
  H  H28  1  0.09629500  0.71987300  0.96601000  1
  H  H29  1  0.40370500  0.21987300  0.96601000  1
  H  H30  1  0.90370500  0.28012700  0.03399000  1
  H  H31  1  0.59629500  0.78012700  0.03399000  1
  H  H32  1  0.35221700  0.81635800  0.79703700  1
  H  H33  1  0.14778300  0.31635800  0.79703700  1
  H  H34  1  0.64778300  0.18364200  0.20296300  1
  H  H35  1  0.85221700  0.68364200  0.20296300  1
  H  H36  1  0.34778000  0.98144200  0.60330600  1
  H  H37  1  0.15222000  0.48144200  0.60330600  1
  H  H38  1  0.65222000  0.01855800  0.39669400  1
  H  H39  1  0.84778000  0.51855800  0.39669400  1
  N  N40  1  0.91898800  0.90276200  0.72179300  1
  N  N41  1  0.58101200  0.40276200  0.72179300  1
  N  N42  1  0.08101200  0.09723800  0.27820700  1
  N  N43  1  0.41898800  0.59723800  0.27820700  1
