# generated using pymatgen
data_B3H7CO
_symmetry_space_group_name_H-M   'P 1'
_cell_length_a   5.85162200
_cell_length_b   5.96940802
_cell_length_c   8.84563382
_cell_angle_alpha   76.10273627
_cell_angle_beta   74.18414883
_cell_angle_gamma   77.71263593
_symmetry_Int_Tables_number   1
_chemical_formula_structural   B3H7CO
_chemical_formula_sum   'B6 H14 C2 O2'
_cell_volume   284.97052792
_cell_formula_units_Z   2
loop_
 _symmetry_equiv_pos_site_id
 _symmetry_equiv_pos_as_xyz
  1  'x, y, z'
loop_
 _atom_site_type_symbol
 _atom_site_label
 _atom_site_symmetry_multiplicity
 _atom_site_fract_x
 _atom_site_fract_y
 _atom_site_fract_z
 _atom_site_occupancy
  B  B0  1  0.83456400  0.26997900  0.34698100  1
  B  B1  1  0.59617800  0.38827600  0.23877000  1
  B  B2  1  0.78801000  0.57480400  0.24445200  1
  B  B3  1  0.16536600  0.73614500  0.65067100  1
  B  B4  1  0.38086300  0.61886600  0.77801300  1
  B  B5  1  0.20011000  0.43257500  0.75935900  1
  H  H6  1  0.69688300  0.13393600  0.42262900  1
  H  H7  1  0.91502200  0.32795600  0.44168700  1
  H  H8  1  0.63565800  0.27736300  0.13459200  1
  H  H9  1  0.39856600  0.40762400  0.32542200  1
  H  H10  1  0.63454300  0.59851300  0.15505700  1
  H  H11  1  0.97106700  0.60713300  0.14500600  1
  H  H12  1  0.70830700  0.70551900  0.33708400  1
  H  H13  1  0.30432700  0.86666800  0.56870000  1
  H  H14  1  0.08594400  0.66101700  0.56287300  1
  H  H15  1  0.33382700  0.74448800  0.87424000  1
  H  H16  1  0.58513500  0.58248500  0.70352000  1
  H  H17  1  0.31318100  0.42506400  0.87208700  1
  H  H18  1  0.00298500  0.40172000  0.83964900  1
  H  H19  1  0.30971100  0.29527200  0.67561000  1
  C  C20  1  0.03927800  0.12614300  0.24692000  1
  C  C21  1  0.95711100  0.88128500  0.74781400  1
  O  O22  1  0.80307400  0.99020400  0.82298300  1
  O  O23  1  0.19229200  0.01296200  0.17388200  1
