# generated using pymatgen
data_BeH4NF3
_symmetry_space_group_name_H-M   'P 1'
_cell_length_a   4.48699300
_cell_length_b   5.83048600
_cell_length_c   14.22658859
_cell_angle_alpha   66.22795175
_cell_angle_beta   90.00000000
_cell_angle_gamma   90.00000000
_symmetry_Int_Tables_number   1
_chemical_formula_structural   BeH4NF3
_chemical_formula_sum   'Be4 H16 N4 F12'
_cell_volume   340.60910733
_cell_formula_units_Z   4
loop_
 _symmetry_equiv_pos_site_id
 _symmetry_equiv_pos_as_xyz
  1  'x, y, z'
loop_
 _atom_site_type_symbol
 _atom_site_label
 _atom_site_symmetry_multiplicity
 _atom_site_fract_x
 _atom_site_fract_y
 _atom_site_fract_z
 _atom_site_occupancy
  Be  Be0  1  0.81969700  0.05270300  0.67756200  1
  Be  Be1  1  0.18030300  0.05270300  0.17756200  1
  Be  Be2  1  0.31829700  0.96516600  0.81753000  1
  Be  Be3  1  0.68170300  0.96516600  0.31753000  1
  H  H4  1  0.26837300  0.43338700  0.63781500  1
  H  H5  1  0.73162700  0.43338700  0.13781500  1
  H  H6  1  0.47016400  0.69438300  0.61908100  1
  H  H7  1  0.52983600  0.69438300  0.11908100  1
  H  H8  1  0.08201700  0.70190400  0.61989200  1
  H  H9  1  0.91798300  0.70190400  0.11989200  1
  H  H10  1  0.27200300  0.67180700  0.52338200  1
  H  H11  1  0.72799700  0.67180700  0.02338200  1
  H  H12  1  0.76591500  0.56827200  0.86038400  1
  H  H13  1  0.23408500  0.56827200  0.36038400  1
  H  H14  1  0.57069000  0.30174600  0.88148100  1
  H  H15  1  0.42931000  0.30174600  0.38148100  1
  H  H16  1  0.95946400  0.30396300  0.88016700  1
  H  H17  1  0.04053600  0.30396300  0.38016700  1
  H  H18  1  0.77066000  0.33570500  0.97608800  1
  H  H19  1  0.22934000  0.33570500  0.47608800  1
  N  N20  1  0.27277200  0.62553700  0.60094600  1
  N  N21  1  0.72722800  0.62553700  0.10094600  1
  N  N22  1  0.76591400  0.37665900  0.89912700  1
  N  N23  1  0.23408600  0.37665900  0.39912700  1
  F  F24  1  0.16829200  0.04651800  0.70587200  1
  F  F25  1  0.83170800  0.04651800  0.20587200  1
  F  F26  1  0.74359900  0.31341400  0.60490000  1
  F  F27  1  0.25640100  0.31341400  0.10490000  1
  F  F28  1  0.77290200  0.83841800  0.63991800  1
  F  F29  1  0.22709800  0.83841800  0.13991800  1
  F  F30  1  0.66603600  0.96718500  0.78899700  1
  F  F31  1  0.33396400  0.96718500  0.28899700  1
  F  F32  1  0.23910300  0.70928200  0.89368400  1
  F  F33  1  0.76089700  0.70928200  0.39368400  1
  F  F34  1  0.26849600  0.18494900  0.85197300  1
  F  F35  1  0.73150400  0.18494900  0.35197300  1
