# generated using pymatgen
data_KYH4C4O9
_symmetry_space_group_name_H-M   'P 1'
_cell_length_a   6.25021300
_cell_length_b   6.67613406
_cell_length_c   7.36286564
_cell_angle_alpha   108.02460408
_cell_angle_beta   113.67807180
_cell_angle_gamma   97.94563611
_symmetry_Int_Tables_number   1
_chemical_formula_structural   KYH4C4O9
_chemical_formula_sum   'K1 Y1 H4 C4 O9'
_cell_volume   255.11598895
_cell_formula_units_Z   1
loop_
 _symmetry_equiv_pos_site_id
 _symmetry_equiv_pos_as_xyz
  1  'x, y, z'
loop_
 _atom_site_type_symbol
 _atom_site_label
 _atom_site_symmetry_multiplicity
 _atom_site_fract_x
 _atom_site_fract_y
 _atom_site_fract_z
 _atom_site_occupancy
  K  K0  1  0.15005700  0.66394500  0.39330100  1
  Y  Y1  1  0.99734300  0.00254700  0.99829200  1
  H  H2  1  0.56081300  0.38542900  0.21180000  1
  H  H3  1  0.91288300  0.41056300  0.71620100  1
  H  H4  1  0.34550800  0.19201900  0.69474000  1
  H  H5  1  0.63053400  0.81247100  0.37153800  1
  C  C6  1  0.59066700  0.22584400  0.13999600  1
  C  C7  1  0.03529400  0.47443100  0.89283000  1
  C  C8  1  0.31727400  0.23667400  0.55545000  1
  C  C9  1  0.73245600  0.86084100  0.54926100  1
  O  O10  1  0.41370700  0.05358000  0.05814100  1
  O  O11  1  0.79909300  0.23612700  0.14826200  1
  O  O12  1  0.10461700  0.33494700  0.96898000  1
  O  O13  1  0.09456300  0.67847100  0.00641500  1
  O  O14  1  0.19103600  0.08075000  0.36712100  1
  O  O15  1  0.40881500  0.43365100  0.58915400  1
  O  O16  1  0.63444700  0.94129200  0.66495800  1
  O  O17  1  0.94338100  0.83397200  0.63035200  1
  O  O18  1  0.67071100  0.75284700  0.99240700  1
