# generated using pymatgen
data_CsCuP3H8O13
_symmetry_space_group_name_H-M   'P 1'
_cell_length_a   7.61880100
_cell_length_b   8.68741532
_cell_length_c   9.89103864
_cell_angle_alpha   102.42343876
_cell_angle_beta   90.87452251
_cell_angle_gamma   105.99225961
_symmetry_Int_Tables_number   1
_chemical_formula_structural   CsCuP3H8O13
_chemical_formula_sum   'Cs2 Cu2 P6 H16 O26'
_cell_volume   612.65254431
_cell_formula_units_Z   2
loop_
 _symmetry_equiv_pos_site_id
 _symmetry_equiv_pos_as_xyz
  1  'x, y, z'
loop_
 _atom_site_type_symbol
 _atom_site_label
 _atom_site_symmetry_multiplicity
 _atom_site_fract_x
 _atom_site_fract_y
 _atom_site_fract_z
 _atom_site_occupancy
  Cs  Cs0  1  0.71986700  0.41389300  0.32200100  1
  Cs  Cs1  1  0.28013300  0.58610700  0.67799900  1
  Cu  Cu2  1  0.50000000  0.00000000  0.50000000  1
  Cu  Cu3  1  0.00000000  0.50000000  0.00000000  1
  P  P4  1  0.19561900  0.34942900  0.24406900  1
  P  P5  1  0.80438100  0.65057100  0.75593100  1
  P  P6  1  0.99207700  0.00119400  0.78089000  1
  P  P7  1  0.00792300  0.99880600  0.21911000  1
  P  P8  1  0.27794300  0.27227800  0.94773500  1
  P  P9  1  0.72205700  0.72772200  0.05226500  1
  H  H10  1  0.34681000  0.23287300  0.47249300  1
  H  H11  1  0.65319000  0.76712700  0.52750700  1
  H  H12  1  0.24625100  0.12197500  0.57723100  1
  H  H13  1  0.75374900  0.87802500  0.42276900  1
  H  H14  1  0.61308000  0.99724100  0.74189700  1
  H  H15  1  0.38692000  0.00275900  0.25810300  1
  H  H16  1  0.47145100  0.10054500  0.75502100  1
  H  H17  1  0.52854900  0.89945500  0.24497900  1
  H  H18  1  0.67455900  0.30748400  0.96047500  1
  H  H19  1  0.32544100  0.69251600  0.03952500  1
  H  H20  1  0.80777900  0.19561400  0.93917400  1
  H  H21  1  0.19222100  0.80438600  0.06082600  1
  H  H22  1  0.18486400  0.68992700  0.36229400  1
  H  H23  1  0.81513600  0.31007300  0.63770600  1
  H  H24  1  0.89823600  0.17744600  0.54964600  1
  H  H25  1  0.10176400  0.82255400  0.45035400  1
  O  O26  1  0.12274100  0.48934700  0.22983400  1
  O  O27  1  0.87725900  0.51065300  0.77016600  1
  O  O28  1  0.31051300  0.36153000  0.37275300  1
  O  O29  1  0.68948700  0.63847000  0.62724700  1
  O  O30  1  0.01842000  0.18830700  0.21877900  1
  O  O31  1  0.98158000  0.81169300  0.78122100  1
  O  O32  1  0.31755400  0.30591100  0.11379000  1
  O  O33  1  0.68244600  0.69408900  0.88621000  1
  O  O34  1  0.18699300  0.96750500  0.17844000  1
  O  O35  1  0.81300700  0.03249500  0.82156000  1
  O  O36  1  0.93520900  0.95789800  0.35039400  1
  O  O37  1  0.06479100  0.04210200  0.64960600  1
  O  O38  1  0.85481400  0.91424300  0.08827700  1
  O  O39  1  0.14518600  0.08575700  0.91172300  1
  O  O40  1  0.54345000  0.72251200  0.11542900  1
  O  O41  1  0.45655000  0.27748800  0.88457100  1
  O  O42  1  0.17033600  0.38129500  0.90863600  1
  O  O43  1  0.82966400  0.61870500  0.09136400  1
  O  O44  1  0.63206700  0.82937000  0.45804400  1
  O  O45  1  0.36793300  0.17063000  0.54195600  1
  O  O46  1  0.49031400  0.99611900  0.70051400  1
  O  O47  1  0.50968600  0.00388100  0.29948600  1
  O  O48  1  0.79288500  0.29963800  0.99929000  1
  O  O49  1  0.20711500  0.70036200  0.00071000  1
  O  O50  1  0.80128800  0.23201700  0.54709500  1
  O  O51  1  0.19871200  0.76798300  0.45290500  1
