# generated using pymatgen
data_Ca2B5H2ClO10
_symmetry_space_group_name_H-M   'P 1'
_cell_length_a   6.53458456
_cell_length_b   6.53458456
_cell_length_c   11.53456526
_cell_angle_alpha   89.96870699
_cell_angle_beta   89.96870699
_cell_angle_gamma   121.75276444
_symmetry_Int_Tables_number   1
_chemical_formula_structural   Ca2B5H2ClO10
_chemical_formula_sum   'Ca4 B10 H4 Cl2 O20'
_cell_volume   418.81555892
_cell_formula_units_Z   2
loop_
 _symmetry_equiv_pos_site_id
 _symmetry_equiv_pos_as_xyz
  1  'x, y, z'
loop_
 _atom_site_type_symbol
 _atom_site_label
 _atom_site_symmetry_multiplicity
 _atom_site_fract_x
 _atom_site_fract_y
 _atom_site_fract_z
 _atom_site_occupancy
  Ca  Ca0  1  0.74828800  0.25097200  0.50048200  1
  Ca  Ca1  1  0.25097200  0.74828800  0.00048200  1
  Ca  Ca2  1  0.37150200  0.31282200  0.22609700  1
  Ca  Ca3  1  0.31282200  0.37150200  0.72609700  1
  B  B4  1  0.45044300  0.84151000  0.23943400  1
  B  B5  1  0.84151000  0.45044300  0.73943400  1
  B  B6  1  0.85507300  0.91083500  0.22828100  1
  B  B7  1  0.91083500  0.85507300  0.72828000  1
  B  B8  1  0.01411500  0.62687500  0.27481000  1
  B  B9  1  0.62687500  0.01411500  0.77481000  1
  B  B10  1  0.77883600  0.23755000  0.16394000  1
  B  B11  1  0.23755000  0.77883600  0.66394000  1
  B  B12  1  0.28400800  0.79825300  0.43987200  1
  B  B13  1  0.79825300  0.28400800  0.93987200  1
  H  H14  1  0.75475000  0.80421900  0.46469400  1
  H  H15  1  0.80421900  0.75475000  0.96469400  1
  H  H16  1  0.02653600  0.01586600  0.45979400  1
  H  H17  1  0.01586600  0.02653600  0.95979400  1
  Cl  Cl18  1  0.40921200  0.39225900  0.47570900  1
  Cl  Cl19  1  0.39225900  0.40921200  0.97570900  1
  O  O20  1  0.61291500  0.74300300  0.23324700  1
  O  O21  1  0.74300300  0.61291500  0.73324700  1
  O  O22  1  0.52479700  0.03785100  0.15426900  1
  O  O23  1  0.03785100  0.52479700  0.65426900  1
  O  O24  1  0.46161000  0.93483100  0.35863500  1
  O  O25  1  0.93483100  0.46161000  0.85863500  1
  O  O26  1  0.21485100  0.63947700  0.21048400  1
  O  O27  1  0.63947700  0.21485100  0.71048400  1
  O  O28  1  0.93748500  0.14895500  0.20494900  1
  O  O29  1  0.14895500  0.93748500  0.70494900  1
  O  O30  1  0.86993600  0.35739700  0.05092000  1
  O  O31  1  0.35739700  0.86993600  0.55092000  1
  O  O32  1  0.78511600  0.41329600  0.24711900  1
  O  O33  1  0.41329600  0.78511600  0.74711900  1
  O  O34  1  0.03008400  0.86256200  0.25259300  1
  O  O35  1  0.86256200  0.03008400  0.75259300  1
  O  O36  1  0.05543100  0.62194500  0.40506000  1
  O  O37  1  0.62194500  0.05543100  0.90506000  1
  O  O38  1  0.86787200  0.96802200  0.49090100  1
  O  O39  1  0.96802200  0.86787200  0.99090100  1
