# generated using pymatgen
data_K2MnH4(SO5)2
_symmetry_space_group_name_H-M   'P 1'
_cell_length_a   6.61585100
_cell_length_b   7.44206967
_cell_length_c   10.84026812
_cell_angle_alpha   72.82861566
_cell_angle_beta   73.84513532
_cell_angle_gamma   69.79229884
_symmetry_Int_Tables_number   1
_chemical_formula_structural   K2MnH4(SO5)2
_chemical_formula_sum   'K4 Mn2 H8 S4 O20'
_cell_volume   469.21130885
_cell_formula_units_Z   2
loop_
 _symmetry_equiv_pos_site_id
 _symmetry_equiv_pos_as_xyz
  1  'x, y, z'
loop_
 _atom_site_type_symbol
 _atom_site_label
 _atom_site_symmetry_multiplicity
 _atom_site_fract_x
 _atom_site_fract_y
 _atom_site_fract_z
 _atom_site_occupancy
  K  K0  1  0.78917100  0.74927800  0.39995600  1
  K  K1  1  0.21082900  0.25072200  0.60004400  1
  K  K2  1  0.73543200  0.26559800  0.07382200  1
  K  K3  1  0.26456800  0.73440200  0.92617800  1
  Mn  Mn4  1  0.75424300  0.97280900  0.75122300  1
  Mn  Mn5  1  0.24575700  0.02719100  0.24877700  1
  H  H6  1  0.73087000  0.34044700  0.64266800  1
  H  H7  1  0.26913000  0.65955300  0.35733200  1
  H  H8  1  0.64443300  0.31918500  0.79769300  1
  H  H9  1  0.35556700  0.68081500  0.20230700  1
  H  H10  1  0.64316700  0.67718500  0.70504500  1
  H  H11  1  0.35683300  0.32281500  0.29495500  1
  H  H12  1  0.84089200  0.57716000  0.78556500  1
  H  H13  1  0.15910800  0.42284000  0.21443500  1
  S  S14  1  0.73220100  0.77244000  0.08463700  1
  S  S15  1  0.26779900  0.22756000  0.91536300  1
  S  S16  1  0.74446900  0.22454600  0.42482300  1
  S  S17  1  0.25553100  0.77545400  0.57517700  1
  O  O18  1  0.92634400  0.63249500  0.13685200  1
  O  O19  1  0.07365600  0.36750500  0.86314800  1
  O  O20  1  0.58521800  0.66841700  0.07243400  1
  O  O21  1  0.41478200  0.33158300  0.92756600  1
  O  O22  1  0.81021800  0.89382500  0.95302300  1
  O  O23  1  0.18978200  0.10617500  0.04697700  1
  O  O24  1  0.60648300  0.91066600  0.17606000  1
  O  O25  1  0.39351700  0.08933400  0.82394000  1
  O  O26  1  0.85685700  0.34178200  0.45625000  1
  O  O27  1  0.14314300  0.65821800  0.54375000  1
  O  O28  1  0.53804800  0.35081300  0.37928700  1
  O  O29  1  0.46195200  0.64918700  0.62071300  1
  O  O30  1  0.69032200  0.07105000  0.54512400  1
  O  O31  1  0.30967800  0.92895000  0.45487600  1
  O  O32  1  0.89098900  0.12003800  0.31762700  1
  O  O33  1  0.10901100  0.87996200  0.68237300  1
  O  O34  1  0.77238600  0.27159700  0.72894600  1
  O  O35  1  0.22761400  0.72840300  0.27105400  1
  O  O36  1  0.70903900  0.68822800  0.77361200  1
  O  O37  1  0.29096100  0.31177200  0.22638800  1
