# generated using pymatgen
data_CoHCO3
_symmetry_space_group_name_H-M   'P 1'
_cell_length_a   6.87310100
_cell_length_b   8.10968073
_cell_length_c   9.36169332
_cell_angle_alpha   72.45431312
_cell_angle_beta   81.35658837
_cell_angle_gamma   82.74231060
_symmetry_Int_Tables_number   1
_chemical_formula_structural   CoHCO3
_chemical_formula_sum   'Co6 H6 C6 O18'
_cell_volume   490.06097570
_cell_formula_units_Z   6
loop_
 _symmetry_equiv_pos_site_id
 _symmetry_equiv_pos_as_xyz
  1  'x, y, z'
loop_
 _atom_site_type_symbol
 _atom_site_label
 _atom_site_symmetry_multiplicity
 _atom_site_fract_x
 _atom_site_fract_y
 _atom_site_fract_z
 _atom_site_occupancy
  Co  Co0  1  0.99705500  0.03372500  0.76330200  1
  Co  Co1  1  0.26307000  0.25775100  0.61414900  1
  Co  Co2  1  0.72877500  0.14148100  0.98726200  1
  Co  Co3  1  0.00294500  0.96627500  0.23669800  1
  Co  Co4  1  0.73693000  0.74224900  0.38585100  1
  Co  Co5  1  0.27122500  0.85851900  0.01273800  1
  H  H6  1  0.50823900  0.88651000  0.74301500  1
  H  H7  1  0.84228500  0.44048200  0.71301400  1
  H  H8  1  0.01337700  0.71568200  0.91739900  1
  H  H9  1  0.49176100  0.11349000  0.25698500  1
  H  H10  1  0.15771500  0.55951800  0.28698600  1
  H  H11  1  0.98662300  0.28431800  0.08260100  1
  C  C12  1  0.16140400  0.46315500  0.22329600  1
  C  C13  1  0.42894500  0.23570700  0.18281500  1
  C  C14  1  0.42017700  0.56623100  0.52133700  1
  C  C15  1  0.83859600  0.53684500  0.77670400  1
  C  C16  1  0.57105500  0.76429300  0.81718500  1
  C  C17  1  0.57982300  0.43376900  0.47866300  1
  O  O18  1  0.48010800  0.29094800  0.04558300  1
  O  O19  1  0.68762900  0.66992600  0.73531100  1
  O  O20  1  0.73810800  0.97023100  0.30993100  1
  O  O21  1  0.51989200  0.70905200  0.95441700  1
  O  O22  1  0.31237100  0.33007400  0.26468900  1
  O  O23  1  0.26189200  0.02976900  0.69006900  1
  O  O24  1  0.04277500  0.46113500  0.14228600  1
  O  O25  1  0.73755400  0.04845800  0.83185800  1
  O  O26  1  0.00218400  0.25471200  0.63846700  1
  O  O27  1  0.95722500  0.53886500  0.85771400  1
  O  O28  1  0.26244600  0.95154200  0.16814200  1
  O  O29  1  0.99781600  0.74528800  0.36153300  1
  O  O30  1  0.94350600  0.17383800  0.07986900  1
  O  O31  1  0.54065400  0.27605700  0.51999100  1
  O  O32  1  0.26051400  0.50665200  0.59501100  1
  O  O33  1  0.05649400  0.82616200  0.92013100  1
  O  O34  1  0.45934600  0.72394300  0.48000900  1
  O  O35  1  0.73948600  0.49334800  0.40498900  1
