# generated using pymatgen
data_MgScAu2
_symmetry_space_group_name_H-M   'P 1'
_cell_length_a   11.09025569
_cell_length_b   11.09025569
_cell_length_c   11.09025569
_cell_angle_alpha   121.29783543
_cell_angle_beta   118.28087714
_cell_angle_gamma   90.38496475
_symmetry_Int_Tables_number   1
_chemical_formula_structural   MgScAu2
_chemical_formula_sum   'Mg1 Sc1 Au2'
_cell_volume   966.73220249
_cell_formula_units_Z   1
loop_
 _symmetry_equiv_pos_site_id
 _symmetry_equiv_pos_as_xyz
  1  'x, y, z'
loop_
 _atom_site_type_symbol
 _atom_site_label
 _atom_site_symmetry_multiplicity
 _atom_site_fract_x
 _atom_site_fract_y
 _atom_site_fract_z
 _atom_site_occupancy
  Mg  Mg0  1  0.00000000  0.00000000  0.00000000  1
  Sc  Sc1  1  0.00000000  0.50000000  0.50000000  1
  Au  Au2  1  0.00000000  0.25939000  0.25939000  1
  Au  Au3  1  0.00000000  0.74061000  0.74061000  1
