# generated using pymatgen
data_K2ZnCr4(HO4)4
_symmetry_space_group_name_H-M   'P 1'
_cell_length_a   6.89690600
_cell_length_b   7.84235674
_cell_length_c   8.00459985
_cell_angle_alpha   89.32577765
_cell_angle_beta   98.31622806
_cell_angle_gamma   115.88429003
_symmetry_Int_Tables_number   1
_chemical_formula_structural   K2ZnCr4(HO4)4
_chemical_formula_sum   'K2 Zn1 Cr4 H4 O16'
_cell_volume   384.77968739
_cell_formula_units_Z   1
loop_
 _symmetry_equiv_pos_site_id
 _symmetry_equiv_pos_as_xyz
  1  'x, y, z'
loop_
 _atom_site_type_symbol
 _atom_site_label
 _atom_site_symmetry_multiplicity
 _atom_site_fract_x
 _atom_site_fract_y
 _atom_site_fract_z
 _atom_site_occupancy
  K  K0  1  0.70813400  0.26478200  0.82604500  1
  K  K1  1  0.29186600  0.73521800  0.17395500  1
  Zn  Zn2  1  0.00000000  0.00000000  0.50000000  1
  Cr  Cr3  1  0.27605500  0.50615800  0.66700100  1
  Cr  Cr4  1  0.72394500  0.49384200  0.33299900  1
  Cr  Cr5  1  0.73970600  0.79457500  0.84335900  1
  Cr  Cr6  1  0.26029400  0.20542500  0.15664100  1
  H  H7  1  0.73653600  0.14446400  0.38890300  1
  H  H8  1  0.26346400  0.85553600  0.61109700  1
  H  H9  1  0.82657900  0.09194400  0.23554000  1
  H  H10  1  0.17342100  0.90805600  0.76446000  1
  O  O11  1  0.15231500  0.53664700  0.81297900  1
  O  O12  1  0.84768500  0.46335300  0.18702100  1
  O  O13  1  0.84495600  0.71420000  0.41254400  1
  O  O14  1  0.15504400  0.28580000  0.58745600  1
  O  O15  1  0.28655400  0.65816200  0.52171200  1
  O  O16  1  0.71344600  0.34183800  0.47828800  1
  O  O17  1  0.55023500  0.55844100  0.76225400  1
  O  O18  1  0.44976500  0.44155900  0.23774600  1
  O  O19  1  0.96164800  0.78463600  0.93396300  1
  O  O20  1  0.03835200  0.21536400  0.06603700  1
  O  O21  1  0.62877100  0.86482200  0.97585200  1
  O  O22  1  0.37122900  0.13517800  0.02414800  1
  O  O23  1  0.79345200  0.94017300  0.68645500  1
  O  O24  1  0.20654800  0.05982700  0.31354500  1
  O  O25  1  0.75898700  0.04094200  0.33667400  1
  O  O26  1  0.24101300  0.95905800  0.66332600  1
