# generated using pymatgen
data_YGaPd2
_symmetry_space_group_name_H-M   'P 1'
_cell_length_a   11.39366970
_cell_length_b   11.39366970
_cell_length_c   11.39366970
_cell_angle_alpha   129.69542457
_cell_angle_beta   116.97314004
_cell_angle_gamma   84.70526290
_symmetry_Int_Tables_number   1
_chemical_formula_structural   YGaPd2
_chemical_formula_sum   'Y1 Ga1 Pd2'
_cell_volume   971.33494671
_cell_formula_units_Z   1
loop_
 _symmetry_equiv_pos_site_id
 _symmetry_equiv_pos_as_xyz
  1  'x, y, z'
loop_
 _atom_site_type_symbol
 _atom_site_label
 _atom_site_symmetry_multiplicity
 _atom_site_fract_x
 _atom_site_fract_y
 _atom_site_fract_z
 _atom_site_occupancy
  Y  Y0  1  0.00000000  0.50000000  0.50000000  1
  Ga  Ga1  1  0.00000000  0.00000000  0.00000000  1
  Pd  Pd2  1  0.00000000  0.25016200  0.25016200  1
  Pd  Pd3  1  0.00000000  0.74983800  0.74983800  1
