# generated using pymatgen
data_CoPH6NO5
_symmetry_space_group_name_H-M   'P 1'
_cell_length_a   7.42778340
_cell_length_b   8.93354808
_cell_length_c   7.43781366
_cell_angle_alpha   90.01156862
_cell_angle_beta   99.32554584
_cell_angle_gamma   89.98520419
_symmetry_Int_Tables_number   1
_chemical_formula_structural   CoPH6NO5
_chemical_formula_sum   'Co4 P4 H24 N4 O20'
_cell_volume   487.02403157
_cell_formula_units_Z   4
loop_
 _symmetry_equiv_pos_site_id
 _symmetry_equiv_pos_as_xyz
  1  'x, y, z'
loop_
 _atom_site_type_symbol
 _atom_site_label
 _atom_site_symmetry_multiplicity
 _atom_site_fract_x
 _atom_site_fract_y
 _atom_site_fract_z
 _atom_site_occupancy
  Co  Co0  1  0.01186700  0.02602600  0.51175800  1
  Co  Co1  1  0.51166800  0.97456900  0.51176700  1
  Co  Co2  1  0.51062900  0.02525400  0.01156500  1
  Co  Co3  1  0.01067000  0.97451400  0.01186300  1
  P  P4  1  0.29617300  0.80816000  0.79671900  1
  P  P5  1  0.79650000  0.80886600  0.29631500  1
  P  P6  1  0.29663900  0.19097100  0.29622800  1
  P  P7  1  0.79628700  0.19182600  0.79678200  1
  H  H8  1  0.66620300  0.54354700  0.16559600  1
  H  H9  1  0.16616700  0.54300600  0.66608300  1
  H  H10  1  0.16630700  0.45647400  0.16558400  1
  H  H11  1  0.66619900  0.45712200  0.66605600  1
  H  H12  1  0.48608600  0.54741300  0.98609000  1
  H  H13  1  0.98648300  0.54750600  0.48577900  1
  H  H14  1  0.48654600  0.45256500  0.48584100  1
  H  H15  1  0.98619200  0.45264400  0.98613000  1
  H  H16  1  0.64811700  0.41214700  0.99743900  1
  H  H17  1  0.14781500  0.41171000  0.49746900  1
  H  H18  1  0.49718200  0.41248700  0.14831400  1
  H  H19  1  0.99695300  0.41224700  0.64784900  1
  H  H20  1  0.49694200  0.58791400  0.64783200  1
  H  H21  1  0.99730800  0.58759400  0.14839900  1
  H  H22  1  0.14819700  0.58785800  0.99746500  1
  H  H23  1  0.64776000  0.58835900  0.49744000  1
  H  H24  1  0.36716500  0.18659200  0.72900500  1
  H  H25  1  0.86632500  0.18495900  0.22730400  1
  H  H26  1  0.22615500  0.18529900  0.86465000  1
  H  H27  1  0.72953600  0.18766300  0.36766700  1
  H  H28  1  0.72639400  0.81451200  0.86477200  1
  H  H29  1  0.22966800  0.81238600  0.36761900  1
  H  H30  1  0.36634600  0.81501000  0.22735900  1
  H  H31  1  0.86693600  0.81381700  0.72864200  1
  N  N32  1  0.57453400  0.47792000  0.07452500  1
  N  N33  1  0.07453000  0.47768900  0.57441100  1
  N  N34  1  0.07462600  0.52212700  0.07457700  1
  N  N35  1  0.57453000  0.52241000  0.57442500  1
  O  O36  1  0.63960400  0.83815600  0.14035800  1
  O  O37  1  0.14046500  0.83799900  0.63941500  1
  O  O38  1  0.13924200  0.16168300  0.14076600  1
  O  O39  1  0.64033600  0.16226500  0.63955000  1
  O  O40  1  0.32258000  0.63587700  0.82278000  1
  O  O41  1  0.82527600  0.63685900  0.32179200  1
  O  O42  1  0.32561100  0.36293600  0.32156200  1
  O  O43  1  0.82303700  0.36406200  0.82273500  1
  O  O44  1  0.35679700  0.20060200  0.85861000  1
  O  O45  1  0.85941200  0.20154000  0.35750100  1
  O  O46  1  0.35947900  0.79802000  0.35744500  1
  O  O47  1  0.85700800  0.79944900  0.85830700  1
  O  O48  1  0.48062800  0.88213300  0.76259000  1
  O  O49  1  0.97963200  0.88478100  0.26181300  1
  O  O50  1  0.26002500  0.88165700  0.98041700  1
  O  O51  1  0.76093800  0.88138900  0.48116400  1
  O  O52  1  0.76024300  0.11845500  0.98051500  1
  O  O53  1  0.26163600  0.11865000  0.48134400  1
  O  O54  1  0.47942100  0.11471000  0.26129100  1
  O  O55  1  0.98062000  0.11761700  0.76235200  1
