# generated using pymatgen
data_HfP2(H3O5)2
_symmetry_space_group_name_H-M   'P 1'
_cell_length_a   6.63638300
_cell_length_b   5.41369200
_cell_length_c   12.53117783
_cell_angle_alpha   81.07444971
_cell_angle_beta   90.00000000
_cell_angle_gamma   90.00000000
_symmetry_Int_Tables_number   1
_chemical_formula_structural   HfP2(H3O5)2
_chemical_formula_sum   'Hf2 P4 H12 O20'
_cell_volume   444.76009048
_cell_formula_units_Z   2
loop_
 _symmetry_equiv_pos_site_id
 _symmetry_equiv_pos_as_xyz
  1  'x, y, z'
loop_
 _atom_site_type_symbol
 _atom_site_label
 _atom_site_symmetry_multiplicity
 _atom_site_fract_x
 _atom_site_fract_y
 _atom_site_fract_z
 _atom_site_occupancy
  Hf  Hf0  1  0.24979300  0.79940300  0.87483700  1
  Hf  Hf1  1  0.74979300  0.20059700  0.12516300  1
  P  P2  1  0.24931500  0.24014100  0.05831700  1
  P  P3  1  0.74931500  0.75985900  0.94168300  1
  P  P4  1  0.32807700  0.34743400  0.69840800  1
  P  P5  1  0.82807700  0.65256600  0.30159200  1
  H  H6  1  0.64428000  0.48893400  0.67306600  1
  H  H7  1  0.14428000  0.51106600  0.32693400  1
  H  H8  1  0.28680100  0.59621000  0.55050000  1
  H  H9  1  0.78680100  0.40379000  0.44950000  1
  H  H10  1  0.31343100  0.16681700  0.28912100  1
  H  H11  1  0.81343100  0.83318300  0.71087900  1
  H  H12  1  0.32870000  0.95218500  0.59858800  1
  H  H13  1  0.82870000  0.04781500  0.40141200  1
  H  H14  1  0.15305600  0.13288500  0.38437000  1
  H  H15  1  0.65305600  0.86711500  0.61563000  1
  H  H16  1  0.88894700  0.00875300  0.52475100  1
  H  H17  1  0.38894700  0.99124700  0.47524900  1
  O  O18  1  0.25128200  0.06040400  0.97392900  1
  O  O19  1  0.75128200  0.93959600  0.02607100  1
  O  O20  1  0.43593800  0.19476500  0.13298800  1
  O  O21  1  0.93593800  0.80523500  0.86701200  1
  O  O22  1  0.05981100  0.19591900  0.12907600  1
  O  O23  1  0.55981100  0.80408100  0.87092400  1
  O  O24  1  0.25102800  0.51250000  0.99952200  1
  O  O25  1  0.75102800  0.48750000  0.00047800  1
  O  O26  1  0.25579400  0.07923300  0.73389100  1
  O  O27  1  0.75579400  0.92076700  0.26610900  1
  O  O28  1  0.26166800  0.53753200  0.76916200  1
  O  O29  1  0.76166800  0.46246800  0.23083800  1
  O  O30  1  0.56585400  0.33058000  0.69282000  1
  O  O31  1  0.06585400  0.66942000  0.30718000  1
  O  O32  1  0.23945000  0.42258800  0.58124800  1
  O  O33  1  0.73945000  0.57741200  0.41875200  1
  O  O34  1  0.28427600  0.20892200  0.36107100  1
  O  O35  1  0.78427600  0.79107800  0.63892900  1
  O  O36  1  0.90249900  0.12570500  0.45570100  1
  O  O37  1  0.40249900  0.87429500  0.54429900  1
