# generated using pymatgen
data_Na2H20CO13
_symmetry_space_group_name_H-M   'P 1'
_cell_length_a   7.79079546
_cell_length_b   7.79079546
_cell_length_c   12.60564566
_cell_angle_alpha   69.02768321
_cell_angle_beta   69.02768321
_cell_angle_gamma   69.72871944
_symmetry_Int_Tables_number   1
_chemical_formula_structural   Na2H20CO13
_chemical_formula_sum   'Na4 H40 C2 O26'
_cell_volume   645.84353717
_cell_formula_units_Z   2
loop_
 _symmetry_equiv_pos_site_id
 _symmetry_equiv_pos_as_xyz
  1  'x, y, z'
loop_
 _atom_site_type_symbol
 _atom_site_label
 _atom_site_symmetry_multiplicity
 _atom_site_fract_x
 _atom_site_fract_y
 _atom_site_fract_z
 _atom_site_occupancy
  Na  Na0  1  0.83406400  0.89792100  0.62785500  1
  Na  Na1  1  0.89792100  0.83406400  0.12785500  1
  Na  Na2  1  0.16660100  0.09694900  0.37406700  1
  Na  Na3  1  0.09694900  0.16660100  0.87406700  1
  H  H4  1  0.42957200  0.93779000  0.18034700  1
  H  H5  1  0.93779000  0.42957200  0.68034700  1
  H  H6  1  0.37968100  0.16277000  0.12852000  1
  H  H7  1  0.16277000  0.37968100  0.62852000  1
  H  H8  1  0.61943800  0.84643200  0.87912000  1
  H  H9  1  0.84643200  0.61943800  0.37912000  1
  H  H10  1  0.56821400  0.06752700  0.81235200  1
  H  H11  1  0.06752700  0.56821400  0.31235200  1
  H  H12  1  0.84989500  0.30338300  0.52047700  1
  H  H13  1  0.30338300  0.84989500  0.02047700  1
  H  H14  1  0.99258100  0.21361200  0.59768600  1
  H  H15  1  0.21361200  0.99258100  0.09768600  1
  H  H16  1  0.02318300  0.76916300  0.40189800  1
  H  H17  1  0.76916300  0.02318300  0.90189800  1
  H  H18  1  0.16804700  0.70116600  0.47862900  1
  H  H19  1  0.70116600  0.16804700  0.97862900  1
  H  H20  1  0.36399400  0.40515900  0.34910300  1
  H  H21  1  0.40515900  0.36399400  0.84910300  1
  H  H22  1  0.36672600  0.38829500  0.22721300  1
  H  H23  1  0.38829500  0.36672600  0.72721300  1
  H  H24  1  0.68162600  0.59651100  0.61720000  1
  H  H25  1  0.59651100  0.68162600  0.11720000  1
  H  H26  1  0.63409900  0.58786600  0.75263700  1
  H  H27  1  0.58786600  0.63409900  0.25263700  1
  H  H28  1  0.20454200  0.66433400  0.65954200  1
  H  H29  1  0.66433400  0.20454200  0.15954200  1
  H  H30  1  0.14946300  0.80823600  0.73635100  1
  H  H31  1  0.80823600  0.14946300  0.23635100  1
  H  H32  1  0.77580100  0.34213100  0.32824100  1
  H  H33  1  0.34213100  0.77580100  0.82824100  1
  H  H34  1  0.95666700  0.36340900  0.21730200  1
  H  H35  1  0.36340900  0.95666700  0.71730200  1
  H  H36  1  0.54254600  0.81165100  0.43970900  1
  H  H37  1  0.81165100  0.54254600  0.93970900  1
  H  H38  1  0.57018700  0.00391700  0.34094900  1
  H  H39  1  0.00391700  0.57018700  0.84094900  1
  H  H40  1  0.48384000  0.19340600  0.56344500  1
  H  H41  1  0.19340600  0.48384000  0.06344500  1
  H  H42  1  0.51183000  0.01531300  0.52221000  1
  H  H43  1  0.01531300  0.51183100  0.02221000  1
  C  C44  1  0.51462100  0.50269500  0.48558400  1
  C  C45  1  0.50269500  0.51462100  0.98558400  1
  O  O46  1  0.32216000  0.05483700  0.17627800  1
  O  O47  1  0.05483700  0.32216000  0.67627800  1
  O  O48  1  0.67544400  0.95282900  0.82252200  1
  O  O49  1  0.95282900  0.67544400  0.32252200  1
  O  O50  1  0.93979200  0.18379600  0.54703100  1
  O  O51  1  0.18379600  0.93979200  0.04703100  1
  O  O52  1  0.06873100  0.80973700  0.45179400  1
  O  O53  1  0.80973700  0.06873100  0.95179400  1
  O  O54  1  0.28597800  0.38669900  0.30850700  1
  O  O55  1  0.38669900  0.28597800  0.80850700  1
  O  O56  1  0.73093800  0.60967800  0.67586800  1
  O  O57  1  0.60967800  0.73093800  0.17586800  1
  O  O58  1  0.09633100  0.73189200  0.71238300  1
  O  O59  1  0.73189200  0.09633100  0.21238300  1
  O  O60  1  0.89925600  0.26949900  0.28708800  1
  O  O61  1  0.26949900  0.89925600  0.78708800  1
  O  O62  1  0.48400500  0.94967700  0.41773300  1
  O  O63  1  0.94967700  0.48400500  0.91773300  1
  O  O64  1  0.52502900  0.05436700  0.58621300  1
  O  O65  1  0.05436700  0.52502900  0.08621300  1
  O  O66  1  0.64861600  0.55758300  0.49410700  1
  O  O67  1  0.55758300  0.64861600  0.99410700  1
  O  O68  1  0.53574000  0.45649500  0.39176800  1
  O  O69  1  0.45649500  0.53574000  0.89176800  1
  O  O70  1  0.36001400  0.49303900  0.57199800  1
  O  O71  1  0.49303900  0.36001400  0.07199800  1
