# generated using pymatgen
data_P3H18RuC6(SO)6
_symmetry_space_group_name_H-M   'P 1'
_cell_length_a   9.15360042
_cell_length_b   9.15360042
_cell_length_c   13.19374744
_cell_angle_alpha   84.25363613
_cell_angle_beta   84.25363613
_cell_angle_gamma   76.69571788
_symmetry_Int_Tables_number   1
_chemical_formula_structural   P3H18RuC6(SO)6
_chemical_formula_sum   'P6 H36 Ru2 C12 S12 O12'
_cell_volume   1067.01022139
_cell_formula_units_Z   2
loop_
 _symmetry_equiv_pos_site_id
 _symmetry_equiv_pos_as_xyz
  1  'x, y, z'
loop_
 _atom_site_type_symbol
 _atom_site_label
 _atom_site_symmetry_multiplicity
 _atom_site_fract_x
 _atom_site_fract_y
 _atom_site_fract_z
 _atom_site_occupancy
  P  P0  1  0.64711200  0.70978900  0.65010200  1
  P  P1  1  0.29021100  0.35288800  0.84989800  1
  P  P2  1  0.35288800  0.29021100  0.34989800  1
  P  P3  1  0.70978900  0.64711200  0.15010200  1
  P  P4  1  0.06638900  0.93361100  0.75000000  1
  P  P5  1  0.93361100  0.06638900  0.25000000  1
  H  H6  1  0.69308800  0.08231100  0.65721700  1
  H  H7  1  0.91768900  0.30691200  0.84278300  1
  H  H8  1  0.30691200  0.91768900  0.34278300  1
  H  H9  1  0.08231100  0.69308800  0.15721700  1
  H  H10  1  0.59309200  0.98394400  0.75503900  1
  H  H11  1  0.01605600  0.40690800  0.74496100  1
  H  H12  1  0.40690800  0.01605600  0.24496100  1
  H  H13  1  0.98394400  0.59309200  0.25503900  1
  H  H14  1  0.52182300  0.03432100  0.63079500  1
  H  H15  1  0.96567900  0.47817700  0.86920500  1
  H  H16  1  0.47817700  0.96567900  0.36920500  1
  H  H17  1  0.03432100  0.52182300  0.13079500  1
  H  H18  1  0.89048200  0.40574800  0.53041800  1
  H  H19  1  0.59425200  0.10951800  0.96958200  1
  H  H20  1  0.10951800  0.59425200  0.46958200  1
  H  H21  1  0.40574800  0.89048200  0.03041800  1
  H  H22  1  0.68986900  0.45608500  0.52605000  1
  H  H23  1  0.54391500  0.31013100  0.97395000  1
  H  H24  1  0.31013100  0.54391500  0.47395000  1
  H  H25  1  0.45608500  0.68986900  0.02605000  1
  H  H26  1  0.77068000  0.38824900  0.64575400  1
  H  H27  1  0.61175100  0.22932000  0.85424600  1
  H  H28  1  0.22932000  0.61175100  0.35424600  1
  H  H29  1  0.38824900  0.77068000  0.14575400  1
  H  H30  1  0.07521400  0.20487200  0.54029200  1
  H  H31  1  0.79512800  0.92478600  0.95970800  1
  H  H32  1  0.92478600  0.79512800  0.45970800  1
  H  H33  1  0.20487200  0.07521400  0.04029200  1
  H  H34  1  0.14763500  0.00613800  0.53715700  1
  H  H35  1  0.99386200  0.85236500  0.96284300  1
  H  H36  1  0.85236500  0.99386200  0.46284400  1
  H  H37  1  0.00613800  0.14763500  0.03715700  1
  H  H38  1  0.23350500  0.11461000  0.61091700  1
  H  H39  1  0.88539000  0.76649500  0.88908300  1
  H  H40  1  0.76649500  0.88539000  0.38908300  1
  H  H41  1  0.11461000  0.23350500  0.11091700  1
  Ru  Ru42  1  0.33563900  0.66436100  0.75000000  1
  Ru  Ru43  1  0.66436100  0.33563900  0.25000000  1
  C  C44  1  0.62340500  0.99864200  0.67255600  1
  C  C45  1  0.00135800  0.37659500  0.82744400  1
  C  C46  1  0.37659500  0.00135800  0.32744400  1
  C  C47  1  0.99864200  0.62340500  0.17255600  1
  C  C48  1  0.78355100  0.45412600  0.57241100  1
  C  C49  1  0.54587400  0.21644900  0.92758900  1
  C  C50  1  0.21644900  0.54587400  0.42758900  1
  C  C51  1  0.45412600  0.78355100  0.07241100  1
  C  C52  1  0.12759300  0.10178000  0.58448700  1
  C  C53  1  0.89822000  0.87240700  0.91551300  1
  C  C54  1  0.87240700  0.89822000  0.41551300  1
  C  C55  1  0.10178000  0.12759300  0.08448700  1
  S  S56  1  0.60074800  0.63374700  0.79439400  1
  S  S57  1  0.36625300  0.39925200  0.70560600  1
  S  S58  1  0.39925200  0.36625300  0.20560600  1
  S  S59  1  0.63374700  0.60074800  0.29439400  1
  S  S60  1  0.45238500  0.73088900  0.58435700  1
  S  S61  1  0.26911100  0.54761500  0.91564300  1
  S  S62  1  0.54761500  0.26911100  0.41564300  1
  S  S63  1  0.73088900  0.45238500  0.08435700  1
  S  S64  1  0.26490400  0.90872500  0.81197900  1
  S  S65  1  0.09127500  0.73509600  0.68802100  1
  S  S66  1  0.73509600  0.09127500  0.18802100  1
  S  S67  1  0.90872500  0.26490400  0.31197900  1
  O  O68  1  0.71446800  0.85849200  0.63636700  1
  O  O69  1  0.14150800  0.28553200  0.86363300  1
  O  O70  1  0.28553200  0.14150800  0.36363300  1
  O  O71  1  0.85849200  0.71446800  0.13636700  1
  O  O72  1  0.78925400  0.60716000  0.58993200  1
  O  O73  1  0.39284000  0.21074600  0.91006800  1
  O  O74  1  0.21074600  0.39284000  0.41006800  1
  O  O75  1  0.60716000  0.78925400  0.08993200  1
  O  O76  1  0.02212000  0.08022800  0.67218800  1
  O  O77  1  0.91977200  0.97788000  0.82781200  1
  O  O78  1  0.97788000  0.91977200  0.32781200  1
  O  O79  1  0.08022800  0.02212000  0.17218800  1
