# generated using pymatgen
data_K3(MoO3)10
_symmetry_space_group_name_H-M   'P 1'
_cell_length_a   9.74779009
_cell_length_b   9.68994460
_cell_length_c   9.55653511
_cell_angle_alpha   110.15704840
_cell_angle_beta   100.82853056
_cell_angle_gamma   111.93597159
_symmetry_Int_Tables_number   1
_chemical_formula_structural   K3(MoO3)10
_chemical_formula_sum   'K3 Mo10 O30'
_cell_volume   732.23846067
_cell_formula_units_Z   1
loop_
 _symmetry_equiv_pos_site_id
 _symmetry_equiv_pos_as_xyz
  1  'x, y, z'
loop_
 _atom_site_type_symbol
 _atom_site_label
 _atom_site_symmetry_multiplicity
 _atom_site_fract_x
 _atom_site_fract_y
 _atom_site_fract_z
 _atom_site_occupancy
  K  K0  1  0.27666100  0.74791400  0.34357700  1
  K  K1  1  0.50000000  0.50000000  0.00000000  1
  K  K2  1  0.72333900  0.25208600  0.65642300  1
  Mo  Mo3  1  0.70129000  0.78118000  0.48040200  1
  Mo  Mo4  1  0.60273700  0.91049500  0.76208300  1
  Mo  Mo5  1  0.68524000  0.92452300  0.17882700  1
  Mo  Mo6  1  0.19981100  0.57736500  0.65938400  1
  Mo  Mo7  1  0.96311900  0.78851400  0.01213500  1
  Mo  Mo8  1  0.03688100  0.21148600  0.98786500  1
  Mo  Mo9  1  0.80018900  0.42263500  0.34061600  1
  Mo  Mo10  1  0.31476000  0.07547700  0.82117300  1
  Mo  Mo11  1  0.39726300  0.08950500  0.23791700  1
  Mo  Mo12  1  0.29871000  0.21882000  0.51959800  1
  O  O13  1  0.35488900  0.27944600  0.34701200  1
  O  O14  1  0.59182700  0.91013100  0.54825900  1
  O  O15  1  0.17338000  0.17779300  0.88262200  1
  O  O16  1  0.79023600  0.33291800  0.14710800  1
  O  O17  1  0.61947800  0.88179300  0.96399400  1
  O  O18  1  0.95196700  0.84786200  0.86145100  1
  O  O19  1  0.82208100  0.10323600  0.85213600  1
  O  O20  1  0.10494700  0.06881700  0.43521300  1
  O  O21  1  0.17461400  0.87480100  0.67878100  1
  O  O22  1  0.36463800  0.71493100  0.63392700  1
  O  O23  1  0.50050100  0.95875200  0.19119100  1
  O  O24  1  0.38668900  0.23447700  0.74037200  1
  O  O25  1  0.76218000  0.59385000  0.35847200  1
  O  O26  1  0.88900600  0.57098700  0.91816100  1
  O  O27  1  0.11099400  0.42901300  0.08183900  1
  O  O28  1  0.23782000  0.40615000  0.64152800  1
  O  O29  1  0.61331100  0.76552300  0.25962800  1
  O  O30  1  0.49949900  0.04124800  0.80880900  1
  O  O31  1  0.63536200  0.28506900  0.36607300  1
  O  O32  1  0.82538600  0.12519900  0.32121900  1
  O  O33  1  0.00000000  0.50000000  0.50000000  1
  O  O34  1  0.89505300  0.93118300  0.56478700  1
  O  O35  1  0.17791900  0.89676400  0.14786400  1
  O  O36  1  0.04803300  0.15213800  0.13854900  1
  O  O37  1  0.38052200  0.11820700  0.03600600  1
  O  O38  1  0.20976400  0.66708200  0.85289200  1
  O  O39  1  0.82662000  0.82220700  0.11737800  1
  O  O40  1  0.40817300  0.08986900  0.45174100  1
  O  O41  1  0.50000000  0.50000000  0.50000000  1
  O  O42  1  0.64511100  0.72055400  0.65298800  1
