# generated using pymatgen
data_U2CuAs2(HO)24
_symmetry_space_group_name_H-M   'P 1'
_cell_length_a   7.22006100
_cell_length_b   7.22006100
_cell_length_c   21.13694600
_cell_angle_alpha   90.00000000
_cell_angle_beta   90.00000000
_cell_angle_gamma   90.00000000
_symmetry_Int_Tables_number   1
_chemical_formula_structural   U2CuAs2(HO)24
_chemical_formula_sum   'U4 Cu2 As4 H48 O48'
_cell_volume   1101.85379421
_cell_formula_units_Z   2
loop_
 _symmetry_equiv_pos_site_id
 _symmetry_equiv_pos_as_xyz
  1  'x, y, z'
loop_
 _atom_site_type_symbol
 _atom_site_label
 _atom_site_symmetry_multiplicity
 _atom_site_fract_x
 _atom_site_fract_y
 _atom_site_fract_z
 _atom_site_occupancy
  U  U0  1  0.50000000  0.50000000  0.29543900  1
  U  U1  1  0.50000000  0.50000000  0.70456100  1
  U  U2  1  0.00000000  0.00000000  0.20456100  1
  U  U3  1  0.00000000  0.00000000  0.79543900  1
  Cu  Cu4  1  0.50000000  0.50000000  0.50000000  1
  Cu  Cu5  1  0.00000000  0.00000000  0.00000000  1
  As  As6  1  0.00000000  0.50000000  0.25000000  1
  As  As7  1  0.00000000  0.50000000  0.75000000  1
  As  As8  1  0.50000000  0.00000000  0.25000000  1
  As  As9  1  0.50000000  0.00000000  0.75000000  1
  H  H10  1  0.84458900  0.15442500  0.41538600  1
  H  H11  1  0.15541100  0.84557500  0.41538600  1
  H  H12  1  0.15541100  0.15442500  0.58461400  1
  H  H13  1  0.84458900  0.84557500  0.58461400  1
  H  H14  1  0.65541100  0.34557500  0.08461400  1
  H  H15  1  0.34458900  0.65442500  0.08461400  1
  H  H16  1  0.34458900  0.34557500  0.91538600  1
  H  H17  1  0.65541100  0.65442500  0.91538600  1
  H  H18  1  0.15442500  0.84458900  0.58461400  1
  H  H19  1  0.84557500  0.15541100  0.58461400  1
  H  H20  1  0.15442500  0.15541100  0.41538600  1
  H  H21  1  0.84557500  0.84458900  0.41538600  1
  H  H22  1  0.34557500  0.65541100  0.91538600  1
  H  H23  1  0.65442500  0.34458900  0.91538600  1
  H  H24  1  0.34557500  0.34458900  0.08461400  1
  H  H25  1  0.65442500  0.65541100  0.08461400  1
  H  H26  1  0.89603500  0.33066000  0.37570100  1
  H  H27  1  0.10396500  0.66934000  0.37570100  1
  H  H28  1  0.10396500  0.33066000  0.62429900  1
  H  H29  1  0.89603500  0.66934000  0.62429900  1
  H  H30  1  0.60396500  0.16934000  0.12429900  1
  H  H31  1  0.39603500  0.83066000  0.12429900  1
  H  H32  1  0.39603500  0.16934000  0.87570100  1
  H  H33  1  0.60396500  0.83066000  0.87570100  1
  H  H34  1  0.33066000  0.89603500  0.62429900  1
  H  H35  1  0.66934000  0.10396500  0.62429900  1
  H  H36  1  0.33066000  0.10396500  0.37570100  1
  H  H37  1  0.66934000  0.89603500  0.37570100  1
  H  H38  1  0.16934000  0.60396500  0.87570100  1
  H  H39  1  0.83066000  0.39603500  0.87570100  1
  H  H40  1  0.16934000  0.39603500  0.12429900  1
  H  H41  1  0.83066000  0.60396500  0.12429900  1
  H  H42  1  0.84186100  0.41678400  0.47156800  1
  H  H43  1  0.15813900  0.58321600  0.47156800  1
  H  H44  1  0.15813900  0.41678400  0.52843200  1
  H  H45  1  0.84186100  0.58321600  0.52843200  1
  H  H46  1  0.65813900  0.08321600  0.02843200  1
  H  H47  1  0.34186100  0.91678400  0.02843200  1
  H  H48  1  0.34186100  0.08321600  0.97156800  1
  H  H49  1  0.65813900  0.91678400  0.97156800  1
  H  H50  1  0.41678400  0.84186100  0.52843200  1
  H  H51  1  0.58321600  0.15813900  0.52843200  1
  H  H52  1  0.41678400  0.15813900  0.47156800  1
  H  H53  1  0.58321600  0.84186100  0.47156800  1
  H  H54  1  0.08321600  0.65813900  0.97156800  1
  H  H55  1  0.91678400  0.34186100  0.97156800  1
  H  H56  1  0.08321600  0.34186100  0.02843200  1
  H  H57  1  0.91678400  0.65813900  0.02843200  1
  O  O58  1  0.50000000  0.50000000  0.38140300  1
  O  O59  1  0.50000000  0.50000000  0.61859700  1
  O  O60  1  0.00000000  0.00000000  0.11859700  1
  O  O61  1  0.00000000  0.00000000  0.88140300  1
  O  O62  1  0.50000000  0.50000000  0.20945100  1
  O  O63  1  0.50000000  0.50000000  0.79054900  1
  O  O64  1  0.00000000  0.00000000  0.29054900  1
  O  O65  1  0.00000000  0.00000000  0.70945100  1
  O  O66  1  0.76934700  0.50000000  0.50000000  1
  O  O67  1  0.23065300  0.50000000  0.50000000  1
  O  O68  1  0.73065300  0.00000000  0.00000000  1
  O  O69  1  0.26934700  0.00000000  0.00000000  1
  O  O70  1  0.50000000  0.76934700  0.50000000  1
  O  O71  1  0.50000000  0.23065300  0.50000000  1
  O  O72  1  0.00000000  0.73065300  0.00000000  1
  O  O73  1  0.00000000  0.26934700  0.00000000  1
  O  O74  1  0.81689100  0.45638100  0.30010600  1
  O  O75  1  0.18310900  0.54361900  0.30010600  1
  O  O76  1  0.18310900  0.45638100  0.69989400  1
  O  O77  1  0.81689100  0.54361900  0.69989400  1
  O  O78  1  0.68310900  0.04361900  0.19989400  1
  O  O79  1  0.31689100  0.95638100  0.19989400  1
  O  O80  1  0.31689100  0.04361900  0.80010600  1
  O  O81  1  0.68310900  0.95638100  0.80010600  1
  O  O82  1  0.45638100  0.81689100  0.69989400  1
  O  O83  1  0.54361900  0.18310900  0.69989400  1
  O  O84  1  0.45638100  0.18310900  0.30010600  1
  O  O85  1  0.54361900  0.81689100  0.30010600  1
  O  O86  1  0.04361900  0.68310900  0.80010600  1
  O  O87  1  0.95638100  0.31689100  0.80010600  1
  O  O88  1  0.04361900  0.31689100  0.19989400  1
  O  O89  1  0.95638100  0.68310900  0.19989400  1
  O  O90  1  0.92617600  0.26567900  0.41563100  1
  O  O91  1  0.07382400  0.73432100  0.41563100  1
  O  O92  1  0.07382400  0.26567900  0.58436900  1
  O  O93  1  0.92617600  0.73432100  0.58436900  1
  O  O94  1  0.57382400  0.23432100  0.08436900  1
  O  O95  1  0.42617600  0.76567900  0.08436900  1
  O  O96  1  0.42617600  0.23432100  0.91563100  1
  O  O97  1  0.57382400  0.76567900  0.91563100  1
  O  O98  1  0.26567900  0.92617600  0.58436900  1
  O  O99  1  0.73432100  0.07382400  0.58436900  1
  O  O100  1  0.26567900  0.07382400  0.41563100  1
  O  O101  1  0.73432100  0.92617600  0.41563100  1
  O  O102  1  0.23432100  0.57382400  0.91563100  1
  O  O103  1  0.76567900  0.42617600  0.91563100  1
  O  O104  1  0.23432100  0.42617600  0.08436900  1
  O  O105  1  0.76567900  0.57382400  0.08436900  1
