# generated using pymatgen
data_KV5Zn(H8O11)2
_symmetry_space_group_name_H-M   'P 1'
_cell_length_a   8.46377400
_cell_length_b   11.09596943
_cell_length_c   12.79216367
_cell_angle_alpha   66.14269048
_cell_angle_beta   75.99169312
_cell_angle_gamma   78.73779193
_symmetry_Int_Tables_number   1
_chemical_formula_structural   KV5Zn(H8O11)2
_chemical_formula_sum   'K2 V10 Zn2 H32 O44'
_cell_volume   1059.59526734
_cell_formula_units_Z   2
loop_
 _symmetry_equiv_pos_site_id
 _symmetry_equiv_pos_as_xyz
  1  'x, y, z'
loop_
 _atom_site_type_symbol
 _atom_site_label
 _atom_site_symmetry_multiplicity
 _atom_site_fract_x
 _atom_site_fract_y
 _atom_site_fract_z
 _atom_site_occupancy
  K  K0  1  0.18377500  0.81946600  0.47811000  1
  K  K1  1  0.81622500  0.18053400  0.52189000  1
  V  V2  1  0.67355000  0.52988900  0.99309000  1
  V  V3  1  0.32645000  0.47011100  0.00691000  1
  V  V4  1  0.62363700  0.52363000  0.75622200  1
  V  V5  1  0.37636300  0.47637000  0.24377800  1
  V  V6  1  0.36053800  0.74043200  0.03539200  1
  V  V7  1  0.63946200  0.25956800  0.96460800  1
  V  V8  1  0.31411300  0.72428800  0.78120900  1
  V  V9  1  0.68588700  0.27571200  0.21879100  1
  V  V10  1  0.65540500  0.81214500  0.79690200  1
  V  V11  1  0.34459500  0.18785500  0.20309800  1
  Zn  Zn12  1  0.83146400  0.79630100  0.17829900  1
  Zn  Zn13  1  0.16853600  0.20369900  0.82170100  1
  H  H14  1  0.38491700  0.14656600  0.49326500  1
  H  H15  1  0.61508300  0.85343400  0.50673500  1
  H  H16  1  0.88560400  0.25743900  0.03223500  1
  H  H17  1  0.11439600  0.74256100  0.96776500  1
  H  H18  1  0.40389600  0.96293000  0.69122400  1
  H  H19  1  0.59610400  0.03707000  0.30877600  1
  H  H20  1  0.36771200  0.35894300  0.86133300  1
  H  H21  1  0.63228800  0.64105700  0.13866700  1
  H  H22  1  0.41670900  0.00246900  0.90962900  1
  H  H23  1  0.58329100  0.99753100  0.09037100  1
  H  H24  1  0.08900500  0.69344000  0.32630200  1
  H  H25  1  0.91099500  0.30656000  0.67369800  1
  H  H26  1  0.39265900  0.11484300  0.96175900  1
  H  H27  1  0.60734100  0.88515700  0.03824100  1
  H  H28  1  0.14564800  0.30999000  0.96387200  1
  H  H29  1  0.85435200  0.69001000  0.03612800  1
  H  H30  1  0.10939500  0.95281300  0.89079000  1
  H  H31  1  0.89060500  0.04718700  0.10921000  1
  H  H32  1  0.99329600  0.06556000  0.80569200  1
  H  H33  1  0.00670400  0.93444000  0.19430800  1
  H  H34  1  0.68204600  0.83256400  0.46356900  1
  H  H35  1  0.31795400  0.16743600  0.53643100  1
  H  H36  1  0.14586000  0.51455700  0.86586800  1
  H  H37  1  0.85414000  0.48544300  0.13413200  1
  H  H38  1  0.04252400  0.82115300  0.72971700  1
  H  H39  1  0.95747600  0.17884700  0.27028300  1
  H  H40  1  0.96592300  0.44731700  0.38225100  1
  H  H41  1  0.03407700  0.55268300  0.61774900  1
  H  H42  1  0.09448600  0.51233900  0.58749500  1
  H  H43  1  0.90551400  0.48766100  0.41250500  1
  H  H44  1  0.28701300  0.25553200  0.37566700  1
  H  H45  1  0.71298700  0.74446800  0.62433300  1
  O  O46  1  0.45653100  0.87233400  0.71885500  1
  O  O47  1  0.54346900  0.12766600  0.28114500  1
  O  O48  1  0.47960900  0.61519500  0.90571000  1
  O  O49  1  0.52039100  0.38480500  0.09429000  1
  O  O50  1  0.53950400  0.61190700  0.12014600  1
  O  O51  1  0.46049600  0.38809300  0.87985400  1
  O  O52  1  0.77646600  0.66915900  0.91115400  1
  O  O53  1  0.22353400  0.33084100  0.08884600  1
  O  O54  1  0.26519600  0.57335600  0.10606500  1
  O  O55  1  0.73480400  0.42664400  0.89393500  1
  O  O56  1  0.42883200  0.63867300  0.69662700  1
  O  O57  1  0.57116800  0.36132700  0.30337300  1
  O  O58  1  0.72582500  0.45106900  0.66714100  1
  O  O59  1  0.27417500  0.54893100  0.33285900  1
  O  O60  1  0.73131600  0.69191200  0.70380900  1
  O  O61  1  0.26868400  0.30808800  0.29619100  1
  O  O62  1  0.50822700  0.84853000  0.93204300  1
  O  O63  1  0.49177300  0.15147000  0.06795700  1
  O  O64  1  0.27389300  0.81442400  0.12388800  1
  O  O65  1  0.72610700  0.18557600  0.87611200  1
  O  O66  1  0.20618000  0.79565100  0.92400500  1
  O  O67  1  0.79382000  0.20434900  0.07599500  1
  O  O68  1  0.22742300  0.06701200  0.27724300  1
  O  O69  1  0.77257700  0.93298800  0.72275700  1
  O  O70  1  0.17694600  0.57709200  0.89414200  1
  O  O71  1  0.82305400  0.42290800  0.10585800  1
  O  O72  1  0.15621300  0.83654900  0.69263300  1
  O  O73  1  0.84378700  0.16345100  0.30736700  1
  O  O74  1  0.40032900  0.32994900  0.67697000  1
  O  O75  1  0.59967100  0.67005100  0.32303000  1
  O  O76  1  0.85393400  0.75173000  0.34086500  1
  O  O77  1  0.14606600  0.24827000  0.65913500  1
  O  O78  1  0.37099100  0.09619400  0.89784000  1
  O  O79  1  0.62900900  0.90380600  0.10216000  1
  O  O80  1  0.50608700  0.26555900  0.62806200  1
  O  O81  1  0.49391300  0.73444100  0.37193800  1
  O  O82  1  0.15746900  0.34137400  0.87929600  1
  O  O83  1  0.84253100  0.65862600  0.12070400  1
  O  O84  1  0.04364300  0.04159200  0.87429100  1
  O  O85  1  0.95635700  0.95840800  0.12570900  1
  O  O86  1  0.44460800  0.52637800  0.52739800  1
  O  O87  1  0.55539200  0.47362200  0.47260200  1
  O  O88  1  0.97791200  0.22645900  0.66392600  1
  O  O89  1  0.02208800  0.77354100  0.33607400  1
