# generated using pymatgen
data_Sr14Fe14O39
_symmetry_space_group_name_H-M   'P 1'
_cell_length_a   5.57343671
_cell_length_b   38.90547936
_cell_length_c   14.70648869
_cell_angle_alpha   19.07174509
_cell_angle_beta   55.28207153
_cell_angle_gamma   59.82543588
_symmetry_Int_Tables_number   1
_chemical_formula_structural   Sr14Fe14O39
_chemical_formula_sum   'Sr14 Fe14 O39'
_cell_volume   848.90126873
_cell_formula_units_Z   1
loop_
 _symmetry_equiv_pos_site_id
 _symmetry_equiv_pos_as_xyz
  1  'x, y, z'
loop_
 _atom_site_type_symbol
 _atom_site_label
 _atom_site_symmetry_multiplicity
 _atom_site_fract_x
 _atom_site_fract_y
 _atom_site_fract_z
 _atom_site_occupancy
  Sr  Sr0  1  0.24738200  0.11588700  0.23011100  1
  Sr  Sr1  1  0.25575100  0.25638100  0.22697100  1
  Sr  Sr2  1  0.25428600  0.39365500  0.24085000  1
  Sr  Sr3  1  0.77047500  0.03709600  0.73617000  1
  Sr  Sr4  1  0.73484600  0.18207200  0.74762400  1
  Sr  Sr5  1  0.24085700  0.53723200  0.25524500  1
  Sr  Sr6  1  0.73515900  0.31751300  0.76507000  1
  Sr  Sr7  1  0.25475600  0.66820200  0.27187400  1
  Sr  Sr8  1  0.75286900  0.46603000  0.74355200  1
  Sr  Sr9  1  0.25437900  0.82114600  0.24895600  1
  Sr  Sr10  1  0.24518500  0.95822700  0.27061300  1
  Sr  Sr11  1  0.77094000  0.61157500  0.72979900  1
  Sr  Sr12  1  0.74457900  0.74545200  0.76457400  1
  Sr  Sr13  1  0.74987200  0.89230000  0.75198500  1
  Fe  Fe14  1  0.98183300  0.99231300  0.01354500  1
  Fe  Fe15  1  0.50739700  0.07245600  0.49424300  1
  Fe  Fe16  1  0.00125300  0.13973800  0.00842200  1
  Fe  Fe17  1  0.00233300  0.42994300  0.99696600  1
  Fe  Fe18  1  0.51818800  0.22070700  0.48629200  1
  Fe  Fe19  1  0.99452000  0.28646300  0.99838500  1
  Fe  Fe20  1  0.52297900  0.35114600  0.51241100  1
  Fe  Fe21  1  0.50492000  0.49897300  0.50085300  1
  Fe  Fe22  1  0.97611100  0.58056200  0.97831500  1
  Fe  Fe23  1  0.98414500  0.85452600  0.01729700  1
  Fe  Fe24  1  0.50955400  0.64324900  0.49616100  1
  Fe  Fe25  1  0.99608700  0.71444700  0.00179200  1
  Fe  Fe26  1  0.48055700  0.78565500  0.50409300  1
  Fe  Fe27  1  0.52456200  0.93285500  0.47634900  1
  O  O28  1  0.24535200  0.03191600  0.26967300  1
  O  O29  1  0.24938500  0.18091400  0.24123500  1
  O  O30  1  0.71452900  0.02516000  0.29290400  1
  O  O31  1  0.75352500  0.10978100  0.24360600  1
  O  O32  1  0.26682700  0.03951100  0.74085800  1
  O  O33  1  0.22675100  0.30822800  0.28938300  1
  O  O34  1  0.75760600  0.18042100  0.24213800  1
  O  O35  1  0.71039100  0.23778800  0.28768900  1
  O  O36  1  0.23930600  0.16157800  0.78630900  1
  O  O37  1  0.75724300  0.10855100  0.74302900  1
  O  O38  1  0.25087500  0.26142800  0.71689600  1
  O  O39  1  0.74641400  0.32500900  0.24628500  1
  O  O40  1  0.24206800  0.33462900  0.70944200  1
  O  O41  1  0.72152300  0.40389000  0.23062400  1
  O  O42  1  0.75799300  0.24512900  0.75694100  1
  O  O43  1  0.75786500  0.46421100  0.24655000  1
  O  O44  1  0.26662200  0.60877100  0.23903900  1
  O  O45  1  0.24036000  0.39084200  0.75757000  1
  O  O46  1  0.25373400  0.46322200  0.75202400  1
  O  O47  1  0.78160500  0.52507300  0.26805500  1
  O  O48  1  0.74479000  0.39082000  0.75773500  1
  O  O49  1  0.25852600  0.75412200  0.23215900  1
  O  O50  1  0.75473100  0.60666300  0.24865100  1
  O  O51  1  0.25116200  0.53225900  0.75951500  1
  O  O52  1  0.26489600  0.60490700  0.75740000  1
  O  O53  1  0.75564000  0.67577900  0.25471200  1
  O  O54  1  0.75667200  0.53858500  0.74162000  1
  O  O55  1  0.25467300  0.90199800  0.22770900  1
  O  O56  1  0.78336900  0.75785800  0.21749000  1
  O  O57  1  0.24827700  0.67235600  0.76668000  1
  O  O58  1  0.23254400  0.75533900  0.74162700  1
  O  O59  1  0.73372200  0.81952200  0.25843200  1
  O  O60  1  0.73275200  0.68135400  0.74780600  1
  O  O61  1  0.25057000  0.82735000  0.74141600  1
  O  O62  1  0.73772600  0.89014200  0.25740000  1
  O  O63  1  0.79208300  0.98102000  0.20081000  1
  O  O64  1  0.72053800  0.82239300  0.76002000  1
  O  O65  1  0.25484200  0.96212400  0.74737000  1
  O  O66  1  0.78106100  0.96324000  0.73887000  1
