# generated using pymatgen
data_SnH8(CI)4
_symmetry_space_group_name_H-M   'P 1'
_cell_length_a   9.68271900
_cell_length_b   9.68271900
_cell_length_c   7.63899800
_cell_angle_alpha   90.00000000
_cell_angle_beta   90.00000000
_cell_angle_gamma   90.00000000
_symmetry_Int_Tables_number   1
_chemical_formula_structural   SnH8(CI)4
_chemical_formula_sum   'Sn2 H16 C8 I8'
_cell_volume   716.19461830
_cell_formula_units_Z   2
loop_
 _symmetry_equiv_pos_site_id
 _symmetry_equiv_pos_as_xyz
  1  'x, y, z'
loop_
 _atom_site_type_symbol
 _atom_site_label
 _atom_site_symmetry_multiplicity
 _atom_site_fract_x
 _atom_site_fract_y
 _atom_site_fract_z
 _atom_site_occupancy
  Sn  Sn0  1  0.00000000  0.00000000  0.50000000  1
  Sn  Sn1  1  0.50000000  0.50000000  0.00000000  1
  H  H2  1  0.76928700  0.15263400  0.41372200  1
  H  H3  1  0.73071300  0.65263400  0.08627800  1
  H  H4  1  0.23071300  0.84736600  0.41372200  1
  H  H5  1  0.26928700  0.34736600  0.08627800  1
  H  H6  1  0.84736600  0.76928700  0.58627800  1
  H  H7  1  0.34736600  0.73071300  0.91372200  1
  H  H8  1  0.15263400  0.23071300  0.58627800  1
  H  H9  1  0.65263400  0.26928700  0.91372200  1
  H  H10  1  0.80874600  0.03517900  0.23706100  1
  H  H11  1  0.69125400  0.53517900  0.26293900  1
  H  H12  1  0.19125400  0.96482100  0.23706100  1
  H  H13  1  0.30874600  0.46482100  0.26293900  1
  H  H14  1  0.96482100  0.80874600  0.76293900  1
  H  H15  1  0.46482100  0.69125400  0.73706100  1
  H  H16  1  0.03517900  0.19125400  0.76293900  1
  H  H17  1  0.53517900  0.30874600  0.73706100  1
  C  C18  1  0.85139200  0.10627600  0.33484000  1
  C  C19  1  0.64860800  0.60627600  0.16516000  1
  C  C20  1  0.14860800  0.89372400  0.33484000  1
  C  C21  1  0.35139200  0.39372400  0.16516000  1
  C  C22  1  0.89372400  0.85139200  0.66516000  1
  C  C23  1  0.39372400  0.64860800  0.83484000  1
  C  C24  1  0.10627600  0.14860800  0.66516000  1
  C  C25  1  0.60627600  0.35139200  0.83484000  1
  I  I26  1  0.94129500  0.27469000  0.18852800  1
  I  I27  1  0.55870500  0.77469000  0.31147200  1
  I  I28  1  0.05870500  0.72531000  0.18852800  1
  I  I29  1  0.44129500  0.22531000  0.31147200  1
  I  I30  1  0.72531000  0.94129500  0.81147200  1
  I  I31  1  0.22531000  0.55870500  0.68852800  1
  I  I32  1  0.27469000  0.05870500  0.81147200  1
  I  I33  1  0.77469000  0.44129500  0.68852800  1
