# generated using pymatgen
data_Sr12Co10O27
_symmetry_space_group_name_H-M   'P 1'
_cell_length_a   9.56735700
_cell_length_b   9.61992546
_cell_length_c   10.18607907
_cell_angle_alpha   90.41145267
_cell_angle_beta   117.32573029
_cell_angle_gamma   119.52511092
_symmetry_Int_Tables_number   1
_chemical_formula_structural   Sr12Co10O27
_chemical_formula_sum   'Sr12 Co10 O27'
_cell_volume   690.90359250
_cell_formula_units_Z   1
loop_
 _symmetry_equiv_pos_site_id
 _symmetry_equiv_pos_as_xyz
  1  'x, y, z'
loop_
 _atom_site_type_symbol
 _atom_site_label
 _atom_site_symmetry_multiplicity
 _atom_site_fract_x
 _atom_site_fract_y
 _atom_site_fract_z
 _atom_site_occupancy
  Sr  Sr0  1  0.26944900  0.81376200  0.37046300  1
  Sr  Sr1  1  0.09084000  0.40299200  0.12902200  1
  Sr  Sr2  1  0.53472000  0.95427400  0.86159900  1
  Sr  Sr3  1  0.45701600  0.54638300  0.64292300  1
  Sr  Sr4  1  0.26734400  0.31092200  0.86519300  1
  Sr  Sr5  1  0.09131800  0.89974600  0.62763100  1
  Sr  Sr6  1  0.90850400  0.09914700  0.37601600  1
  Sr  Sr7  1  0.71211600  0.67253400  0.13166300  1
  Sr  Sr8  1  0.54857600  0.45550400  0.36032100  1
  Sr  Sr9  1  0.46515100  0.05061100  0.14286000  1
  Sr  Sr10  1  0.91273400  0.58557100  0.86907600  1
  Sr  Sr11  1  0.72896800  0.18535000  0.62417000  1
  Co  Co12  1  0.91349400  0.44993800  0.33778600  1
  Co  Co13  1  0.69121500  0.34471300  0.04236400  1
  Co  Co14  1  0.50290400  0.25284400  0.75133400  1
  Co  Co15  1  0.32569100  0.16763400  0.47478300  1
  Co  Co16  1  0.12687400  0.07200300  0.18420900  1
  Co  Co17  1  0.88637000  0.94964600  0.81857900  1
  Co  Co18  1  0.68524300  0.84097100  0.52833400  1
  Co  Co19  1  0.50021300  0.75086300  0.24975900  1
  Co  Co20  1  0.31175800  0.65378700  0.95742300  1
  Co  Co21  1  0.08518400  0.55062900  0.65955800  1
  O  O22  1  0.64053800  0.89991500  0.70512800  1
  O  O23  1  0.96041500  0.55528000  0.19473700  1
  O  O24  1  0.80454000  0.23993300  0.19073000  1
  O  O25  1  0.74499400  0.28009000  0.89010200  1
  O  O26  1  0.62693500  0.38498300  0.18573100  1
  O  O27  1  0.60986100  0.46422900  0.89128400  1
  O  O28  1  0.58982900  0.36779900  0.61759700  1
  O  O29  1  0.41651200  0.13811300  0.88270600  1
  O  O30  1  0.39386800  0.04047800  0.60797900  1
  O  O31  1  0.25815800  0.22313900  0.61499800  1
  O  O32  1  0.21367700  0.27323700  0.32331300  1
  O  O33  1  0.08074300  0.65202000  0.50247900  1
  O  O34  1  0.02761300  0.93263900  0.27772400  1
  O  O35  1  0.93946800  0.05228700  0.66961500  1
  O  O36  1  0.91842800  0.35043400  0.49525500  1
  O  O37  1  0.81336800  0.74717000  0.71251700  1
  O  O38  1  0.74454000  0.77585600  0.38532000  1
  O  O39  1  0.59677500  0.96004700  0.38301900  1
  O  O40  1  0.58149200  0.86245000  0.11619400  1
  O  O41  1  0.42973200  0.64560200  0.39803600  1
  O  O42  1  0.39378200  0.53550000  0.11425200  1
  O  O43  1  0.38371100  0.61689100  0.82328700  1
  O  O44  1  0.25388700  0.71652200  0.10791900  1
  O  O45  1  0.19341900  0.75649000  0.80665500  1
  O  O46  1  0.08670800  0.12019400  0.00094200  1
  O  O47  1  0.04419700  0.44131200  0.80314900  1
  O  O48  1  0.37612600  0.11506800  0.31376900  1
