# generated using pymatgen
data_MgH10C4(N2O3)2
_symmetry_space_group_name_H-M   'P 1'
_cell_length_a   12.20521321
_cell_length_b   12.20521321
_cell_length_c   15.48777618
_cell_angle_alpha   67.24788894
_cell_angle_beta   67.24788894
_cell_angle_gamma   89.34957599
_symmetry_Int_Tables_number   1
_chemical_formula_structural   MgH10C4(N2O3)2
_chemical_formula_sum   'Mg8 H80 C32 N32 O48'
_cell_volume   1935.99517843
_cell_formula_units_Z   8
loop_
 _symmetry_equiv_pos_site_id
 _symmetry_equiv_pos_as_xyz
  1  'x, y, z'
loop_
 _atom_site_type_symbol
 _atom_site_label
 _atom_site_symmetry_multiplicity
 _atom_site_fract_x
 _atom_site_fract_y
 _atom_site_fract_z
 _atom_site_occupancy
  Mg  Mg0  1  0.25287000  0.23990400  0.99625100  1
  Mg  Mg1  1  0.76009600  0.74713000  0.50374900  1
  Mg  Mg2  1  0.74713000  0.76009600  0.00374900  1
  Mg  Mg3  1  0.23990400  0.25287000  0.49625100  1
  Mg  Mg4  1  0.25130600  0.74201700  0.99648700  1
  Mg  Mg5  1  0.25798300  0.74869400  0.50351300  1
  Mg  Mg6  1  0.74869400  0.25798300  0.00351300  1
  Mg  Mg7  1  0.74201700  0.25130600  0.49648700  1
  H  H8  1  0.54185800  0.34989000  0.67065500  1
  H  H9  1  0.65011000  0.45814200  0.82934500  1
  H  H10  1  0.45814200  0.65011000  0.32934500  1
  H  H11  1  0.34989000  0.54185800  0.17065500  1
  H  H12  1  0.50911200  0.49062500  0.60769700  1
  H  H13  1  0.50937500  0.49088800  0.89230300  1
  H  H14  1  0.49088800  0.50937500  0.39230300  1
  H  H15  1  0.49062500  0.50911200  0.10769700  1
  H  H16  1  0.24173100  0.46496200  0.82065100  1
  H  H17  1  0.53503800  0.75826900  0.67934900  1
  H  H18  1  0.75826900  0.53503800  0.17934900  1
  H  H19  1  0.46496200  0.24173100  0.32065100  1
  H  H20  1  0.33210900  0.54833800  0.68831300  1
  H  H21  1  0.45166200  0.66789100  0.81168700  1
  H  H22  1  0.66789100  0.45166200  0.31168700  1
  H  H23  1  0.54833800  0.33210900  0.18831300  1
  H  H24  1  0.96864700  0.01979700  0.32568900  1
  H  H25  1  0.98020300  0.03135300  0.17431100  1
  H  H26  1  0.03135300  0.98020300  0.67431100  1
  H  H27  1  0.01979700  0.96864700  0.82568900  1
  H  H28  1  0.00055600  0.09826400  0.38902700  1
  H  H29  1  0.90173600  0.99944400  0.11097300  1
  H  H30  1  0.99944400  0.90173600  0.61097300  1
  H  H31  1  0.09826400  0.00055600  0.88902700  1
  H  H32  1  0.16467400  0.23903300  0.31172100  1
  H  H33  1  0.76096700  0.83532600  0.18827900  1
  H  H34  1  0.83532600  0.76096700  0.68827900  1
  H  H35  1  0.23903300  0.16467400  0.81172100  1
  H  H36  1  0.24900300  0.29715200  0.17760700  1
  H  H37  1  0.70284800  0.75099700  0.32239300  1
  H  H38  1  0.75099700  0.70284800  0.82239300  1
  H  H39  1  0.29715200  0.24900300  0.67760700  1
  H  H40  1  0.26778400  0.96315400  0.06168800  1
  H  H41  1  0.03684600  0.73221600  0.43831200  1
  H  H42  1  0.73221600  0.03684600  0.93831200  1
  H  H43  1  0.96315400  0.26778400  0.56168800  1
  H  H44  1  0.50471500  0.31035600  0.98347000  1
  H  H45  1  0.68964400  0.49528500  0.51653000  1
  H  H46  1  0.49528500  0.68964400  0.01653000  1
  H  H47  1  0.31035600  0.50471500  0.48347000  1
  H  H48  1  0.41144400  0.95627000  0.59906100  1
  H  H49  1  0.04373000  0.58855600  0.90093900  1
  H  H50  1  0.58855600  0.04373000  0.40093900  1
  H  H51  1  0.95627000  0.41144400  0.09906100  1
  H  H52  1  0.29089000  0.83666200  0.66771400  1
  H  H53  1  0.16333800  0.70911000  0.83228600  1
  H  H54  1  0.70911000  0.16333800  0.33228600  1
  H  H55  1  0.83666200  0.29089000  0.16771400  1
  H  H56  1  0.50904600  0.01101600  0.67862600  1
  H  H57  1  0.98898400  0.49095400  0.82137400  1
  H  H58  1  0.49095400  0.98898400  0.32137400  1
  H  H59  1  0.01101600  0.50904600  0.17862600  1
  H  H60  1  0.45017300  0.94850900  0.81376200  1
  H  H61  1  0.05149100  0.54982700  0.68623800  1
  H  H62  1  0.54982700  0.05149100  0.18623800  1
  H  H63  1  0.94850900  0.45017300  0.31376200  1
  H  H64  1  0.06329500  0.54645900  0.39263500  1
  H  H65  1  0.45354100  0.93670500  0.10736500  1
  H  H66  1  0.93670500  0.45354100  0.60736500  1
  H  H67  1  0.54645900  0.06329500  0.89263500  1
  H  H68  1  0.19396800  0.50008500  0.32638500  1
  H  H69  1  0.49991500  0.80603200  0.17361500  1
  H  H70  1  0.80603200  0.49991500  0.67361500  1
  H  H71  1  0.50008500  0.19396800  0.82638500  1
  H  H72  1  0.06088400  0.78428000  0.17575900  1
  H  H73  1  0.21572000  0.93911600  0.32424100  1
  H  H74  1  0.93911600  0.21572000  0.82424100  1
  H  H75  1  0.78428000  0.06088400  0.67575900  1
  H  H76  1  0.98628200  0.70091000  0.31053700  1
  H  H77  1  0.29909000  0.01371800  0.18946300  1
  H  H78  1  0.01371800  0.29909000  0.68946300  1
  H  H79  1  0.70091000  0.98628200  0.81053700  1
  H  H80  1  0.00271000  0.18916800  0.98764800  1
  H  H81  1  0.81083200  0.99729000  0.51235200  1
  H  H82  1  0.99729000  0.81083200  0.01235200  1
  H  H83  1  0.18916800  0.00271000  0.48764800  1
  H  H84  1  0.17092700  0.47337800  0.04392900  1
  H  H85  1  0.52662200  0.82907300  0.45607100  1
  H  H86  1  0.82907300  0.52662200  0.95607100  1
  H  H87  1  0.47337800  0.17092700  0.54392900  1
  C  C88  1  0.38951500  0.39375200  0.75869700  1
  C  C89  1  0.60624800  0.61048500  0.74130300  1
  C  C90  1  0.61048500  0.60624800  0.24130300  1
  C  C91  1  0.39375200  0.38951500  0.25869700  1
  C  C92  1  0.11415000  0.15655500  0.23618500  1
  C  C93  1  0.84344500  0.88585000  0.26381500  1
  C  C94  1  0.88585000  0.84344500  0.76381500  1
  C  C95  1  0.15655500  0.11415000  0.73618500  1
  C  C96  1  0.21639200  0.98451500  0.01341400  1
  C  C97  1  0.01548500  0.78360800  0.48658600  1
  C  C98  1  0.78360800  0.01548500  0.98658600  1
  C  C99  1  0.98451500  0.21639200  0.51341400  1
  C  C100  1  0.49109700  0.21121200  0.02198800  1
  C  C101  1  0.78878800  0.50890300  0.47801200  1
  C  C102  1  0.50890300  0.78878800  0.97801200  1
  C  C103  1  0.21121200  0.49109700  0.52198800  1
  C  C104  1  0.35498600  0.88602800  0.75562600  1
  C  C105  1  0.11397200  0.64501400  0.74437400  1
  C  C106  1  0.64501400  0.11397200  0.24437400  1
  C  C107  1  0.88602800  0.35498600  0.25562600  1
  C  C108  1  0.14175500  0.64582700  0.23635900  1
  C  C109  1  0.35417300  0.85824500  0.26364100  1
  C  C110  1  0.85824500  0.35417300  0.76364100  1
  C  C111  1  0.64582700  0.14175500  0.73635900  1
  C  C112  1  0.01531700  0.28633800  0.96977200  1
  C  C113  1  0.71366200  0.98468300  0.53022800  1
  C  C114  1  0.98468300  0.71366200  0.03022800  1
  C  C115  1  0.28633800  0.01531700  0.46977200  1
  C  C116  1  0.27055200  0.48798600  0.00644300  1
  C  C117  1  0.51201400  0.72944800  0.49355700  1
  C  C118  1  0.72944800  0.51201400  0.99355700  1
  C  C119  1  0.48798600  0.27055200  0.50644300  1
  N  N120  1  0.48155900  0.40865900  0.66898500  1
  N  N121  1  0.59134100  0.51844100  0.83101500  1
  N  N122  1  0.51844100  0.59134100  0.33101500  1
  N  N123  1  0.40865900  0.48155900  0.16898500  1
  N  N124  1  0.31745200  0.47819700  0.75660900  1
  N  N125  1  0.52180300  0.68254800  0.74339100  1
  N  N126  1  0.68254800  0.52180300  0.24339100  1
  N  N127  1  0.47819700  0.31745200  0.25660900  1
  N  N128  1  0.02628200  0.07939100  0.32604000  1
  N  N129  1  0.92060900  0.97371800  0.17396000  1
  N  N130  1  0.97371800  0.92060900  0.67396000  1
  N  N131  1  0.07939100  0.02628200  0.82604000  1
  N  N132  1  0.18487400  0.23442300  0.24285300  1
  N  N133  1  0.76557700  0.81512600  0.25714700  1
  N  N134  1  0.81512600  0.76557700  0.75714700  1
  N  N135  1  0.23442300  0.18487400  0.74285300  1
  N  N136  1  0.35281200  0.89324500  0.66732400  1
  N  N137  1  0.10675500  0.64718800  0.83267600  1
  N  N138  1  0.64718800  0.10675500  0.33267600  1
  N  N139  1  0.89324500  0.35281200  0.16732400  1
  N  N140  1  0.43847700  0.96464000  0.74840500  1
  N  N141  1  0.03536000  0.56152300  0.75159500  1
  N  N142  1  0.56152300  0.03536000  0.25159500  1
  N  N143  1  0.96464000  0.43847700  0.24840500  1
  N  N144  1  0.13455500  0.55988000  0.32598500  1
  N  N145  1  0.44012000  0.86544500  0.17401500  1
  N  N146  1  0.86544500  0.44012000  0.67401500  1
  N  N147  1  0.55988000  0.13455500  0.82598500  1
  N  N148  1  0.05658500  0.71740000  0.24153700  1
  N  N149  1  0.28260000  0.94341500  0.25846300  1
  N  N150  1  0.94341500  0.28260000  0.75846300  1
  N  N151  1  0.71740000  0.05658500  0.74153700  1
  O  O152  1  0.37181800  0.30064500  0.84068000  1
  O  O153  1  0.69935500  0.62818200  0.65932000  1
  O  O154  1  0.62818200  0.69935500  0.15932000  1
  O  O155  1  0.30064500  0.37181800  0.34068000  1
  O  O156  1  0.13115000  0.15138300  0.15157900  1
  O  O157  1  0.84861700  0.86885000  0.34842100  1
  O  O158  1  0.86885000  0.84861700  0.84842100  1
  O  O159  1  0.15138300  0.13115000  0.65157900  1
  O  O160  1  0.19971700  0.09232400  0.97535900  1
  O  O161  1  0.90767600  0.80028300  0.52464100  1
  O  O162  1  0.80028300  0.90767600  0.02464100  1
  O  O163  1  0.09232400  0.19971700  0.47535900  1
  O  O164  1  0.39140900  0.15420500  0.04181400  1
  O  O165  1  0.84579500  0.60859100  0.45818600  1
  O  O166  1  0.60859100  0.84579500  0.95818600  1
  O  O167  1  0.15420500  0.39140900  0.54181400  1
  O  O168  1  0.11409000  0.33326600  0.96001600  1
  O  O169  1  0.66673400  0.88591000  0.53998400  1
  O  O170  1  0.88591000  0.66673400  0.03998400  1
  O  O171  1  0.33326600  0.11409000  0.46001600  1
  O  O172  1  0.32074400  0.39872300  0.99737600  1
  O  O173  1  0.60127700  0.67925600  0.50262400  1
  O  O174  1  0.67925600  0.60127700  0.00262400  1
  O  O175  1  0.39872300  0.32074400  0.49737600  1
  O  O176  1  0.22584000  0.65785900  0.15113700  1
  O  O177  1  0.34214100  0.77416000  0.34886300  1
  O  O178  1  0.77416000  0.34214100  0.84886300  1
  O  O179  1  0.65785900  0.22584000  0.65113700  1
  O  O180  1  0.28002700  0.80748000  0.84187300  1
  O  O181  1  0.19252000  0.71997300  0.65812700  1
  O  O182  1  0.71997400  0.19252000  0.15812700  1
  O  O183  1  0.80748000  0.28002600  0.34187300  1
  O  O184  1  0.92901600  0.34246900  0.96020700  1
  O  O185  1  0.65753100  0.07098400  0.53979300  1
  O  O186  1  0.07098400  0.65753100  0.03979300  1
  O  O187  1  0.34246900  0.92901600  0.46020700  1
  O  O188  1  0.32623400  0.59235900  0.97514700  1
  O  O189  1  0.40764100  0.67376600  0.52485300  1
  O  O190  1  0.67376600  0.40764100  0.02485300  1
  O  O191  1  0.59235900  0.32623400  0.47514700  1
  O  O192  1  0.17814300  0.89886800  0.99979600  1
  O  O193  1  0.10113200  0.82185700  0.50020400  1
  O  O194  1  0.82185700  0.10113200  0.00020400  1
  O  O195  1  0.89886800  0.17814300  0.49979600  1
  O  O196  1  0.57522800  0.16345900  0.04395800  1
  O  O197  1  0.83654100  0.42477200  0.45604200  1
  O  O198  1  0.42477200  0.83654100  0.95604200  1
  O  O199  1  0.16345900  0.57522800  0.54395800  1
