# generated using pymatgen
data_B3H12CN4O
_symmetry_space_group_name_H-M   'P 1'
_cell_length_a   7.21289200
_cell_length_b   10.31632672
_cell_length_c   10.48592053
_cell_angle_alpha   94.56760971
_cell_angle_beta   99.00316791
_cell_angle_gamma   96.35628171
_symmetry_Int_Tables_number   1
_chemical_formula_structural   B3H12CN4O
_chemical_formula_sum   'B12 H48 C4 N16 O4'
_cell_volume   762.16697353
_cell_formula_units_Z   4
loop_
 _symmetry_equiv_pos_site_id
 _symmetry_equiv_pos_as_xyz
  1  'x, y, z'
loop_
 _atom_site_type_symbol
 _atom_site_label
 _atom_site_symmetry_multiplicity
 _atom_site_fract_x
 _atom_site_fract_y
 _atom_site_fract_z
 _atom_site_occupancy
  B  B0  1  0.33750700  0.48542300  0.02358400  1
  B  B1  1  0.66249300  0.51457700  0.97641600  1
  B  B2  1  0.52670000  0.60912400  0.05753300  1
  B  B3  1  0.47330000  0.39087600  0.94246700  1
  B  B4  1  0.55812200  0.45410300  0.10130500  1
  B  B5  1  0.44187800  0.54589700  0.89869500  1
  B  B6  1  0.51160400  0.10404000  0.45010700  1
  B  B7  1  0.48839600  0.89596000  0.54989300  1
  B  B8  1  0.58061900  0.95036700  0.41735200  1
  B  B9  1  0.41938100  0.04963300  0.58264800  1
  B  B10  1  0.34733300  0.96528800  0.43035500  1
  B  B11  1  0.65266700  0.03471200  0.56964500  1
  H  H12  1  0.17819100  0.46919800  0.04548400  1
  H  H13  1  0.82180900  0.53080200  0.95451600  1
  H  H14  1  0.55592900  0.71728200  0.11617500  1
  H  H15  1  0.44407100  0.28271800  0.88382500  1
  H  H16  1  0.61302200  0.40913700  0.20134100  1
  H  H17  1  0.38697800  0.59086300  0.79865900  1
  H  H18  1  0.52443200  0.20584500  0.40168600  1
  H  H19  1  0.47556800  0.79415500  0.59831400  1
  H  H20  1  0.65660000  0.90227400  0.33407800  1
  H  H21  1  0.34340000  0.09772600  0.66592200  1
  H  H22  1  0.19837300  0.93036700  0.35948600  1
  H  H23  1  0.80162700  0.06963300  0.64051400  1
  H  H24  1  0.31708100  0.90566100  0.17604400  1
  H  H25  1  0.68291900  0.09433900  0.82395600  1
  H  H26  1  0.39284000  0.22665200  0.09025700  1
  H  H27  1  0.60716000  0.77334800  0.90974300  1
  H  H28  1  0.41195600  0.12295300  0.21449500  1
  H  H29  1  0.58804400  0.87704700  0.78550500  1
  H  H30  1  0.15421500  0.96788700  0.84927900  1
  H  H31  1  0.84578500  0.03211300  0.15072100  1
  H  H32  1  0.23696300  0.13550400  0.88165100  1
  H  H33  1  0.76303700  0.86449600  0.11834900  1
  H  H34  1  0.25692300  0.73372900  0.99102000  1
  H  H35  1  0.74307700  0.26627100  0.00898000  1
  H  H36  1  0.05582000  0.76451000  0.03850600  1
  H  H37  1  0.94418000  0.23549000  0.96149400  1
  H  H38  1  0.91231600  0.72460800  0.42576200  1
  H  H39  1  0.08768400  0.27539200  0.57423800  1
  H  H40  1  0.95270800  0.71095900  0.75784000  1
  H  H41  1  0.04729200  0.28904100  0.24216000  1
  H  H42  1  0.80269200  0.55942600  0.74919900  1
  H  H43  1  0.19730800  0.44057400  0.25080100  1
  H  H44  1  0.72573100  0.52714000  0.40289900  1
  H  H45  1  0.27426900  0.47286000  0.59710100  1
  H  H46  1  0.68922100  0.45097000  0.54545900  1
  H  H47  1  0.31077900  0.54903000  0.45454100  1
  H  H48  1  0.89464100  0.90838400  0.54857000  1
  H  H49  1  0.10535900  0.09161600  0.45143000  1
  H  H50  1  0.13458900  0.88978900  0.56163100  1
  H  H51  1  0.86541100  0.11021100  0.43836900  1
  H  H52  1  0.99806600  0.67605900  0.24267600  1
  H  H53  1  0.00193400  0.32394100  0.75732400  1
  H  H54  1  0.89869700  0.65337100  0.20695600  1
  H  H55  1  0.10130300  0.34662900  0.79304400  1
  H  H56  1  0.39630600  0.73555900  0.36119200  1
  H  H57  1  0.60369400  0.26444100  0.63880800  1
  H  H58  1  0.40454800  0.62952900  0.24478700  1
  H  H59  1  0.59545200  0.37047100  0.75521300  1
  C  C60  1  0.27896400  0.03282500  0.03776900  1
  C  C61  1  0.72103600  0.96717500  0.96223100  1
  C  C62  1  0.85567200  0.62513100  0.57817700  1
  C  C63  1  0.14432800  0.37486900  0.42182300  1
  N  N64  1  0.26400600  0.91293100  0.08090200  1
  N  N65  1  0.73599400  0.08706900  0.91909800  1
  N  N66  1  0.95774300  0.71885100  0.52231900  1
  N  N67  1  0.04225700  0.28114900  0.47768100  1
  N  N68  1  0.36932600  0.13457700  0.11919400  1
  N  N69  1  0.63067400  0.86542300  0.88080600  1
  N  N70  1  0.20437700  0.04802700  0.91588900  1
  N  N71  1  0.79562300  0.95197300  0.08411100  1
  N  N72  1  0.16800000  0.80422600  0.99960600  1
  N  N73  1  0.83200000  0.19577400  0.00039400  1
  N  N74  1  0.88114100  0.62594900  0.70645600  1
  N  N75  1  0.11885900  0.37405100  0.29354400  1
  N  N76  1  0.74565400  0.52863300  0.50117800  1
  N  N77  1  0.25434600  0.47136700  0.49882200  1
  N  N78  1  0.00497400  0.85839700  0.59092400  1
  N  N79  1  0.99502600  0.14160300  0.40907600  1
  O  O80  1  0.98271900  0.13168900  0.28146900  1
  O  O81  1  0.01728100  0.86831100  0.71853100  1
  O  O82  1  0.34721900  0.64575200  0.32321000  1
  O  O83  1  0.65278100  0.35424800  0.67679000  1
