# generated using pymatgen
data_CsTiH24(SO10)2
_symmetry_space_group_name_H-M   'P 1'
_cell_length_a   12.46264217
_cell_length_b   12.47522485
_cell_length_c   12.43422385
_cell_angle_alpha   90.00000000
_cell_angle_beta   90.00000000
_cell_angle_gamma   90.00000000
_symmetry_Int_Tables_number   1
_chemical_formula_structural   CsTiH24(SO10)2
_chemical_formula_sum   'Cs4 Ti4 H96 S8 O80'
_cell_volume   1933.20179273
_cell_formula_units_Z   4
loop_
 _symmetry_equiv_pos_site_id
 _symmetry_equiv_pos_as_xyz
  1  'x, y, z'
loop_
 _atom_site_type_symbol
 _atom_site_label
 _atom_site_symmetry_multiplicity
 _atom_site_fract_x
 _atom_site_fract_y
 _atom_site_fract_z
 _atom_site_occupancy
  Cs  Cs0  1  0.00000000  0.50000000  0.00000000  1
  Cs  Cs1  1  0.50000000  0.00000000  0.00000000  1
  Cs  Cs2  1  0.00000000  0.00000000  0.50000000  1
  Cs  Cs3  1  0.50000000  0.50000000  0.50000000  1
  Ti  Ti4  1  0.50000000  0.00000000  0.50000000  1
  Ti  Ti5  1  0.00000000  0.50000000  0.50000000  1
  Ti  Ti6  1  0.50000000  0.50000000  0.00000000  1
  Ti  Ti7  1  0.00000000  0.00000000  0.00000000  1
  H  H8  1  0.50940567  0.22791404  0.22260082  1
  H  H9  1  0.00940567  0.27208596  0.77739918  1
  H  H10  1  0.49059433  0.72791404  0.27739918  1
  H  H11  1  0.99059433  0.77208596  0.72260082  1
  H  H12  1  0.49059433  0.77208596  0.77739918  1
  H  H13  1  0.99059433  0.72791404  0.22260082  1
  H  H14  1  0.50940567  0.27208596  0.72260082  1
  H  H15  1  0.00940567  0.22791404  0.27739918  1
  H  H16  1  0.62799770  0.21973842  0.18423240  1
  H  H17  1  0.12799770  0.28026158  0.81576760  1
  H  H18  1  0.37200230  0.71973842  0.31576760  1
  H  H19  1  0.87200230  0.78026158  0.68423240  1
  H  H20  1  0.37200230  0.78026158  0.81576760  1
  H  H21  1  0.87200230  0.71973842  0.18423240  1
  H  H22  1  0.62799770  0.28026158  0.68423240  1
  H  H23  1  0.12799770  0.21973842  0.31576760  1
  H  H24  1  0.77894263  0.01107118  0.26939956  1
  H  H25  1  0.27894263  0.48892882  0.73060044  1
  H  H26  1  0.22105737  0.51107118  0.23060044  1
  H  H27  1  0.72105737  0.98892882  0.76939956  1
  H  H28  1  0.22105737  0.98892882  0.73060044  1
  H  H29  1  0.72105737  0.51107118  0.26939956  1
  H  H30  1  0.77894263  0.48892882  0.76939956  1
  H  H31  1  0.27894263  0.01107118  0.23060044  1
  H  H32  1  0.81664033  0.12928895  0.28093192  1
  H  H33  1  0.31664033  0.37071105  0.71906808  1
  H  H34  1  0.18335967  0.62928895  0.21906808  1
  H  H35  1  0.68335967  0.87071105  0.78093192  1
  H  H36  1  0.18335967  0.87071105  0.71906808  1
  H  H37  1  0.68335967  0.62928895  0.28093192  1
  H  H38  1  0.81664033  0.37071105  0.78093192  1
  H  H39  1  0.31664033  0.12928895  0.21906808  1
  H  H40  1  0.72854794  0.28208738  0.49154165  1
  H  H41  1  0.22854794  0.21791262  0.50845835  1
  H  H42  1  0.27145206  0.78208738  0.00845835  1
  H  H43  1  0.77145206  0.71791262  0.99154165  1
  H  H44  1  0.27145206  0.71791262  0.50845835  1
  H  H45  1  0.77145206  0.78208738  0.49154165  1
  H  H46  1  0.72854794  0.21791262  0.99154165  1
  H  H47  1  0.22854794  0.28208738  0.00845835  1
  H  H48  1  0.72031244  0.32067799  0.37257299  1
  H  H49  1  0.22031244  0.17932201  0.62742701  1
  H  H50  1  0.27968756  0.82067799  0.12742701  1
  H  H51  1  0.77968756  0.67932201  0.87257299  1
  H  H52  1  0.27968756  0.67932201  0.62742701  1
  H  H53  1  0.77968756  0.82067799  0.37257299  1
  H  H54  1  0.72031244  0.17932201  0.87257299  1
  H  H55  1  0.22031244  0.32067799  0.12742701  1
  H  H56  1  0.71375389  0.93879698  0.47783320  1
  H  H57  1  0.21375389  0.56120302  0.52216680  1
  H  H58  1  0.28624611  0.43879698  0.02216680  1
  H  H59  1  0.78624611  0.06120302  0.97783320  1
  H  H60  1  0.28624611  0.06120302  0.52216680  1
  H  H61  1  0.78624611  0.43879698  0.47783320  1
  H  H62  1  0.71375389  0.56120302  0.97783320  1
  H  H63  1  0.21375389  0.93879698  0.02216680  1
  H  H64  1  0.70888422  0.06461542  0.52185320  1
  H  H65  1  0.20888422  0.43538458  0.47814680  1
  H  H66  1  0.29111578  0.56461542  0.97814680  1
  H  H67  1  0.79111578  0.93538458  0.02185320  1
  H  H68  1  0.29111578  0.93538458  0.47814680  1
  H  H69  1  0.79111578  0.56461542  0.52185320  1
  H  H70  1  0.70888422  0.43538458  0.02185320  1
  H  H71  1  0.20888422  0.06461542  0.97814680  1
  H  H72  1  0.52196565  0.21176341  0.56541527  1
  H  H73  1  0.02196565  0.28823659  0.43458473  1
  H  H74  1  0.47803435  0.71176341  0.93458473  1
  H  H75  1  0.97803435  0.78823659  0.06541527  1
  H  H76  1  0.47803435  0.78823659  0.43458473  1
  H  H77  1  0.97803435  0.71176341  0.56541527  1
  H  H78  1  0.52196565  0.28823659  0.06541527  1
  H  H79  1  0.02196565  0.21176341  0.93458473  1
  H  H80  1  0.47363710  0.20816577  0.44154795  1
  H  H81  1  0.97363710  0.29183423  0.55845205  1
  H  H82  1  0.52636290  0.70816577  0.05845205  1
  H  H83  1  0.02636290  0.79183423  0.94154795  1
  H  H84  1  0.52636290  0.79183423  0.55845205  1
  H  H85  1  0.02636290  0.70816577  0.44154795  1
  H  H86  1  0.47363710  0.29183423  0.94154795  1
  H  H87  1  0.97363710  0.20816577  0.05845205  1
  H  H88  1  0.43874451  0.02577708  0.28657740  1
  H  H89  1  0.93874451  0.47422292  0.71342260  1
  H  H90  1  0.56125549  0.52577708  0.21342260  1
  H  H91  1  0.06125549  0.97422292  0.78657740  1
  H  H92  1  0.56125549  0.97422292  0.71342260  1
  H  H93  1  0.06125549  0.52577708  0.28657740  1
  H  H94  1  0.43874451  0.47422292  0.78657740  1
  H  H95  1  0.93874451  0.02577708  0.21342260  1
  H  H96  1  0.56140614  0.97687170  0.28963740  1
  H  H97  1  0.06140614  0.52312830  0.71036260  1
  H  H98  1  0.43859386  0.47687170  0.21036260  1
  H  H99  1  0.93859386  0.02312830  0.78963740  1
  H  H100  1  0.43859386  0.02312830  0.71036260  1
  H  H101  1  0.93859386  0.47687170  0.28963740  1
  H  H102  1  0.56140614  0.52312830  0.78963740  1
  H  H103  1  0.06140614  0.97687170  0.21036260  1
  S  S104  1  0.82653318  0.32715127  0.17154632  1
  S  S105  1  0.32653318  0.17284873  0.82845368  1
  S  S106  1  0.17346682  0.82715127  0.32845368  1
  S  S107  1  0.67346682  0.67284873  0.67154632  1
  S  S108  1  0.17346682  0.67284873  0.82845368  1
  S  S109  1  0.67346682  0.82715127  0.17154632  1
  S  S110  1  0.82653318  0.17284873  0.67154632  1
  S  S111  1  0.32653318  0.32715127  0.32845368  1
  O  O112  1  0.75780133  0.25953196  0.24343599  1
  O  O113  1  0.25780133  0.24046804  0.75656401  1
  O  O114  1  0.24219867  0.75953196  0.25656401  1
  O  O115  1  0.74219867  0.74046804  0.74343599  1
  O  O116  1  0.24219867  0.74046804  0.75656401  1
  O  O117  1  0.74219867  0.75953196  0.24343599  1
  O  O118  1  0.75780133  0.24046804  0.74343599  1
  O  O119  1  0.25780133  0.25953196  0.25656401  1
  O  O120  1  0.77844826  0.33160587  0.06181314  1
  O  O121  1  0.27844826  0.16839413  0.93818686  1
  O  O122  1  0.22155174  0.83160587  0.43818686  1
  O  O123  1  0.72155174  0.66839413  0.56181314  1
  O  O124  1  0.22155174  0.66839413  0.93818686  1
  O  O125  1  0.72155174  0.83160587  0.06181314  1
  O  O126  1  0.77844826  0.16839413  0.56181314  1
  O  O127  1  0.27844826  0.33160587  0.43818686  1
  O  O128  1  0.93665828  0.28040396  0.16432443  1
  O  O129  1  0.43665828  0.21959604  0.83567557  1
  O  O130  1  0.06334172  0.78040396  0.33567557  1
  O  O131  1  0.56334172  0.71959604  0.66432443  1
  O  O132  1  0.06334172  0.71959604  0.83567557  1
  O  O133  1  0.56334172  0.78040396  0.16432443  1
  O  O134  1  0.93665828  0.21959604  0.66432443  1
  O  O135  1  0.43665828  0.28040396  0.33567557  1
  O  O136  1  0.83426737  0.43856971  0.21581974  1
  O  O137  1  0.33426737  0.06143029  0.78418026  1
  O  O138  1  0.16573263  0.93856971  0.28418026  1
  O  O139  1  0.66573263  0.56143029  0.71581974  1
  O  O140  1  0.16573263  0.56143029  0.78418026  1
  O  O141  1  0.66573263  0.93856971  0.21581974  1
  O  O142  1  0.83426737  0.06143029  0.71581974  1
  O  O143  1  0.33426737  0.43856971  0.28418026  1
  O  O144  1  0.55358235  0.20736227  0.15974353  1
  O  O145  1  0.05358235  0.29263773  0.84025647  1
  O  O146  1  0.44641765  0.70736227  0.34025647  1
  O  O147  1  0.94641765  0.79263773  0.65974353  1
  O  O148  1  0.44641765  0.79263773  0.84025647  1
  O  O149  1  0.94641765  0.70736227  0.15974353  1
  O  O150  1  0.55358235  0.29263773  0.65974353  1
  O  O151  1  0.05358235  0.20736227  0.34025647  1
  O  O152  1  0.84085107  0.05466095  0.29288519  1
  O  O153  1  0.34085107  0.44533905  0.70711481  1
  O  O154  1  0.15914893  0.55466095  0.20711481  1
  O  O155  1  0.65914893  0.94533905  0.79288519  1
  O  O156  1  0.15914893  0.94533905  0.70711481  1
  O  O157  1  0.65914893  0.55466095  0.29288519  1
  O  O158  1  0.84085107  0.44533905  0.79288519  1
  O  O159  1  0.34085107  0.05466095  0.20711481  1
  O  O160  1  0.70697293  0.34452360  0.44718078  1
  O  O161  1  0.20697293  0.15547640  0.55281922  1
  O  O162  1  0.29302707  0.84452360  0.05281922  1
  O  O163  1  0.79302707  0.65547640  0.94718078  1
  O  O164  1  0.29302707  0.65547640  0.55281922  1
  O  O165  1  0.79302707  0.84452360  0.44718078  1
  O  O166  1  0.70697293  0.15547640  0.94718078  1
  O  O167  1  0.20697293  0.34452360  0.05281922  1
  O  O168  1  0.66499494  0.00124999  0.49871372  1
  O  O169  1  0.16499494  0.49875001  0.50128628  1
  O  O170  1  0.33500506  0.50124999  0.00128628  1
  O  O171  1  0.83500506  0.99875001  0.99871372  1
  O  O172  1  0.33500506  0.99875001  0.50128628  1
  O  O173  1  0.83500506  0.50124999  0.49871372  1
  O  O174  1  0.66499494  0.49875001  0.99871372  1
  O  O175  1  0.16499494  0.00124999  0.00128628  1
  O  O176  1  0.49596235  0.16365870  0.50460535  1
  O  O177  1  0.99596235  0.33634130  0.49539465  1
  O  O178  1  0.50403765  0.66365870  0.99539465  1
  O  O179  1  0.00403765  0.83634130  0.00460535  1
  O  O180  1  0.50403765  0.83634130  0.49539465  1
  O  O181  1  0.00403765  0.66365870  0.50460535  1
  O  O182  1  0.49596235  0.33634130  0.00460535  1
  O  O183  1  0.99596235  0.16365870  0.99539465  1
  O  O184  1  0.50030516  0.00262826  0.33474287  1
  O  O185  1  0.00030516  0.49737174  0.66525713  1
  O  O186  1  0.49969484  0.50262826  0.16525713  1
  O  O187  1  0.99969484  0.99737174  0.83474287  1
  O  O188  1  0.49969484  0.99737174  0.66525713  1
  O  O189  1  0.99969484  0.50262826  0.33474287  1
  O  O190  1  0.50030516  0.49737174  0.83474287  1
  O  O191  1  0.00030516  0.00262826  0.16525713  1
