# generated using pymatgen
data_CuH8C2NCl3
_symmetry_space_group_name_H-M   'P 1'
_cell_length_a   9.93599651
_cell_length_b   9.93599651
_cell_length_c   12.14922164
_cell_angle_alpha   58.99737838
_cell_angle_beta   58.99737838
_cell_angle_gamma   52.39864249
_symmetry_Int_Tables_number   1
_chemical_formula_structural   CuH8C2NCl3
_chemical_formula_sum   'Cu4 H32 C8 N4 Cl12'
_cell_volume   778.09862591
_cell_formula_units_Z   4
loop_
 _symmetry_equiv_pos_site_id
 _symmetry_equiv_pos_as_xyz
  1  'x, y, z'
loop_
 _atom_site_type_symbol
 _atom_site_label
 _atom_site_symmetry_multiplicity
 _atom_site_fract_x
 _atom_site_fract_y
 _atom_site_fract_z
 _atom_site_occupancy
  Cu  Cu0  1  0.58157300  0.34934500  0.92102700  1
  Cu  Cu1  1  0.65065500  0.41842700  0.57897300  1
  Cu  Cu2  1  0.41842700  0.65065500  0.07897300  1
  Cu  Cu3  1  0.34934500  0.58157300  0.42102700  1
  H  H4  1  0.76696800  0.95621900  0.84292300  1
  H  H5  1  0.04378100  0.23303200  0.65707700  1
  H  H6  1  0.23303200  0.04378100  0.15707700  1
  H  H7  1  0.95621900  0.76696800  0.34292300  1
  H  H8  1  0.88668900  0.94845900  0.68990300  1
  H  H9  1  0.05154100  0.11331100  0.81009700  1
  H  H10  1  0.11331100  0.05154100  0.31009700  1
  H  H11  1  0.94845900  0.88668900  0.18990300  1
  H  H12  1  0.91641100  0.63660400  0.93466500  1
  H  H13  1  0.36339600  0.08358900  0.56533500  1
  H  H14  1  0.08358900  0.36339600  0.06533500  1
  H  H15  1  0.63660400  0.91641100  0.43466500  1
  H  H16  1  0.06233300  0.73435300  0.83709500  1
  H  H17  1  0.26564700  0.93766700  0.66290500  1
  H  H18  1  0.93766700  0.26564700  0.16290500  1
  H  H19  1  0.73435300  0.06233300  0.33709500  1
  H  H20  1  0.05150900  0.62482000  0.76572700  1
  H  H21  1  0.37518000  0.94849100  0.73427300  1
  H  H22  1  0.94849100  0.37518000  0.23427300  1
  H  H23  1  0.62482000  0.05150900  0.26572700  1
  H  H24  1  0.76499600  0.77048200  0.71364800  1
  H  H25  1  0.22951800  0.23500400  0.78635200  1
  H  H26  1  0.23500400  0.22951800  0.28635200  1
  H  H27  1  0.77048200  0.76499600  0.21364800  1
  H  H28  1  0.62022000  0.00010200  0.70809800  1
  H  H29  1  0.99989800  0.37978000  0.79190200  1
  H  H30  1  0.37978000  0.99989800  0.29190200  1
  H  H31  1  0.00010200  0.62022000  0.20809800  1
  H  H32  1  0.61040700  0.83001100  0.86614200  1
  H  H33  1  0.16998900  0.38959300  0.63385800  1
  H  H34  1  0.38959300  0.16998900  0.13385800  1
  H  H35  1  0.83001100  0.61040700  0.36614200  1
  C  C36  1  0.97490000  0.70501900  0.83373200  1
  C  C37  1  0.29498100  0.02510000  0.66626800  1
  C  C38  1  0.02510000  0.29498100  0.16626800  1
  C  C39  1  0.70501900  0.97490000  0.33373200  1
  C  C40  1  0.69743400  0.86704600  0.76674700  1
  C  C41  1  0.13295400  0.30256600  0.73325300  1
  C  C42  1  0.30256600  0.13295400  0.23325300  1
  C  C43  1  0.86704600  0.69743400  0.26674700  1
  N  N44  1  0.83046000  0.87742900  0.78157200  1
  N  N45  1  0.12257100  0.16954000  0.71842800  1
  N  N46  1  0.16954000  0.12257100  0.21842800  1
  N  N47  1  0.87742900  0.83046000  0.28157200  1
  Cl  Cl48  1  0.46242900  0.29706100  0.83935000  1
  Cl  Cl49  1  0.70293900  0.53757100  0.66065000  1
  Cl  Cl50  1  0.53757100  0.70293900  0.16065000  1
  Cl  Cl51  1  0.29706100  0.46242900  0.33935000  1
  Cl  Cl52  1  0.31603500  0.58646000  0.98666200  1
  Cl  Cl53  1  0.41354000  0.68396500  0.51333800  1
  Cl  Cl54  1  0.68396500  0.41354000  0.01333800  1
  Cl  Cl55  1  0.58646000  0.31603500  0.48666200  1
  Cl  Cl56  1  0.80526300  0.06408400  0.95164600  1
  Cl  Cl57  1  0.93591600  0.19473700  0.54835400  1
  Cl  Cl58  1  0.19473700  0.93591600  0.04835400  1
  Cl  Cl59  1  0.06408400  0.80526300  0.45164600  1
