# generated using pymatgen
data_CdH9C2(N2O5)2
_symmetry_space_group_name_H-M   'P 1'
_cell_length_a   7.57896400
_cell_length_b   8.34729600
_cell_length_c   17.88810100
_cell_angle_alpha   90.00000000
_cell_angle_beta   90.00000000
_cell_angle_gamma   90.00000000
_symmetry_Int_Tables_number   1
_chemical_formula_structural   CdH9C2(N2O5)2
_chemical_formula_sum   'Cd4 H36 C8 N16 O40'
_cell_volume   1131.67024365
_cell_formula_units_Z   4
loop_
 _symmetry_equiv_pos_site_id
 _symmetry_equiv_pos_as_xyz
  1  'x, y, z'
loop_
 _atom_site_type_symbol
 _atom_site_label
 _atom_site_symmetry_multiplicity
 _atom_site_fract_x
 _atom_site_fract_y
 _atom_site_fract_z
 _atom_site_occupancy
  Cd  Cd0  1  0.24987800  0.75591100  0.75454000  1
  Cd  Cd1  1  0.25012200  0.24408900  0.25454000  1
  Cd  Cd2  1  0.74987800  0.74408900  0.24546000  1
  Cd  Cd3  1  0.75012200  0.25591100  0.74546000  1
  H  H4  1  0.97456500  0.02508200  0.99232900  1
  H  H5  1  0.52543500  0.97491800  0.49232900  1
  H  H6  1  0.47456500  0.47491800  0.00767100  1
  H  H7  1  0.02543500  0.52508200  0.50767100  1
  H  H8  1  0.03126700  0.16731500  0.92391600  1
  H  H9  1  0.46873300  0.83268500  0.42391600  1
  H  H10  1  0.53126700  0.33268500  0.07608400  1
  H  H11  1  0.96873300  0.66731500  0.57608400  1
  H  H12  1  0.44120900  0.33266900  0.56639400  1
  H  H13  1  0.05879100  0.66733100  0.06639400  1
  H  H14  1  0.94120900  0.16733100  0.43360600  1
  H  H15  1  0.55879100  0.83266900  0.93360600  1
  H  H16  1  0.52078600  0.48541400  0.50671500  1
  H  H17  1  0.97921400  0.51458600  0.00671500  1
  H  H18  1  0.02078600  0.01458600  0.49328500  1
  H  H19  1  0.47921400  0.98541400  0.99328500  1
  H  H20  1  0.89894600  0.83640300  0.70257100  1
  H  H21  1  0.60105400  0.16359700  0.20257100  1
  H  H22  1  0.39894600  0.66359700  0.29742900  1
  H  H23  1  0.10105400  0.33640300  0.79742900  1
  H  H24  1  0.90119400  0.64463500  0.70753700  1
  H  H25  1  0.59880600  0.35536500  0.20753700  1
  H  H26  1  0.40119400  0.85536500  0.29246300  1
  H  H27  1  0.09880600  0.14463500  0.79246300  1
  H  H28  1  0.61045800  0.66454600  0.79123700  1
  H  H29  1  0.88954200  0.33545400  0.29123700  1
  H  H30  1  0.11045800  0.83545400  0.20876300  1
  H  H31  1  0.38954200  0.16454600  0.70876300  1
  H  H32  1  0.60999100  0.85387100  0.78745800  1
  H  H33  1  0.89000900  0.14612900  0.28745800  1
  H  H34  1  0.10999100  0.64612900  0.21254200  1
  H  H35  1  0.39000900  0.35387100  0.71254200  1
  H  H36  1  0.08809300  0.81584300  0.92335600  1
  H  H37  1  0.41190700  0.18415700  0.42335600  1
  H  H38  1  0.58809300  0.68415700  0.07664400  1
  H  H39  1  0.91190700  0.31584300  0.57664400  1
  C  C40  1  0.09267200  0.93642200  0.89888200  1
  C  C41  1  0.40732800  0.06357800  0.39888200  1
  C  C42  1  0.59267200  0.56357800  0.10111800  1
  C  C43  1  0.90732800  0.43642200  0.60111800  1
  C  C44  1  0.39845800  0.56163600  0.60091900  1
  C  C45  1  0.10154200  0.43836400  0.10091900  1
  C  C46  1  0.89845800  0.93836400  0.39908100  1
  C  C47  1  0.60154200  0.06163600  0.89908100  1
  N  N48  1  0.02860400  0.05118900  0.94135300  1
  N  N49  1  0.47139600  0.94881100  0.44135300  1
  N  N50  1  0.52860400  0.44881100  0.05864700  1
  N  N51  1  0.97139600  0.55118900  0.55864700  1
  N  N52  1  0.45190400  0.45225700  0.55360800  1
  N  N53  1  0.04809600  0.54774300  0.05360800  1
  N  N54  1  0.95190400  0.04774300  0.44639200  1
  N  N55  1  0.54809600  0.95225700  0.94639200  1
  N  N56  1  0.21630700  0.00528900  0.61182500  1
  N  N57  1  0.28369300  0.99471100  0.11182500  1
  N  N58  1  0.71630700  0.49471100  0.38817500  1
  N  N59  1  0.78369300  0.50528900  0.88817500  1
  N  N60  1  0.28460600  0.49988800  0.88815700  1
  N  N61  1  0.21539400  0.50011200  0.38815700  1
  N  N62  1  0.78460600  0.00011200  0.11184300  1
  N  N63  1  0.71539400  0.99988800  0.61184300  1
  O  O64  1  0.15656200  0.96062700  0.83418300  1
  O  O65  1  0.34343800  0.03937300  0.33418300  1
  O  O66  1  0.65656200  0.53937300  0.16581700  1
  O  O67  1  0.84343800  0.46062700  0.66581700  1
  O  O68  1  0.33162300  0.54823600  0.66361800  1
  O  O69  1  0.16837700  0.45176400  0.16361800  1
  O  O70  1  0.83162300  0.95176400  0.33638200  1
  O  O71  1  0.66837700  0.04823600  0.83638200  1
  O  O72  1  0.29542800  0.98516800  0.67576600  1
  O  O73  1  0.20457200  0.01483200  0.17576600  1
  O  O74  1  0.79542800  0.51483200  0.32423400  1
  O  O75  1  0.70457200  0.48516800  0.82423400  1
  O  O76  1  0.22141000  0.14110200  0.58197300  1
  O  O77  1  0.27859000  0.85889800  0.08197300  1
  O  O78  1  0.72141000  0.35889800  0.41802700  1
  O  O79  1  0.77859000  0.64110200  0.91802700  1
  O  O80  1  0.13759000  0.88964400  0.58188100  1
  O  O81  1  0.36241000  0.11035600  0.08188100  1
  O  O82  1  0.63759000  0.61035600  0.41811900  1
  O  O83  1  0.86241000  0.38964400  0.91811900  1
  O  O84  1  0.19441000  0.52255200  0.82659300  1
  O  O85  1  0.30559000  0.47744800  0.32659300  1
  O  O86  1  0.69441000  0.97744800  0.17340700  1
  O  O87  1  0.80559000  0.02255200  0.67340700  1
  O  O88  1  0.35750800  0.61869500  0.91845000  1
  O  O89  1  0.14249200  0.38130500  0.41845000  1
  O  O90  1  0.85750800  0.88130500  0.08155000  1
  O  O91  1  0.64249200  0.11869500  0.58155000  1
  O  O92  1  0.29299200  0.36222800  0.91481300  1
  O  O93  1  0.20700800  0.63777200  0.41481300  1
  O  O94  1  0.79299200  0.13777200  0.08518700  1
  O  O95  1  0.70700800  0.86222800  0.58518700  1
  O  O96  1  0.95559100  0.74348500  0.72786400  1
  O  O97  1  0.54440900  0.25651500  0.22786400  1
  O  O98  1  0.45559100  0.75651500  0.27213600  1
  O  O99  1  0.04440900  0.24348500  0.77213600  1
  O  O100  1  0.55125200  0.75799900  0.76721400  1
  O  O101  1  0.94874800  0.24200100  0.26721400  1
  O  O102  1  0.05125200  0.74200100  0.23278600  1
  O  O103  1  0.44874800  0.25799900  0.73278600  1
