# generated using pymatgen
data_YRh2Pb
_symmetry_space_group_name_H-M   'P 1'
_cell_length_a   11.23864355
_cell_length_b   11.23864355
_cell_length_c   11.23864355
_cell_angle_alpha   128.15744121
_cell_angle_beta   117.43140626
_cell_angle_gamma   85.49702481
_symmetry_Int_Tables_number   1
_chemical_formula_structural   YRh2Pb
_chemical_formula_sum   'Y1 Rh2 Pb1'
_cell_volume   946.50099245
_cell_formula_units_Z   1
loop_
 _symmetry_equiv_pos_site_id
 _symmetry_equiv_pos_as_xyz
  1  'x, y, z'
loop_
 _atom_site_type_symbol
 _atom_site_label
 _atom_site_symmetry_multiplicity
 _atom_site_fract_x
 _atom_site_fract_y
 _atom_site_fract_z
 _atom_site_occupancy
  Y  Y0  1  0.00000000  0.00000000  0.00000000  1
  Rh  Rh1  1  0.00000000  0.23646600  0.23646600  1
  Rh  Rh2  1  0.00000000  0.76353400  0.76353400  1
  Pb  Pb3  1  0.00000000  0.50000000  0.50000000  1
