# generated using pymatgen
data_YbMn2O5
_symmetry_space_group_name_H-M   'P 1'
_cell_length_a   5.84617800
_cell_length_b   7.06021300
_cell_length_c   8.46225900
_cell_angle_alpha   90.00000000
_cell_angle_beta   90.00000000
_cell_angle_gamma   90.00000000
_symmetry_Int_Tables_number   1
_chemical_formula_structural   YbMn2O5
_chemical_formula_sum   'Yb4 Mn8 O20'
_cell_volume   349.28195663
_cell_formula_units_Z   4
loop_
 _symmetry_equiv_pos_site_id
 _symmetry_equiv_pos_as_xyz
  1  'x, y, z'
loop_
 _atom_site_type_symbol
 _atom_site_label
 _atom_site_symmetry_multiplicity
 _atom_site_fract_x
 _atom_site_fract_y
 _atom_site_fract_z
 _atom_site_occupancy
  Yb  Yb0  1  0.00000000  0.37276500  0.67005100  1
  Yb  Yb1  1  0.00000000  0.62723500  0.32994900  1
  Yb  Yb2  1  0.00000000  0.12723500  0.17005100  1
  Yb  Yb3  1  0.00000000  0.87276500  0.82994900  1
  Mn  Mn4  1  0.75429100  0.00000000  0.50000000  1
  Mn  Mn5  1  0.75429100  0.50000000  0.00000000  1
  Mn  Mn6  1  0.50000000  0.59109300  0.65267300  1
  Mn  Mn7  1  0.24570900  0.00000000  0.50000000  1
  Mn  Mn8  1  0.50000000  0.90890700  0.15267300  1
  Mn  Mn9  1  0.24570900  0.50000000  0.00000000  1
  Mn  Mn10  1  0.50000000  0.09109300  0.84732700  1
  Mn  Mn11  1  0.50000000  0.40890700  0.34732700  1
  O  O12  1  0.24753000  0.38894000  0.20637100  1
  O  O13  1  0.28738200  0.50000000  0.50000000  1
  O  O14  1  0.50000000  0.65336600  0.08726500  1
  O  O15  1  0.00000000  0.16503000  0.44457500  1
  O  O16  1  0.00000000  0.33497000  0.94457500  1
  O  O17  1  0.75247000  0.38894000  0.20637100  1
  O  O18  1  0.71261800  0.00000000  0.00000000  1
  O  O19  1  0.24753000  0.61106000  0.79362900  1
  O  O20  1  0.00000000  0.83497000  0.55542500  1
  O  O21  1  0.71261800  0.50000000  0.50000000  1
  O  O22  1  0.75247000  0.61106000  0.79362900  1
  O  O23  1  0.28738200  0.00000000  0.00000000  1
  O  O24  1  0.75247000  0.88894000  0.29362900  1
  O  O25  1  0.24753000  0.88894000  0.29362900  1
  O  O26  1  0.50000000  0.34663400  0.91273500  1
  O  O27  1  0.75247000  0.11106000  0.70637100  1
  O  O28  1  0.00000000  0.66503000  0.05542500  1
  O  O29  1  0.24753000  0.11106000  0.70637100  1
  O  O30  1  0.50000000  0.84663400  0.58726500  1
  O  O31  1  0.50000000  0.15336600  0.41273500  1
