# generated using pymatgen
data_Na2CrFeF7
_symmetry_space_group_name_H-M   'P 1'
_cell_length_a   7.44705685
_cell_length_b   7.44705685
_cell_length_c   25.02473296
_cell_angle_alpha   81.78888697
_cell_angle_beta   81.78888697
_cell_angle_gamma   60.23824395
_symmetry_Int_Tables_number   1
_chemical_formula_structural   Na2CrFeF7
_chemical_formula_sum   'Na16 Cr8 Fe8 F56'
_cell_volume   1188.24184054
_cell_formula_units_Z   8
loop_
 _symmetry_equiv_pos_site_id
 _symmetry_equiv_pos_as_xyz
  1  'x, y, z'
loop_
 _atom_site_type_symbol
 _atom_site_label
 _atom_site_symmetry_multiplicity
 _atom_site_fract_x
 _atom_site_fract_y
 _atom_site_fract_z
 _atom_site_occupancy
  Na  Na0  1  0.11575600  0.13525100  0.12161200  1
  Na  Na1  1  0.21172200  0.78827800  0.25000000  1
  Na  Na2  1  0.20731200  0.29699200  0.24753200  1
  Na  Na3  1  0.00000000  0.00000000  0.50000000  1
  Na  Na4  1  0.88424400  0.86474900  0.87838800  1
  Na  Na5  1  0.00000000  0.00000000  0.00000000  1
  Na  Na6  1  0.86474900  0.88424400  0.37838800  1
  Na  Na7  1  0.70300800  0.79268800  0.25246800  1
  Na  Na8  1  0.13525100  0.11575600  0.62161200  1
  Na  Na9  1  0.50000000  0.50000000  0.00000000  1
  Na  Na10  1  0.50000000  0.50000000  0.50000000  1
  Na  Na11  1  0.79268800  0.70300800  0.75246800  1
  Na  Na12  1  0.00000000  0.50000000  0.00000000  1
  Na  Na13  1  0.29699200  0.20731200  0.74753200  1
  Na  Na14  1  0.50000000  0.00000000  0.50000000  1
  Na  Na15  1  0.78827800  0.21172200  0.75000000  1
  Cr  Cr16  1  0.63685200  0.11036000  0.62594700  1
  Cr  Cr17  1  0.11036000  0.63685200  0.12594700  1
  Cr  Cr18  1  0.36314800  0.88964000  0.37405300  1
  Cr  Cr19  1  0.88964000  0.36314800  0.87405300  1
  Cr  Cr20  1  0.24882000  0.75118000  0.75000000  1
  Cr  Cr21  1  0.00000000  0.50000000  0.50000000  1
  Cr  Cr22  1  0.50000000  0.00000000  0.00000000  1
  Cr  Cr23  1  0.75118000  0.24882000  0.25000000  1
  Fe  Fe24  1  0.38687500  0.36824500  0.87217900  1
  Fe  Fe25  1  0.61312500  0.63175500  0.12782100  1
  Fe  Fe26  1  0.13485100  0.61174100  0.62615500  1
  Fe  Fe27  1  0.86514900  0.38825900  0.37384500  1
  Fe  Fe28  1  0.63175500  0.61312500  0.62782100  1
  Fe  Fe29  1  0.36824500  0.38687500  0.37217900  1
  Fe  Fe30  1  0.38825900  0.86514900  0.87384500  1
  Fe  Fe31  1  0.61174100  0.13485100  0.12615500  1
  F  F32  1  0.34136100  0.29885900  0.64275400  1
  F  F33  1  0.58370400  0.74519700  0.04611100  1
  F  F34  1  0.46942100  0.09427000  0.84442400  1
  F  F35  1  0.97783200  0.86070300  0.79077000  1
  F  F36  1  0.36370600  0.86212800  0.79285900  1
  F  F37  1  0.63655000  0.52262600  0.21010500  1
  F  F38  1  0.13929700  0.02216800  0.70923000  1
  F  F39  1  0.29484900  0.73119700  0.14205200  1
  F  F40  1  0.97365600  0.35813500  0.79576600  1
  F  F41  1  0.64186500  0.02634400  0.70423400  1
  F  F42  1  0.86212800  0.36370600  0.29285900  1
  F  F43  1  0.52262600  0.63655000  0.71010500  1
  F  F44  1  0.81065600  0.36539500  0.95289500  1
  F  F45  1  0.36107000  0.69735700  0.59770800  1
  F  F46  1  0.86070300  0.97783200  0.29077000  1
  F  F47  1  0.73119700  0.29484900  0.64205200  1
  F  F48  1  0.92919000  0.53782400  0.11019200  1
  F  F49  1  0.06739900  0.07549900  0.39152900  1
  F  F50  1  0.12921700  0.20889600  0.53179400  1
  F  F51  1  0.53782400  0.92919000  0.61019200  1
  F  F52  1  0.53057900  0.90573000  0.15557600  1
  F  F53  1  0.63460500  0.18934400  0.54710500  1
  F  F54  1  0.13787200  0.63629400  0.70714100  1
  F  F55  1  0.09427000  0.46942100  0.34442400  1
  F  F56  1  0.07081000  0.46217600  0.88980800  1
  F  F57  1  0.36539500  0.81065600  0.45289500  1
  F  F58  1  0.74519700  0.58370400  0.54611100  1
  F  F59  1  0.25480300  0.41629600  0.45388900  1
  F  F60  1  0.29885900  0.34136100  0.14275400  1
  F  F61  1  0.02216800  0.13929700  0.20923000  1
  F  F62  1  0.79110400  0.87078300  0.96820600  1
  F  F63  1  0.41629600  0.25480300  0.95388900  1
  F  F64  1  0.46217600  0.07081000  0.38980800  1
  F  F65  1  0.02634400  0.64186500  0.20423400  1
  F  F66  1  0.70114100  0.65863900  0.85724600  1
  F  F67  1  0.63629400  0.13787200  0.20714100  1
  F  F68  1  0.92450100  0.93260100  0.10847100  1
  F  F69  1  0.35813500  0.97365600  0.29576600  1
  F  F70  1  0.18934400  0.63460500  0.04710500  1
  F  F71  1  0.30264300  0.63893000  0.90229200  1
  F  F72  1  0.41933100  0.86395400  0.95496700  1
  F  F73  1  0.13604600  0.58066900  0.54503300  1
  F  F74  1  0.26880300  0.70515100  0.35794800  1
  F  F75  1  0.63893000  0.30264300  0.40229200  1
  F  F76  1  0.90573000  0.53057900  0.65557600  1
  F  F77  1  0.86395400  0.41933100  0.45496700  1
  F  F78  1  0.47737400  0.36345000  0.28989500  1
  F  F79  1  0.69735700  0.36107000  0.09770800  1
  F  F80  1  0.70515100  0.26880300  0.85794800  1
  F  F81  1  0.93260100  0.92450100  0.60847100  1
  F  F82  1  0.20889600  0.12921700  0.03179400  1
  F  F83  1  0.65863900  0.70114100  0.35724600  1
  F  F84  1  0.87078300  0.79110400  0.46820600  1
  F  F85  1  0.58066900  0.13604600  0.04503300  1
  F  F86  1  0.36345000  0.47737400  0.78989500  1
  F  F87  1  0.07549900  0.06739900  0.89152900  1
