# generated using pymatgen
data_Fe4(PO4)3
_symmetry_space_group_name_H-M   'P 1'
_cell_length_a   6.17848600
_cell_length_b   10.14547000
_cell_length_c   14.84340500
_cell_angle_alpha   90.00000000
_cell_angle_beta   90.00000000
_cell_angle_gamma   90.00000000
_symmetry_Int_Tables_number   1
_chemical_formula_structural   Fe4(PO4)3
_chemical_formula_sum   'Fe16 P12 O48'
_cell_volume   930.43872009
_cell_formula_units_Z   4
loop_
 _symmetry_equiv_pos_site_id
 _symmetry_equiv_pos_as_xyz
  1  'x, y, z'
loop_
 _atom_site_type_symbol
 _atom_site_label
 _atom_site_symmetry_multiplicity
 _atom_site_fract_x
 _atom_site_fract_y
 _atom_site_fract_z
 _atom_site_occupancy
  Fe  Fe0  1  0.36169700  0.92825300  0.11326200  1
  Fe  Fe1  1  0.63830300  0.07174700  0.88673800  1
  Fe  Fe2  1  0.64645100  0.65178400  0.61323100  1
  Fe  Fe3  1  0.36169700  0.92825300  0.38673800  1
  Fe  Fe4  1  0.85354900  0.15178400  0.38676900  1
  Fe  Fe5  1  0.35354900  0.34821600  0.11323100  1
  Fe  Fe6  1  0.86169700  0.57174700  0.38673800  1
  Fe  Fe7  1  0.85354900  0.15178400  0.11323100  1
  Fe  Fe8  1  0.86169700  0.57174700  0.11326200  1
  Fe  Fe9  1  0.14645100  0.84821600  0.61323100  1
  Fe  Fe10  1  0.63830300  0.07174700  0.61326200  1
  Fe  Fe11  1  0.14645100  0.84821600  0.88676900  1
  Fe  Fe12  1  0.64645100  0.65178400  0.88676900  1
  Fe  Fe13  1  0.13830300  0.42825300  0.61326200  1
  Fe  Fe14  1  0.35354900  0.34821600  0.38676900  1
  Fe  Fe15  1  0.13830300  0.42825300  0.88673800  1
  P  P16  1  0.64139900  0.36741500  0.57031300  1
  P  P17  1  0.99584100  0.39860200  0.25000000  1
  P  P18  1  0.85860100  0.86741500  0.07031300  1
  P  P19  1  0.64139900  0.36741500  0.92968700  1
  P  P20  1  0.14139900  0.13258500  0.57031300  1
  P  P21  1  0.49584100  0.10139800  0.25000000  1
  P  P22  1  0.00415900  0.60139800  0.75000000  1
  P  P23  1  0.85860100  0.86741500  0.42968700  1
  P  P24  1  0.35860100  0.63258500  0.07031300  1
  P  P25  1  0.14139900  0.13258500  0.92968700  1
  P  P26  1  0.50415900  0.89860200  0.75000000  1
  P  P27  1  0.35860100  0.63258500  0.42968700  1
  O  O28  1  0.24607300  0.38075700  0.25000000  1
  O  O29  1  0.07674500  0.20134100  0.01890400  1
  O  O30  1  0.20510900  0.24031200  0.86279700  1
  O  O31  1  0.75392700  0.61924300  0.75000000  1
  O  O32  1  0.90228000  0.34615100  0.16036900  1
  O  O33  1  0.42325500  0.70134100  0.98109600  1
  O  O34  1  0.96026400  0.03695500  0.89464500  1
  O  O35  1  0.25392700  0.88075700  0.75000000  1
  O  O36  1  0.29489100  0.74031200  0.13720300  1
  O  O37  1  0.42325500  0.70134100  0.51890400  1
  O  O38  1  0.09772000  0.65384900  0.66036900  1
  O  O39  1  0.33685800  0.03239200  0.94196800  1
  O  O40  1  0.03973600  0.96304500  0.39464500  1
  O  O41  1  0.74607300  0.11924300  0.25000000  1
  O  O42  1  0.06504400  0.45151000  0.75000000  1
  O  O43  1  0.79489100  0.75968800  0.13720300  1
  O  O44  1  0.66314200  0.96760800  0.05803200  1
  O  O45  1  0.93495600  0.54849000  0.25000000  1
  O  O46  1  0.66314200  0.96760800  0.44196800  1
  O  O47  1  0.46026400  0.46304500  0.60535500  1
  O  O48  1  0.07674500  0.20134100  0.48109600  1
  O  O49  1  0.57674500  0.29865900  0.01890400  1
  O  O50  1  0.40228000  0.15384900  0.33963100  1
  O  O51  1  0.43495600  0.95151000  0.25000000  1
  O  O52  1  0.59772000  0.84615100  0.66036900  1
  O  O53  1  0.92325500  0.79865900  0.98109600  1
  O  O54  1  0.09772000  0.65384900  0.83963100  1
  O  O55  1  0.40228000  0.15384900  0.16036900  1
  O  O56  1  0.79489100  0.75968800  0.36279700  1
  O  O57  1  0.29489100  0.74031200  0.36279700  1
  O  O58  1  0.53973600  0.53695500  0.10535500  1
  O  O59  1  0.59772000  0.84615100  0.83963100  1
  O  O60  1  0.70510900  0.25968800  0.63720300  1
  O  O61  1  0.46026400  0.46304500  0.89464500  1
  O  O62  1  0.03973600  0.96304500  0.10535500  1
  O  O63  1  0.20510900  0.24031200  0.63720300  1
  O  O64  1  0.57674500  0.29865900  0.48109600  1
  O  O65  1  0.70510900  0.25968800  0.86279700  1
  O  O66  1  0.90228000  0.34615100  0.33963100  1
  O  O67  1  0.92325500  0.79865900  0.51890400  1
  O  O68  1  0.16314200  0.53239200  0.05803200  1
  O  O69  1  0.53973600  0.53695500  0.39464500  1
  O  O70  1  0.56504400  0.04849000  0.75000000  1
  O  O71  1  0.16314200  0.53239200  0.44196800  1
  O  O72  1  0.83685800  0.46760800  0.55803200  1
  O  O73  1  0.33685800  0.03239200  0.55803200  1
  O  O74  1  0.83685800  0.46760800  0.94196800  1
  O  O75  1  0.96026400  0.03695500  0.60535500  1
