# generated using pymatgen
data_Mn2SnC9BrO9
_symmetry_space_group_name_H-M   'P 1'
_cell_length_a   12.81590000
_cell_length_b   8.89623100
_cell_length_c   15.21604895
_cell_angle_alpha   82.66994140
_cell_angle_beta   90.00000000
_cell_angle_gamma   90.00000000
_symmetry_Int_Tables_number   1
_chemical_formula_structural   Mn2SnC9BrO9
_chemical_formula_sum   'Mn8 Sn4 C36 Br4 O36'
_cell_volume   1720.65288614
_cell_formula_units_Z   4
loop_
 _symmetry_equiv_pos_site_id
 _symmetry_equiv_pos_as_xyz
  1  'x, y, z'
loop_
 _atom_site_type_symbol
 _atom_site_label
 _atom_site_symmetry_multiplicity
 _atom_site_fract_x
 _atom_site_fract_y
 _atom_site_fract_z
 _atom_site_occupancy
  Mn  Mn0  1  0.50774100  0.44246800  0.60394100  1
  Mn  Mn1  1  0.30709500  0.74655600  0.06395600  1
  Mn  Mn2  1  0.69290500  0.25344400  0.93604400  1
  Mn  Mn3  1  0.80709500  0.25344400  0.43604400  1
  Mn  Mn4  1  0.99225900  0.44246800  0.10394100  1
  Mn  Mn5  1  0.49225900  0.55753200  0.39605900  1
  Mn  Mn6  1  0.00774100  0.55753200  0.89605900  1
  Mn  Mn7  1  0.19290500  0.74655600  0.56395600  1
  Sn  Sn8  1  0.16666600  0.53763000  0.02364000  1
  Sn  Sn9  1  0.33333400  0.53763000  0.52364000  1
  Sn  Sn10  1  0.66666600  0.46237000  0.47636000  1
  Sn  Sn11  1  0.83333400  0.46237000  0.97636000  1
  C  C12  1  0.02301200  0.24526500  0.08356900  1
  C  C13  1  0.36330600  0.58005100  0.13621400  1
  C  C14  1  0.87320100  0.37870000  0.15774400  1
  C  C15  1  0.59358100  0.12036900  0.90579500  1
  C  C16  1  0.47698800  0.24526500  0.58356900  1
  C  C17  1  0.12679900  0.62130000  0.84225600  1
  C  C18  1  0.63669400  0.41994900  0.86378600  1
  C  C19  1  0.71395100  0.20069400  0.34914400  1
  C  C20  1  0.46089000  0.36013400  0.37501400  1
  C  C21  1  0.74142800  0.11621600  0.52187500  1
  C  C22  1  0.25857200  0.88378400  0.47812500  1
  C  C23  1  0.57932700  0.57910900  0.30007000  1
  C  C24  1  0.52301200  0.75473500  0.41643100  1
  C  C25  1  0.75857200  0.11621600  0.02187500  1
  C  C26  1  0.07932700  0.42089100  0.19993000  1
  C  C27  1  0.90641900  0.12036900  0.40579500  1
  C  C28  1  0.09358100  0.87963100  0.59420500  1
  C  C29  1  0.61182800  0.31421500  0.02699800  1
  C  C30  1  0.97698800  0.75473500  0.91643100  1
  C  C31  1  0.96089000  0.63986600  0.12498600  1
  C  C32  1  0.38817200  0.68578500  0.97300200  1
  C  C33  1  0.88817200  0.31421500  0.52699800  1
  C  C34  1  0.03911000  0.36013400  0.87501400  1
  C  C35  1  0.86330600  0.41994900  0.36378600  1
  C  C36  1  0.28604900  0.79930600  0.65085600  1
  C  C37  1  0.78604900  0.20069400  0.84914400  1
  C  C38  1  0.11182800  0.68578500  0.47300200  1
  C  C39  1  0.13669400  0.58005100  0.63621400  1
  C  C40  1  0.40641900  0.87963100  0.09420500  1
  C  C41  1  0.21395100  0.79930600  0.15085600  1
  C  C42  1  0.42067300  0.42089100  0.69993000  1
  C  C43  1  0.62679900  0.37870000  0.65774400  1
  C  C44  1  0.53911000  0.63986600  0.62498600  1
  C  C45  1  0.24142800  0.88378400  0.97812500  1
  C  C46  1  0.92067300  0.57910900  0.80007000  1
  C  C47  1  0.37320100  0.62130000  0.34225600  1
  Br  Br48  1  0.28429600  0.30940800  0.00179800  1
  Br  Br49  1  0.71570400  0.69059200  0.99820200  1
  Br  Br50  1  0.21570400  0.30940800  0.50179800  1
  Br  Br51  1  0.78429600  0.69059200  0.49820200  1
  O  O52  1  0.15686400  0.83808000  0.20225200  1
  O  O53  1  0.06104500  0.64824900  0.41712900  1
  O  O54  1  0.03863800  0.11861100  0.07713500  1
  O  O55  1  0.56104500  0.35175100  0.08287100  1
  O  O56  1  0.93912900  0.75771900  0.14440000  1
  O  O57  1  0.79724700  0.03504400  0.07789000  1
  O  O58  1  0.20275300  0.96495600  0.92211000  1
  O  O59  1  0.70275300  0.03504400  0.57789000  1
  O  O60  1  0.59781400  0.52400200  0.82355000  1
  O  O61  1  0.79691200  0.33709200  0.19573800  1
  O  O62  1  0.96136200  0.88138900  0.92286500  1
  O  O63  1  0.09781400  0.47599800  0.67645000  1
  O  O64  1  0.84313600  0.16192000  0.79774800  1
  O  O65  1  0.36770600  0.40603900  0.76290400  1
  O  O66  1  0.65686400  0.16192000  0.29774800  1
  O  O67  1  0.02949900  0.96211400  0.61266400  1
  O  O68  1  0.53863800  0.88138900  0.42286500  1
  O  O69  1  0.46136200  0.11861100  0.57713500  1
  O  O70  1  0.29691200  0.66290800  0.30426200  1
  O  O71  1  0.34313600  0.83808000  0.70225200  1
  O  O72  1  0.47050100  0.96211400  0.11266400  1
  O  O73  1  0.06087100  0.24228100  0.85560000  1
  O  O74  1  0.13229400  0.40603900  0.26290400  1
  O  O75  1  0.43895500  0.64824900  0.91712900  1
  O  O76  1  0.52949900  0.03788600  0.88733600  1
  O  O77  1  0.43912900  0.24228100  0.35560000  1
  O  O78  1  0.93895500  0.35175100  0.58287100  1
  O  O79  1  0.40218600  0.47599800  0.17645000  1
  O  O80  1  0.86770600  0.59396100  0.73709600  1
  O  O81  1  0.29724700  0.96495600  0.42211000  1
  O  O82  1  0.90218600  0.52400200  0.32355000  1
  O  O83  1  0.20308800  0.66290800  0.80426200  1
  O  O84  1  0.63229400  0.59396100  0.23709600  1
  O  O85  1  0.56087100  0.75771900  0.64440000  1
  O  O86  1  0.97050100  0.03788600  0.38733600  1
  O  O87  1  0.70308800  0.33709200  0.69573800  1
