# generated using pymatgen
data_CuSiH8(O2F3)2
_symmetry_space_group_name_H-M   'P 1'
_cell_length_a   9.48997600
_cell_length_b   6.19400800
_cell_length_c   6.82292080
_cell_angle_alpha   69.03157930
_cell_angle_beta   90.00000000
_cell_angle_gamma   90.00000000
_symmetry_Int_Tables_number   1
_chemical_formula_structural   CuSiH8(O2F3)2
_chemical_formula_sum   'Cu2 Si2 H16 O8 F12'
_cell_volume   374.49907771
_cell_formula_units_Z   2
loop_
 _symmetry_equiv_pos_site_id
 _symmetry_equiv_pos_as_xyz
  1  'x, y, z'
loop_
 _atom_site_type_symbol
 _atom_site_label
 _atom_site_symmetry_multiplicity
 _atom_site_fract_x
 _atom_site_fract_y
 _atom_site_fract_z
 _atom_site_occupancy
  Cu  Cu0  1  0.50000000  0.50000000  0.00000000  1
  Cu  Cu1  1  0.00000000  0.00000000  0.00000000  1
  Si  Si2  1  0.00000000  0.50000000  0.50000000  1
  Si  Si3  1  0.50000000  0.00000000  0.50000000  1
  H  H4  1  0.29933900  0.40733200  0.79550000  1
  H  H5  1  0.79933900  0.09266800  0.20450000  1
  H  H6  1  0.70066100  0.59266800  0.20450000  1
  H  H7  1  0.20066100  0.90733200  0.79550000  1
  H  H8  1  0.71593600  0.77521000  0.97303700  1
  H  H9  1  0.21593600  0.72479000  0.02696300  1
  H  H10  1  0.28406400  0.22479000  0.02696300  1
  H  H11  1  0.78406400  0.27521000  0.97303700  1
  H  H12  1  0.84510300  0.05768600  0.69778100  1
  H  H13  1  0.34510300  0.44231400  0.30221900  1
  H  H14  1  0.15489700  0.94231400  0.30221900  1
  H  H15  1  0.65489700  0.55768600  0.69778100  1
  H  H16  1  0.40138400  0.70606300  0.23462500  1
  H  H17  1  0.90138400  0.79393700  0.76537500  1
  H  H18  1  0.59861600  0.29393700  0.76537500  1
  H  H19  1  0.09861600  0.20606300  0.23462500  1
  O  O20  1  0.35364900  0.31617400  0.91977600  1
  O  O21  1  0.85364900  0.18382600  0.08022400  1
  O  O22  1  0.64635100  0.68382600  0.08022400  1
  O  O23  1  0.14635100  0.81617400  0.91977600  1
  O  O24  1  0.86259600  0.91194400  0.82138300  1
  O  O25  1  0.36259600  0.58805600  0.17861700  1
  O  O26  1  0.13740400  0.08805600  0.17861700  1
  O  O27  1  0.63740400  0.41194400  0.82138300  1
  F  F28  1  0.43330300  0.91621200  0.30440200  1
  F  F29  1  0.93330300  0.58378800  0.69559800  1
  F  F30  1  0.56669700  0.08378800  0.69559800  1
  F  F31  1  0.06669700  0.41621200  0.30440200  1
  F  F32  1  0.35741000  0.18107200  0.47328600  1
  F  F33  1  0.85741000  0.31892800  0.52671400  1
  F  F34  1  0.64259000  0.81892800  0.52671400  1
  F  F35  1  0.14259000  0.68107200  0.47328600  1
  F  F36  1  0.40872500  0.78288700  0.68504300  1
  F  F37  1  0.90872500  0.71711300  0.31495700  1
  F  F38  1  0.59127500  0.21711300  0.31495700  1
  F  F39  1  0.09127500  0.28288700  0.68504300  1
