data_image0
_chemical_formula_structural       O4Tl3V
_chemical_formula_sum              "O4 Tl3 V1"
_cell_length_a       5.86531
_cell_length_b       5.9822
_cell_length_c       5.9822
_cell_angle_alpha    92.3093
_cell_angle_beta     119.356
_cell_angle_gamma    60.6443

_space_group_name_H-M_alt    "P 1"
_space_group_IT_number       1

loop_
  _space_group_symop_operation_xyz
  'x, y, z'

loop_
  _atom_site_type_symbol
  _atom_site_label
  _atom_site_symmetry_multiplicity
  _atom_site_fract_x
  _atom_site_fract_y
  _atom_site_fract_z
  _atom_site_occupancy
  O   O1        1.0  0.83900  0.48800  0.16500  1.0000
  O   O2        1.0  0.83900  0.83500  0.51200  1.0000
  O   O3        1.0  0.39300  0.35500  0.64500  1.0000
  O   O4        1.0  0.89800  0.35500  0.64500  1.0000
  Tl  Tl1       1.0  0.46300  0.30400  0.22900  1.0000
  Tl  Tl2       1.0  0.46300  0.77100  0.69600  1.0000
  Tl  Tl3       1.0  0.96400  0.03600  0.96400  1.0000
  V   V1        1.0  0.99200  0.50800  0.49200  1.0000
