# generated using pymatgen
data_Gd2Mo5O18
_symmetry_space_group_name_H-M   'P 1'
_cell_length_a   9.50188800
_cell_length_b   9.59257300
_cell_length_c   19.53924400
_cell_angle_alpha   90.00000000
_cell_angle_beta   90.00000000
_cell_angle_gamma   90.00000000
_symmetry_Int_Tables_number   1
_chemical_formula_structural   Gd2Mo5O18
_chemical_formula_sum   'Gd8 Mo20 O72'
_cell_volume   1780.95430304
_cell_formula_units_Z   4
loop_
 _symmetry_equiv_pos_site_id
 _symmetry_equiv_pos_as_xyz
  1  'x, y, z'
loop_
 _atom_site_type_symbol
 _atom_site_label
 _atom_site_symmetry_multiplicity
 _atom_site_fract_x
 _atom_site_fract_y
 _atom_site_fract_z
 _atom_site_occupancy
  Gd  Gd0  1  0.02687500  0.23186500  0.38511100  1
  Gd  Gd1  1  0.97312500  0.76813500  0.61488900  1
  Gd  Gd2  1  0.52687500  0.76813500  0.38511100  1
  Gd  Gd3  1  0.47312500  0.73186500  0.88511100  1
  Gd  Gd4  1  0.52687500  0.26813500  0.11488900  1
  Gd  Gd5  1  0.97312500  0.26813500  0.88511100  1
  Gd  Gd6  1  0.02687500  0.73186500  0.11488900  1
  Gd  Gd7  1  0.47312500  0.23186500  0.61488900  1
  Mo  Mo8  1  0.82352800  0.13229400  0.69887500  1
  Mo  Mo9  1  0.25000000  0.96451800  0.50000000  1
  Mo  Mo10  1  0.67647200  0.63229400  0.19887500  1
  Mo  Mo11  1  0.32352800  0.86770600  0.69887500  1
  Mo  Mo12  1  0.17647200  0.86770600  0.30112500  1
  Mo  Mo13  1  0.25000000  0.46451800  0.00000000  1
  Mo  Mo14  1  0.32352800  0.36770600  0.80112500  1
  Mo  Mo15  1  0.43796800  0.35810700  0.41023400  1
  Mo  Mo16  1  0.75000000  0.03548200  0.50000000  1
  Mo  Mo17  1  0.06203200  0.85810700  0.91023400  1
  Mo  Mo18  1  0.06203200  0.35810700  0.58976600  1
  Mo  Mo19  1  0.75000000  0.53548200  0.00000000  1
  Mo  Mo20  1  0.93796800  0.64189300  0.41023400  1
  Mo  Mo21  1  0.93796800  0.14189300  0.08976600  1
  Mo  Mo22  1  0.56203200  0.14189300  0.91023400  1
  Mo  Mo23  1  0.82352800  0.63229400  0.80112500  1
  Mo  Mo24  1  0.67647200  0.13229400  0.30112500  1
  Mo  Mo25  1  0.56203200  0.64189300  0.58976600  1
  Mo  Mo26  1  0.17647200  0.36770600  0.19887500  1
  Mo  Mo27  1  0.43796800  0.85810700  0.08976600  1
  O  O28  1  0.35791900  0.32439600  0.20478900  1
  O  O29  1  0.43420000  0.74671400  0.64321000  1
  O  O30  1  0.11282400  0.07121400  0.46703100  1
  O  O31  1  0.14779800  0.54420200  0.17585700  1
  O  O32  1  0.51311700  0.65846700  0.50348000  1
  O  O33  1  0.06580000  0.24671400  0.14321000  1
  O  O34  1  0.68460600  0.64177200  0.93021800  1
  O  O35  1  0.18460600  0.35822800  0.93021800  1
  O  O36  1  0.76441200  0.70428000  0.40132000  1
  O  O37  1  0.38717600  0.57121400  0.96703100  1
  O  O38  1  0.85791900  0.17560400  0.29521100  1
  O  O39  1  0.55915300  0.96515300  0.88378900  1
  O  O40  1  0.61282400  0.92878600  0.46703100  1
  O  O41  1  0.01311700  0.34153300  0.50348000  1
  O  O42  1  0.89376500  0.65410600  0.71876600  1
  O  O43  1  0.23558800  0.79572000  0.90132000  1
  O  O44  1  0.14779800  0.04420200  0.32414300  1
  O  O45  1  0.05915300  0.53484700  0.61621100  1
  O  O46  1  0.48688300  0.84153300  0.00348000  1
  O  O47  1  0.05915300  0.03484700  0.88378900  1
  O  O48  1  0.26441200  0.79572000  0.09868000  1
  O  O49  1  0.73558800  0.20428000  0.90132000  1
  O  O50  1  0.76441200  0.20428000  0.09868000  1
  O  O51  1  0.60623500  0.65410600  0.28123400  1
  O  O52  1  0.81539400  0.64177200  0.06978200  1
  O  O53  1  0.14208100  0.82439600  0.70478900  1
  O  O54  1  0.64779800  0.95579800  0.32414300  1
  O  O55  1  0.43420000  0.24671400  0.85679000  1
  O  O56  1  0.35791900  0.82439600  0.29521100  1
  O  O57  1  0.55915300  0.46515300  0.61621100  1
  O  O58  1  0.01311700  0.84153300  0.99652000  1
  O  O59  1  0.60623500  0.15410600  0.21876600  1
  O  O60  1  0.61282400  0.42878600  0.03296900  1
  O  O61  1  0.98688300  0.15846700  0.00348000  1
  O  O62  1  0.44084700  0.53484700  0.38378900  1
  O  O63  1  0.51311700  0.15846700  0.99652000  1
  O  O64  1  0.48688300  0.34153300  0.49652000  1
  O  O65  1  0.94084700  0.96515300  0.11621100  1
  O  O66  1  0.31539400  0.35822800  0.06978200  1
  O  O67  1  0.39376500  0.84589400  0.78123400  1
  O  O68  1  0.98688300  0.65846700  0.49652000  1
  O  O69  1  0.64779800  0.45579800  0.17585700  1
  O  O70  1  0.64208100  0.17560400  0.70478900  1
  O  O71  1  0.26441200  0.29572000  0.40132000  1
  O  O72  1  0.68460600  0.14177200  0.56978200  1
  O  O73  1  0.14208100  0.32439600  0.79521100  1
  O  O74  1  0.23558800  0.29572000  0.59868000  1
  O  O75  1  0.10623500  0.34589400  0.28123400  1
  O  O76  1  0.85220200  0.45579800  0.82414300  1
  O  O77  1  0.31539400  0.85822800  0.43021800  1
  O  O78  1  0.85220200  0.95579800  0.67585700  1
  O  O79  1  0.35220200  0.54420200  0.82414300  1
  O  O80  1  0.35220200  0.04420200  0.67585700  1
  O  O81  1  0.64208100  0.67560400  0.79521100  1
  O  O82  1  0.94084700  0.46515300  0.38378900  1
  O  O83  1  0.38717600  0.07121400  0.53296900  1
  O  O84  1  0.93420000  0.25328600  0.64321000  1
  O  O85  1  0.56580000  0.75328600  0.14321000  1
  O  O86  1  0.18460600  0.85822800  0.56978200  1
  O  O87  1  0.44084700  0.03484700  0.11621100  1
  O  O88  1  0.81539400  0.14177200  0.43021800  1
  O  O89  1  0.88717600  0.42878600  0.96703100  1
  O  O90  1  0.73558800  0.70428000  0.59868000  1
  O  O91  1  0.56580000  0.25328600  0.35679000  1
  O  O92  1  0.06580000  0.74671400  0.35679000  1
  O  O93  1  0.39376500  0.34589400  0.71876600  1
  O  O94  1  0.85791900  0.67560400  0.20478900  1
  O  O95  1  0.11282400  0.57121400  0.03296900  1
  O  O96  1  0.88717600  0.92878600  0.53296900  1
  O  O97  1  0.93420000  0.75328600  0.85679000  1
  O  O98  1  0.89376500  0.15410600  0.78123400  1
  O  O99  1  0.10623500  0.84589400  0.21876600  1
