# generated using pymatgen
data_Pr5(Mo16O27)2
_symmetry_space_group_name_H-M   'P 1'
_cell_length_a   9.42487705
_cell_length_b   11.17196349
_cell_length_c   24.78504317
_cell_angle_alpha   100.59300066
_cell_angle_beta   90.00000000
_cell_angle_gamma   90.00000000
_symmetry_Int_Tables_number   1
_chemical_formula_structural   Pr5(Mo16O27)2
_chemical_formula_sum   'Pr10 Mo64 O108'
_cell_volume   2565.25037673
_cell_formula_units_Z   2
loop_
 _symmetry_equiv_pos_site_id
 _symmetry_equiv_pos_as_xyz
  1  'x, y, z'
loop_
 _atom_site_type_symbol
 _atom_site_label
 _atom_site_symmetry_multiplicity
 _atom_site_fract_x
 _atom_site_fract_y
 _atom_site_fract_z
 _atom_site_occupancy
  Pr  Pr0  1  0.01222870  0.63260914  0.09503016  1
  Pr  Pr1  1  0.48777130  0.13260914  0.59503016  1
  Pr  Pr2  1  0.04347041  0.02310483  0.81443084  1
  Pr  Pr3  1  0.50000000  0.00000000  0.00000000  1
  Pr  Pr4  1  0.54347041  0.47689517  0.68556916  1
  Pr  Pr5  1  0.98777130  0.36739086  0.90496984  1
  Pr  Pr6  1  0.45652959  0.52310483  0.31443084  1
  Pr  Pr7  1  0.51222870  0.86739086  0.40496984  1
  Pr  Pr8  1  0.95652959  0.97689517  0.18556916  1
  Pr  Pr9  1  0.00000000  0.50000000  0.50000000  1
  Mo  Mo10  1  0.86533944  0.31387610  0.74315099  1
  Mo  Mo11  1  0.86443246  0.60431312  0.76920054  1
  Mo  Mo12  1  0.36533944  0.18612390  0.75684901  1
  Mo  Mo13  1  0.63407367  0.26848711  0.17629328  1
  Mo  Mo14  1  0.36592633  0.73151289  0.82370672  1
  Mo  Mo15  1  0.14709961  0.92211495  0.51463031  1
  Mo  Mo16  1  0.63466056  0.81387610  0.24315099  1
  Mo  Mo17  1  0.13556754  0.39568688  0.23079946  1
  Mo  Mo18  1  0.15292309  0.33882303  0.67227083  1
  Mo  Mo19  1  0.12295375  0.51764673  0.35865436  1
  Mo  Mo20  1  0.34670495  0.36554445  0.44744170  1
  Mo  Mo21  1  0.85920605  0.53517295  0.20188024  1
  Mo  Mo22  1  0.63828462  0.34701194  0.52088817  1
  Mo  Mo23  1  0.14551678  0.80447177  0.38619689  1
  Mo  Mo24  1  0.64781689  0.41317498  0.07730377  1
  Mo  Mo25  1  0.87904514  0.72016577  0.89316234  1
  Mo  Mo26  1  0.36171538  0.65298806  0.47911183  1
  Mo  Mo27  1  0.14079395  0.46482705  0.79811976  1
  Mo  Mo28  1  0.62295375  0.98235327  0.14134564  1
  Mo  Mo29  1  0.84707691  0.66117697  0.32772917  1
  Mo  Mo30  1  0.37904514  0.77983423  0.60683766  1
  Mo  Mo31  1  0.35107144  0.12904201  0.19953073  1
  Mo  Mo32  1  0.86592633  0.76848711  0.67629328  1
  Mo  Mo33  1  0.85107144  0.37095799  0.30046927  1
  Mo  Mo34  1  0.63556754  0.10431312  0.26920054  1
  Mo  Mo35  1  0.35218311  0.58682502  0.92269623  1
  Mo  Mo36  1  0.14117092  0.98759930  0.07533324  1
  Mo  Mo37  1  0.37704625  0.01764673  0.85865436  1
  Mo  Mo38  1  0.13466056  0.68612390  0.25684901  1
  Mo  Mo39  1  0.36443246  0.89568688  0.73079946  1
  Mo  Mo40  1  0.36272930  0.71504403  0.04506117  1
  Mo  Mo41  1  0.64079395  0.03517295  0.70188024  1
  Mo  Mo42  1  0.62371235  0.46074682  0.85547006  1
  Mo  Mo43  1  0.62095486  0.22016577  0.39316234  1
  Mo  Mo44  1  0.35882908  0.48759930  0.57533324  1
  Mo  Mo45  1  0.64551678  0.69552823  0.11380311  1
  Mo  Mo46  1  0.13727070  0.21504403  0.54506117  1
  Mo  Mo47  1  0.65292309  0.16117697  0.82772917  1
  Mo  Mo48  1  0.13828462  0.15298806  0.97911183  1
  Mo  Mo49  1  0.63727070  0.28495597  0.95493883  1
  Mo  Mo50  1  0.35448322  0.30447177  0.88619689  1
  Mo  Mo51  1  0.64709961  0.57788505  0.98536969  1
  Mo  Mo52  1  0.12095486  0.27983423  0.10683766  1
  Mo  Mo53  1  0.85448322  0.19552823  0.61380311  1
  Mo  Mo54  1  0.65329505  0.63445555  0.55255830  1
  Mo  Mo55  1  0.85218311  0.91317498  0.57730377  1
  Mo  Mo56  1  0.35290039  0.42211495  0.01463031  1
  Mo  Mo57  1  0.86171538  0.84701194  0.02088817  1
  Mo  Mo58  1  0.84670495  0.13445555  0.05255830  1
  Mo  Mo59  1  0.13407367  0.23151289  0.32370672  1
  Mo  Mo60  1  0.14781689  0.08682502  0.42269623  1
  Mo  Mo61  1  0.87628765  0.96074682  0.35547006  1
  Mo  Mo62  1  0.12371235  0.03925318  0.64452994  1
  Mo  Mo63  1  0.14892856  0.62904201  0.69953073  1
  Mo  Mo64  1  0.87704625  0.48235327  0.64134564  1
  Mo  Mo65  1  0.15329505  0.86554445  0.94744170  1
  Mo  Mo66  1  0.85882908  0.01240070  0.92466676  1
  Mo  Mo67  1  0.64892856  0.87095799  0.80046927  1
  Mo  Mo68  1  0.85290039  0.07788505  0.48536969  1
  Mo  Mo69  1  0.34707691  0.83882303  0.17227083  1
  Mo  Mo70  1  0.35920605  0.96482705  0.29811976  1
  Mo  Mo71  1  0.64117092  0.51240070  0.42466676  1
  Mo  Mo72  1  0.37628765  0.53925318  0.14452994  1
  Mo  Mo73  1  0.86272930  0.78495597  0.45493883  1
  O  O74  1  0.72120318  0.18888723  0.54314214  1
  O  O75  1  0.24178159  0.14492500  0.05548136  1
  O  O76  1  0.25088469  0.38894413  0.30561559  1
  O  O77  1  0.49182934  0.83558017  0.10290975  1
  O  O78  1  0.98775438  0.74434720  0.74196615  1
  O  O79  1  0.50574019  0.61747126  0.61754807  1
  O  O80  1  0.25424669  0.68669671  0.12073311  1
  O  O81  1  0.50817066  0.16441983  0.89709025  1
  O  O82  1  0.00172228  0.26422849  0.03752040  1
  O  O83  1  0.25241121  0.16052728  0.83255461  1
  O  O84  1  0.24378712  0.43284971  0.09016018  1
  O  O85  1  0.25621288  0.93284971  0.59016018  1
  O  O86  1  0.49425981  0.38252874  0.38245193  1
  O  O87  1  0.74525059  0.23004216  0.32643490  1
  O  O88  1  0.48775438  0.75565280  0.75803385  1
  O  O89  1  0.22954712  0.84514361  0.24397969  1
  O  O90  1  0.74731447  0.39169982  0.22692102  1
  O  O91  1  0.51224562  0.24434720  0.24196615  1
  O  O92  1  0.75621288  0.56715029  0.90983982  1
  O  O93  1  0.24575331  0.18669671  0.62073311  1
  O  O94  1  0.77537079  0.95655961  0.28002273  1
  O  O95  1  0.72954712  0.65485639  0.25602031  1
  O  O96  1  0.74575331  0.31330329  0.87926689  1
  O  O97  1  0.29131316  0.01841249  0.93851359  1
  O  O98  1  0.00574019  0.88252874  0.88245193  1
  O  O99  1  0.24758879  0.66052728  0.33255461  1
  O  O100  1  0.50172228  0.23577151  0.46247960  1
  O  O101  1  0.00166203  0.19285080  0.68174362  1
  O  O102  1  0.22120318  0.31111277  0.95685786  1
  O  O103  1  0.50398839  0.17963875  0.68881339  1
  O  O104  1  0.99507640  0.84821397  0.09372378  1
  O  O105  1  0.21522392  0.98403995  0.15646796  1
  O  O106  1  0.49601161  0.82036125  0.31118661  1
  O  O107  1  0.28477608  0.48403995  0.65646796  1
  O  O108  1  0.27537079  0.54344039  0.21997727  1
  O  O109  1  0.99182934  0.66441983  0.39709025  1
  O  O110  1  0.25268553  0.60830018  0.77307898  1
  O  O111  1  0.71763037  0.05104702  0.62393143  1
  O  O112  1  0.02288791  0.08280393  0.34991697  1
  O  O113  1  0.76082086  0.42274014  0.00231894  1
  O  O114  1  0.76064679  0.76893032  0.60600516  1
  O  O115  1  0.28236963  0.94895298  0.37606857  1
  O  O116  1  0.98645308  0.58758157  0.84098385  1
  O  O117  1  0.47711209  0.58280393  0.84991697  1
  O  O118  1  0.28618491  0.87614858  0.02101953  1
  O  O119  1  0.21763037  0.44895298  0.87606857  1
  O  O120  1  0.74378712  0.06715029  0.40983982  1
  O  O121  1  0.23917914  0.57725986  -0.00231894  1
  O  O122  1  0.24525059  0.26995784  0.17356510  1
  O  O123  1  0.00492360  0.15178603  0.90627622  1
  O  O124  1  0.99601161  0.67963875  0.18881339  1
  O  O125  1  0.78477608  0.01596005  0.84353204  1
  O  O126  1  0.77045288  0.15485639  0.75602031  1
  O  O127  1  0.49144065  0.70953272  0.97545392  1
  O  O128  1  0.75821841  0.85507500  0.94451864  1
  O  O129  1  0.52288791  0.41719607  0.15008303  1
  O  O130  1  0.71522392  0.51596005  0.34353204  1
  O  O131  1  0.49507640  0.65178603  0.40627622  1
  O  O132  1  0.50492360  0.34821397  0.59372378  1
  O  O133  1  0.51354692  0.08758157  0.34098385  1
  O  O134  1  0.00855935  0.20953272  0.47545392  1
  O  O135  1  0.79131316  0.48158751  0.56148641  1
  O  O136  1  0.74178159  0.35507500  0.44451864  1
  O  O137  1  0.49833797  0.69285080  0.18174362  1
  O  O138  1  0.00171823  0.63237701  0.63403821  1
  O  O139  1  0.73917914  0.92274014  0.50231894  1
  O  O140  1  0.01224562  0.25565280  0.25803385  1
  O  O141  1  0.24911531  0.88894413  0.80561559  1
  O  O142  1  0.25821841  0.64492500  0.55548136  1
  O  O143  1  0.48645308  0.91241843  0.65901615  1
  O  O144  1  0.99828177  0.36762299  0.36596179  1
  O  O145  1  0.26064679  0.73106968  0.89399484  1
  O  O146  1  0.49828177  0.13237701  0.13403821  1
  O  O147  1  0.25474941  0.76995784  0.67356510  1
  O  O148  1  0.74758879  0.83947272  0.16744539  1
  O  O149  1  0.75424669  0.81330329  0.37926689  1
  O  O150  1  0.23935321  0.23106968  0.39399484  1
  O  O151  1  0.27045288  0.34514361  0.74397969  1
  O  O152  1  0.75241121  0.33947272  0.66744539  1
  O  O153  1  0.01354692  0.41241843  0.15901615  1
  O  O154  1  0.20868684  0.51841249  0.43851359  1
  O  O155  1  0.26082086  0.07725986  0.49768106  1
  O  O156  1  0.21381509  0.37614858  0.52101953  1
  O  O157  1  0.24731447  0.10830018  0.27307898  1
  O  O158  1  0.97711209  0.91719607  0.65008303  1
  O  O159  1  0.77879682  0.68888723  0.04314214  1
  O  O160  1  0.72462921  0.45655961  0.78002273  1
  O  O161  1  0.70868684  0.98158751  0.06148641  1
  O  O162  1  0.50171823  0.86762299  0.86596179  1
  O  O163  1  0.99827772  0.73577151  0.96247960  1
  O  O164  1  0.73935321  0.26893032  0.10600516  1
  O  O165  1  0.00817066  0.33558017  0.60290975  1
  O  O166  1  0.22462921  0.04344039  0.71997727  1
  O  O167  1  0.00398839  0.32036125  0.81118661  1
  O  O168  1  0.99144065  0.79046728  0.52454608  1
  O  O169  1  0.99833797  0.80714920  0.31825638  1
  O  O170  1  0.27879682  0.81111277  0.45685786  1
  O  O171  1  0.74911531  0.61105587  0.69438441  1
  O  O172  1  0.99425981  0.11747126  0.11754807  1
  O  O173  1  0.78236963  0.55104702  0.12393143  1
  O  O174  1  0.75268553  0.89169982  0.72692102  1
  O  O175  1  0.78618491  0.62385142  0.47898047  1
  O  O176  1  0.50166203  0.30714920  0.81825638  1
  O  O177  1  0.75474941  0.73004216  0.82643490  1
  O  O178  1  0.49827772  0.76422849  0.53752040  1
  O  O179  1  0.50855935  0.29046728  0.02454608  1
  O  O180  1  0.71381509  0.12385142  0.97898047  1
  O  O181  1  0.75088469  0.11105587  0.19438441  1
