# generated using pymatgen
data_Sr5(CoO3)4
_symmetry_space_group_name_H-M   'P 1'
_cell_length_a   9.56500361
_cell_length_b   9.56500361
_cell_length_c   20.23545100
_cell_angle_alpha   90.00000000
_cell_angle_beta   90.00000000
_cell_angle_gamma   119.99999730
_symmetry_Int_Tables_number   1
_chemical_formula_structural   Sr5(CoO3)4
_chemical_formula_sum   'Sr30 Co24 O72'
_cell_volume   1603.29636606
_cell_formula_units_Z   6
loop_
 _symmetry_equiv_pos_site_id
 _symmetry_equiv_pos_as_xyz
  1  'x, y, z'
loop_
 _atom_site_type_symbol
 _atom_site_label
 _atom_site_symmetry_multiplicity
 _atom_site_fract_x
 _atom_site_fract_y
 _atom_site_fract_z
 _atom_site_occupancy
  Sr  Sr0  1  0.66548500  0.99883900  0.34956000  1
  Sr  Sr1  1  0.69771300  0.66934600  0.04919200  1
  Sr  Sr2  1  0.36030100  0.36030100  0.75000000  1
  Sr  Sr3  1  0.00116100  0.33451500  0.84956000  1
  Sr  Sr4  1  0.36030100  0.00000000  0.25000000  1
  Sr  Sr5  1  0.63969900  0.63969900  0.25000000  1
  Sr  Sr6  1  0.69771300  0.02836700  0.54919200  1
  Sr  Sr7  1  0.00116100  0.66664600  0.34956000  1
  Sr  Sr8  1  0.97163300  0.30228700  0.04919200  1
  Sr  Sr9  1  0.66664600  0.66548500  0.65044000  1
  Sr  Sr10  1  0.30228700  0.33065400  0.95080800  1
  Sr  Sr11  1  0.66934600  0.69771300  0.45080800  1
  Sr  Sr12  1  0.33335400  0.99883900  0.84956000  1
  Sr  Sr13  1  0.00000000  0.63969900  0.75000000  1
  Sr  Sr14  1  0.33065400  0.30228700  0.54919200  1
  Sr  Sr15  1  0.33451500  0.00116100  0.65044000  1
  Sr  Sr16  1  0.30228700  0.97163300  0.45080800  1
  Sr  Sr17  1  0.66664600  0.00116100  0.15044000  1
  Sr  Sr18  1  0.99883900  0.66548500  0.15044000  1
  Sr  Sr19  1  0.00000000  0.36030100  0.25000000  1
  Sr  Sr20  1  0.66934600  0.97163300  0.95080800  1
  Sr  Sr21  1  0.33451500  0.33335400  0.15044000  1
  Sr  Sr22  1  0.33335400  0.33451500  0.34956000  1
  Sr  Sr23  1  0.02836700  0.33065400  0.45080800  1
  Sr  Sr24  1  0.66548500  0.66664600  0.84956000  1
  Sr  Sr25  1  0.63969900  0.00000000  0.75000000  1
  Sr  Sr26  1  0.33065400  0.02836700  0.04919200  1
  Sr  Sr27  1  0.99883900  0.33335400  0.65044000  1
  Sr  Sr28  1  0.02836700  0.69771300  0.95080800  1
  Sr  Sr29  1  0.97163300  0.66934600  0.54919200  1
  Co  Co30  1  0.66666700  0.33333300  0.57903200  1
  Co  Co31  1  0.66666700  0.33333300  0.07903200  1
  Co  Co32  1  0.66666700  0.33333300  0.45008200  1
  Co  Co33  1  0.33333300  0.66666700  0.67757600  1
  Co  Co34  1  0.00000000  0.00000000  0.00000000  1
  Co  Co35  1  0.00000000  0.00000000  0.87736800  1
  Co  Co36  1  0.00000000  0.00000000  0.62263200  1
  Co  Co37  1  0.00000000  0.00000000  0.50000000  1
  Co  Co38  1  0.66666700  0.33333300  0.20054500  1
  Co  Co39  1  0.66666700  0.33333300  0.32242400  1
  Co  Co40  1  0.00000000  0.00000000  0.25000000  1
  Co  Co41  1  0.00000000  0.00000000  0.37736800  1
  Co  Co42  1  0.66666700  0.33333300  0.70054500  1
  Co  Co43  1  0.66666700  0.33333300  0.82242400  1
  Co  Co44  1  0.33333300  0.66666700  0.54991800  1
  Co  Co45  1  0.33333300  0.66666700  0.79945500  1
  Co  Co46  1  0.33333300  0.66666700  0.17757600  1
  Co  Co47  1  0.00000000  0.00000000  0.12263200  1
  Co  Co48  1  0.33333300  0.66666700  0.04991800  1
  Co  Co49  1  0.00000000  0.00000000  0.75000000  1
  Co  Co50  1  0.33333300  0.66666700  0.42096800  1
  Co  Co51  1  0.66666700  0.33333300  0.95008200  1
  Co  Co52  1  0.33333300  0.66666700  0.29945500  1
  Co  Co53  1  0.33333300  0.66666700  0.92096800  1
  O  O54  1  0.48362300  0.66013000  0.98034300  1
  O  O55  1  0.33987000  0.82349300  0.98034300  1
  O  O56  1  0.66013000  0.17650700  0.01965700  1
  O  O57  1  0.14341900  0.15583300  0.81823900  1
  O  O58  1  0.33391100  0.82020500  0.35742600  1
  O  O59  1  0.18023800  0.66456200  0.61829100  1
  O  O60  1  0.81976200  0.33543800  0.38170900  1
  O  O61  1  0.81715000  0.49289400  0.25984900  1
  O  O62  1  0.48362300  0.82349300  0.48034300  1
  O  O63  1  0.32425600  0.81715000  0.74015100  1
  O  O64  1  0.16257100  0.01363900  0.94025800  1
  O  O65  1  0.82349300  0.33987000  0.51965700  1
  O  O66  1  0.81715000  0.32425600  0.75984900  1
  O  O67  1  0.82349300  0.48362300  0.01965700  1
  O  O68  1  0.51370600  0.17979500  0.14257400  1
  O  O69  1  0.18285000  0.67574400  0.24015100  1
  O  O70  1  0.82020500  0.48629400  0.64257400  1
  O  O71  1  0.48629400  0.82020500  0.85742600  1
  O  O72  1  0.98758600  0.84416700  0.68176100  1
  O  O73  1  0.84416700  0.98758600  0.81823900  1
  O  O74  1  0.49289400  0.67574400  0.74015100  1
  O  O75  1  0.17979500  0.51370600  0.35742600  1
  O  O76  1  0.51567600  0.18023800  0.38170900  1
  O  O77  1  0.33543800  0.81976200  0.11829100  1
  O  O78  1  0.50710600  0.32425600  0.25984900  1
  O  O79  1  0.85658100  0.01241400  0.68176100  1
  O  O80  1  0.01241400  0.85658100  0.81823900  1
  O  O81  1  0.85106800  0.83742900  0.94025800  1
  O  O82  1  0.01241400  0.15583300  0.31823900  1
  O  O83  1  0.14893200  0.16257100  0.05974200  1
  O  O84  1  0.67574400  0.49289400  0.75984900  1
  O  O85  1  0.81976200  0.48432400  0.88170900  1
  O  O86  1  0.66608900  0.48629400  0.14257400  1
  O  O87  1  0.15583300  0.01241400  0.18176100  1
  O  O88  1  0.85106800  0.01363900  0.44025800  1
  O  O89  1  0.18285000  0.50710600  0.74015100  1
  O  O90  1  0.48629400  0.66608900  0.35742600  1
  O  O91  1  0.48432400  0.81976200  0.61829100  1
  O  O92  1  0.50710600  0.18285000  0.75984900  1
  O  O93  1  0.98636100  0.14893200  0.94025800  1
  O  O94  1  0.85658100  0.84416700  0.18176100  1
  O  O95  1  0.98636100  0.83742900  0.44025800  1
  O  O96  1  0.33987000  0.51637700  0.48034300  1
  O  O97  1  0.18023800  0.51567600  0.11829100  1
  O  O98  1  0.01363900  0.16257100  0.55974200  1
  O  O99  1  0.17979500  0.66608900  0.85742600  1
  O  O100  1  0.83742900  0.98636100  0.05974200  1
  O  O101  1  0.32425600  0.50710600  0.24015100  1
  O  O102  1  0.14893200  0.98636100  0.55974200  1
  O  O103  1  0.15583300  0.14341900  0.68176100  1
  O  O104  1  0.98758600  0.14341900  0.18176100  1
  O  O105  1  0.66608900  0.17979500  0.64257400  1
  O  O106  1  0.51637700  0.33987000  0.01965700  1
  O  O107  1  0.01363900  0.85106800  0.05974200  1
  O  O108  1  0.33543800  0.51567600  0.61829100  1
  O  O109  1  0.51637700  0.17650700  0.51965700  1
  O  O110  1  0.84416700  0.85658100  0.31823900  1
  O  O111  1  0.17650700  0.66013000  0.48034300  1
  O  O112  1  0.14341900  0.98758600  0.31823900  1
  O  O113  1  0.67574400  0.18285000  0.25984900  1
  O  O114  1  0.33391100  0.51370600  0.85742600  1
  O  O115  1  0.51370600  0.33391100  0.64257400  1
  O  O116  1  0.48432400  0.66456200  0.11829100  1
  O  O117  1  0.83742900  0.85106800  0.55974200  1
  O  O118  1  0.49289400  0.81715000  0.24015100  1
  O  O119  1  0.51567600  0.33543800  0.88170900  1
  O  O120  1  0.17650700  0.51637700  0.98034300  1
  O  O121  1  0.82020500  0.33391100  0.14257400  1
  O  O122  1  0.16257100  0.14893200  0.44025800  1
  O  O123  1  0.66456200  0.18023800  0.88170900  1
  O  O124  1  0.66456200  0.48432400  0.38170900  1
  O  O125  1  0.66013000  0.48362300  0.51965700  1
