# generated using pymatgen
data_Sr51W12N56O3
_symmetry_space_group_name_H-M   'P 1'
_cell_length_a   11.23471100
_cell_length_b   13.18632924
_cell_length_c   16.98810245
_cell_angle_alpha   102.53084052
_cell_angle_beta   95.33147110
_cell_angle_gamma   109.81545875
_symmetry_Int_Tables_number   1
_chemical_formula_structural   Sr51W12N56O3
_chemical_formula_sum   'Sr51 W12 N56 O3'
_cell_volume   2272.99418614
_cell_formula_units_Z   1
loop_
 _symmetry_equiv_pos_site_id
 _symmetry_equiv_pos_as_xyz
  1  'x, y, z'
loop_
 _atom_site_type_symbol
 _atom_site_label
 _atom_site_symmetry_multiplicity
 _atom_site_fract_x
 _atom_site_fract_y
 _atom_site_fract_z
 _atom_site_occupancy
  Sr  Sr0  1  0.92148000  0.35914500  0.33006700  1
  Sr  Sr1  1  0.87570900  0.34418200  0.54258600  1
  Sr  Sr2  1  0.79664900  0.54623300  0.47350300  1
  Sr  Sr3  1  0.59365100  0.23633800  0.62620100  1
  Sr  Sr4  1  0.60433600  0.19886100  0.83561800  1
  Sr  Sr5  1  0.84993400  0.49701800  0.93430600  1
  Sr  Sr6  1  0.46634100  0.52286700  0.40199700  1
  Sr  Sr7  1  0.06681300  0.82249300  0.84836800  1
  Sr  Sr8  1  0.53365900  0.47713300  0.59800300  1
  Sr  Sr9  1  0.76296700  0.72047400  0.90221600  1
  Sr  Sr10  1  0.23703300  0.27952600  0.09778400  1
  Sr  Sr11  1  0.35592400  0.90196300  0.74662600  1
  Sr  Sr12  1  0.74493500  0.81400300  0.49413400  1
  Sr  Sr13  1  0.67974200  0.01828600  0.67401600  1
  Sr  Sr14  1  0.00933400  0.95275500  0.19995300  1
  Sr  Sr15  1  0.07852000  0.64085500  0.66993300  1
  Sr  Sr16  1  0.45589100  0.60783300  0.97581600  1
  Sr  Sr17  1  0.91263800  0.31084000  0.75116800  1
  Sr  Sr18  1  0.28547000  0.13394800  0.72208700  1
  Sr  Sr19  1  0.57752800  0.33416100  0.23195000  1
  Sr  Sr20  1  0.30978700  0.04478400  0.12281400  1
  Sr  Sr21  1  0.25506500  0.18599700  0.50586600  1
  Sr  Sr22  1  0.35931800  0.85834400  0.94802200  1
  Sr  Sr23  1  0.15006600  0.50298200  0.06569400  1
  Sr  Sr24  1  0.12429100  0.65581800  0.45741400  1
  Sr  Sr25  1  0.23826000  0.23259300  0.29897800  1
  Sr  Sr26  1  0.54410900  0.39216700  0.02418400  1
  Sr  Sr27  1  0.32025800  0.98171400  0.32598400  1
  Sr  Sr28  1  0.14208500  0.57767000  0.85673500  1
  Sr  Sr29  1  0.39566400  0.80113900  0.16438200  1
  Sr  Sr30  1  0.76174000  0.76740700  0.70102200  1
  Sr  Sr31  1  0.20335100  0.45376700  0.52649700  1
  Sr  Sr32  1  0.47936300  0.57042600  0.18179900  1
  Sr  Sr33  1  0.97474400  0.13685600  0.59634500  1
  Sr  Sr34  1  0.71453000  0.86605200  0.27791300  1
  Sr  Sr35  1  0.93318700  0.17750700  0.15163200  1
  Sr  Sr36  1  0.40634900  0.76366200  0.37379900  1
  Sr  Sr37  1  0.64068200  0.14165600  0.05197800  1
  Sr  Sr38  1  0.35521400  0.95768800  0.54424200  1
  Sr  Sr39  1  0.78364200  0.67422100  0.09771600  1
  Sr  Sr40  1  0.99066600  0.04724500  0.80004700  1
  Sr  Sr41  1  0.85791500  0.42233000  0.14326500  1
  Sr  Sr42  1  0.21635800  0.32577900  0.90228400  1
  Sr  Sr43  1  0.64407600  0.09803700  0.25337400  1
  Sr  Sr44  1  0.64478600  0.04231200  0.45575800  1
  Sr  Sr45  1  0.42247200  0.66583900  0.76805000  1
  Sr  Sr46  1  0.00000000  0.00000000  0.00000000  1
  Sr  Sr47  1  0.52063700  0.42957400  0.81820100  1
  Sr  Sr48  1  0.02525600  0.86314400  0.40365500  1
  Sr  Sr49  1  0.69021300  0.95521600  0.87718600  1
  Sr  Sr50  1  0.08736200  0.68916000  0.24883200  1
  W  W51  1  0.97017100  0.09946100  0.38501400  1
  W  W52  1  0.02982900  0.90053900  0.61498600  1
  W  W53  1  0.37223400  0.11924200  0.94323200  1
  W  W54  1  0.90541000  0.25811000  0.93181600  1
  W  W55  1  0.51798400  0.24481800  0.40929400  1
  W  W56  1  0.22375200  0.48517100  0.26464200  1
  W  W57  1  0.21829600  0.37974700  0.71553200  1
  W  W58  1  0.48201600  0.75518200  0.59070600  1
  W  W59  1  0.09459000  0.74189000  0.06818400  1
  W  W60  1  0.62776600  0.88075800  0.05676800  1
  W  W61  1  0.77624800  0.51482900  0.73535800  1
  W  W62  1  0.78170400  0.62025300  0.28446800  1
  N  N63  1  0.65051500  0.58164900  0.75150300  1
  N  N64  1  0.56410500  0.65256800  0.55344500  1
  N  N65  1  0.21277300  0.00915100  0.94502000  1
  N  N66  1  0.44263700  0.17172300  0.29623800  1
  N  N67  1  0.88188200  0.10149100  0.28630600  1
  N  N68  1  0.65027800  0.54284100  0.95686400  1
  N  N69  1  0.28716500  0.62212300  0.23145100  1
  N  N70  1  0.83894200  0.98609400  0.42233700  1
  N  N71  1  0.38387500  0.22698400  0.87944800  1
  N  N72  1  0.68457700  0.51879100  0.18048800  1
  N  N73  1  0.90099400  0.56479300  0.32954400  1
  N  N74  1  0.93549400  0.60810000  0.80297900  1
  N  N75  1  0.43589500  0.34743200  0.44655500  1
  N  N76  1  0.00971700  0.38900700  0.90495600  1
  N  N77  1  0.34948500  0.41835100  0.24849700  1
  N  N78  1  0.51655600  0.95495700  0.09476900  1
  N  N79  1  0.31542300  0.48120900  0.81951200  1
  N  N80  1  0.18439300  0.85044000  0.17234100  1
  N  N81  1  0.34972200  0.45715900  0.04313600  1
  N  N82  1  0.53619800  0.86858900  0.53095900  1
  N  N83  1  0.97994000  0.79061000  0.01041600  1
  N  N84  1  0.09900600  0.43520700  0.67045600  1
  N  N85  1  0.78180600  0.30116000  0.98676600  1
  N  N86  1  0.12220000  0.24423000  0.74006400  1
  N  N87  1  0.61612500  0.77301600  0.12055200  1
  N  N88  1  0.06450600  0.39190000  0.19702100  1
  N  N89  1  0.87780000  0.75577000  0.25993600  1
  N  N90  1  0.88915800  0.94542600  0.64423300  1
  N  N91  1  0.11811800  0.89850900  0.71369400  1
  N  N92  1  0.66930200  0.64567400  0.35920100  1
  N  N93  1  0.55736300  0.82827700  0.70376200  1
  N  N94  1  0.11084200  0.05457400  0.35576700  1
  N  N95  1  0.16105800  0.01390600  0.57766300  1
  N  N96  1  0.47979900  0.08521000  0.68567800  1
  N  N97  1  0.78170300  0.48538700  0.62053800  1
  N  N98  1  0.13628400  0.11390800  0.15644200  1
  N  N99  1  0.48344400  0.04504300  0.90523100  1
  N  N100  1  0.78722700  0.99084900  0.05498000  1
  N  N101  1  0.55906800  0.79924400  0.94391900  1
  N  N102  1  0.33069800  0.35432600  0.64079900  1
  N  N103  1  0.81560700  0.14956000  0.82765900  1
  N  N104  1  0.96094200  0.75693300  0.53652500  1
  N  N105  1  0.21829700  0.51461300  0.37946200  1
  N  N106  1  0.25644300  0.73913400  0.80385000  1
  N  N107  1  0.21819400  0.69884000  0.01323400  1
  N  N108  1  0.02006000  0.20939000  0.98958400  1
  N  N109  1  0.03905800  0.24306700  0.46347500  1
  N  N110  1  0.46380200  0.13141100  0.46904100  1
  N  N111  1  0.30001300  0.68995800  0.58366700  1
  N  N112  1  0.71283500  0.37787700  0.76854900  1
  N  N113  1  0.52020100  0.91479000  0.31432200  1
  N  N114  1  0.86371600  0.88609200  0.84355800  1
  N  N115  1  0.69998700  0.31004200  0.41633300  1
  N  N116  1  0.44093200  0.20075600  0.05608100  1
  N  N117  1  0.99028300  0.61099300  0.09504400  1
  N  N118  1  0.74355700  0.26086600  0.19615000  1
  O  O119  1  0.00000000  0.00000000  0.50000000  1
  O  O120  1  0.22267700  0.82126600  0.39411800  1
  O  O121  1  0.77732300  0.17873400  0.60588200  1
