# generated using pymatgen
data_Mn2Fe3Sn2(CO)19
_symmetry_space_group_name_H-M   'P 1'
_cell_length_a   9.63252905
_cell_length_b   11.41148679
_cell_length_c   27.92808147
_cell_angle_alpha   90.00000000
_cell_angle_beta   96.04407994
_cell_angle_gamma   90.00000000
_symmetry_Int_Tables_number   1
_chemical_formula_structural   Mn2Fe3Sn2(CO)19
_chemical_formula_sum   'Mn8 Fe12 Sn8 C76 O76'
_cell_volume   3052.83100322
_cell_formula_units_Z   4
loop_
 _symmetry_equiv_pos_site_id
 _symmetry_equiv_pos_as_xyz
  1  'x, y, z'
loop_
 _atom_site_type_symbol
 _atom_site_label
 _atom_site_symmetry_multiplicity
 _atom_site_fract_x
 _atom_site_fract_y
 _atom_site_fract_z
 _atom_site_occupancy
  Mn  Mn0  1  0.28252553  0.05567961  0.58369055  1
  Mn  Mn1  1  0.21747447  0.55567961  0.91630945  1
  Mn  Mn2  1  0.75389910  0.42594542  0.66145986  1
  Mn  Mn3  1  0.24610090  0.57405458  0.33854014  1
  Mn  Mn4  1  0.74610090  0.92594542  0.83854014  1
  Mn  Mn5  1  0.78252553  0.44432039  0.08369055  1
  Mn  Mn6  1  0.71747447  0.94432039  0.41630945  1
  Mn  Mn7  1  0.25389910  0.07405458  0.16145986  1
  Fe  Fe8  1  0.10464030  0.17876020  0.37311793  1
  Fe  Fe9  1  0.91285249  0.34261911  0.41438715  1
  Fe  Fe10  1  0.58714751  0.84261911  0.08561285  1
  Fe  Fe11  1  0.89535970  0.82123980  0.62688207  1
  Fe  Fe12  1  0.87218319  0.27209366  0.31730319  1
  Fe  Fe13  1  0.37218319  0.22790634  0.81730319  1
  Fe  Fe14  1  0.12781681  0.72790634  0.68269681  1
  Fe  Fe15  1  0.60464030  0.32123980  0.87311793  1
  Fe  Fe16  1  0.62781681  0.77209366  0.18269681  1
  Fe  Fe17  1  0.41285249  0.15738089  0.91438715  1
  Fe  Fe18  1  0.39535970  0.67876020  0.12688207  1
  Fe  Fe19  1  0.08714751  0.65738089  0.58561285  1
  Sn  Sn20  1  0.91625535  0.60190302  0.64460340  1
  Sn  Sn21  1  0.58374465  0.10190302  0.85539660  1
  Sn  Sn22  1  0.14638177  0.86838024  0.61058579  1
  Sn  Sn23  1  0.64638177  0.63161976  0.11058579  1
  Sn  Sn24  1  0.08374465  0.39809698  0.35539660  1
  Sn  Sn25  1  0.35361823  0.36838024  0.88941421  1
  Sn  Sn26  1  0.85361823  0.13161976  0.38941421  1
  Sn  Sn27  1  0.41625535  0.89809698  0.14460340  1
  C  C28  1  0.69677358  0.30840725  0.82218342  1
  C  C29  1  0.31470088  0.14166821  0.10648779  1
  C  C30  1  0.68529912  0.85833179  0.89351221  1
  C  C31  1  0.53969100  0.12671334  0.96403420  1
  C  C32  1  0.75878169  0.80465271  0.57920772  1
  C  C33  1  0.24121831  0.19534729  0.42079228  1
  C  C34  1  0.11496392  0.99622644  0.12184351  1
  C  C35  1  0.56258522  0.00881134  0.37981590  1
  C  C36  1  0.18994878  0.19836551  0.81785999  1
  C  C37  1  0.63820809  0.30424805  0.67209486  1
  C  C38  1  0.22706711  0.68965877  0.55161849  1
  C  C39  1  0.32594228  0.97664760  0.52838352  1
  C  C40  1  0.81005122  0.80163449  0.18214001  1
  C  C41  1  0.03969100  0.37328666  0.46403420  1
  C  C42  1  0.40537573  0.12225530  0.77335215  1
  C  C43  1  0.43741478  0.99118866  0.62018410  1
  C  C44  1  0.12918593  0.85067769  0.72222703  1
  C  C45  1  0.60272439  0.47554793  0.87315682  1
  C  C46  1  0.68994878  0.30163449  0.31785999  1
  C  C47  1  0.90580174  0.35708859  0.69847658  1
  C  C48  1  0.46030900  0.87328666  0.03596580  1
  C  C49  1  0.90537573  0.37774470  0.27335215  1
  C  C50  1  0.62918593  0.64932231  0.22222703  1
  C  C51  1  0.27293289  0.18965877  0.94838151  1
  C  C52  1  0.06258522  0.49118866  0.87981590  1
  C  C53  1  0.74121831  0.30465271  0.92079228  1
  C  C54  1  0.78940296  0.01014347  0.78428782  1
  C  C55  1  0.28940296  0.48985653  0.28428782  1
  C  C56  1  0.96030900  0.62671334  0.53596580  1
  C  C57  1  0.30322642  0.69159275  0.17781658  1
  C  C58  1  0.10272439  0.02445207  0.37315682  1
  C  C59  1  0.77293289  0.31034123  0.44838151  1
  C  C60  1  0.61438628  0.40192286  0.04900221  1
  C  C61  1  0.38503608  0.49622644  0.37815649  1
  C  C62  1  0.61496392  0.50377356  0.62184351  1
  C  C63  1  0.93741478  0.50881134  0.12018410  1
  C  C64  1  0.40580174  0.14291141  0.19847658  1
  C  C65  1  0.81470088  0.35833179  0.60648779  1
  C  C66  1  0.88561372  0.90192286  0.45099779  1
  C  C67  1  0.15185312  0.51576872  0.60210045  1
  C  C68  1  0.71059704  0.51014347  0.71571218  1
  C  C69  1  0.34814688  0.01576872  0.89789955  1
  C  C70  1  0.39727561  0.52445207  0.12684318  1
  C  C71  1  0.09462427  0.62225530  0.72664785  1
  C  C72  1  0.59419826  0.85708859  0.80152342  1
  C  C73  1  0.09419826  0.64291141  0.30152342  1
  C  C74  1  0.72706711  0.81034123  0.05161849  1
  C  C75  1  0.31005122  0.69836551  0.68214001  1
  C  C76  1  0.87857090  0.31266374  0.06834169  1
  C  C77  1  0.59462427  0.87774470  0.22664785  1
  C  C78  1  0.19677358  0.19159275  0.32218342  1
  C  C79  1  0.80322642  0.80840725  0.67781658  1
  C  C80  1  0.37857090  0.18733626  0.56834169  1
  C  C81  1  0.13820809  0.19575195  0.17209486  1
  C  C82  1  0.36179191  0.69575195  0.32790514  1
  C  C83  1  0.62142910  0.81266374  0.43165831  1
  C  C84  1  0.27268817  0.62877294  0.86136904  1
  C  C85  1  0.37081407  0.35067769  0.77777297  1
  C  C86  1  0.89727561  0.97554793  0.62684318  1
  C  C87  1  0.22731183  0.12877294  0.63863096  1
  C  C88  1  0.18529912  0.64166821  0.39351221  1
  C  C89  1  0.25878169  0.69534729  0.07920772  1
  C  C90  1  0.86179191  0.80424805  0.82790514  1
  C  C91  1  0.84814688  0.48423128  0.39789955  1
  C  C92  1  0.21059704  0.98985653  0.21571218  1
  C  C93  1  0.87081407  0.14932231  0.27777297  1
  C  C94  1  0.65185312  0.98423128  0.10210045  1
  C  C95  1  0.38561372  0.59807714  0.95099779  1
  C  C96  1  0.17405772  0.47664760  0.97161648  1
  C  C97  1  0.82594228  0.52335240  0.02838352  1
  C  C98  1  0.88503608  0.00377356  0.87815649  1
  C  C99  1  0.12142910  0.68733626  0.93165831  1
  C  C100  1  0.67405772  0.02335240  0.47161648  1
  C  C101  1  0.72731183  0.37122706  0.13863096  1
  C  C102  1  0.77268817  0.87122706  0.36136904  1
  C  C103  1  0.11438628  0.09807714  0.54900221  1
  O  O104  1  0.19338256  0.17690907  0.67175315  1
  O  O105  1  0.19925223  0.42293587  0.61074046  1
  O  O106  1  0.97145494  0.04874386  0.90339280  1
  O  O107  1  0.08674383  0.55948166  0.75957294  1
  O  O108  1  0.52854506  0.54874386  0.59660720  1
  O  O109  1  0.69925223  0.07706413  0.11074046  1
  O  O110  1  0.92894341  0.82197334  0.18321850  1
  O  O111  1  0.26007723  0.19126345  0.28863794  1
  O  O112  1  0.16700601  0.70053088  0.04847461  1
  O  O113  1  0.80074777  0.57706413  0.38925954  1
  O  O114  1  0.68127308  0.30499824  0.47256141  1
  O  O115  1  0.12051087  0.39378594  0.49696946  1
  O  O116  1  0.02854506  0.95125614  0.09660720  1
  O  O117  1  0.80661744  0.82309093  0.32824685  1
  O  O118  1  0.37985096  0.42281755  0.12901134  1
  O  O119  1  0.64849961  0.06558223  0.50720584  1
  O  O120  1  0.07105659  0.17802666  0.81678150  1
  O  O121  1  0.87948913  0.60621406  0.50303054  1
  O  O122  1  0.57105659  0.32197334  0.31678150  1
  O  O123  1  0.30074777  0.92293587  0.88925954  1
  O  O124  1  0.68518346  0.56022100  0.74953910  1
  O  O125  1  0.31481654  0.43977900  0.25046090  1
  O  O126  1  0.47145494  0.45125614  0.40339280  1
  O  O127  1  0.81481654  0.06022100  0.75046090  1
  O  O128  1  0.87985096  0.07718245  0.62901134  1
  O  O129  1  0.85150039  0.56558223  0.99279416  1
  O  O130  1  0.81872692  0.80499824  0.02743859  1
  O  O131  1  0.91325617  0.44051834  0.24042706  1
  O  O132  1  0.62051087  0.10621406  0.99696946  1
  O  O133  1  0.06402312  0.27269058  0.17824558  1
  O  O134  1  0.53486957  0.95323250  0.64241154  1
  O  O135  1  0.76007723  0.30873655  0.78863794  1
  O  O136  1  0.35150039  0.93441777  0.49279416  1
  O  O137  1  0.73992277  0.80873655  0.71136206  1
  O  O138  1  0.62832427  0.57344950  0.25014650  1
  O  O139  1  0.93597688  0.72730942  0.82175442  1
  O  O140  1  0.51127325  0.37683761  0.02635126  1
  O  O141  1  0.94094683  0.23004702  0.05999439  1
  O  O142  1  0.64669032  0.81721985  0.92746105  1
  O  O143  1  0.44094683  0.26995298  0.55999439  1
  O  O144  1  0.00205193  0.68790306  0.27920068  1
  O  O145  1  0.31872692  0.69500176  0.52743859  1
  O  O146  1  0.14849961  0.43441777  0.00720584  1
  O  O147  1  0.96513043  0.45323250  0.85758846  1
  O  O148  1  0.98872675  0.87683761  0.47364874  1
  O  O149  1  0.48872675  0.62316239  0.97364874  1
  O  O150  1  0.18518346  0.93977900  0.24953910  1
  O  O151  1  0.99794807  0.31209694  0.72079932  1
  O  O152  1  0.46513043  0.04676750  0.35758846  1
  O  O153  1  0.87167573  0.07344950  0.24985350  1
  O  O154  1  0.41325617  0.05948166  0.74042706  1
  O  O155  1  0.05905317  0.76995298  0.94000561  1
  O  O156  1  0.55905317  0.73004702  0.44000561  1
  O  O157  1  0.50205193  0.81209694  0.77920068  1
  O  O158  1  0.62014904  0.57718245  0.87098866  1
  O  O159  1  0.85330968  0.31721985  0.57253895  1
  O  O160  1  0.56402312  0.22730942  0.67824558  1
  O  O161  1  0.35330968  0.18278015  0.07253895  1
  O  O162  1  0.01127325  0.12316239  0.52635126  1
  O  O163  1  0.58674383  0.94051834  0.25957294  1
  O  O164  1  0.43597688  0.77269058  0.32175442  1
  O  O165  1  0.83299399  0.29946912  0.95152539  1
  O  O166  1  0.69338256  0.32309093  0.17175315  1
  O  O167  1  0.03486957  0.54676750  0.14241154  1
  O  O168  1  0.12014904  0.92281755  0.37098866  1
  O  O169  1  0.49794807  0.18790306  0.22079932  1
  O  O170  1  0.37948913  0.89378594  0.00303054  1
  O  O171  1  0.66700601  0.79946912  0.54847461  1
  O  O172  1  0.18127308  0.19500176  0.97256141  1
  O  O173  1  0.33299399  0.20053088  0.45152539  1
  O  O174  1  0.23992277  0.69126345  0.21136206  1
  O  O175  1  0.42894341  0.67802666  0.68321850  1
  O  O176  1  0.14669032  0.68278015  0.42746105  1
  O  O177  1  0.37167573  0.42655050  0.74985350  1
  O  O178  1  0.12832427  0.92655050  0.75014650  1
  O  O179  1  0.30661744  0.67690907  0.82824685  1
