# generated using pymatgen
data_Rb7U8V2ClO32
_symmetry_space_group_name_H-M   'P 1'
_cell_length_a   11.91407000
_cell_length_b   14.44647800
_cell_length_c   21.60299300
_cell_angle_alpha   90.00000000
_cell_angle_beta   90.00000000
_cell_angle_gamma   90.00000000
_symmetry_Int_Tables_number   1
_chemical_formula_structural   Rb7U8V2ClO32
_chemical_formula_sum   'Rb28 U32 V8 Cl4 O128'
_cell_volume   3718.22830738
_cell_formula_units_Z   4
loop_
 _symmetry_equiv_pos_site_id
 _symmetry_equiv_pos_as_xyz
  1  'x, y, z'
loop_
 _atom_site_type_symbol
 _atom_site_label
 _atom_site_symmetry_multiplicity
 _atom_site_fract_x
 _atom_site_fract_y
 _atom_site_fract_z
 _atom_site_occupancy
  Rb  Rb0  1  0.92167400  0.52333700  0.35339900  1
  Rb  Rb1  1  0.75590500  0.98046300  0.97606500  1
  Rb  Rb2  1  0.57832600  0.02333700  0.35339900  1
  Rb  Rb3  1  0.04543200  0.97188400  0.84654000  1
  Rb  Rb4  1  0.04543200  0.97188400  0.65346000  1
  Rb  Rb5  1  0.24409500  0.01953700  0.47606500  1
  Rb  Rb6  1  0.75590500  0.98046300  0.52393500  1
  Rb  Rb7  1  0.95456800  0.02811600  0.34654000  1
  Rb  Rb8  1  0.74409500  0.48046300  0.52393500  1
  Rb  Rb9  1  0.95456800  0.02811600  0.15346000  1
  Rb  Rb10  1  0.57832600  0.02333700  0.14660100  1
  Rb  Rb11  1  0.45456800  0.47188400  0.84654000  1
  Rb  Rb12  1  0.25590500  0.51953700  0.47606500  1
  Rb  Rb13  1  0.42167400  0.97666300  0.85339900  1
  Rb  Rb14  1  0.07832600  0.47666300  0.64660100  1
  Rb  Rb15  1  0.76447500  0.36880300  0.75000000  1
  Rb  Rb16  1  0.54543200  0.52811600  0.34654000  1
  Rb  Rb17  1  0.23552500  0.63119700  0.25000000  1
  Rb  Rb18  1  0.92167400  0.52333700  0.14660100  1
  Rb  Rb19  1  0.73552500  0.86880300  0.75000000  1
  Rb  Rb20  1  0.24409500  0.01953700  0.02393500  1
  Rb  Rb21  1  0.07832600  0.47666300  0.85339900  1
  Rb  Rb22  1  0.42167400  0.97666300  0.64660100  1
  Rb  Rb23  1  0.26447500  0.13119700  0.25000000  1
  Rb  Rb24  1  0.45456800  0.47188400  0.65346000  1
  Rb  Rb25  1  0.25590500  0.51953700  0.02393500  1
  Rb  Rb26  1  0.54543200  0.52811600  0.15346000  1
  Rb  Rb27  1  0.74409500  0.48046300  0.97606500  1
  U  U28  1  0.48110700  0.22242900  0.75000000  1
  U  U29  1  0.54257400  0.72862000  0.57579900  1
  U  U30  1  0.45166000  0.73031900  0.75000000  1
  U  U31  1  0.93019700  0.72113300  0.57647100  1
  U  U32  1  0.45742600  0.27138000  0.42420100  1
  U  U33  1  0.54834000  0.26968100  0.25000000  1
  U  U34  1  0.04257400  0.77138000  0.42420100  1
  U  U35  1  0.95742600  0.22862000  0.92420100  1
  U  U36  1  0.95742600  0.22862000  0.57579900  1
  U  U37  1  0.01889300  0.72242900  0.75000000  1
  U  U38  1  0.73604400  0.74892500  0.40587400  1
  U  U39  1  0.93019700  0.72113300  0.92352900  1
  U  U40  1  0.73604400  0.74892500  0.09412600  1
  U  U41  1  0.76395600  0.24892500  0.09412600  1
  U  U42  1  0.76395600  0.24892500  0.40587400  1
  U  U43  1  0.98110700  0.27757100  0.25000000  1
  U  U44  1  0.54257400  0.72862000  0.92420100  1
  U  U45  1  0.51889300  0.77757100  0.25000000  1
  U  U46  1  0.43019700  0.77886700  0.42352900  1
  U  U47  1  0.04257400  0.77138000  0.07579900  1
  U  U48  1  0.26395600  0.25107500  0.59412600  1
  U  U49  1  0.95166000  0.76968100  0.25000000  1
  U  U50  1  0.56980300  0.22113300  0.57647100  1
  U  U51  1  0.23604400  0.75107500  0.90587400  1
  U  U52  1  0.04834000  0.23031900  0.75000000  1
  U  U53  1  0.06980300  0.27886700  0.07647100  1
  U  U54  1  0.43019700  0.77886700  0.07647100  1
  U  U55  1  0.23604400  0.75107500  0.59412600  1
  U  U56  1  0.56980300  0.22113300  0.92352900  1
  U  U57  1  0.06980300  0.27886700  0.42352900  1
  U  U58  1  0.26395600  0.25107500  0.90587400  1
  U  U59  1  0.45742600  0.27138000  0.07579900  1
  V  V60  1  0.76683200  0.13307000  0.66205900  1
  V  V61  1  0.23316800  0.86693000  0.33794100  1
  V  V62  1  0.76683200  0.13307000  0.83794100  1
  V  V63  1  0.23316800  0.86693000  0.16205900  1
  V  V64  1  0.73316800  0.63307000  0.83794100  1
  V  V65  1  0.26683200  0.36693000  0.33794100  1
  V  V66  1  0.73316800  0.63307000  0.66205900  1
  V  V67  1  0.26683200  0.36693000  0.16205900  1
  Cl  Cl68  1  0.73383200  0.68026000  0.25000000  1
  Cl  Cl69  1  0.23383200  0.81974000  0.75000000  1
  Cl  Cl70  1  0.76616800  0.18026000  0.25000000  1
  Cl  Cl71  1  0.26616800  0.31974000  0.75000000  1
  O  O72  1  0.39136700  0.30999400  0.18555100  1
  O  O73  1  0.41392600  0.15043600  0.08972900  1
  O  O74  1  0.76057700  0.37705200  0.40847300  1
  O  O75  1  0.76476700  0.16715300  0.91660400  1
  O  O76  1  0.26057700  0.12294800  0.90847300  1
  O  O77  1  0.22514100  0.98141000  0.33089000  1
  O  O78  1  0.10863300  0.80999400  0.31444900  1
  O  O79  1  0.38058800  0.76218700  0.52498300  1
  O  O80  1  0.22514100  0.98141000  0.16911000  1
  O  O81  1  0.60898100  0.34307500  0.59031700  1
  O  O82  1  0.86238800  0.68233900  0.68576100  1
  O  O83  1  0.26476700  0.33284700  0.41660400  1
  O  O84  1  0.11941200  0.26218700  0.97501700  1
  O  O85  1  0.09164100  0.75483100  0.52530500  1
  O  O86  1  0.92833400  0.26259600  0.14992500  1
  O  O87  1  0.10898100  0.15692500  0.40968300  1
  O  O88  1  0.09164100  0.75483100  0.97469500  1
  O  O89  1  0.77485900  0.01859000  0.66911000  1
  O  O90  1  0.00025100  0.64782200  0.25000000  1
  O  O91  1  0.46897100  0.65608800  0.25000000  1
  O  O92  1  0.51115500  0.60451800  0.93530800  1
  O  O93  1  0.54137300  0.09640300  0.93385800  1
  O  O94  1  0.36238800  0.81766100  0.18576100  1
  O  O95  1  0.39101900  0.65692500  0.40968300  1
  O  O96  1  0.57166600  0.76259600  0.14992500  1
  O  O97  1  0.92769700  0.39738300  0.25000000  1
  O  O98  1  0.07166600  0.73740400  0.85007500  1
  O  O99  1  0.90835900  0.24516900  0.47469500  1
  O  O100  1  0.91392600  0.34956400  0.91027100  1
  O  O101  1  0.01115500  0.89548200  0.06469200  1
  O  O102  1  0.58607400  0.84956400  0.91027100  1
  O  O103  1  0.40083200  0.74603500  0.85043000  1
  O  O104  1  0.27485900  0.48141000  0.33089000  1
  O  O105  1  0.48884500  0.39548200  0.06469200  1
  O  O106  1  0.88058800  0.73781300  0.02498300  1
  O  O107  1  0.27485900  0.48141000  0.16911000  1
  O  O108  1  0.91392600  0.34956400  0.58972900  1
  O  O109  1  0.07166600  0.73740400  0.64992500  1
  O  O110  1  0.36238800  0.81766100  0.31423900  1
  O  O111  1  0.49974900  0.14782200  0.25000000  1
  O  O112  1  0.54137300  0.09640300  0.56614200  1
  O  O113  1  0.39101900  0.65692500  0.09031700  1
  O  O114  1  0.48884500  0.39548200  0.43530800  1
  O  O115  1  0.76857800  0.12004700  0.40332400  1
  O  O116  1  0.51115500  0.60451800  0.56469200  1
  O  O117  1  0.08607400  0.65043600  0.08972900  1
  O  O118  1  0.77485900  0.01859000  0.83089000  1
  O  O119  1  0.95862700  0.59640300  0.93385800  1
  O  O120  1  0.23142200  0.87995300  0.59667600  1
  O  O121  1  0.04137300  0.40359700  0.06614200  1
  O  O122  1  0.92833400  0.26259600  0.35007500  1
  O  O123  1  0.11941200  0.26218700  0.52498300  1
  O  O124  1  0.01115500  0.89548200  0.43530800  1
  O  O125  1  0.90835900  0.24516900  0.02530500  1
  O  O126  1  0.86238800  0.68233900  0.81423900  1
  O  O127  1  0.26476700  0.33284700  0.08339600  1
  O  O128  1  0.09764800  0.10920500  0.75000000  1
  O  O129  1  0.60898100  0.34307500  0.90968300  1
  O  O130  1  0.73142200  0.62004700  0.40332400  1
  O  O131  1  0.73142200  0.62004700  0.09667600  1
  O  O132  1  0.96897100  0.84391200  0.75000000  1
  O  O133  1  0.26057700  0.12294800  0.59152700  1
  O  O134  1  0.40235200  0.60920500  0.75000000  1
  O  O135  1  0.76476700  0.16715300  0.58339600  1
  O  O136  1  0.90235200  0.89079500  0.25000000  1
  O  O137  1  0.10898100  0.15692500  0.09031700  1
  O  O138  1  0.89101900  0.84307500  0.90968300  1
  O  O139  1  0.61941200  0.23781300  0.47501700  1
  O  O140  1  0.76057700  0.37705200  0.09152700  1
  O  O141  1  0.73942300  0.87705200  0.09152700  1
  O  O142  1  0.57166600  0.76259600  0.35007500  1
  O  O143  1  0.98884500  0.10451800  0.56469200  1
  O  O144  1  0.23942300  0.62294800  0.59152700  1
  O  O145  1  0.63761200  0.18233900  0.68576100  1
  O  O146  1  0.26857800  0.37995300  0.90332400  1
  O  O147  1  0.60863300  0.69000600  0.81444900  1
  O  O148  1  0.98884500  0.10451800  0.93530800  1
  O  O149  1  0.58607400  0.84956400  0.58972900  1
  O  O150  1  0.23523300  0.83284700  0.41660400  1
  O  O151  1  0.23142200  0.87995300  0.90332400  1
  O  O152  1  0.45862700  0.90359700  0.43385800  1
  O  O153  1  0.45862700  0.90359700  0.06614200  1
  O  O154  1  0.07230300  0.60261700  0.75000000  1
  O  O155  1  0.08607400  0.65043600  0.41027100  1
  O  O156  1  0.42833400  0.23740400  0.85007500  1
  O  O157  1  0.60863300  0.69000600  0.68555100  1
  O  O158  1  0.61941200  0.23781300  0.02498300  1
  O  O159  1  0.59916800  0.25396500  0.14957000  1
  O  O160  1  0.42769700  0.10261700  0.75000000  1
  O  O161  1  0.89136700  0.19000600  0.68555100  1
  O  O162  1  0.13761200  0.31766100  0.18576100  1
  O  O163  1  0.88058800  0.73781300  0.47501700  1
  O  O164  1  0.41392600  0.15043600  0.41027100  1
  O  O165  1  0.09916800  0.24603500  0.64957000  1
  O  O166  1  0.59164100  0.74516900  0.47469500  1
  O  O167  1  0.39136700  0.30999400  0.31444900  1
  O  O168  1  0.23523300  0.83284700  0.08339600  1
  O  O169  1  0.76857800  0.12004700  0.09667600  1
  O  O170  1  0.72514100  0.51859000  0.66911000  1
  O  O171  1  0.72514100  0.51859000  0.83089000  1
  O  O172  1  0.59164100  0.74516900  0.02530500  1
  O  O173  1  0.40083200  0.74603500  0.64957000  1
  O  O174  1  0.59764800  0.39079500  0.25000000  1
  O  O175  1  0.09916800  0.24603500  0.85043000  1
  O  O176  1  0.13761200  0.31766100  0.31423900  1
  O  O177  1  0.40835900  0.25483100  0.52530500  1
  O  O178  1  0.03102900  0.15608800  0.25000000  1
  O  O179  1  0.50025100  0.85217800  0.75000000  1
  O  O180  1  0.89136700  0.19000600  0.81444900  1
  O  O181  1  0.10863300  0.80999400  0.18555100  1
  O  O182  1  0.42833400  0.23740400  0.64992500  1
  O  O183  1  0.90083200  0.75396500  0.35043000  1
  O  O184  1  0.59916800  0.25396500  0.35043000  1
  O  O185  1  0.04137300  0.40359700  0.43385800  1
  O  O186  1  0.90083200  0.75396500  0.14957000  1
  O  O187  1  0.40835900  0.25483100  0.97469500  1
  O  O188  1  0.73942300  0.87705200  0.40847300  1
  O  O189  1  0.57230300  0.89738300  0.25000000  1
  O  O190  1  0.53102900  0.34391200  0.75000000  1
  O  O191  1  0.63761200  0.18233900  0.81423900  1
  O  O192  1  0.95862700  0.59640300  0.56614200  1
  O  O193  1  0.23942300  0.62294800  0.90847300  1
  O  O194  1  0.26857800  0.37995300  0.59667600  1
  O  O195  1  0.99974900  0.35217800  0.75000000  1
  O  O196  1  0.73523300  0.66715300  0.91660400  1
  O  O197  1  0.38058800  0.76218700  0.97501700  1
  O  O198  1  0.89101900  0.84307500  0.59031700  1
  O  O199  1  0.73523300  0.66715300  0.58339600  1
