# generated using pymatgen
data_NaCa5ScZn5(SiO3)12
_symmetry_space_group_name_H-M   'P 1'
_cell_length_a   6.72573225
_cell_length_b   6.72573225
_cell_length_c   15.96890816
_cell_angle_alpha   78.22222856
_cell_angle_beta   78.22222856
_cell_angle_gamma   84.12975509
_symmetry_Int_Tables_number   1
_chemical_formula_structural   NaCa5ScZn5(SiO3)12
_chemical_formula_sum   'Na1 Ca5 Sc1 Zn5 Si12 O36'
_cell_volume   690.87906740
_cell_formula_units_Z   1
loop_
 _symmetry_equiv_pos_site_id
 _symmetry_equiv_pos_as_xyz
  1  'x, y, z'
loop_
 _atom_site_type_symbol
 _atom_site_label
 _atom_site_symmetry_multiplicity
 _atom_site_fract_x
 _atom_site_fract_y
 _atom_site_fract_z
 _atom_site_occupancy
  Na  Na0  1  0.69877700  0.30122300  0.00000000  1
  Ca  Ca1  1  0.30315400  0.69727800  0.83115000  1
  Ca  Ca2  1  0.69931500  0.29680700  0.66480400  1
  Ca  Ca3  1  0.29894600  0.70105400  0.50000000  1
  Ca  Ca4  1  0.70319300  0.30068500  0.33519600  1
  Ca  Ca5  1  0.30272200  0.69684600  0.16885000  1
  Sc  Sc6  1  0.08441300  0.91558700  0.00000000  1
  Zn  Zn7  1  0.89384900  0.10415400  0.83253800  1
  Zn  Zn8  1  0.09411500  0.90449000  0.66778600  1
  Zn  Zn9  1  0.90878400  0.09121600  0.50000000  1
  Zn  Zn10  1  0.09551000  0.90588500  0.33221400  1
  Zn  Zn11  1  0.89584600  0.10615100  0.16746200  1
  Si  Si12  1  0.80931100  0.61721800  0.82952600  1
  Si  Si13  1  0.37796700  0.19889500  0.83706900  1
  Si  Si14  1  0.62306500  0.80261100  0.66221900  1
  Si  Si15  1  0.19130600  0.38051800  0.67085900  1
  Si  Si16  1  0.80690400  0.61919700  0.49489500  1
  Si  Si17  1  0.38080300  0.19309600  0.50510500  1
  Si  Si18  1  0.61948200  0.80869400  0.32914100  1
  Si  Si19  1  0.19738900  0.37693500  0.33778100  1
  Si  Si20  1  0.80110500  0.62203300  0.16293100  1
  Si  Si21  1  0.38278200  0.19068900  0.17047400  1
  Si  Si22  1  0.61720400  0.80113300  0.99465500  1
  Si  Si23  1  0.19886700  0.38279600  0.00534500  1
  O  O24  1  0.62943000  0.66917200  0.91552800  1
  O  O25  1  0.90224700  0.38988800  0.85728200  1
  O  O26  1  0.97168900  0.79520500  0.80002700  1
  O  O27  1  0.20867400  0.02832400  0.86894400  1
  O  O28  1  0.60706300  0.11266900  0.80590900  1
  O  O29  1  0.67170600  0.62797500  0.75028400  1
  O  O30  1  0.33024900  0.37036100  0.74854100  1
  O  O31  1  0.39189100  0.88546200  0.69315400  1
  O  O32  1  0.79422100  0.97030900  0.63190100  1
  O  O33  1  0.02662300  0.20669100  0.70050400  1
  O  O34  1  0.10937900  0.61123300  0.63960000  1
  O  O35  1  0.63240500  0.66672500  0.58350000  1
  O  O36  1  0.36848000  0.33183000  0.58309500  1
  O  O37  1  0.88875200  0.38793300  0.52546100  1
  O  O38  1  0.97356700  0.79125700  0.46472500  1
  O  O39  1  0.20874300  0.02643300  0.53527500  1
  O  O40  1  0.61206700  0.11124800  0.47453900  1
  O  O41  1  0.66817000  0.63152000  0.41690500  1
  O  O42  1  0.33327500  0.36759500  0.41650000  1
  O  O43  1  0.38876700  0.89062100  0.36040000  1
  O  O44  1  0.79330900  0.97337700  0.29949600  1
  O  O45  1  0.02969100  0.20577900  0.36809900  1
  O  O46  1  0.11453800  0.60810900  0.30684600  1
  O  O47  1  0.62963900  0.66975100  0.25145900  1
  O  O48  1  0.37202500  0.32829400  0.24971600  1
  O  O49  1  0.88733100  0.39293700  0.19409100  1
  O  O50  1  0.97167600  0.79132600  0.13105600  1
  O  O51  1  0.20479500  0.02831100  0.19997300  1
  O  O52  1  0.61011200  0.09775300  0.14271800  1
  O  O53  1  0.66258700  0.63711600  0.08561700  1
  O  O54  1  0.33082800  0.37057000  0.08447200  1
  O  O55  1  0.38259600  0.88130100  0.02412600  1
  O  O56  1  0.79236700  0.96528400  0.96539700  1
  O  O57  1  0.03471600  0.20763300  0.03460300  1
  O  O58  1  0.11869900  0.61740400  0.97587400  1
  O  O59  1  0.36288400  0.33741300  0.91438300  1
