# generated using pymatgen
data_Li6Co5(P2O7)4
_symmetry_space_group_name_H-M   'P 1'
_cell_length_a   9.06973000
_cell_length_b   10.49413482
_cell_length_c   12.88677656
_cell_angle_alpha   87.79314557
_cell_angle_beta   106.32766982
_cell_angle_gamma   114.15420121
_symmetry_Int_Tables_number   1
_chemical_formula_structural   Li6Co5(P2O7)4
_chemical_formula_sum   'Li12 Co10 P16 O56'
_cell_volume   1069.91660743
_cell_formula_units_Z   2
loop_
 _symmetry_equiv_pos_site_id
 _symmetry_equiv_pos_as_xyz
  1  'x, y, z'
loop_
 _atom_site_type_symbol
 _atom_site_label
 _atom_site_symmetry_multiplicity
 _atom_site_fract_x
 _atom_site_fract_y
 _atom_site_fract_z
 _atom_site_occupancy
  Li  Li0  1  0.11366800  0.59655400  0.81924600  1
  Li  Li1  1  0.08360200  0.12869400  0.55927000  1
  Li  Li2  1  0.18216000  0.00953800  0.77556400  1
  Li  Li3  1  0.50000000  0.50000000  0.00000000  1
  Li  Li4  1  0.10467700  0.13769200  0.05427400  1
  Li  Li5  1  0.86882800  0.40234100  0.66961800  1
  Li  Li6  1  0.88633200  0.40344600  0.18075400  1
  Li  Li7  1  0.91639800  0.87130600  0.44073000  1
  Li  Li8  1  0.13117200  0.59765900  0.33038200  1
  Li  Li9  1  0.89532300  0.86230800  0.94572600  1
  Li  Li10  1  0.50000000  0.50000000  0.50000000  1
  Li  Li11  1  0.81784000  0.99046200  0.22443600  1
  Co  Co12  1  0.51288000  0.24498900  0.43359700  1
  Co  Co13  1  0.80551300  0.00896900  0.73805000  1
  Co  Co14  1  0.19448700  0.99103100  0.26195000  1
  Co  Co15  1  0.48712000  0.75501100  0.56640300  1
  Co  Co16  1  0.09824300  0.71041700  0.10511900  1
  Co  Co17  1  0.49850300  0.75866400  0.06824200  1
  Co  Co18  1  0.90221300  0.28630800  0.38980700  1
  Co  Co19  1  0.90175700  0.28958300  0.89488100  1
  Co  Co20  1  0.50149700  0.24133600  0.93175800  1
  Co  Co21  1  0.09778700  0.71369200  0.61019300  1
  P  P22  1  0.44570000  0.81014200  0.31016800  1
  P  P23  1  0.71597600  0.04070400  0.47077700  1
  P  P24  1  0.29009400  0.96043800  0.03275500  1
  P  P25  1  0.54376700  0.19355900  0.18653600  1
  P  P26  1  0.45623300  0.80644100  0.81346400  1
  P  P27  1  0.28402400  0.95929600  0.52922300  1
  P  P28  1  0.55430000  0.18985800  0.68983200  1
  P  P29  1  0.79719800  0.55092900  0.89883300  1
  P  P30  1  0.20280200  0.44907100  0.10116700  1
  P  P31  1  0.82084000  0.70034300  0.20899200  1
  P  P32  1  0.80745900  0.70329500  0.70926500  1
  P  P33  1  0.70990600  0.03956200  0.96724500  1
  P  P34  1  0.80793200  0.55493600  0.40133600  1
  P  P35  1  0.19254100  0.29670500  0.29073500  1
  P  P36  1  0.19206800  0.44506400  0.59866400  1
  P  P37  1  0.17916000  0.29965700  0.79100800  1
  O  O38  1  0.65920100  0.45270400  0.94380300  1
  O  O39  1  0.93607100  0.64708500  0.69993500  1
  O  O40  1  0.72023500  0.60581700  0.28989100  1
  O  O41  1  0.91152500  0.68887600  0.97005300  1
  O  O42  1  0.27012200  0.81308700  0.25639200  1
  O  O43  1  0.68661900  0.68865200  0.10450500  1
  O  O44  1  0.26946700  0.77491200  0.75988800  1
  O  O45  1  0.48083100  0.71189900  0.90254100  1
  O  O46  1  0.06391400  0.36838900  0.80359700  1
  O  O47  1  0.06392900  0.35291500  0.30006500  1
  O  O48  1  0.30412600  0.03560700  0.42691900  1
  O  O49  1  0.54646800  0.96259300  0.37724700  1
  O  O50  1  0.54234600  0.80864300  0.23216200  1
  O  O51  1  0.13715100  0.96210500  0.56457000  1
  O  O52  1  0.85448500  0.03961400  0.92296900  1
  O  O53  1  0.91551900  0.69238800  0.47465200  1
  O  O54  1  0.29503000  0.03786200  0.93128900  1
  O  O55  1  0.45353200  0.03740700  0.62275300  1
  O  O56  1  0.08125400  0.51045500  0.62285100  1
  O  O57  1  0.27623100  0.80969100  0.02255500  1
  O  O58  1  0.72835900  0.19181200  0.47707000  1
  O  O59  1  0.92686400  0.85264700  0.26435000  1
  O  O60  1  0.90331500  0.48282500  0.87099600  1
  O  O61  1  0.32520400  0.31429800  0.39795900  1
  O  O62  1  0.70497000  0.96213800  0.06871100  1
  O  O63  1  0.44241000  0.17359600  0.26825800  1
  O  O64  1  0.91874600  0.48954500  0.37714900  1
  O  O65  1  0.72987800  0.18691300  0.74360800  1
  O  O66  1  0.07313600  0.14735300  0.73565000  1
  O  O67  1  0.34079900  0.54729600  0.05619700  1
  O  O68  1  0.09668500  0.51717500  0.12900400  1
  O  O69  1  0.42996000  0.70149600  0.39334900  1
  O  O70  1  0.45765400  0.19135700  0.76783800  1
  O  O71  1  0.27976500  0.39418300  0.71010900  1
  O  O72  1  0.73053300  0.22508800  0.24011200  1
  O  O73  1  0.10258900  0.14534600  0.23343800  1
  O  O74  1  0.31338100  0.31134800  0.89549500  1
  O  O75  1  0.72376900  0.19030900  0.97744500  1
  O  O76  1  0.08448100  0.30761200  0.52534800  1
  O  O77  1  0.57004000  0.29850400  0.60665100  1
  O  O78  1  0.29240200  0.39912800  0.21261300  1
  O  O79  1  0.69587400  0.96439300  0.57308100  1
  O  O80  1  0.53505900  0.96280200  0.87552400  1
  O  O81  1  0.27164100  0.80818800  0.52293000  1
  O  O82  1  0.14551500  0.96038600  0.07703100  1
  O  O83  1  0.86284900  0.03789500  0.43543000  1
  O  O84  1  0.89741100  0.85465400  0.76656200  1
  O  O85  1  0.46494100  0.03719800  0.12447600  1
  O  O86  1  0.66398700  0.45530100  0.44146000  1
  O  O87  1  0.33601300  0.54469900  0.55854000  1
  O  O88  1  0.55759000  0.82640400  0.73174200  1
  O  O89  1  0.51916900  0.28810100  0.09745900  1
  O  O90  1  0.70759800  0.60087200  0.78738700  1
  O  O91  1  0.67479600  0.68570200  0.60204100  1
  O  O92  1  0.08847500  0.31112400  0.02994700  1
  O  O93  1  0.93608600  0.63161100  0.19640300  1
