# generated using pymatgen
data_ScAgPd2
_symmetry_space_group_name_H-M   'P 1'
_cell_length_a   10.82212393
_cell_length_b   10.82212393
_cell_length_c   10.82212393
_cell_angle_alpha   126.31022318
_cell_angle_beta   117.96294801
_cell_angle_gamma   86.49948849
_symmetry_Int_Tables_number   1
_chemical_formula_structural   ScAgPd2
_chemical_formula_sum   'Sc1 Ag1 Pd2'
_cell_volume   859.32299323
_cell_formula_units_Z   1
loop_
 _symmetry_equiv_pos_site_id
 _symmetry_equiv_pos_as_xyz
  1  'x, y, z'
loop_
 _atom_site_type_symbol
 _atom_site_label
 _atom_site_symmetry_multiplicity
 _atom_site_fract_x
 _atom_site_fract_y
 _atom_site_fract_z
 _atom_site_occupancy
  Sc  Sc0  1  0.00000000  0.00000000  0.00000000  1
  Ag  Ag1  1  0.00000000  0.50000000  0.50000000  1
  Pd  Pd2  1  0.00000000  0.22643500  0.22643500  1
  Pd  Pd3  1  0.00000000  0.77356500  0.77356500  1
