# generated using pymatgen
data_Zr2GaCu
_symmetry_space_group_name_H-M   'P 1'
_cell_length_a   10.91864013
_cell_length_b   10.91864013
_cell_length_c   10.91864013
_cell_angle_alpha   121.19577678
_cell_angle_beta   119.49339993
_cell_angle_gamma   89.41057315
_symmetry_Int_Tables_number   1
_chemical_formula_structural   Zr2GaCu
_chemical_formula_sum   'Zr2 Ga1 Cu1'
_cell_volume   915.32740316
_cell_formula_units_Z   1
loop_
 _symmetry_equiv_pos_site_id
 _symmetry_equiv_pos_as_xyz
  1  'x, y, z'
loop_
 _atom_site_type_symbol
 _atom_site_label
 _atom_site_symmetry_multiplicity
 _atom_site_fract_x
 _atom_site_fract_y
 _atom_site_fract_z
 _atom_site_occupancy
  Zr  Zr0  1  0.00000000  0.24298300  0.24298300  1
  Zr  Zr1  1  0.00000000  0.75701700  0.75701700  1
  Ga  Ga2  1  0.00000000  0.50000000  0.50000000  1
  Cu  Cu3  1  0.00000000  0.00000000  0.00000000  1
