# generated using pymatgen
data_Ba8Co7O19
_symmetry_space_group_name_H-M   'P 1'
_cell_length_a   10.79188000
_cell_length_b   10.81420838
_cell_length_c   11.72178754
_cell_angle_alpha   104.52853276
_cell_angle_beta   105.73832816
_cell_angle_gamma   115.57746401
_symmetry_Int_Tables_number   1
_chemical_formula_structural   Ba8Co7O19
_chemical_formula_sum   'Ba16 Co14 O38'
_cell_volume   1075.72795573
_cell_formula_units_Z   2
loop_
 _symmetry_equiv_pos_site_id
 _symmetry_equiv_pos_as_xyz
  1  'x, y, z'
loop_
 _atom_site_type_symbol
 _atom_site_label
 _atom_site_symmetry_multiplicity
 _atom_site_fract_x
 _atom_site_fract_y
 _atom_site_fract_z
 _atom_site_occupancy
  Ba  Ba0  1  0.33746600  0.33577600  0.66635600  1
  Ba  Ba1  1  0.05108700  0.28470600  0.31887800  1
  Ba  Ba2  1  0.58415200  0.78774200  0.83760800  1
  Ba  Ba3  1  0.53259500  0.82460000  0.33779900  1
  Ba  Ba4  1  0.08105800  0.57749500  0.16287900  1
  Ba  Ba5  1  0.82268700  0.81148400  0.63827700  1
  Ba  Ba6  1  0.81934600  0.82298200  0.18301600  1
  Ba  Ba7  1  0.11085700  0.60141800  0.68088000  1
  Ba  Ba8  1  0.03500400  0.28826800  0.82271700  1
  Ba  Ba9  1  0.80061000  0.50060600  0.34168700  1
  Ba  Ba10  1  0.26416500  0.05709100  0.84256100  1
  Ba  Ba11  1  0.57376800  0.06933200  0.13896600  1
  Ba  Ba12  1  0.36816600  0.36283300  0.19111000  1
  Ba  Ba13  1  0.57655000  0.06990100  0.68775600  1
  Ba  Ba14  1  0.78671800  0.51627300  0.82129800  1
  Ba  Ba15  1  0.28114500  0.04462300  0.33177000  1
  Co  Co16  1  0.13500200  0.84670200  0.01420100  1
  Co  Co17  1  0.85815400  0.17247800  0.00329300  1
  Co  Co18  1  0.43587800  0.57699200  0.99563500  1
  Co  Co19  1  0.32756900  0.68945700  0.49887500  1
  Co  Co20  1  0.69178700  0.28325700  0.99599900  1
  Co  Co21  1  0.28516400  0.71346800  0.98655700  1
  Co  Co22  1  0.54502600  0.42241600  0.99039400  1
  Co  Co23  1  0.03505600  0.94438300  0.49438000  1
  Co  Co24  1  0.46580700  0.55260000  0.49487900  1
  Co  Co25  1  0.16901700  0.79156100  0.48890700  1
  Co  Co26  1  0.58334700  0.39063900  0.50776200  1
  Co  Co27  1  0.72745600  0.23742700  0.48258000  1
  Co  Co28  1  0.92673700  0.11973900  0.50169800  1
  Co  Co29  1  0.99806100  0.02227900  0.98660300  1
  O  O30  1  0.08853700  0.56751400  0.91926300  1
  O  O31  1  0.33527300  0.80205300  0.64916200  1
  O  O32  1  0.07594000  0.84062000  0.59452500  1
  O  O33  1  0.84164100  0.32098700  0.15082600  1
  O  O34  1  0.32416400  0.58044700  0.84683200  1
  O  O35  1  0.79127900  0.13627600  0.36308700  1
  O  O36  1  0.57903700  0.31477300  0.08897100  1
  O  O37  1  0.98662600  0.83046900  0.87102700  1
  O  O38  1  0.00476100  0.78752100  0.35403800  1
  O  O39  1  0.83420300  0.32187000  0.92489400  1
  O  O40  1  0.26410200  0.85807900  0.92568200  1
  O  O41  1  0.35114100  0.34263000  0.42572300  1
  O  O42  1  0.64081000  0.06050800  0.92937100  1
  O  O43  1  0.53480300  0.76014300  0.57815300  1
  O  O44  1  0.53861300  0.26091400  0.85137700  1
  O  O45  1  0.58555600  0.56118000  0.65189100  1
  O  O46  1  0.61819500  0.53693800  0.42856300  1
  O  O47  1  0.06242200  0.08826200  0.64171700  1
  O  O48  1  0.61157700  0.57151700  0.93354300  1
  O  O49  1  0.29724400  0.85215200  0.14678600  1
  O  O50  1  0.55278100  0.58519600  0.14839000  1
  O  O51  1  0.53494800  0.25544400  0.58093400  1
  O  O52  1  0.19787200  0.06706500  0.08012300  1
  O  O53  1  0.10504200  0.57925900  0.42626700  1
  O  O54  1  0.00681200  0.76290500  0.07685800  1
  O  O55  1  0.32631400  0.56168800  0.35650100  1
  O  O56  1  0.81161100  0.91403800  0.43022100  1
  O  O57  1  0.33031300  0.35542400  0.92305000  1
  O  O58  1  0.07199400  0.08147200  0.41769500  1
  O  O59  1  0.86891900  0.00854400  0.07381700  1
  O  O60  1  0.76567900  0.13797100  0.58175900  1
  O  O61  1  0.81550800  0.45277800  0.57481900  1
  O  O62  1  0.57185400  0.22592500  0.34885600  1
  O  O63  1  0.07185400  0.27544900  0.07685900  1
  O  O64  1  0.49546800  0.77692100  0.08327000  1
  O  O65  1  0.31701600  0.85052800  0.42717200  1
  O  O66  1  0.05869400  0.31546800  0.57921000  1
  O  O67  1  0.86802100  0.02326100  0.84357600  1
