# generated using pymatgen
data_Yb6H20N8O49
_symmetry_space_group_name_H-M   'P 1'
_cell_length_a   10.14965700
_cell_length_b   10.31901813
_cell_length_c   11.48385659
_cell_angle_alpha   95.98916879
_cell_angle_beta   109.75412361
_cell_angle_gamma   108.50932435
_symmetry_Int_Tables_number   1
_chemical_formula_structural   Yb6H20N8O49
_chemical_formula_sum   'Yb6 H20 N8 O49'
_cell_volume   1042.80304504
_cell_formula_units_Z   1
loop_
 _symmetry_equiv_pos_site_id
 _symmetry_equiv_pos_as_xyz
  1  'x, y, z'
loop_
 _atom_site_type_symbol
 _atom_site_label
 _atom_site_symmetry_multiplicity
 _atom_site_fract_x
 _atom_site_fract_y
 _atom_site_fract_z
 _atom_site_occupancy
  Yb  Yb0  1  0.74442300  0.47040700  0.61563100  1
  Yb  Yb1  1  0.25557700  0.52959300  0.38436900  1
  Yb  Yb2  1  0.36106300  0.24040200  0.47662400  1
  Yb  Yb3  1  0.63893700  0.75959800  0.52337600  1
  Yb  Yb4  1  0.54273100  0.45191200  0.30788000  1
  Yb  Yb5  1  0.45726900  0.54808800  0.69212000  1
  H  H6  1  0.59742200  0.20801200  0.39851200  1
  H  H7  1  0.40257800  0.79198800  0.60148800  1
  H  H8  1  0.84001000  0.65333300  0.44185500  1
  H  H9  1  0.15999000  0.34666700  0.55814500  1
  H  H10  1  0.20426700  0.26822000  0.21921900  1
  H  H11  1  0.79573300  0.73178000  0.78078100  1
  H  H12  1  0.43237200  0.66821700  0.24244500  1
  H  H13  1  0.56762800  0.33178300  0.75755500  1
  H  H14  1  0.98752100  0.72734300  0.64600700  1
  H  H15  1  0.01247900  0.27265700  0.35399300  1
  H  H16  1  0.09644700  0.65602500  0.71759500  1
  H  H17  1  0.90355300  0.34397500  0.28240500  1
  H  H18  1  0.96129300  0.53592800  0.87535000  1
  H  H19  1  0.03870700  0.46407200  0.12465000  1
  H  H20  1  0.18312200  0.97986400  0.20929200  1
  H  H21  1  0.81687800  0.02013600  0.79070800  1
  H  H22  1  0.06737000  0.95527900  0.35104900  1
  H  H23  1  0.93263000  0.04472100  0.64895100  1
  H  H24  1  0.01956500  0.80693700  0.86537500  1
  H  H25  1  0.98043500  0.19306300  0.13462500  1
  N  N26  1  0.90482700  0.27612700  0.60597400  1
  N  N27  1  0.09517300  0.72387300  0.39402600  1
  N  N28  1  0.31911700  0.01940900  0.63285100  1
  N  N29  1  0.68088300  0.98059100  0.36714900  1
  N  N30  1  0.75438100  0.50115900  0.17980100  1
  N  N31  1  0.24561900  0.49884100  0.82019900  1
  N  N32  1  0.67576800  0.20378700  0.95628300  1
  N  N33  1  0.32423200  0.79621300  0.04371700  1
  O  O34  1  0.50000000  0.50000000  0.50000000  1
  O  O35  1  0.57449400  0.28723800  0.42844700  1
  O  O36  1  0.42550600  0.71276200  0.57155300  1
  O  O37  1  0.75785600  0.61746200  0.47044700  1
  O  O38  1  0.24214400  0.38253800  0.52955300  1
  O  O39  1  0.29828300  0.33628500  0.29384000  1
  O  O40  1  0.70171700  0.66371500  0.70616000  1
  O  O41  1  0.46367800  0.63911000  0.32297700  1
  O  O42  1  0.53632200  0.36089000  0.67702300  1
  O  O43  1  0.00354100  0.67231400  0.70990100  1
  O  O44  1  0.99645900  0.32768600  0.29009900  1
  O  O45  1  0.85165600  0.51517200  0.84260500  1
  O  O46  1  0.14834400  0.48482800  0.15739500  1
  O  O47  1  0.23300100  0.03183200  0.29908000  1
  O  O48  1  0.76699900  0.96816800  0.70092000  1
  O  O49  1  0.10898600  0.04767800  0.32850600  1
  O  O50  1  0.89101400  0.95232200  0.67149400  1
  O  O51  1  0.36677200  0.20852700  0.05093900  1
  O  O52  1  0.63322800  0.79147300  0.94906100  1
  O  O53  1  0.36071900  0.33094000  0.08387100  1
  O  O54  1  0.63928100  0.66906000  0.91612900  1
  O  O55  1  0.74604900  0.88093000  0.04319400  1
  O  O56  1  0.25395100  0.11907000  0.95680600  1
  O  O57  1  0.95180700  0.83267600  0.90057900  1
  O  O58  1  0.04819300  0.16732400  0.09942100  1
  O  O59  1  0.81350300  0.25243700  0.65998500  1
  O  O60  1  0.18649700  0.74756300  0.34001500  1
  O  O61  1  0.92729300  0.38254500  0.55868500  1
  O  O62  1  0.07270700  0.61745500  0.44131500  1
  O  O63  1  0.97563000  0.19594500  0.59762700  1
  O  O64  1  0.02437000  0.80405500  0.40237300  1
  O  O65  1  0.24464400  0.09683100  0.63007600  1
  O  O66  1  0.75535600  0.90316900  0.36992400  1
  O  O67  1  0.40899900  0.04141700  0.57599500  1
  O  O68  1  0.59100100  0.95858300  0.42400500  1
  O  O69  1  0.30531200  0.92120100  0.68906400  1
  O  O70  1  0.69468800  0.07879900  0.31093600  1
  O  O71  1  0.73801400  0.40374400  0.24104500  1
  O  O72  1  0.26198600  0.59625600  0.75895500  1
  O  O73  1  0.66473400  0.56542600  0.16563200  1
  O  O74  1  0.33526600  0.43457400  0.83436800  1
  O  O75  1  0.85562000  0.53105600  0.13764100  1
  O  O76  1  0.14438000  0.46894400  0.86235900  1
  O  O77  1  0.57138400  0.24397700  0.89977900  1
  O  O78  1  0.42861600  0.75602300  0.10022100  1
  O  O79  1  0.66923000  0.14246500  0.04346500  1
  O  O80  1  0.33077000  0.85753500  0.95653500  1
  O  O81  1  0.78741700  0.22591900  0.92497300  1
  O  O82  1  0.21258300  0.77408100  0.07502700  1
