# generated using pymatgen
data_K3CrC5N6O
_symmetry_space_group_name_H-M   'P 1'
_cell_length_a   8.66731300
_cell_length_b   10.57268900
_cell_length_c   13.84831500
_cell_angle_alpha   90.00000000
_cell_angle_beta   90.00000000
_cell_angle_gamma   90.00000000
_symmetry_Int_Tables_number   1
_chemical_formula_structural   K3CrC5N6O
_chemical_formula_sum   'K12 Cr4 C20 N24 O4'
_cell_volume   1269.01533867
_cell_formula_units_Z   4
loop_
 _symmetry_equiv_pos_site_id
 _symmetry_equiv_pos_as_xyz
  1  'x, y, z'
loop_
 _atom_site_type_symbol
 _atom_site_label
 _atom_site_symmetry_multiplicity
 _atom_site_fract_x
 _atom_site_fract_y
 _atom_site_fract_z
 _atom_site_occupancy
  K  K0  1  0.50092900  0.00000000  0.00000000  1
  K  K1  1  0.49978500  0.23085400  0.74959100  1
  K  K2  1  0.99978500  0.73085400  0.25040900  1
  K  K3  1  0.24920300  0.00000000  0.50000000  1
  K  K4  1  0.74987600  0.72704900  0.75083700  1
  K  K5  1  0.49978500  0.76914600  0.25040900  1
  K  K6  1  0.99978500  0.26914600  0.74959100  1
  K  K7  1  0.24987600  0.22704900  0.24916300  1
  K  K8  1  0.74987600  0.27295100  0.24916300  1
  K  K9  1  0.00092900  0.50000000  0.00000000  1
  K  K10  1  0.74920300  0.50000000  0.50000000  1
  K  K11  1  0.24987600  0.77295100  0.75083700  1
  Cr  Cr12  1  0.75022900  0.00000000  0.50000000  1
  Cr  Cr13  1  0.99969800  0.00000000  0.00000000  1
  Cr  Cr14  1  0.25022900  0.50000000  0.50000000  1
  Cr  Cr15  1  0.49969800  0.50000000  0.00000000  1
  C  C16  1  0.91659200  0.94167700  0.59879500  1
  C  C17  1  0.66720700  0.55767000  0.09814100  1
  C  C18  1  0.41659200  0.55832300  0.59879500  1
  C  C19  1  0.33262400  0.55788200  0.09828700  1
  C  C20  1  0.83262400  0.05788200  0.90171300  1
  C  C21  1  0.16720700  0.05767000  0.90185900  1
  C  C22  1  0.33262400  0.44211800  0.90171300  1
  C  C23  1  0.08334200  0.44174600  0.40117200  1
  C  C24  1  0.75020300  0.82320800  0.43512400  1
  C  C25  1  0.16720700  0.94233000  0.09814100  1
  C  C26  1  0.41659200  0.44167700  0.40120500  1
  C  C27  1  0.91659200  0.05832300  0.40120500  1
  C  C28  1  0.66720700  0.44233000  0.90185900  1
  C  C29  1  0.75020300  0.17679200  0.56487600  1
  C  C30  1  0.58334200  0.94174600  0.59882800  1
  C  C31  1  0.25020300  0.32320800  0.56487600  1
  C  C32  1  0.58334200  0.05825400  0.40117200  1
  C  C33  1  0.25020300  0.67679200  0.43512400  1
  C  C34  1  0.83262400  0.94211800  0.09828700  1
  C  C35  1  0.08334200  0.55825400  0.59882800  1
  N  N36  1  0.00960000  0.90750900  0.65446400  1
  N  N37  1  0.99975400  0.84386300  0.94375500  1
  N  N38  1  0.73723900  0.90984500  0.15353600  1
  N  N39  1  0.25026600  0.22508500  0.60446200  1
  N  N40  1  0.50960000  0.40750900  0.34553600  1
  N  N41  1  0.23723900  0.59015500  0.15353600  1
  N  N42  1  0.49975400  0.65613700  0.94375500  1
  N  N43  1  0.75026600  0.27491500  0.60446200  1
  N  N44  1  0.00960000  0.09249100  0.34553600  1
  N  N45  1  0.26330800  0.91127200  0.15332200  1
  N  N46  1  0.99975400  0.15613700  0.05624500  1
  N  N47  1  0.76330800  0.41127200  0.84667800  1
  N  N48  1  0.49041600  0.09143200  0.34514300  1
  N  N49  1  0.99041600  0.40856800  0.34514300  1
  N  N50  1  0.75026600  0.72508500  0.39553800  1
  N  N51  1  0.26330800  0.08872800  0.84667800  1
  N  N52  1  0.50960000  0.59249100  0.65446400  1
  N  N53  1  0.49041600  0.90856800  0.65485700  1
  N  N54  1  0.73723900  0.09015500  0.84646400  1
  N  N55  1  0.25026600  0.77491500  0.39553800  1
  N  N56  1  0.49975400  0.34386300  0.05624500  1
  N  N57  1  0.23723900  0.40984500  0.84646400  1
  N  N58  1  0.99041600  0.59143200  0.65485700  1
  N  N59  1  0.76330800  0.58872800  0.15332200  1
  O  O60  1  0.49975700  0.75827200  0.90106500  1
  O  O61  1  0.99975700  0.74172800  0.90106500  1
  O  O62  1  0.49975700  0.24172800  0.09893500  1
  O  O63  1  0.99975700  0.25827200  0.09893500  1
