# generated using pymatgen
data_CsCoH18N6(ClO2)4
_symmetry_space_group_name_H-M   'P 1'
_cell_length_a   8.07877265
_cell_length_b   8.07877265
_cell_length_c   10.28508847
_cell_angle_alpha   66.67585577
_cell_angle_beta   66.67585577
_cell_angle_gamma   60.02420373
_symmetry_Int_Tables_number   1
_chemical_formula_structural   CsCoH18N6(ClO2)4
_chemical_formula_sum   'Cs1 Co1 H18 N6 Cl4 O8'
_cell_volume   517.13621953
_cell_formula_units_Z   1
loop_
 _symmetry_equiv_pos_site_id
 _symmetry_equiv_pos_as_xyz
  1  'x, y, z'
loop_
 _atom_site_type_symbol
 _atom_site_label
 _atom_site_symmetry_multiplicity
 _atom_site_fract_x
 _atom_site_fract_y
 _atom_site_fract_z
 _atom_site_occupancy
  Cs  Cs0  1  0.49685200  0.49685200  0.50912000  1
  Co  Co1  1  0.04631400  0.04631400  0.86061200  1
  H  H2  1  0.38650300  0.79699800  0.82373500  1
  H  H3  1  0.98835200  0.78778500  0.83243600  1
  H  H4  1  0.98684600  0.39200500  0.83649800  1
  H  H5  1  0.79699800  0.38650300  0.82373500  1
  H  H6  1  0.39200500  0.98684600  0.83649800  1
  H  H7  1  0.78778500  0.98835200  0.83243600  1
  H  H8  1  0.20382500  0.50472200  0.08814200  1
  H  H9  1  0.20450400  0.70495900  0.09689600  1
  H  H10  1  0.99321600  0.70376900  0.10001400  1
  H  H11  1  0.08888700  0.57575400  0.24947300  1
  H  H12  1  0.20357800  0.20357800  0.08730200  1
  H  H13  1  0.50472200  0.20382500  0.08814200  1
  H  H14  1  0.70495900  0.20450400  0.09689600  1
  H  H15  1  0.99264000  0.20313100  0.09957800  1
  H  H16  1  0.20313100  0.99264000  0.09957800  1
  H  H17  1  0.70376900  0.99321600  0.10001400  1
  H  H18  1  0.57575400  0.08888700  0.24947300  1
  H  H19  1  0.08697100  0.08697100  0.24934200  1
  N  N20  1  0.30529200  0.90853800  0.87539100  1
  N  N21  1  0.90978600  0.90978600  0.87370500  1
  N  N22  1  0.90853800  0.30529200  0.87539100  1
  N  N23  1  0.12005900  0.62393900  0.13738500  1
  N  N24  1  0.62393900  0.12005900  0.13738500  1
  N  N25  1  0.11890800  0.11890800  0.13730100  1
  Cl  Cl26  1  0.81589100  0.81589100  0.55250800  1
  Cl  Cl27  1  0.61836300  0.61836300  0.15266400  1
  Cl  Cl28  1  0.35872300  0.35872300  0.92217500  1
  Cl  Cl29  1  0.19005400  0.19005400  0.42962400  1
  O  O30  1  0.87012500  0.87012500  0.39099900  1
  O  O31  1  0.30757800  0.01164200  0.37337300  1
  O  O32  1  0.01164200  0.30757800  0.37337300  1
  O  O33  1  0.30759500  0.30759500  0.37312900  1
  O  O34  1  0.69949600  0.69949600  0.60512900  1
  O  O35  1  0.99544400  0.69969400  0.60485200  1
  O  O36  1  0.69969400  0.99544400  0.60485200  1
  O  O37  1  0.13744800  0.13744800  0.58684300  1
