# generated using pymatgen
data_TeH5O6
_symmetry_space_group_name_H-M   'P 1'
_cell_length_a   9.39801400
_cell_length_b   6.52801200
_cell_length_c   8.38072298
_cell_angle_alpha   80.56236048
_cell_angle_beta   90.00000000
_cell_angle_gamma   90.00000000
_symmetry_Int_Tables_number   1
_chemical_formula_structural   TeH5O6
_chemical_formula_sum   'Te4 H20 O24'
_cell_volume   507.20093586
_cell_formula_units_Z   4
loop_
 _symmetry_equiv_pos_site_id
 _symmetry_equiv_pos_as_xyz
  1  'x, y, z'
loop_
 _atom_site_type_symbol
 _atom_site_label
 _atom_site_symmetry_multiplicity
 _atom_site_fract_x
 _atom_site_fract_y
 _atom_site_fract_z
 _atom_site_occupancy
  Te  Te0  1  0.00000000  0.00000000  0.00000000  1
  Te  Te1  1  0.50000000  0.00000000  0.50000000  1
  Te  Te2  1  0.00000000  0.50000000  0.50000000  1
  Te  Te3  1  0.50000000  0.50000000  0.00000000  1
  H  H4  1  0.71102500  0.76611400  0.53414500  1
  H  H5  1  0.78897500  0.76611400  0.03414500  1
  H  H6  1  0.28897500  0.23388600  0.46585500  1
  H  H7  1  0.21102500  0.23388600  0.96585500  1
  H  H8  1  0.88991100  0.02685300  0.72425300  1
  H  H9  1  0.61008900  0.02685300  0.22425400  1
  H  H10  1  0.11008900  0.97314700  0.27574700  1
  H  H11  1  0.38991100  0.97314700  0.77574700  1
  H  H12  1  0.90966000  0.34732900  0.87484100  1
  H  H13  1  0.59034000  0.34732900  0.37484100  1
  H  H14  1  0.09034000  0.65267100  0.12515900  1
  H  H15  1  0.40966000  0.65267100  0.62515900  1
  H  H16  1  0.95392400  0.68615900  0.73771300  1
  H  H17  1  0.54607600  0.68615900  0.23771300  1
  H  H18  1  0.04607600  0.31384100  0.26228700  1
  H  H19  1  0.45392400  0.31384100  0.76228700  1
  H  H20  1  0.66423000  0.70865500  0.79747500  1
  H  H21  1  0.83577000  0.70865500  0.29747500  1
  H  H22  1  0.33577000  0.29134500  0.20252500  1
  H  H23  1  0.16423000  0.29134500  0.70252500  1
  O  O24  1  0.84351200  0.83646700  0.11248100  1
  O  O25  1  0.65648800  0.83646700  0.61248100  1
  O  O26  1  0.15648800  0.16353300  0.88751900  1
  O  O27  1  0.34351200  0.16353300  0.38751900  1
  O  O28  1  0.94325800  0.91706500  0.79448300  1
  O  O29  1  0.55674200  0.91706500  0.29448300  1
  O  O30  1  0.05674200  0.08293500  0.20551700  1
  O  O31  1  0.44325800  0.08293500  0.70551700  1
  O  O32  1  0.62298800  0.24100000  0.46717200  1
  O  O33  1  0.87701200  0.24100000  0.96717200  1
  O  O34  1  0.37701200  0.75900000  0.53282800  1
  O  O35  1  0.12298800  0.75900000  0.03282800  1
  O  O36  1  0.90644400  0.23049800  0.54096200  1
  O  O37  1  0.59355600  0.23049800  0.04096200  1
  O  O38  1  0.09355600  0.76950200  0.45903800  1
  O  O39  1  0.40644400  0.76950200  0.95903800  1
  O  O40  1  0.55761400  0.53914000  0.21702900  1
  O  O41  1  0.94238600  0.53914000  0.71702900  1
  O  O42  1  0.44238600  0.46086000  0.78297100  1
  O  O43  1  0.05761400  0.46086000  0.28297100  1
  O  O44  1  0.67308500  0.64807200  0.91640200  1
  O  O45  1  0.82691500  0.64807200  0.41640200  1
  O  O46  1  0.32691500  0.35192800  0.08359800  1
  O  O47  1  0.17308500  0.35192800  0.58359800  1
