# generated using pymatgen
data_MgMnPd2
_symmetry_space_group_name_H-M   'P 1'
_cell_length_a   10.76923969
_cell_length_b   10.76923969
_cell_length_c   10.76923969
_cell_angle_alpha   125.36438521
_cell_angle_beta   118.26956586
_cell_angle_gamma   86.99662188
_symmetry_Int_Tables_number   1
_chemical_formula_structural   MgMnPd2
_chemical_formula_sum   'Mg1 Mn1 Pd2'
_cell_volume   853.23050272
_cell_formula_units_Z   1
loop_
 _symmetry_equiv_pos_site_id
 _symmetry_equiv_pos_as_xyz
  1  'x, y, z'
loop_
 _atom_site_type_symbol
 _atom_site_label
 _atom_site_symmetry_multiplicity
 _atom_site_fract_x
 _atom_site_fract_y
 _atom_site_fract_z
 _atom_site_occupancy
  Mg  Mg0  1  0.00000000  0.00000000  0.00000000  1
  Mn  Mn1  1  0.00000000  0.50000000  0.50000000  1
  Pd  Pd2  1  0.00000000  0.25619900  0.25619900  1
  Pd  Pd3  1  0.00000000  0.74380100  0.74380100  1
