# generated using pymatgen
data_BH5CSN2
_symmetry_space_group_name_H-M   'P 1'
_cell_length_a   6.94325800
_cell_length_b   7.16321000
_cell_length_c   9.32973600
_cell_angle_alpha   90.00000000
_cell_angle_beta   90.00000000
_cell_angle_gamma   90.00000000
_symmetry_Int_Tables_number   1
_chemical_formula_structural   BH5CSN2
_chemical_formula_sum   'B4 H20 C4 S4 N8'
_cell_volume   464.02389093
_cell_formula_units_Z   4
loop_
 _symmetry_equiv_pos_site_id
 _symmetry_equiv_pos_as_xyz
  1  'x, y, z'
loop_
 _atom_site_type_symbol
 _atom_site_label
 _atom_site_symmetry_multiplicity
 _atom_site_fract_x
 _atom_site_fract_y
 _atom_site_fract_z
 _atom_site_occupancy
  B  B0  1  0.25000000  0.81993500  0.73790500  1
  B  B1  1  0.25000000  0.68006500  0.23790500  1
  B  B2  1  0.75000000  0.18006500  0.26209500  1
  B  B3  1  0.75000000  0.31993500  0.76209500  1
  H  H4  1  0.25000000  0.50946400  0.76592200  1
  H  H5  1  0.25000000  0.99053600  0.26592200  1
  H  H6  1  0.75000000  0.49053600  0.23407800  1
  H  H7  1  0.75000000  0.00946400  0.73407800  1
  H  H8  1  0.36975100  0.62203900  0.89340600  1
  H  H9  1  0.13024900  0.87796100  0.39340600  1
  H  H10  1  0.86975100  0.37796100  0.10659400  1
  H  H11  1  0.63024900  0.12203900  0.60659400  1
  H  H12  1  0.63024900  0.37796100  0.10659400  1
  H  H13  1  0.86975100  0.12203900  0.60659400  1
  H  H14  1  0.13024900  0.62203900  0.89340600  1
  H  H15  1  0.36975100  0.87796100  0.39340600  1
  H  H16  1  0.39510700  0.82867700  0.66482500  1
  H  H17  1  0.10489300  0.67132300  0.16482500  1
  H  H18  1  0.89510700  0.17132300  0.33517500  1
  H  H19  1  0.60489300  0.32867700  0.83517500  1
  H  H20  1  0.60489300  0.17132300  0.33517500  1
  H  H21  1  0.89510700  0.32867700  0.83517500  1
  H  H22  1  0.10489300  0.82867700  0.66482500  1
  H  H23  1  0.39510700  0.67132300  0.16482500  1
  C  C24  1  0.25000000  0.08557700  0.94115900  1
  C  C25  1  0.25000000  0.41442300  0.44115900  1
  C  C26  1  0.75000000  0.91442300  0.05884100  1
  C  C27  1  0.75000000  0.58557700  0.55884100  1
  S  S28  1  0.25000000  0.24010300  0.06645400  1
  S  S29  1  0.25000000  0.25989700  0.56645400  1
  S  S30  1  0.75000000  0.75989700  0.93354600  1
  S  S31  1  0.75000000  0.74010300  0.43354600  1
  N  N32  1  0.25000000  0.97266000  0.84905600  1
  N  N33  1  0.25000000  0.52734000  0.34905600  1
  N  N34  1  0.75000000  0.02734000  0.15094400  1
  N  N35  1  0.75000000  0.47266000  0.65094400  1
  N  N36  1  0.25000000  0.62825700  0.82811000  1
  N  N37  1  0.25000000  0.87174300  0.32811000  1
  N  N38  1  0.75000000  0.37174300  0.17189000  1
  N  N39  1  0.75000000  0.12825700  0.67189000  1
