# generated using pymatgen
data_Na2H4PtC4Br2(N2O)2
_symmetry_space_group_name_H-M   'P 1'
_cell_length_a   6.55316200
_cell_length_b   12.05079900
_cell_length_c   15.23669100
_cell_angle_alpha   90.00000000
_cell_angle_beta   90.00000000
_cell_angle_gamma   90.00000000
_symmetry_Int_Tables_number   1
_chemical_formula_structural   Na2H4PtC4Br2(N2O)2
_chemical_formula_sum   'Na8 H16 Pt4 C16 Br8 N16 O8'
_cell_volume   1203.25425778
_cell_formula_units_Z   4
loop_
 _symmetry_equiv_pos_site_id
 _symmetry_equiv_pos_as_xyz
  1  'x, y, z'
loop_
 _atom_site_type_symbol
 _atom_site_label
 _atom_site_symmetry_multiplicity
 _atom_site_fract_x
 _atom_site_fract_y
 _atom_site_fract_z
 _atom_site_occupancy
  Na  Na0  1  0.54790500  0.73911700  0.02445400  1
  Na  Na1  1  0.95209500  0.23911700  0.47554600  1
  Na  Na2  1  0.45209500  0.26088300  0.52445400  1
  Na  Na3  1  0.04790500  0.76088300  0.97554600  1
  Na  Na4  1  0.45209500  0.26088300  0.97554600  1
  Na  Na5  1  0.04790500  0.76088300  0.52445400  1
  Na  Na6  1  0.54790500  0.73911700  0.47554600  1
  Na  Na7  1  0.95209500  0.23911700  0.02445400  1
  H  H8  1  0.75955400  0.96330900  0.98713400  1
  H  H9  1  0.74044600  0.46330900  0.51286600  1
  H  H10  1  0.24044600  0.03669100  0.48713400  1
  H  H11  1  0.25955400  0.53669100  0.01286600  1
  H  H12  1  0.24044600  0.03669100  0.01286600  1
  H  H13  1  0.25955400  0.53669100  0.48713400  1
  H  H14  1  0.75955400  0.96330900  0.51286600  1
  H  H15  1  0.74044600  0.46330900  0.98713400  1
  H  H16  1  0.82347100  0.91476200  0.07769800  1
  H  H17  1  0.67652900  0.41476200  0.42230200  1
  H  H18  1  0.17652900  0.08523800  0.57769800  1
  H  H19  1  0.32347100  0.58523800  0.92230200  1
  H  H20  1  0.17652900  0.08523800  0.92230200  1
  H  H21  1  0.32347100  0.58523800  0.57769800  1
  H  H22  1  0.82347100  0.91476200  0.42230200  1
  H  H23  1  0.67652900  0.41476200  0.07769800  1
  Pt  Pt24  1  0.93559700  0.49277700  0.75000000  1
  Pt  Pt25  1  0.56440300  0.99277700  0.75000000  1
  Pt  Pt26  1  0.06440300  0.50722300  0.25000000  1
  Pt  Pt27  1  0.43559700  0.00722300  0.25000000  1
  C  C28  1  0.07078000  0.39937100  0.65679700  1
  C  C29  1  0.42922000  0.89937100  0.84320300  1
  C  C30  1  0.92922000  0.60062900  0.15679700  1
  C  C31  1  0.57078000  0.10062900  0.34320300  1
  C  C32  1  0.92922000  0.60062900  0.34320300  1
  C  C33  1  0.57078000  0.10062900  0.15679700  1
  C  C34  1  0.07078000  0.39937100  0.84320300  1
  C  C35  1  0.42922000  0.89937100  0.65679700  1
  C  C36  1  0.80709500  0.58554900  0.65463200  1
  C  C37  1  0.69290500  0.08554900  0.84536800  1
  C  C38  1  0.19290500  0.41445100  0.15463200  1
  C  C39  1  0.30709500  0.91445100  0.34536800  1
  C  C40  1  0.19290500  0.41445100  0.34536800  1
  C  C41  1  0.30709500  0.91445100  0.15463200  1
  C  C42  1  0.80709500  0.58554900  0.84536800  1
  C  C43  1  0.69290500  0.08554900  0.65463200  1
  Br  Br44  1  0.37268900  0.63258400  0.25000000  1
  Br  Br45  1  0.12731100  0.13258400  0.25000000  1
  Br  Br46  1  0.62731100  0.36741600  0.75000000  1
  Br  Br47  1  0.87268900  0.86741600  0.75000000  1
  Br  Br48  1  0.73912700  0.87715900  0.25000000  1
  Br  Br49  1  0.76087300  0.37715900  0.25000000  1
  Br  Br50  1  0.26087300  0.12284100  0.75000000  1
  Br  Br51  1  0.23912700  0.62284100  0.75000000  1
  N  N52  1  0.15205400  0.34659800  0.60266400  1
  N  N53  1  0.34794600  0.84659800  0.89733600  1
  N  N54  1  0.84794600  0.65340200  0.10266400  1
  N  N55  1  0.65205400  0.15340200  0.39733600  1
  N  N56  1  0.84794600  0.65340200  0.39733600  1
  N  N57  1  0.65205400  0.15340200  0.10266400  1
  N  N58  1  0.15205400  0.34659800  0.89733600  1
  N  N59  1  0.34794600  0.84659800  0.60266400  1
  N  N60  1  0.74147500  0.63788000  0.59632800  1
  N  N61  1  0.75852500  0.13788000  0.90367200  1
  N  N62  1  0.25852500  0.36212000  0.09632800  1
  N  N63  1  0.24147500  0.86212000  0.40367200  1
  N  N64  1  0.25852500  0.36212000  0.40367200  1
  N  N65  1  0.24147500  0.86212000  0.09632800  1
  N  N66  1  0.74147500  0.63788000  0.90367200  1
  N  N67  1  0.75852500  0.13788000  0.59632800  1
  O  O68  1  0.78898100  0.89361200  0.01743100  1
  O  O69  1  0.71101900  0.39361200  0.48256900  1
  O  O70  1  0.21101900  0.10638800  0.51743100  1
  O  O71  1  0.28898100  0.60638800  0.98256900  1
  O  O72  1  0.21101900  0.10638800  0.98256900  1
  O  O73  1  0.28898100  0.60638800  0.51743100  1
  O  O74  1  0.78898100  0.89361200  0.48256900  1
  O  O75  1  0.71101900  0.39361200  0.01743100  1
