# generated using pymatgen
data_BH5C4(N2O)2
_symmetry_space_group_name_H-M   'P 1'
_cell_length_a   7.66187500
_cell_length_b   12.45827100
_cell_length_c   12.61096100
_cell_angle_alpha   90.00000000
_cell_angle_beta   90.00000000
_cell_angle_gamma   90.00000000
_symmetry_Int_Tables_number   1
_chemical_formula_structural   BH5C4(N2O)2
_chemical_formula_sum   'B6 H30 C24 N24 O12'
_cell_volume   1203.76307866
_cell_formula_units_Z   6
loop_
 _symmetry_equiv_pos_site_id
 _symmetry_equiv_pos_as_xyz
  1  'x, y, z'
loop_
 _atom_site_type_symbol
 _atom_site_label
 _atom_site_symmetry_multiplicity
 _atom_site_fract_x
 _atom_site_fract_y
 _atom_site_fract_z
 _atom_site_occupancy
  B  B0  1  0.00000000  0.51722500  0.00000000  1
  B  B1  1  0.00000000  0.55314100  0.50000000  1
  B  B2  1  0.00000000  0.78563900  0.50000000  1
  B  B3  1  0.50000000  0.28563900  0.00000000  1
  B  B4  1  0.50000000  0.01722500  0.50000000  1
  B  B5  1  0.50000000  0.05314100  0.00000000  1
  H  H6  1  0.00000000  0.25871200  0.00000000  1
  H  H7  1  0.00000000  0.38046500  0.50000000  1
  H  H8  1  0.12651200  0.62375500  0.80414300  1
  H  H9  1  0.25748800  0.44034800  0.84544700  1
  H  H10  1  0.95215300  0.38255500  0.11644600  1
  H  H11  1  0.19740600  0.63964200  0.03183000  1
  H  H12  1  0.22646400  0.18192600  0.60970600  1
  H  H13  1  0.36358000  0.41087300  0.05691500  1
  H  H14  1  0.13642000  0.91087300  0.55691500  1
  H  H15  1  0.27353600  0.68192600  0.10970600  1
  H  H16  1  0.30259400  0.13964200  0.53183000  1
  H  H17  1  0.54784700  0.88255500  0.61644600  1
  H  H18  1  0.24251200  0.94034800  0.34544700  1
  H  H19  1  0.37348800  0.12375500  0.30414300  1
  H  H20  1  0.50000000  0.75871200  0.50000000  1
  H  H21  1  0.50000000  0.33491800  0.50000000  1
  H  H22  1  0.50000000  0.88046500  0.00000000  1
  H  H23  1  0.62651200  0.12375500  0.69585700  1
  H  H24  1  0.75748800  0.94034800  0.65455300  1
  H  H25  1  0.45215300  0.88255500  0.38355400  1
  H  H26  1  0.69740600  0.13964200  0.46817000  1
  H  H27  1  0.72646400  0.68192600  0.89029400  1
  H  H28  1  0.86358000  0.91087300  0.44308500  1
  H  H29  1  0.63642000  0.41087300  0.94308500  1
  H  H30  1  0.77353600  0.18192600  0.39029400  1
  H  H31  1  0.80259400  0.63964200  0.96817000  1
  H  H32  1  0.04784700  0.38255500  0.88355400  1
  H  H33  1  0.74251200  0.44034800  0.15455300  1
  H  H34  1  0.87348800  0.62375500  0.19585700  1
  H  H35  1  0.00000000  0.83491800  0.00000000  1
  C  C36  1  0.97500900  0.61797200  0.60485200  1
  C  C37  1  0.05357400  0.01413700  0.27193300  1
  C  C38  1  0.95239600  0.40431500  0.94473300  1
  C  C39  1  0.13930600  0.60272500  0.95626900  1
  C  C40  1  0.17479300  0.82848500  0.52980000  1
  C  C41  1  0.14358100  0.45478400  0.48976600  1
  C  C42  1  0.35641900  0.95478400  0.98976600  1
  C  C43  1  0.32520700  0.32848500  0.02980000  1
  C  C44  1  0.36069400  0.10272500  0.45626900  1
  C  C45  1  0.54760400  0.90431500  0.44473300  1
  C  C46  1  0.44642600  0.51413700  0.77193300  1
  C  C47  1  0.52499100  0.11797200  0.10485200  1
  C  C48  1  0.47500900  0.11797200  0.89514800  1
  C  C49  1  0.55357400  0.51413700  0.22806700  1
  C  C50  1  0.45239600  0.90431500  0.55526700  1
  C  C51  1  0.63930600  0.10272500  0.54373100  1
  C  C52  1  0.67479300  0.32848500  0.97020000  1
  C  C53  1  0.64358100  0.95478400  0.01023400  1
  C  C54  1  0.85641900  0.45478400  0.51023400  1
  C  C55  1  0.82520700  0.82848500  0.47020000  1
  C  C56  1  0.86069400  0.60272500  0.04373100  1
  C  C57  1  0.04760400  0.40431500  0.05526700  1
  C  C58  1  0.94642600  0.01413700  0.72806700  1
  C  C59  1  0.02499100  0.61797200  0.39514800  1
  N  N60  1  0.18257700  0.65203000  0.87306000  1
  N  N61  1  0.09852100  0.30912800  0.69262700  1
  N  N62  1  0.13173300  0.91762300  0.30505100  1
  N  N63  1  0.35358100  0.72908000  0.16297800  1
  N  N64  1  0.07338900  0.64792700  0.31239500  1
  N  N65  1  0.34329700  0.81178100  0.53640500  1
  N  N66  1  0.15670300  0.31178100  0.03640500  1
  N  N67  1  0.42661100  0.14792700  0.81239500  1
  N  N68  1  0.14641900  0.22908000  0.66297800  1
  N  N69  1  0.36826700  0.41762300  0.80505100  1
  N  N70  1  0.40147900  0.80912800  0.19262700  1
  N  N71  1  0.31742300  0.15203000  0.37306000  1
  N  N72  1  0.68257700  0.15203000  0.62694000  1
  N  N73  1  0.59852100  0.80912800  0.80737300  1
  N  N74  1  0.63173300  0.41762300  0.19494900  1
  N  N75  1  0.85358100  0.22908000  0.33702200  1
  N  N76  1  0.57338900  0.14792700  0.18760500  1
  N  N77  1  0.84329700  0.31178100  0.96359500  1
  N  N78  1  0.65670300  0.81178100  0.46359500  1
  N  N79  1  0.92661100  0.64792700  0.68760500  1
  N  N80  1  0.64641900  0.72908000  0.83702200  1
  N  N81  1  0.86826700  0.91762300  0.69494900  1
  N  N82  1  0.90147900  0.30912800  0.30737300  1
  N  N83  1  0.81742300  0.65203000  0.12694000  1
  O  O84  1  0.77288800  0.92813500  0.05232000  1
  O  O85  1  0.93050600  0.05140700  0.33010100  1
  O  O86  1  0.88840100  0.05282000  0.81320500  1
  O  O87  1  0.61159900  0.55282000  0.31320500  1
  O  O88  1  0.56949400  0.55140700  0.83010100  1
  O  O89  1  0.72711200  0.42813500  0.55232000  1
  O  O90  1  0.27288800  0.42813500  0.44768000  1
  O  O91  1  0.43050600  0.55140700  0.16989900  1
  O  O92  1  0.38840100  0.55282000  0.68679500  1
  O  O93  1  0.11159900  0.05282000  0.18679500  1
  O  O94  1  0.06949400  0.05140700  0.66989900  1
  O  O95  1  0.22711200  0.92813500  0.94768000  1
