# generated using pymatgen
data_Al2P2H4O11
_symmetry_space_group_name_H-M   'P 1'
_cell_length_a   9.86800700
_cell_length_b   9.87624000
_cell_length_c   19.54413300
_cell_angle_alpha   90.00000000
_cell_angle_beta   90.00000000
_cell_angle_gamma   90.00000000
_symmetry_Int_Tables_number   1
_chemical_formula_structural   Al2P2H4O11
_chemical_formula_sum   'Al16 P16 H32 O88'
_cell_volume   1904.74785581
_cell_formula_units_Z   8
loop_
 _symmetry_equiv_pos_site_id
 _symmetry_equiv_pos_as_xyz
  1  'x, y, z'
loop_
 _atom_site_type_symbol
 _atom_site_label
 _atom_site_symmetry_multiplicity
 _atom_site_fract_x
 _atom_site_fract_y
 _atom_site_fract_z
 _atom_site_occupancy
  Al  Al0  1  0.82332500  0.91414500  0.94927200  1
  Al  Al1  1  0.17667500  0.58585500  0.44927200  1
  Al  Al2  1  0.67667500  0.41414500  0.05072800  1
  Al  Al3  1  0.32332500  0.08585500  0.55072800  1
  Al  Al4  1  0.17667500  0.08585500  0.05072800  1
  Al  Al5  1  0.82332500  0.41414500  0.55072800  1
  Al  Al6  1  0.32332500  0.58585500  0.94927200  1
  Al  Al7  1  0.67667500  0.91414500  0.44927200  1
  Al  Al8  1  0.64852900  0.66693400  0.78291500  1
  Al  Al9  1  0.35147100  0.83306600  0.28291500  1
  Al  Al10  1  0.85147100  0.16693400  0.21708500  1
  Al  Al11  1  0.14852900  0.33306600  0.71708500  1
  Al  Al12  1  0.35147100  0.33306600  0.21708500  1
  Al  Al13  1  0.64852900  0.16693400  0.71708500  1
  Al  Al14  1  0.14852900  0.83306600  0.78291500  1
  Al  Al15  1  0.85147100  0.66693400  0.28291500  1
  P  P16  1  0.63459900  0.65922400  0.94851400  1
  P  P17  1  0.36540100  0.84077600  0.44851400  1
  P  P18  1  0.86540100  0.15922400  0.05148600  1
  P  P19  1  0.13459900  0.34077600  0.55148600  1
  P  P20  1  0.36540100  0.34077600  0.05148600  1
  P  P21  1  0.63459900  0.15922400  0.55148600  1
  P  P22  1  0.13459900  0.84077600  0.94851400  1
  P  P23  1  0.86540100  0.65922400  0.44851400  1
  P  P24  1  0.84050000  0.93247400  0.79028700  1
  P  P25  1  0.15950000  0.56752600  0.29028700  1
  P  P26  1  0.65950000  0.43247400  0.20971300  1
  P  P27  1  0.34050000  0.06752600  0.70971300  1
  P  P28  1  0.15950000  0.06752600  0.20971300  1
  P  P29  1  0.84050000  0.43247400  0.70971300  1
  P  P30  1  0.34050000  0.56752600  0.79028700  1
  P  P31  1  0.65950000  0.93247400  0.29028700  1
  H  H32  1  0.54625900  0.68577100  0.65661900  1
  H  H33  1  0.45374100  0.81422900  0.15661900  1
  H  H34  1  0.95374100  0.18577100  0.34338100  1
  H  H35  1  0.04625900  0.31422900  0.84338100  1
  H  H36  1  0.45374100  0.31422900  0.34338100  1
  H  H37  1  0.54625900  0.18577100  0.84338100  1
  H  H38  1  0.04625900  0.81422900  0.65661900  1
  H  H39  1  0.95374100  0.68577100  0.15661900  1
  H  H40  1  0.69545500  0.75515600  0.65510200  1
  H  H41  1  0.30454500  0.74484400  0.15510200  1
  H  H42  1  0.80454500  0.25515600  0.34489800  1
  H  H43  1  0.19545500  0.24484400  0.84489800  1
  H  H44  1  0.30454500  0.24484400  0.34489800  1
  H  H45  1  0.69545500  0.25515600  0.84489800  1
  H  H46  1  0.19545500  0.74484400  0.65510200  1
  H  H47  1  0.80454500  0.75515600  0.15510200  1
  H  H48  1  0.54596300  0.90904300  0.77763200  1
  H  H49  1  0.45403700  0.59095700  0.27763200  1
  H  H50  1  0.95403700  0.40904300  0.22236800  1
  H  H51  1  0.04596300  0.09095700  0.72236800  1
  H  H52  1  0.45403700  0.09095700  0.22236800  1
  H  H53  1  0.54596300  0.40904300  0.72236800  1
  H  H54  1  0.04596300  0.59095700  0.77763200  1
  H  H55  1  0.95403700  0.90904300  0.27763200  1
  H  H56  1  0.43741500  0.80315600  0.80157600  1
  H  H57  1  0.56258500  0.69684400  0.30157600  1
  H  H58  1  0.06258500  0.30315600  0.19842400  1
  H  H59  1  0.93741500  0.19684400  0.69842400  1
  H  H60  1  0.56258500  0.19684400  0.19842400  1
  H  H61  1  0.43741500  0.30315600  0.69842400  1
  H  H62  1  0.93741500  0.69684400  0.80157600  1
  H  H63  1  0.06258500  0.80315600  0.30157600  1
  O  O64  1  0.66908300  0.62245800  0.87472800  1
  O  O65  1  0.33091700  0.87754200  0.37472800  1
  O  O66  1  0.83091700  0.12245800  0.12527200  1
  O  O67  1  0.16908300  0.37754200  0.62527200  1
  O  O68  1  0.33091700  0.37754200  0.12527200  1
  O  O69  1  0.66908300  0.12245800  0.62527200  1
  O  O70  1  0.16908300  0.87754200  0.87472800  1
  O  O71  1  0.83091700  0.62245800  0.37472800  1
  O  O72  1  0.98026600  0.83338700  0.96105500  1
  O  O73  1  0.01973400  0.66661300  0.46105500  1
  O  O74  1  0.51973400  0.33338700  0.03894500  1
  O  O75  1  0.48026600  0.16661300  0.53894500  1
  O  O76  1  0.01973400  0.16661300  0.03894500  1
  O  O77  1  0.98026600  0.33338700  0.53894500  1
  O  O78  1  0.48026600  0.66661300  0.96105500  1
  O  O79  1  0.51973400  0.83338700  0.46105500  1
  O  O80  1  0.69706400  0.55326500  0.99703400  1
  O  O81  1  0.30293600  0.94673500  0.49703400  1
  O  O82  1  0.80293600  0.05326500  0.00296600  1
  O  O83  1  0.19706400  0.44673500  0.50296600  1
  O  O84  1  0.30293600  0.44673500  0.00296600  1
  O  O85  1  0.69706400  0.05326500  0.50296600  1
  O  O86  1  0.19706400  0.94673500  0.99703400  1
  O  O87  1  0.80293600  0.55326500  0.49703400  1
  O  O88  1  0.69353500  0.79924000  0.96815700  1
  O  O89  1  0.30646500  0.70076000  0.46815700  1
  O  O90  1  0.80646500  0.29924000  0.03184300  1
  O  O91  1  0.19353500  0.20076000  0.53184300  1
  O  O92  1  0.30646500  0.20076000  0.03184300  1
  O  O93  1  0.69353500  0.29924000  0.53184300  1
  O  O94  1  0.19353500  0.70076000  0.96815700  1
  O  O95  1  0.80646500  0.79924000  0.46815700  1
  O  O96  1  0.99323100  0.94240500  0.77306500  1
  O  O97  1  0.00676900  0.55759500  0.27306500  1
  O  O98  1  0.50676900  0.44240500  0.22693500  1
  O  O99  1  0.49323100  0.05759500  0.72693500  1
  O  O100  1  0.00676900  0.05759500  0.22693500  1
  O  O101  1  0.99323100  0.44240500  0.72693500  1
  O  O102  1  0.49323100  0.55759500  0.77306500  1
  O  O103  1  0.50676900  0.94240500  0.27306500  1
  O  O104  1  0.81537900  0.97713600  0.86536000  1
  O  O105  1  0.18462100  0.52286400  0.36536000  1
  O  O106  1  0.68462100  0.47713600  0.13464000  1
  O  O107  1  0.31537900  0.02286400  0.63464000  1
  O  O108  1  0.18462100  0.02286400  0.13464000  1
  O  O109  1  0.81537900  0.47713600  0.63464000  1
  O  O110  1  0.31537900  0.52286400  0.86536000  1
  O  O111  1  0.68462100  0.97713600  0.36536000  1
  O  O112  1  0.80017700  0.78098500  0.78231700  1
  O  O113  1  0.19982300  0.71901500  0.28231700  1
  O  O114  1  0.69982300  0.28098500  0.21768300  1
  O  O115  1  0.30017700  0.21901500  0.71768300  1
  O  O116  1  0.19982300  0.21901500  0.21768300  1
  O  O117  1  0.80017700  0.28098500  0.71768300  1
  O  O118  1  0.30017700  0.71901500  0.78231700  1
  O  O119  1  0.69982300  0.78098500  0.28231700  1
  O  O120  1  0.75795200  0.52136000  0.75757300  1
  O  O121  1  0.24204800  0.97864000  0.25757300  1
  O  O122  1  0.74204800  0.02136000  0.24242700  1
  O  O123  1  0.25795200  0.47864000  0.74242700  1
  O  O124  1  0.24204800  0.47864000  0.24242700  1
  O  O125  1  0.75795200  0.02136000  0.74242700  1
  O  O126  1  0.25795200  0.97864000  0.75757300  1
  O  O127  1  0.74204800  0.52136000  0.25757300  1
  O  O128  1  0.62135200  0.72127000  0.68452900  1
  O  O129  1  0.37864800  0.77873000  0.18452900  1
  O  O130  1  0.87864800  0.22127000  0.31547100  1
  O  O131  1  0.12135200  0.27873000  0.81547100  1
  O  O132  1  0.37864800  0.27873000  0.31547100  1
  O  O133  1  0.62135200  0.22127000  0.81547100  1
  O  O134  1  0.12135200  0.77873000  0.68452900  1
  O  O135  1  0.87864800  0.72127000  0.18452900  1
  O  O136  1  0.53651600  0.82617300  0.80575800  1
  O  O137  1  0.46348400  0.67382700  0.30575800  1
  O  O138  1  0.96348400  0.32617300  0.19424200  1
  O  O139  1  0.03651600  0.17382700  0.69424200  1
  O  O140  1  0.46348400  0.17382700  0.19424200  1
  O  O141  1  0.53651600  0.32617300  0.69424200  1
  O  O142  1  0.03651600  0.67382700  0.80575800  1
  O  O143  1  0.96348400  0.82617300  0.30575800  1
  O  O144  1  0.86028700  0.84013700  0.62341600  1
  O  O145  1  0.13971300  0.65986300  0.12341600  1
  O  O146  1  0.63971300  0.34013700  0.37658400  1
  O  O147  1  0.36028700  0.15986300  0.87658400  1
  O  O148  1  0.13971300  0.15986300  0.37658400  1
  O  O149  1  0.86028700  0.34013700  0.87658400  1
  O  O150  1  0.36028700  0.65986300  0.62341600  1
  O  O151  1  0.63971300  0.84013700  0.12341600  1
