# generated using pymatgen
data_H4CS(NO)2
_symmetry_space_group_name_H-M   'P 1'
_cell_length_a   4.03713300
_cell_length_b   10.15072400
_cell_length_c   10.88116700
_cell_angle_alpha   90.00000000
_cell_angle_beta   90.00000000
_cell_angle_gamma   90.00000000
_symmetry_Int_Tables_number   1
_chemical_formula_structural   H4CS(NO)2
_chemical_formula_sum   'H16 C4 S4 N8 O8'
_cell_volume   445.90829589
_cell_formula_units_Z   4
loop_
 _symmetry_equiv_pos_site_id
 _symmetry_equiv_pos_as_xyz
  1  'x, y, z'
loop_
 _atom_site_type_symbol
 _atom_site_label
 _atom_site_symmetry_multiplicity
 _atom_site_fract_x
 _atom_site_fract_y
 _atom_site_fract_z
 _atom_site_occupancy
  H  H0  1  0.24548300  0.12935200  0.24721000  1
  H  H1  1  0.25451700  0.37064800  0.74721000  1
  H  H2  1  0.75451700  0.62935200  0.75279000  1
  H  H3  1  0.74548300  0.87064800  0.25279000  1
  H  H4  1  0.75451700  0.87064800  0.75279000  1
  H  H5  1  0.74548300  0.62935200  0.25279000  1
  H  H6  1  0.24548300  0.37064800  0.24721000  1
  H  H7  1  0.25451700  0.12935200  0.74721000  1
  H  H8  1  0.39349300  0.04845600  0.38031100  1
  H  H9  1  0.10650700  0.45154400  0.88031100  1
  H  H10  1  0.60650700  0.54845600  0.61968900  1
  H  H11  1  0.89349300  0.95154400  0.11968900  1
  H  H12  1  0.60650700  0.95154400  0.61968900  1
  H  H13  1  0.89349300  0.54845600  0.11968900  1
  H  H14  1  0.39349300  0.45154400  0.38031100  1
  H  H15  1  0.10650700  0.04845600  0.88031100  1
  C  C16  1  0.40652900  0.25000000  0.38565000  1
  C  C17  1  0.09347100  0.25000000  0.88565000  1
  C  C18  1  0.59347100  0.75000000  0.61435000  1
  C  C19  1  0.90652900  0.75000000  0.11435000  1
  S  S20  1  0.87219100  0.25000000  0.03990000  1
  S  S21  1  0.62780900  0.25000000  0.53990000  1
  S  S22  1  0.12780900  0.75000000  0.96010000  1
  S  S23  1  0.37219100  0.75000000  0.46010000  1
  N  N24  1  0.35052800  0.13536100  0.33367300  1
  N  N25  1  0.14947200  0.36463900  0.83367300  1
  N  N26  1  0.64947200  0.63536100  0.66632700  1
  N  N27  1  0.85052800  0.86463900  0.16632700  1
  N  N28  1  0.64947200  0.86463900  0.66632700  1
  N  N29  1  0.85052800  0.63536100  0.16632700  1
  N  N30  1  0.35052800  0.36463900  0.33367300  1
  N  N31  1  0.14947200  0.13536100  0.83367300  1
  O  O32  1  0.01648600  0.12768900  0.09856300  1
  O  O33  1  0.48351400  0.37231100  0.59856300  1
  O  O34  1  0.98351400  0.62768900  0.90143700  1
  O  O35  1  0.51648600  0.87231100  0.40143700  1
  O  O36  1  0.98351400  0.87231100  0.90143700  1
  O  O37  1  0.51648600  0.62768900  0.40143700  1
  O  O38  1  0.01648600  0.37231100  0.09856300  1
  O  O39  1  0.48351400  0.12768900  0.59856300  1
