# generated using pymatgen
data_H10S(NO)4
_symmetry_space_group_name_H-M   'P 1'
_cell_length_a   11.08310200
_cell_length_b   5.20025100
_cell_length_c   11.05765389
_cell_angle_alpha   79.80636907
_cell_angle_beta   90.00000000
_cell_angle_gamma   90.00000000
_symmetry_Int_Tables_number   1
_chemical_formula_structural   H10S(NO)4
_chemical_formula_sum   'H40 S4 N16 O16'
_cell_volume   627.24720522
_cell_formula_units_Z   4
loop_
 _symmetry_equiv_pos_site_id
 _symmetry_equiv_pos_as_xyz
  1  'x, y, z'
loop_
 _atom_site_type_symbol
 _atom_site_label
 _atom_site_symmetry_multiplicity
 _atom_site_fract_x
 _atom_site_fract_y
 _atom_site_fract_z
 _atom_site_occupancy
  H  H0  1  0.89327700  0.74783100  0.83435200  1
  H  H1  1  0.39327700  0.25216900  0.66564800  1
  H  H2  1  0.10672300  0.25216900  0.16564800  1
  H  H3  1  0.60672300  0.74783100  0.33435200  1
  H  H4  1  0.03750700  0.68524900  0.87904500  1
  H  H5  1  0.53750700  0.31475100  0.62095500  1
  H  H6  1  0.96249300  0.31475100  0.12095500  1
  H  H7  1  0.46249300  0.68524900  0.37904500  1
  H  H8  1  0.98935100  0.59717000  0.74773400  1
  H  H9  1  0.48935100  0.40283000  0.75226600  1
  H  H10  1  0.01064900  0.40283000  0.25226600  1
  H  H11  1  0.51064900  0.59717000  0.24773400  1
  H  H12  1  0.49827800  0.76473600  0.60650300  1
  H  H13  1  0.99827800  0.23526400  0.89349700  1
  H  H14  1  0.50172200  0.23526400  0.39349700  1
  H  H15  1  0.00172200  0.76473600  0.10650300  1
  H  H16  1  0.35533700  0.69835200  0.63032200  1
  H  H17  1  0.85533700  0.30164800  0.86967800  1
  H  H18  1  0.64466300  0.30164800  0.36967800  1
  H  H19  1  0.14466300  0.69835200  0.13032200  1
  H  H20  1  0.42908800  0.82911200  0.91797400  1
  H  H21  1  0.92908800  0.17088800  0.58202600  1
  H  H22  1  0.57091200  0.17088800  0.08202600  1
  H  H23  1  0.07091200  0.82911200  0.41797400  1
  H  H24  1  0.35829500  0.67539400  0.04791900  1
  H  H25  1  0.85829500  0.32460600  0.45208100  1
  H  H26  1  0.64170500  0.32460600  0.95208100  1
  H  H27  1  0.14170500  0.67539400  0.54791900  1
  H  H28  1  0.27642600  0.86606200  0.93374800  1
  H  H29  1  0.77642600  0.13393800  0.56625200  1
  H  H30  1  0.72357400  0.13393800  0.06625200  1
  H  H31  1  0.22357400  0.86606200  0.43374800  1
  H  H32  1  0.26690900  0.56232600  0.82747100  1
  H  H33  1  0.76690900  0.43767400  0.67252900  1
  H  H34  1  0.73309100  0.43767400  0.17252900  1
  H  H35  1  0.23309100  0.56232600  0.32747100  1
  H  H36  1  0.29007900  0.36886900  0.95922200  1
  H  H37  1  0.79007900  0.63113100  0.54077800  1
  H  H38  1  0.70992100  0.63113100  0.04077800  1
  H  H39  1  0.20992100  0.36886900  0.45922200  1
  S  S40  1  0.65828600  0.87136000  0.78843800  1
  S  S41  1  0.15828600  0.12864000  0.71156200  1
  S  S42  1  0.34171400  0.12864000  0.21156200  1
  S  S43  1  0.84171400  0.87136000  0.28843800  1
  N  N44  1  0.96504000  0.61217600  0.83676400  1
  N  N45  1  0.46504000  0.38782400  0.66323600  1
  N  N46  1  0.03496000  0.38782400  0.16323600  1
  N  N47  1  0.53496000  0.61217600  0.33676400  1
  N  N48  1  0.34898100  0.73675000  0.95311100  1
  N  N49  1  0.84898100  0.26325000  0.54688900  1
  N  N50  1  0.65101900  0.26325000  0.04688900  1
  N  N51  1  0.15101900  0.73675000  0.45311100  1
  N  N52  1  0.43155300  0.63667900  0.59077000  1
  N  N53  1  0.93155300  0.36332100  0.90923000  1
  N  N54  1  0.56844700  0.36332100  0.40923000  1
  N  N55  1  0.06844700  0.63667900  0.09077000  1
  N  N56  1  0.33015200  0.50988600  0.89529800  1
  N  N57  1  0.83015200  0.49011400  0.60470200  1
  N  N58  1  0.66984800  0.49011400  0.10470200  1
  N  N59  1  0.16984800  0.50988600  0.39529800  1
  O  O60  1  0.65340000  0.57954700  0.80909400  1
  O  O61  1  0.15340000  0.42045300  0.69090600  1
  O  O62  1  0.34660000  0.42045300  0.19090600  1
  O  O63  1  0.84660000  0.57954700  0.30909400  1
  O  O64  1  0.64585500  0.97448000  0.65292400  1
  O  O65  1  0.14585500  0.02552000  0.84707600  1
  O  O66  1  0.35414500  0.02552000  0.34707600  1
  O  O67  1  0.85414500  0.97448000  0.15292400  1
  O  O68  1  0.77711200  0.95727800  0.83251500  1
  O  O69  1  0.27711200  0.04272200  0.66748500  1
  O  O70  1  0.22288800  0.04272200  0.16748500  1
  O  O71  1  0.72288800  0.95727800  0.33251500  1
  O  O72  1  0.55922800  0.97724000  0.85660800  1
  O  O73  1  0.05922800  0.02276000  0.64339200  1
  O  O74  1  0.44077200  0.02276000  0.14339200  1
  O  O75  1  0.94077200  0.97724000  0.35660800  1
