# generated using pymatgen
data_BaP2(HO4)2
_symmetry_space_group_name_H-M   'P 1'
_cell_length_a   7.74532900
_cell_length_b   8.77389600
_cell_length_c   10.65679300
_cell_angle_alpha   90.00000000
_cell_angle_beta   90.00000000
_cell_angle_gamma   90.00000000
_symmetry_Int_Tables_number   1
_chemical_formula_structural   BaP2(HO4)2
_chemical_formula_sum   'Ba4 P8 H8 O32'
_cell_volume   724.20060349
_cell_formula_units_Z   4
loop_
 _symmetry_equiv_pos_site_id
 _symmetry_equiv_pos_as_xyz
  1  'x, y, z'
loop_
 _atom_site_type_symbol
 _atom_site_label
 _atom_site_symmetry_multiplicity
 _atom_site_fract_x
 _atom_site_fract_y
 _atom_site_fract_z
 _atom_site_occupancy
  Ba  Ba0  1  0.25000000  0.40074900  0.25000000  1
  Ba  Ba1  1  0.75000000  0.09925100  0.75000000  1
  Ba  Ba2  1  0.75000000  0.59925100  0.75000000  1
  Ba  Ba3  1  0.25000000  0.90074900  0.25000000  1
  P  P4  1  0.93242600  0.21030600  0.42802200  1
  P  P5  1  0.56757400  0.21030600  0.07197800  1
  P  P6  1  0.06757400  0.28969400  0.92802200  1
  P  P7  1  0.43242600  0.28969400  0.57197800  1
  P  P8  1  0.06757400  0.78969400  0.57197800  1
  P  P9  1  0.43242600  0.78969400  0.92802200  1
  P  P10  1  0.93242600  0.71030600  0.07197800  1
  P  P11  1  0.56757400  0.71030600  0.42802200  1
  H  H12  1  0.67534800  0.94548300  0.38931300  1
  H  H13  1  0.82465200  0.94548300  0.11068700  1
  H  H14  1  0.32465200  0.55451700  0.88931300  1
  H  H15  1  0.17534800  0.55451700  0.61068700  1
  H  H16  1  0.32465200  0.05451700  0.61068700  1
  H  H17  1  0.17534800  0.05451700  0.88931300  1
  H  H18  1  0.67534800  0.44548300  0.11068700  1
  H  H19  1  0.82465200  0.44548300  0.38931300  1
  O  O20  1  0.76845900  0.11115300  0.43284000  1
  O  O21  1  0.73154100  0.11115300  0.06716000  1
  O  O22  1  0.23154100  0.38884700  0.93284000  1
  O  O23  1  0.26845900  0.38884700  0.56716000  1
  O  O24  1  0.23154100  0.88884700  0.56716000  1
  O  O25  1  0.26845900  0.88884700  0.93284000  1
  O  O26  1  0.76845900  0.61115300  0.06716000  1
  O  O27  1  0.73154100  0.61115300  0.43284000  1
  O  O28  1  0.08583100  0.14162500  0.36046300  1
  O  O29  1  0.41416900  0.14162500  0.13953700  1
  O  O30  1  0.91416900  0.35837500  0.86046300  1
  O  O31  1  0.58583100  0.35837500  0.63953700  1
  O  O32  1  0.91416900  0.85837500  0.63953700  1
  O  O33  1  0.58583100  0.85837500  0.86046300  1
  O  O34  1  0.08583100  0.64162500  0.13953700  1
  O  O35  1  0.41416900  0.64162500  0.36046300  1
  O  O36  1  0.90458400  0.36695200  0.35397300  1
  O  O37  1  0.59541600  0.36695200  0.14602700  1
  O  O38  1  0.09541600  0.13304800  0.85397300  1
  O  O39  1  0.40458400  0.13304800  0.64602700  1
  O  O40  1  0.09541600  0.63304800  0.64602700  1
  O  O41  1  0.40458400  0.63304800  0.85397300  1
  O  O42  1  0.90458400  0.86695200  0.14602700  1
  O  O43  1  0.59541600  0.86695200  0.35397300  1
  O  O44  1  0.95677800  0.24266400  0.56994400  1
  O  O45  1  0.54322200  0.24266400  0.93005600  1
  O  O46  1  0.04322200  0.25733600  0.06994400  1
  O  O47  1  0.45677800  0.25733600  0.43005600  1
  O  O48  1  0.04322200  0.75733600  0.43005600  1
  O  O49  1  0.45677800  0.75733600  0.06994400  1
  O  O50  1  0.95677800  0.74266400  0.93005600  1
  O  O51  1  0.54322200  0.74266400  0.56994400  1
