# generated using pymatgen
data_VH8C10N3Cl4
_symmetry_space_group_name_H-M   'P 1'
_cell_length_a   16.26086300
_cell_length_b   8.19541500
_cell_length_c   12.85650432
_cell_angle_alpha   58.39579864
_cell_angle_beta   90.00000000
_cell_angle_gamma   90.00000000
_symmetry_Int_Tables_number   1
_chemical_formula_structural   VH8C10N3Cl4
_chemical_formula_sum   'V4 H32 C40 N12 Cl16'
_cell_volume   1459.21145138
_cell_formula_units_Z   4
loop_
 _symmetry_equiv_pos_site_id
 _symmetry_equiv_pos_as_xyz
  1  'x, y, z'
loop_
 _atom_site_type_symbol
 _atom_site_label
 _atom_site_symmetry_multiplicity
 _atom_site_fract_x
 _atom_site_fract_y
 _atom_site_fract_z
 _atom_site_occupancy
  V  V0  1  0.33272900  0.50110900  0.76044800  1
  V  V1  1  0.83272900  0.49889100  0.73955200  1
  V  V2  1  0.66727100  0.49889100  0.23955200  1
  V  V3  1  0.16727100  0.50110900  0.26044800  1
  H  H4  1  0.31631300  0.29611600  0.05488400  1
  H  H5  1  0.81631300  0.70388400  0.44511600  1
  H  H6  1  0.68368700  0.70388400  0.94511600  1
  H  H7  1  0.18368700  0.29611600  0.55488400  1
  H  H8  1  0.33519900  0.96931900  0.23973400  1
  H  H9  1  0.83519900  0.03068100  0.26026600  1
  H  H10  1  0.66480100  0.03068100  0.76026600  1
  H  H11  1  0.16480100  0.96931900  0.73973400  1
  H  H12  1  0.38885800  0.70467100  0.21150800  1
  H  H13  1  0.88885800  0.29532900  0.28849200  1
  H  H14  1  0.61114200  0.29532900  0.78849200  1
  H  H15  1  0.11114200  0.70467100  0.71150800  1
  H  H16  1  0.42152900  0.77972500  0.00314400  1
  H  H17  1  0.92152900  0.22027500  0.49685600  1
  H  H18  1  0.57847100  0.22027500  0.99685600  1
  H  H19  1  0.07847100  0.77972500  0.50314400  1
  H  H20  1  0.45880200  0.86900100  0.82789600  1
  H  H21  1  0.95880200  0.13099900  0.67210400  1
  H  H22  1  0.54119800  0.13099900  0.17210400  1
  H  H23  1  0.04119800  0.86900100  0.32789600  1
  H  H24  1  0.48592800  0.98664700  0.61117600  1
  H  H25  1  0.98592800  0.01335300  0.88882400  1
  H  H26  1  0.51407200  0.01335300  0.38882400  1
  H  H27  1  0.01407200  0.98664700  0.11117600  1
  H  H28  1  0.44074100  0.32275300  0.44943200  1
  H  H29  1  0.94074100  0.67724700  0.05056800  1
  H  H30  1  0.55925900  0.67724700  0.55056800  1
  H  H31  1  0.05925900  0.32275300  0.94943200  1
  H  H32  1  0.37631400  0.52575500  0.51938500  1
  H  H33  1  0.87631400  0.47424500  0.98061500  1
  H  H34  1  0.62368600  0.47424500  0.48061500  1
  H  H35  1  0.12368600  0.52575500  0.01938500  1
  C  C36  1  0.33992500  0.17845000  0.04696300  1
  C  C37  1  0.83992500  0.82155000  0.45303700  1
  C  C38  1  0.66007500  0.82155000  0.95303700  1
  C  C39  1  0.16007500  0.17845000  0.54696300  1
  C  C40  1  0.38611200  0.07856800  0.91743700  1
  C  C41  1  0.88611200  0.92143200  0.58256300  1
  C  C42  1  0.61388800  0.92143200  0.08256300  1
  C  C43  1  0.11388800  0.07856800  0.41743700  1
  C  C44  1  0.40272200  0.13464000  0.79036600  1
  C  C45  1  0.90272200  0.86536000  0.70963400  1
  C  C46  1  0.59727800  0.86536000  0.20963400  1
  C  C47  1  0.09727800  0.13464000  0.29036600  1
  C  C48  1  0.39467000  0.37876700  0.58474400  1
  C  C49  1  0.89467000  0.62123300  0.91525600  1
  C  C50  1  0.60533000  0.62123300  0.41525600  1
  C  C51  1  0.10533000  0.37876700  0.08474400  1
  C  C52  1  0.35098500  0.99589900  0.14953800  1
  C  C53  1  0.85098500  0.00410100  0.35046200  1
  C  C54  1  0.64901500  0.00410100  0.85046200  1
  C  C55  1  0.14901500  0.99589900  0.64953800  1
  C  C56  1  0.38081600  0.85061200  0.13410400  1
  C  C57  1  0.88081600  0.14938800  0.36589600  1
  C  C58  1  0.61918400  0.14938800  0.86589600  1
  C  C59  1  0.11918400  0.85061200  0.63410400  1
  C  C60  1  0.39907900  0.89237300  0.01669100  1
  C  C61  1  0.89907900  0.10762700  0.48330900  1
  C  C62  1  0.60092100  0.10762700  0.98330900  1
  C  C63  1  0.10092100  0.89237300  0.51669100  1
  C  C64  1  0.44057000  0.01384300  0.75820300  1
  C  C65  1  0.94057000  0.98615700  0.74179700  1
  C  C66  1  0.55943000  0.98615700  0.24179700  1
  C  C67  1  0.05943000  0.01384300  0.25820300  1
  C  C68  1  0.45548900  0.08015700  0.63591900  1
  C  C69  1  0.95548900  0.91984300  0.86408100  1
  C  C70  1  0.54451100  0.91984300  0.36408100  1
  C  C71  1  0.04451100  0.08015700  0.13591900  1
  C  C72  1  0.43136500  0.26527700  0.54676200  1
  C  C73  1  0.93136500  0.73472300  0.95323800  1
  C  C74  1  0.56863500  0.73472300  0.45323800  1
  C  C75  1  0.06863500  0.26527700  0.04676200  1
  N  N76  1  0.32299900  0.70031100  0.62309600  1
  N  N77  1  0.82299900  0.29968900  0.87690400  1
  N  N78  1  0.67700100  0.29968900  0.37690400  1
  N  N79  1  0.17700100  0.70031100  0.12309600  1
  N  N80  1  0.35664400  0.21889700  0.93332400  1
  N  N81  1  0.85664400  0.78110300  0.56667600  1
  N  N82  1  0.64335600  0.78110300  0.06667600  1
  N  N83  1  0.14335600  0.21889700  0.43332400  1
  N  N84  1  0.38132800  0.31627500  0.70307100  1
  N  N85  1  0.88132800  0.68372500  0.79692900  1
  N  N86  1  0.61867200  0.68372500  0.29692900  1
  N  N87  1  0.11867200  0.31627500  0.20307100  1
  Cl  Cl88  1  0.28679800  0.62382800  0.87192600  1
  Cl  Cl89  1  0.78679800  0.37617200  0.62807400  1
  Cl  Cl90  1  0.71320200  0.37617200  0.12807400  1
  Cl  Cl91  1  0.21320200  0.62382800  0.37192600  1
  Cl  Cl92  1  0.20892300  0.36003800  0.76293700  1
  Cl  Cl93  1  0.70892300  0.63996200  0.73706300  1
  Cl  Cl94  1  0.79107700  0.63996200  0.23706300  1
  Cl  Cl95  1  0.29107700  0.36003800  0.26293700  1
  Cl  Cl96  1  0.47124800  0.55183000  0.78035500  1
  Cl  Cl97  1  0.97124800  0.44817000  0.71964500  1
  Cl  Cl98  1  0.52875200  0.44817000  0.21964500  1
  Cl  Cl99  1  0.02875200  0.55183000  0.28035500  1
  Cl  Cl100  1  0.32119200  0.90147300  0.49447600  1
  Cl  Cl101  1  0.82119200  0.09852700  0.00552400  1
  Cl  Cl102  1  0.67880800  0.09852700  0.50552400  1
  Cl  Cl103  1  0.17880800  0.90147300  0.99447600  1
