# generated using pymatgen
data_Fe4C14O13
_symmetry_space_group_name_H-M   'P 1'
_cell_length_a   22.48634800
_cell_length_b   9.53535600
_cell_length_c   12.36418996
_cell_angle_alpha   50.38093417
_cell_angle_beta   90.00000000
_cell_angle_gamma   90.00000000
_symmetry_Int_Tables_number   1
_chemical_formula_structural   Fe4C14O13
_chemical_formula_sum   'Fe16 C56 O52'
_cell_volume   2042.12358242
_cell_formula_units_Z   4
loop_
 _symmetry_equiv_pos_site_id
 _symmetry_equiv_pos_as_xyz
  1  'x, y, z'
loop_
 _atom_site_type_symbol
 _atom_site_label
 _atom_site_symmetry_multiplicity
 _atom_site_fract_x
 _atom_site_fract_y
 _atom_site_fract_z
 _atom_site_occupancy
  Fe  Fe0  1  0.84375500  0.31188100  0.37924900  1
  Fe  Fe1  1  0.34375500  0.68811900  0.12075100  1
  Fe  Fe2  1  0.65624500  0.31188100  0.87924900  1
  Fe  Fe3  1  0.37687700  0.40179800  0.36890000  1
  Fe  Fe4  1  0.66635900  0.66842600  0.78975600  1
  Fe  Fe5  1  0.53510500  0.41221600  0.81807100  1
  Fe  Fe6  1  0.87687700  0.59820200  0.13110000  1
  Fe  Fe7  1  0.83364100  0.66842600  0.28975600  1
  Fe  Fe8  1  0.16635900  0.33157400  0.71024400  1
  Fe  Fe9  1  0.15624500  0.68811900  0.62075100  1
  Fe  Fe10  1  0.96489500  0.41221600  0.31807100  1
  Fe  Fe11  1  0.33364100  0.33157400  0.21024400  1
  Fe  Fe12  1  0.12312300  0.40179800  0.86890000  1
  Fe  Fe13  1  0.46489500  0.58778400  0.18192900  1
  Fe  Fe14  1  0.62312300  0.59820200  0.63110000  1
  Fe  Fe15  1  0.03510500  0.58778400  0.68192900  1
  C  C16  1  0.74671100  0.71641900  0.75388500  1
  C  C17  1  0.13057200  0.89412000  0.57985300  1
  C  C18  1  0.49555700  0.74784700  0.20305600  1
  C  C19  1  0.18494900  0.25364100  0.97374200  1
  C  C20  1  0.57435000  0.78922600  0.52729100  1
  C  C21  1  0.07435000  0.21077400  0.97270900  1
  C  C22  1  0.42565000  0.21077400  0.47270900  1
  C  C23  1  0.99555700  0.25215300  0.29694400  1
  C  C24  1  0.31518100  0.62316600  0.28985300  1
  C  C25  1  0.68494900  0.74635900  0.52625800  1
  C  C26  1  0.75328900  0.71641900  0.25388500  1
  C  C27  1  0.64149200  0.22146700  0.05637700  1
  C  C28  1  0.09206900  0.48326700  0.95403200  1
  C  C29  1  0.40793100  0.48326700  0.45403200  1
  C  C30  1  0.35527900  0.13247300  0.28207700  1
  C  C31  1  0.00829500  0.69058100  0.50908300  1
  C  C32  1  0.31505100  0.25364100  0.47374200  1
  C  C33  1  0.64472100  0.86752700  0.71792300  1
  C  C34  1  0.01976500  0.54537900  0.25446600  1
  C  C35  1  0.60470300  0.52234200  0.81169000  1
  C  C36  1  0.10470300  0.47765800  0.68831000  1
  C  C37  1  0.33679800  0.39101500  0.04096700  1
  C  C38  1  0.81518100  0.37683400  0.21014700  1
  C  C39  1  0.89529700  0.52234200  0.31169100  1
  C  C40  1  0.68481900  0.37683400  0.71014700  1
  C  C41  1  0.59206900  0.51673300  0.54596800  1
  C  C42  1  0.16320200  0.39101500  0.54096700  1
  C  C43  1  0.76675100  0.30547400  0.41147200  1
  C  C44  1  0.86942800  0.10588000  0.42014700  1
  C  C45  1  0.25328900  0.28358100  0.24611500  1
  C  C46  1  0.50829500  0.30941900  0.99091700  1
  C  C47  1  0.66320200  0.60898500  0.95903300  1
  C  C48  1  0.83679800  0.60898500  0.45903300  1
  C  C49  1  0.51976500  0.45462100  0.24553400  1
  C  C50  1  0.81505100  0.74635900  0.02625800  1
  C  C51  1  0.63057200  0.10588000  0.92014700  1
  C  C52  1  0.90793100  0.51673300  0.04596800  1
  C  C53  1  0.35850800  0.77853300  0.94362300  1
  C  C54  1  0.00444300  0.74784700  0.70305600  1
  C  C55  1  0.85850800  0.22146700  0.55637700  1
  C  C56  1  0.85527900  0.86752700  0.21792300  1
  C  C57  1  0.50444300  0.25215300  0.79694400  1
  C  C58  1  0.26675100  0.69452600  0.08852800  1
  C  C59  1  0.48023500  0.54537900  0.75446600  1
  C  C60  1  0.49170500  0.69058100  0.00908300  1
  C  C61  1  0.18481900  0.62316600  0.78985300  1
  C  C62  1  0.14472100  0.13247300  0.78207700  1
  C  C63  1  0.23324900  0.69452600  0.58852800  1
  C  C64  1  0.92565000  0.78922600  0.02729100  1
  C  C65  1  0.24671100  0.28358100  0.74611500  1
  C  C66  1  0.39529700  0.47765800  0.18831000  1
  C  C67  1  0.14149200  0.77853300  0.44362300  1
  C  C68  1  0.98023500  0.45462100  0.74553400  1
  C  C69  1  0.73324900  0.30547400  0.91147200  1
  C  C70  1  0.36942800  0.89412000  0.07985300  1
  C  C71  1  0.99170500  0.30941900  0.49091700  1
  O  O72  1  0.20317300  0.24993300  0.26331900  1
  O  O73  1  0.61928700  0.96522200  0.95118100  1
  O  O74  1  0.39339500  0.76430300  0.55844400  1
  O  O75  1  0.48172600  0.15143100  0.78797600  1
  O  O76  1  0.60660500  0.23569700  0.44155600  1
  O  O77  1  0.27888300  0.15036300  0.55158600  1
  O  O78  1  0.13505500  0.84415600  0.32699700  1
  O  O79  1  0.21628400  0.65089300  0.85015400  1
  O  O80  1  0.01827400  0.15143100  0.28797600  1
  O  O81  1  0.63505500  0.15584400  0.17300300  1
  O  O82  1  0.45500600  0.08565100  0.54984400  1
  O  O83  1  0.01120400  0.24856900  0.59927300  1
  O  O84  1  0.51827400  0.84856900  0.21202400  1
  O  O85  1  0.86494500  0.15584400  0.67300300  1
  O  O86  1  0.06846400  0.87761400  0.98022800  1
  O  O87  1  0.57101000  0.47012300  0.48825300  1
  O  O88  1  0.51120400  0.75143100  0.90072700  1
  O  O89  1  0.89339500  0.23569700  0.94155600  1
  O  O90  1  0.28371600  0.65089300  0.35015400  1
  O  O91  1  0.83948700  0.57449100  0.56689200  1
  O  O92  1  0.71628400  0.34910700  0.64984600  1
  O  O93  1  0.07101000  0.52987700  0.01174700  1
  O  O94  1  0.72111700  0.84963700  0.44841400  1
  O  O95  1  0.38071300  0.03477800  0.04881900  1
  O  O96  1  0.10660500  0.76430300  0.05844400  1
  O  O97  1  0.78371600  0.34910700  0.14984600  1
  O  O98  1  0.56846400  0.12238600  0.51977200  1
  O  O99  1  0.93153600  0.12238600  0.01977200  1
  O  O100  1  0.33948700  0.42550900  0.93310800  1
  O  O101  1  0.28374200  0.71727800  0.56451700  1
  O  O102  1  0.95500600  0.91434900  0.95015600  1
  O  O103  1  0.98879600  0.75143100  0.40072700  1
  O  O104  1  0.66051300  0.57449100  0.06689200  1
  O  O105  1  0.79682700  0.75006700  0.73668100  1
  O  O106  1  0.29682700  0.24993300  0.76331900  1
  O  O107  1  0.88071300  0.96522200  0.45118100  1
  O  O108  1  0.78374200  0.28272200  0.93548300  1
  O  O109  1  0.54499400  0.91434900  0.45015600  1
  O  O110  1  0.43153600  0.87761400  0.48022800  1
  O  O111  1  0.04499400  0.08565100  0.04984400  1
  O  O112  1  0.70317300  0.75006700  0.23668100  1
  O  O113  1  0.21625800  0.71727800  0.06451700  1
  O  O114  1  0.11928700  0.03477800  0.54881900  1
  O  O115  1  0.42899000  0.52987700  0.51174700  1
  O  O116  1  0.77888300  0.84963700  0.94841400  1
  O  O117  1  0.92899000  0.47012300  0.98825300  1
  O  O118  1  0.16051300  0.42550900  0.43310800  1
  O  O119  1  0.36494500  0.84415600  0.82699700  1
  O  O120  1  0.22111700  0.15036300  0.05158600  1
  O  O121  1  0.48879600  0.24856900  0.09927300  1
  O  O122  1  0.98172600  0.84856900  0.71202400  1
  O  O123  1  0.71625800  0.28272200  0.43548300  1
