# generated using pymatgen
data_Na6H2Pd(S2O7)2
_symmetry_space_group_name_H-M   'P 1'
_cell_length_a   13.02670518
_cell_length_b   13.02670518
_cell_length_c   13.02670518
_cell_angle_alpha   100.03213413
_cell_angle_beta   100.03213413
_cell_angle_gamma   130.66227198
_symmetry_Int_Tables_number   1
_chemical_formula_structural   Na6H2Pd(S2O7)2
_chemical_formula_sum   'Na24 H8 Pd4 S16 O56'
_cell_volume   1523.81781020
_cell_formula_units_Z   4
loop_
 _symmetry_equiv_pos_site_id
 _symmetry_equiv_pos_as_xyz
  1  'x, y, z'
loop_
 _atom_site_type_symbol
 _atom_site_label
 _atom_site_symmetry_multiplicity
 _atom_site_fract_x
 _atom_site_fract_y
 _atom_site_fract_z
 _atom_site_occupancy
  Na  Na0  1  0.52215400  0.18939900  0.71036500  1
  Na  Na1  1  0.47903300  0.81178900  0.28963500  1
  Na  Na2  1  0.06178900  0.27215400  0.83275600  1
  Na  Na3  1  0.43939900  0.22903300  0.16724400  1
  Na  Na4  1  0.72784600  0.56060100  0.78963500  1
  Na  Na5  1  0.77096700  0.93821100  0.21036500  1
  Na  Na6  1  0.18821100  0.47784600  0.66724400  1
  Na  Na7  1  0.81060100  0.52096700  0.33275600  1
  Na  Na8  1  0.66740600  0.04348100  0.77681300  1
  Na  Na9  1  0.26666800  0.89059300  0.22318700  1
  Na  Na10  1  0.14059300  0.41740600  0.12392500  1
  Na  Na11  1  0.29348100  0.01666800  0.87607500  1
  Na  Na12  1  0.58259400  0.70651900  0.72318700  1
  Na  Na13  1  0.98333200  0.85940700  0.27681300  1
  Na  Na14  1  0.10940700  0.33259400  0.37607500  1
  Na  Na15  1  0.95651900  0.73333200  0.62392500  1
  Na  Na16  1  0.36371200  0.19015900  0.43094900  1
  Na  Na17  1  0.75921000  0.93276300  0.56905100  1
  Na  Na18  1  0.18276300  0.11371200  0.67355300  1
  Na  Na19  1  0.44015900  0.50921000  0.32644700  1
  Na  Na20  1  0.88628800  0.55984100  0.06905100  1
  Na  Na21  1  0.49079000  0.81723700  0.93094900  1
  Na  Na22  1  0.06723700  0.63628800  0.82644700  1
  Na  Na23  1  0.80984100  0.24079000  0.17355300  1
  H  H24  1  0.42043200  0.41918600  0.51965900  1
  H  H25  1  0.89952700  0.90077300  0.48034100  1
  H  H26  1  0.15077300  0.17043200  0.50124600  1
  H  H27  1  0.66918600  0.64952700  0.49875400  1
  H  H28  1  0.82956800  0.33081400  0.98034100  1
  H  H29  1  0.35047300  0.84922700  0.01965900  1
  H  H30  1  0.09922700  0.57956800  0.99875400  1
  H  H31  1  0.58081400  0.10047300  0.00124600  1
  Pd  Pd32  1  0.50000000  0.50000000  0.00000000  1
  Pd  Pd33  1  0.75000000  0.25000000  0.50000000  1
  Pd  Pd34  1  0.00000000  0.00000000  0.00000000  1
  Pd  Pd35  1  0.25000000  0.75000000  0.50000000  1
  S  S36  1  0.40367200  0.47487400  0.81580100  1
  S  S37  1  0.65907200  0.58787100  0.18419900  1
  S  S38  1  0.83787100  0.15367200  0.42879800  1
  S  S39  1  0.72487400  0.40907200  0.57120200  1
  S  S40  1  0.84632800  0.27512600  0.68419900  1
  S  S41  1  0.59092800  0.16212900  0.31580100  1
  S  S42  1  0.41212900  0.59632800  0.07120200  1
  S  S43  1  0.52512600  0.34092800  0.92879800  1
  S  S44  1  0.94263800  0.92418200  0.80086300  1
  S  S45  1  0.12331900  0.14177500  0.19913700  1
  S  S46  1  0.39177500  0.69263800  0.51845600  1
  S  S47  1  0.17418200  0.87331900  0.48154400  1
  S  S48  1  0.30736200  0.82581800  0.69913700  1
  S  S49  1  0.12668100  0.60822500  0.30086300  1
  S  S50  1  0.85822500  0.05736200  0.98154400  1
  S  S51  1  0.07581800  0.87668100  0.01845600  1
  O  O52  1  0.24426200  0.33274900  0.75671500  1
  O  O53  1  0.57603400  0.48754600  0.24328500  1
  O  O54  1  0.73754600  0.99426200  0.41151300  1
  O  O55  1  0.58274900  0.32603400  0.58848700  1
  O  O56  1  0.00573800  0.41725100  0.74328500  1
  O  O57  1  0.67396600  0.26245400  0.25671500  1
  O  O58  1  0.51245400  0.75573800  0.08848700  1
  O  O59  1  0.66725100  0.42396600  0.91151300  1
  O  O60  1  0.41572500  0.59793500  0.81862900  1
  O  O61  1  0.77930600  0.59709700  0.18137100  1
  O  O62  1  0.84709700  0.16572500  0.31779100  1
  O  O63  1  0.84793500  0.52930600  0.68220900  1
  O  O64  1  0.83427500  0.15206500  0.68137100  1
  O  O65  1  0.47069400  0.15290300  0.31862900  1
  O  O66  1  0.40290300  0.58427500  0.18220900  1
  O  O67  1  0.40206500  0.22069400  0.81779100  1
  O  O68  1  0.49486300  0.48246200  0.75560300  1
  O  O69  1  0.72686000  0.73926000  0.24439700  1
  O  O70  1  0.98926000  0.24486300  0.51240100  1
  O  O71  1  0.73246200  0.47686000  0.48759900  1
  O  O72  1  0.75513700  0.26753800  0.74439700  1
  O  O73  1  0.52314000  0.01074000  0.25560300  1
  O  O74  1  0.26074000  0.50513700  0.98759900  1
  O  O75  1  0.51753800  0.27314000  0.01240100  1
  O  O76  1  0.80108000  0.76502300  0.74261400  1
  O  O77  1  0.02240900  0.05846600  0.25738600  1
  O  O78  1  0.30846600  0.55108000  0.53605700  1
  O  O79  1  0.01502300  0.77240900  0.46394300  1
  O  O80  1  0.44892000  0.98497700  0.75738600  1
  O  O81  1  0.22759100  0.69153400  0.24261400  1
  O  O82  1  0.94153400  0.19892000  0.96394300  1
  O  O83  1  0.23497700  0.97759100  0.03605700  1
  O  O84  1  0.92871200  0.01497300  0.75761300  1
  O  O85  1  0.25736000  0.17109900  0.24238700  1
  O  O86  1  0.42109900  0.67871200  0.41373900  1
  O  O87  1  0.26497300  0.00736000  0.58626100  1
  O  O88  1  0.32128800  0.73502700  0.74238700  1
  O  O89  1  0.99264000  0.57890100  0.25761300  1
  O  O90  1  0.82890100  0.07128800  0.08626100  1
  O  O91  1  0.98502700  0.74264000  0.91373900  1
  O  O92  1  0.06372400  0.94598900  0.77808900  1
  O  O93  1  0.16790000  0.28563500  0.22191100  1
  O  O94  1  0.53563500  0.81372400  0.61773500  1
  O  O95  1  0.19598900  0.91790000  0.38226500  1
  O  O96  1  0.18627600  0.80401100  0.72191100  1
  O  O97  1  0.08210000  0.46436500  0.27808900  1
  O  O98  1  0.71436500  0.93627600  0.88226500  1
  O  O99  1  0.05401100  0.83210000  0.11773500  1
  O  O100  1  0.49882300  0.48676900  0.49427900  1
  O  O101  1  0.99249000  0.00454400  0.50572100  1
  O  O102  1  0.25454400  0.24882300  0.51205400  1
  O  O103  1  0.73676900  0.74249000  0.48794600  1
  O  O104  1  0.75117700  0.26323100  0.00572100  1
  O  O105  1  0.25751000  0.74545600  0.99427900  1
  O  O106  1  0.99545600  0.50117700  0.98794600  1
  O  O107  1  0.51323100  0.00751000  0.01205400  1
