# generated using pymatgen
data_BeZnIr2
_symmetry_space_group_name_H-M   'P 1'
_cell_length_a   10.02548245
_cell_length_b   10.02548245
_cell_length_c   10.02548245
_cell_angle_alpha   125.37303887
_cell_angle_beta   117.52268985
_cell_angle_gamma   87.65036431
_symmetry_Int_Tables_number   1
_chemical_formula_structural   BeZnIr2
_chemical_formula_sum   'Be1 Zn1 Ir2'
_cell_volume   691.99090093
_cell_formula_units_Z   1
loop_
 _symmetry_equiv_pos_site_id
 _symmetry_equiv_pos_as_xyz
  1  'x, y, z'
loop_
 _atom_site_type_symbol
 _atom_site_label
 _atom_site_symmetry_multiplicity
 _atom_site_fract_x
 _atom_site_fract_y
 _atom_site_fract_z
 _atom_site_occupancy
  Be  Be0  1  0.00000000  0.00000000  0.00000000  1
  Zn  Zn1  1  0.00000000  0.50000000  0.50000000  1
  Ir  Ir2  1  0.00000000  0.22769900  0.22769900  1
  Ir  Ir3  1  0.00000000  0.77230100  0.77230100  1
