# generated using pymatgen
data_H3CSN2
_symmetry_space_group_name_H-M   'P 1'
_cell_length_a   12.74008240
_cell_length_b   12.74008240
_cell_length_c   14.87021951
_cell_angle_alpha   66.03034765
_cell_angle_beta   66.03034765
_cell_angle_gamma   20.31363143
_symmetry_Int_Tables_number   1
_chemical_formula_structural   H3CSN2
_chemical_formula_sum   'H24 C8 S8 N16'
_cell_volume   763.20382815
_cell_formula_units_Z   8
loop_
 _symmetry_equiv_pos_site_id
 _symmetry_equiv_pos_as_xyz
  1  'x, y, z'
loop_
 _atom_site_type_symbol
 _atom_site_label
 _atom_site_symmetry_multiplicity
 _atom_site_fract_x
 _atom_site_fract_y
 _atom_site_fract_z
 _atom_site_occupancy
  H  H0  1  0.81064500  0.84000200  0.64781100  1
  H  H1  1  0.15999800  0.18935500  0.85218900  1
  H  H2  1  0.18935500  0.15999800  0.35218900  1
  H  H3  1  0.84000200  0.81064500  0.14781100  1
  H  H4  1  0.01486600  0.87178500  0.59525700  1
  H  H5  1  0.12821500  0.98513400  0.90474300  1
  H  H6  1  0.98513400  0.12821500  0.40474300  1
  H  H7  1  0.87178500  0.01486600  0.09525700  1
  H  H8  1  0.33009200  0.50166100  0.73062600  1
  H  H9  1  0.49833900  0.66990800  0.76937400  1
  H  H10  1  0.66990800  0.49833900  0.26937400  1
  H  H11  1  0.50166100  0.33009200  0.23062600  1
  H  H12  1  0.57204900  0.45612500  0.56485800  1
  H  H13  1  0.54387500  0.42795100  0.93514200  1
  H  H14  1  0.42795100  0.54387500  0.43514200  1
  H  H15  1  0.45612500  0.57204900  0.06485800  1
  H  H16  1  0.76157600  0.97689500  0.41987100  1
  H  H17  1  0.02310500  0.23842400  0.08012900  1
  H  H18  1  0.23842400  0.02310500  0.58012900  1
  H  H19  1  0.97689500  0.76157600  0.91987100  1
  H  H20  1  0.21939300  0.27863400  0.69915800  1
  H  H21  1  0.72136600  0.78060700  0.80084200  1
  H  H22  1  0.78060700  0.72136600  0.30084200  1
  H  H23  1  0.27863400  0.21939300  0.19915800  1
  C  C24  1  0.06433800  0.61989800  0.75662000  1
  C  C25  1  0.38010200  0.93566200  0.74338000  1
  C  C26  1  0.93566200  0.38010200  0.24338000  1
  C  C27  1  0.61989800  0.06433800  0.25662000  1
  C  C28  1  0.99090700  0.82554200  0.49537600  1
  C  C29  1  0.17445800  0.00909300  0.00462400  1
  C  C30  1  0.00909300  0.17445800  0.50462400  1
  C  C31  1  0.82554200  0.99090700  0.99537600  1
  S  S32  1  0.94797600  0.59074000  0.84772100  1
  S  S33  1  0.40926000  0.05202400  0.65227900  1
  S  S34  1  0.05202400  0.40926000  0.15227900  1
  S  S35  1  0.59074000  0.94797600  0.34772100  1
  S  S36  1  0.17214700  0.77635400  0.39279900  1
  S  S37  1  0.22364600  0.82785300  0.10720100  1
  S  S38  1  0.82785300  0.22364600  0.60720100  1
  S  S39  1  0.77635400  0.17214700  0.89279900  1
  N  N40  1  0.94861800  0.76153600  0.66691200  1
  N  N41  1  0.23846400  0.05138200  0.83308800  1
  N  N42  1  0.05138200  0.23846400  0.33308800  1
  N  N43  1  0.76153600  0.94861800  0.16691200  1
  N  N44  1  0.07312500  0.74281400  0.58679700  1
  N  N45  1  0.25718600  0.92687500  0.91320300  1
  N  N46  1  0.92687500  0.25718600  0.41320300  1
  N  N47  1  0.74281400  0.07312500  0.08679700  1
  N  N48  1  0.24960800  0.50149200  0.78629800  1
  N  N49  1  0.49850800  0.75039200  0.71370200  1
  N  N50  1  0.75039200  0.49850800  0.21370200  1
  N  N51  1  0.50149200  0.24960800  0.28629800  1
  N  N52  1  0.80502300  0.92776300  0.48958800  1
  N  N53  1  0.07223700  0.19497700  0.01041200  1
  N  N54  1  0.19497700  0.07223700  0.51041200  1
  N  N55  1  0.92776300  0.80502300  0.98958800  1
