# generated using pymatgen
data_NdP3(H4O5)3
_symmetry_space_group_name_H-M   'P 1'
_cell_length_a   11.61737900
_cell_length_b   8.92140700
_cell_length_c   12.79236964
_cell_angle_alpha   85.35565476
_cell_angle_beta   90.00000000
_cell_angle_gamma   90.00000000
_symmetry_Int_Tables_number   1
_chemical_formula_structural   NdP3(H4O5)3
_chemical_formula_sum   'Nd4 P12 H48 O60'
_cell_volume   1321.49085421
_cell_formula_units_Z   4
loop_
 _symmetry_equiv_pos_site_id
 _symmetry_equiv_pos_as_xyz
  1  'x, y, z'
loop_
 _atom_site_type_symbol
 _atom_site_label
 _atom_site_symmetry_multiplicity
 _atom_site_fract_x
 _atom_site_fract_y
 _atom_site_fract_z
 _atom_site_occupancy
  Nd  Nd0  1  0.09842500  0.68683700  0.30002800  1
  Nd  Nd1  1  0.59842500  0.31316300  0.19997200  1
  Nd  Nd2  1  0.90157500  0.31316300  0.69997200  1
  Nd  Nd3  1  0.40157500  0.68683700  0.80002800  1
  P  P4  1  0.90551200  0.41440600  0.17844500  1
  P  P5  1  0.40551200  0.58559400  0.32155500  1
  P  P6  1  0.09448800  0.58559400  0.82155500  1
  P  P7  1  0.59448800  0.41440600  0.67844500  1
  P  P8  1  0.78331000  0.46273600  0.97444700  1
  P  P9  1  0.28331000  0.53726400  0.52555300  1
  P  P10  1  0.21669000  0.53726400  0.02555300  1
  P  P11  1  0.71669000  0.46273600  0.47444700  1
  P  P12  1  0.14409600  0.32827700  0.22382000  1
  P  P13  1  0.64409600  0.67172300  0.27618000  1
  P  P14  1  0.85590400  0.67172300  0.77618000  1
  P  P15  1  0.35590400  0.32827700  0.72382000  1
  H  H16  1  0.13437900  0.94695500  0.44605200  1
  H  H17  1  0.63437900  0.05304500  0.05394800  1
  H  H18  1  0.86562100  0.05304500  0.55394800  1
  H  H19  1  0.36562100  0.94695500  0.94605200  1
  H  H20  1  0.16424400  0.03457600  0.33148100  1
  H  H21  1  0.66424400  0.96542400  0.16851900  1
  H  H22  1  0.83575600  0.96542400  0.66851900  1
  H  H23  1  0.33575600  0.03457600  0.83148100  1
  H  H24  1  0.20734800  0.38315100  0.41478800  1
  H  H25  1  0.70734800  0.61684900  0.08521200  1
  H  H26  1  0.79265200  0.61684900  0.58521200  1
  H  H27  1  0.29265200  0.38315100  0.91478800  1
  H  H28  1  0.13720900  0.76787700  0.04498000  1
  H  H29  1  0.63720900  0.23212300  0.45502000  1
  H  H30  1  0.86279100  0.23212300  0.95502000  1
  H  H31  1  0.36279100  0.76787700  0.54498000  1
  H  H32  1  0.88048900  0.68495500  0.45991600  1
  H  H33  1  0.38048900  0.31504500  0.04008400  1
  H  H34  1  0.11951100  0.31504500  0.54008400  1
  H  H35  1  0.61951100  0.68495500  0.95991600  1
  H  H36  1  0.00711100  0.71154200  0.50430400  1
  H  H37  1  0.50711100  0.28845800  0.99569600  1
  H  H38  1  0.99288900  0.28845800  0.49569600  1
  H  H39  1  0.49288900  0.71154200  0.00430400  1
  H  H40  1  0.86361100  0.83161700  0.24200800  1
  H  H41  1  0.36361100  0.16838300  0.25799200  1
  H  H42  1  0.13638900  0.16838300  0.75799200  1
  H  H43  1  0.63638900  0.83161700  0.74200800  1
  H  H44  1  0.93610300  0.92824400  0.15905500  1
  H  H45  1  0.43610300  0.07175600  0.34094500  1
  H  H46  1  0.06389700  0.07175600  0.84094500  1
  H  H47  1  0.56389700  0.92824400  0.65905500  1
  H  H48  1  0.31266100  0.91754300  0.41174200  1
  H  H49  1  0.81266100  0.08245700  0.08825800  1
  H  H50  1  0.68733900  0.08245700  0.58825800  1
  H  H51  1  0.18733900  0.91754300  0.91174200  1
  H  H52  1  0.43950100  0.85651100  0.40369500  1
  H  H53  1  0.93950100  0.14348900  0.09630500  1
  H  H54  1  0.56049900  0.14348900  0.59630500  1
  H  H55  1  0.06049900  0.85651100  0.90369500  1
  H  H56  1  0.91468600  0.00814900  0.36980500  1
  H  H57  1  0.41468600  0.99185100  0.13019500  1
  H  H58  1  0.08531400  0.99185100  0.63019500  1
  H  H59  1  0.58531400  0.00814900  0.86980500  1
  H  H60  1  0.14873000  0.83842800  0.62363100  1
  H  H61  1  0.64873000  0.16157200  0.87636900  1
  H  H62  1  0.85127000  0.16157200  0.37636900  1
  H  H63  1  0.35127000  0.83842800  0.12363100  1
  O  O64  1  0.93618600  0.55112100  0.23320300  1
  O  O65  1  0.43618600  0.44887900  0.26679700  1
  O  O66  1  0.06381400  0.44887900  0.76679700  1
  O  O67  1  0.56381400  0.55112100  0.73320300  1
  O  O68  1  0.80630800  0.31765100  0.21951100  1
  O  O69  1  0.30630800  0.68234900  0.28048900  1
  O  O70  1  0.19369200  0.68234900  0.78048900  1
  O  O71  1  0.69369200  0.31765100  0.71951100  1
  O  O72  1  0.89566100  0.45383600  0.05547700  1
  O  O73  1  0.39566100  0.54616400  0.44452300  1
  O  O74  1  0.10433900  0.54616400  0.94452300  1
  O  O75  1  0.60433900  0.45383600  0.55547700  1
  O  O76  1  0.84733700  0.32155400  0.90576000  1
  O  O77  1  0.34733700  0.67844600  0.59424000  1
  O  O78  1  0.15266300  0.67844600  0.09424000  1
  O  O79  1  0.65266300  0.32155400  0.40576000  1
  O  O80  1  0.68111300  0.36879200  0.01793500  1
  O  O81  1  0.18111300  0.63120800  0.48206500  1
  O  O82  1  0.31888700  0.63120800  0.98206500  1
  O  O83  1  0.81888700  0.36879200  0.51793500  1
  O  O84  1  0.79446700  0.55888000  0.85817900  1
  O  O85  1  0.29446700  0.44112000  0.64182100  1
  O  O86  1  0.20553300  0.44112000  0.14182100  1
  O  O87  1  0.70553300  0.55888000  0.35817900  1
  O  O88  1  0.20357800  0.17954800  0.24095000  1
  O  O89  1  0.70357800  0.82045200  0.25905000  1
  O  O90  1  0.79642200  0.82045200  0.75905000  1
  O  O91  1  0.29642200  0.17954800  0.74095000  1
  O  O92  1  0.12780500  0.41788500  0.31920400  1
  O  O93  1  0.62780500  0.58211500  0.18079600  1
  O  O94  1  0.87219500  0.58211500  0.68079600  1
  O  O95  1  0.37219500  0.41788500  0.81920400  1
  O  O96  1  0.01629200  0.29941600  0.17781700  1
  O  O97  1  0.51629200  0.70058400  0.32218300  1
  O  O98  1  0.98370800  0.70058400  0.82218300  1
  O  O99  1  0.48370800  0.29941600  0.67781700  1
  O  O100  1  0.16230100  0.93484700  0.37328000  1
  O  O101  1  0.66230100  0.06515300  0.12672000  1
  O  O102  1  0.83769900  0.06515300  0.62672000  1
  O  O103  1  0.33769900  0.93484700  0.87328000  1
  O  O104  1  0.25758100  0.36873100  0.98668000  1
  O  O105  1  0.75758100  0.63126900  0.51332000  1
  O  O106  1  0.74241900  0.63126900  0.01332000  1
  O  O107  1  0.24241900  0.36873100  0.48668000  1
  O  O108  1  0.96183300  0.71677600  0.43956300  1
  O  O109  1  0.46183300  0.28322400  0.06043700  1
  O  O110  1  0.03816700  0.28322400  0.56043700  1
  O  O111  1  0.53816700  0.71677600  0.93956300  1
  O  O112  1  0.94265400  0.87171200  0.22917400  1
  O  O113  1  0.44265400  0.12828800  0.27082600  1
  O  O114  1  0.05734600  0.12828800  0.77082600  1
  O  O115  1  0.55734600  0.87171200  0.72917400  1
  O  O116  1  0.39164600  0.92472800  0.44150100  1
  O  O117  1  0.89164600  0.07527200  0.05849900  1
  O  O118  1  0.60835400  0.07527200  0.55849900  1
  O  O119  1  0.10835400  0.92472800  0.94150100  1
  O  O120  1  0.89877300  0.08714000  0.41668400  1
  O  O121  1  0.39877300  0.91286000  0.08331600  1
  O  O122  1  0.10122700  0.91286000  0.58331600  1
  O  O123  1  0.60122700  0.08714000  0.91668400  1
