# generated using pymatgen
data_La17Mn17O54
_symmetry_space_group_name_H-M   'P 1'
_cell_length_a   7.86366800
_cell_length_b   9.52452651
_cell_length_c   16.66030025
_cell_angle_alpha   73.90158307
_cell_angle_beta   76.82924311
_cell_angle_gamma   66.47433662
_symmetry_Int_Tables_number   1
_chemical_formula_structural   La17Mn17O54
_chemical_formula_sum   'La17 Mn17 O54'
_cell_volume   1089.47062440
_cell_formula_units_Z   1
loop_
 _symmetry_equiv_pos_site_id
 _symmetry_equiv_pos_as_xyz
  1  'x, y, z'
loop_
 _atom_site_type_symbol
 _atom_site_label
 _atom_site_symmetry_multiplicity
 _atom_site_fract_x
 _atom_site_fract_y
 _atom_site_fract_z
 _atom_site_occupancy
  La  La0  1  0.59843300  0.26715200  0.05256100  1
  La  La1  1  0.23911800  0.83766300  0.16134300  1
  La  La2  1  0.07923100  0.26276200  0.05184500  1
  La  La3  1  0.91353400  0.39001900  0.28025500  1
  La  La4  1  0.75811800  0.84004700  0.16130300  1
  La  La5  1  0.58554600  0.94127400  0.39058800  1
  La  La6  1  0.41339500  0.39314000  0.28326600  1
  La  La7  1  0.08607200  0.93400400  0.39203100  1
  La  La8  1  0.91903600  0.05569100  0.61014500  1
  La  La9  1  0.74893700  0.50000100  0.49996000  1
  La  La10  1  0.58123500  0.61103000  0.72134000  1
  La  La11  1  0.41467100  0.06582300  0.60863000  1
  La  La12  1  0.24198800  0.16133200  0.83710000  1
  La  La13  1  0.08681000  0.60549900  0.71696000  1
  La  La14  1  0.92102200  0.73724100  0.94760900  1
  La  La15  1  0.76070900  0.16377800  0.83738100  1
  La  La16  1  0.40097600  0.73344000  0.94785200  1
  Mn  Mn17  1  0.66664500  0.55509600  0.11117600  1
  Mn  Mn18  1  0.33368000  0.11066400  0.22294800  1
  Mn  Mn19  1  0.17054700  0.54942000  0.11155100  1
  Mn  Mn20  1  0.00227100  0.66442100  0.33559700  1
  Mn  Mn21  1  0.83399200  0.11067500  0.22383300  1
  Mn  Mn22  1  0.66266000  0.22573000  0.44504900  1
  Mn  Mn23  1  0.49835700  0.66578200  0.33432500  1
  Mn  Mn24  1  0.33326200  0.77445300  0.55469900  1
  Mn  Mn25  1  0.16769400  0.22537400  0.44518900  1
  Mn  Mn26  1  0.00245900  0.33480500  0.66434400  1
  Mn  Mn27  1  0.83746300  0.77519200  0.55467400  1
  Mn  Mn28  1  0.66664900  0.88900000  0.77722700  1
  Mn  Mn29  1  0.49684400  0.33474500  0.66592900  1
  Mn  Mn30  1  0.33260300  0.44505800  0.88910300  1
  Mn  Mn31  1  0.16592200  0.88872400  0.77617100  1
  Mn  Mn32  1  0.82957500  0.45041900  0.88875800  1
  Mn  Mn33  1  0.49989300  0.00024200  0.99980100  1
  O  O34  1  0.73541900  0.98312900  0.01924800  1
  O  O35  1  0.37383200  0.08151800  0.10479600  1
  O  O36  1  0.54130000  0.78344900  0.06797600  1
  O  O37  1  0.12630200  0.75574000  0.04845100  1
  O  O38  1  0.41728700  0.53241400  0.13280600  1
  O  O39  1  0.29336200  0.46940800  0.00800000  1
  O  O40  1  0.04550400  0.63771500  0.21462900  1
  O  O41  1  0.91645900  0.57631400  0.09147600  1
  O  O42  1  0.20735000  0.33929800  0.18155200  1
  O  O43  1  0.79064900  0.32583100  0.15294400  1
  O  O44  1  0.08276100  0.09068500  0.24433800  1
  O  O45  1  0.94537100  0.03483500  0.12458400  1
  O  O46  1  0.71060500  0.19271300  0.32613600  1
  O  O47  1  0.58395700  0.12997000  0.20256100  1
  O  O48  1  0.87936500  0.89540300  0.29065400  1
  O  O49  1  0.45742900  0.88519700  0.26304800  1
  O  O50  1  0.75077800  0.64694400  0.35185600  1
  O  O51  1  0.62192000  0.58565700  0.22786400  1
  O  O52  1  0.38853700  0.76047200  0.43521000  1
  O  O53  1  0.25000200  0.68973000  0.31023600  1
  O  O54  1  0.56629900  0.44669900  0.39433000  1
  O  O55  1  0.11091000  0.43574900  0.36958700  1
  O  O56  1  0.42775600  0.18788900  0.45976400  1
  O  O57  1  0.28885400  0.14094400  0.33951300  1
  O  O58  1  0.03345800  0.29150900  0.55272200  1
  O  O59  1  0.91718400  0.23797300  0.42654000  1
  O  O60  1  0.21411200  0.00582400  0.51276400  1
  O  O61  1  0.78876300  0.99414100  0.48808700  1
  O  O62  1  0.07365000  0.77503400  0.57706200  1
  O  O63  1  0.93436700  0.71138300  0.44696900  1
  O  O64  1  0.70647300  0.86038600  0.66074200  1
  O  O65  1  0.58265100  0.79698000  0.53822600  1
  O  O66  1  0.87374900  0.56340600  0.62596500  1
  O  O67  1  0.46568300  0.55222400  0.60461500  1
  O  O68  1  0.74938900  0.31315300  0.68774100  1
  O  O69  1  0.62601400  0.24822300  0.56225600  1
  O  O70  1  0.37798700  0.41703600  0.77174000  1
  O  O71  1  0.24947200  0.34309600  0.65738400  1
  O  O72  1  0.54486000  0.11504700  0.73606900  1
  O  O73  1  0.12120400  0.10362800  0.70802200  1
  O  O74  1  0.41611800  0.86957100  0.79780300  1
  O  O75  1  0.28857100  0.80711900  0.67376400  1
  O  O76  1  0.05417200  0.96636900  0.87496600  1
  O  O77  1  0.91700100  0.90748700  0.75735400  1
  O  O78  1  0.21054700  0.67351000  0.84702100  1
  O  O79  1  0.79473800  0.65934700  0.81759100  1
  O  O80  1  0.08378500  0.42330100  0.90857600  1
  O  O81  1  0.95228800  0.36346600  0.78458100  1
  O  O82  1  0.70647000  0.53072600  0.99246300  1
  O  O83  1  0.58196300  0.46694700  0.86884400  1
  O  O84  1  0.87372000  0.24419100  0.95148200  1
  O  O85  1  0.45896300  0.21659100  0.93132000  1
  O  O86  1  0.62661900  0.91810000  0.89469900  1
  O  O87  1  0.26467600  0.01683500  0.98052400  1
