# generated using pymatgen
data_DyP2H9O10
_symmetry_space_group_name_H-M   'P 1'
_cell_length_a   7.24962300
_cell_length_b   9.21841500
_cell_length_c   13.65394800
_cell_angle_alpha   90.00000000
_cell_angle_beta   90.00000000
_cell_angle_gamma   90.00000000
_symmetry_Int_Tables_number   1
_chemical_formula_structural   DyP2H9O10
_chemical_formula_sum   'Dy4 P8 H36 O40'
_cell_volume   912.49380098
_cell_formula_units_Z   4
loop_
 _symmetry_equiv_pos_site_id
 _symmetry_equiv_pos_as_xyz
  1  'x, y, z'
loop_
 _atom_site_type_symbol
 _atom_site_label
 _atom_site_symmetry_multiplicity
 _atom_site_fract_x
 _atom_site_fract_y
 _atom_site_fract_z
 _atom_site_occupancy
  Dy  Dy0  1  0.75000000  0.22238000  0.25000000  1
  Dy  Dy1  1  0.75000000  0.27762000  0.75000000  1
  Dy  Dy2  1  0.25000000  0.77762000  0.75000000  1
  Dy  Dy3  1  0.25000000  0.72238000  0.25000000  1
  P  P4  1  0.90990200  0.53996300  0.42470900  1
  P  P5  1  0.90990200  0.96003700  0.57529100  1
  P  P6  1  0.59009800  0.53996300  0.07529100  1
  P  P7  1  0.59009800  0.96003700  0.92470900  1
  P  P8  1  0.09009800  0.46003700  0.57529100  1
  P  P9  1  0.09009800  0.03996300  0.42470900  1
  P  P10  1  0.40990200  0.46003700  0.92470900  1
  P  P11  1  0.40990200  0.03996300  0.07529100  1
  H  H12  1  0.47854300  0.07398600  0.29929600  1
  H  H13  1  0.47854300  0.42601400  0.70070400  1
  H  H14  1  0.02145700  0.07398600  0.20070400  1
  H  H15  1  0.02145700  0.42601400  0.79929600  1
  H  H16  1  0.52145700  0.92601400  0.70070400  1
  H  H17  1  0.52145700  0.57398600  0.29929600  1
  H  H18  1  0.97854300  0.92601400  0.79929600  1
  H  H19  1  0.97854300  0.57398600  0.20070400  1
  H  H20  1  0.76189600  0.75000000  0.50000000  1
  H  H21  1  0.73810400  0.75000000  0.00000000  1
  H  H22  1  0.23810400  0.25000000  0.50000000  1
  H  H23  1  0.26189600  0.25000000  0.00000000  1
  H  H24  1  0.56188900  0.63487300  0.40378800  1
  H  H25  1  0.56188900  0.86512700  0.59621200  1
  H  H26  1  0.93811100  0.63487300  0.09621200  1
  H  H27  1  0.93811100  0.86512700  0.90378800  1
  H  H28  1  0.43811100  0.36512700  0.59621200  1
  H  H29  1  0.43811100  0.13487300  0.40378800  1
  H  H30  1  0.06188900  0.36512700  0.90378800  1
  H  H31  1  0.06188900  0.13487300  0.09621200  1
  H  H32  1  0.84672500  0.09973000  0.90059400  1
  H  H33  1  0.84672500  0.40027000  0.09940600  1
  H  H34  1  0.65327500  0.09973000  0.59940600  1
  H  H35  1  0.65327500  0.40027000  0.40059400  1
  H  H36  1  0.15327500  0.90027000  0.09940600  1
  H  H37  1  0.15327500  0.59973000  0.90059400  1
  H  H38  1  0.34672500  0.90027000  0.40059400  1
  H  H39  1  0.34672500  0.59973000  0.59940600  1
  H  H40  1  0.62788900  0.85417000  0.32165500  1
  H  H41  1  0.62788900  0.64583000  0.67834500  1
  H  H42  1  0.87211100  0.85417000  0.17834500  1
  H  H43  1  0.87211100  0.64583000  0.82165500  1
  H  H44  1  0.37211100  0.14583000  0.67834500  1
  H  H45  1  0.37211100  0.35417000  0.32165500  1
  H  H46  1  0.12788900  0.14583000  0.82165500  1
  H  H47  1  0.12788900  0.35417000  0.17834500  1
  O  O48  1  0.47873500  0.58849300  0.16594800  1
  O  O49  1  0.47873500  0.91150700  0.83405200  1
  O  O50  1  0.02126500  0.58849300  0.33405200  1
  O  O51  1  0.02126500  0.91150700  0.66594800  1
  O  O52  1  0.52126500  0.41150700  0.83405200  1
  O  O53  1  0.52126500  0.08849300  0.16594800  1
  O  O54  1  0.97873500  0.41150700  0.66594800  1
  O  O55  1  0.97873500  0.08849300  0.33405200  1
  O  O56  1  0.75918900  0.63729300  0.04334300  1
  O  O57  1  0.75918900  0.86270700  0.95665700  1
  O  O58  1  0.74081100  0.63729300  0.45665700  1
  O  O59  1  0.74081100  0.86270700  0.54334300  1
  O  O60  1  0.24081100  0.36270700  0.95665700  1
  O  O61  1  0.24081100  0.13729300  0.04334300  1
  O  O62  1  0.25918900  0.36270700  0.54334300  1
  O  O63  1  0.25918900  0.13729300  0.45665700  1
  O  O64  1  0.45524400  0.62217900  0.35426800  1
  O  O65  1  0.45524400  0.87782100  0.64573200  1
  O  O66  1  0.04475600  0.62217900  0.14573200  1
  O  O67  1  0.04475600  0.87782100  0.85426800  1
  O  O68  1  0.54475600  0.37782100  0.64573200  1
  O  O69  1  0.54475600  0.12217900  0.35426800  1
  O  O70  1  0.95524400  0.37782100  0.85426800  1
  O  O71  1  0.95524400  0.12217900  0.14573200  1
  O  O72  1  0.25538100  0.92479700  0.35076700  1
  O  O73  1  0.25538100  0.57520300  0.64923300  1
  O  O74  1  0.24461900  0.92479700  0.14923300  1
  O  O75  1  0.24461900  0.57520300  0.85076700  1
  O  O76  1  0.74461900  0.07520300  0.64923300  1
  O  O77  1  0.74461900  0.42479700  0.35076700  1
  O  O78  1  0.75538100  0.07520300  0.85076700  1
  O  O79  1  0.75538100  0.42479700  0.14923300  1
  O  O80  1  0.44481200  0.60901300  0.98371500  1
  O  O81  1  0.44481200  0.89098700  0.01628500  1
  O  O82  1  0.05518800  0.60901300  0.51628500  1
  O  O83  1  0.05518800  0.89098700  0.48371500  1
  O  O84  1  0.55518800  0.39098700  0.01628500  1
  O  O85  1  0.55518800  0.10901300  0.98371500  1
  O  O86  1  0.94481200  0.39098700  0.48371500  1
  O  O87  1  0.94481200  0.10901300  0.51628500  1
