# generated using pymatgen
data_K3P4H5O14
_symmetry_space_group_name_H-M   'P 1'
_cell_length_a   9.83100899
_cell_length_b   9.83100899
_cell_length_c   11.11375931
_cell_angle_alpha   55.78784190
_cell_angle_beta   55.78784190
_cell_angle_gamma   54.76759705
_symmetry_Int_Tables_number   1
_chemical_formula_structural   K3P4H5O14
_chemical_formula_sum   'K6 P8 H10 O28'
_cell_volume   679.06467221
_cell_formula_units_Z   2
loop_
 _symmetry_equiv_pos_site_id
 _symmetry_equiv_pos_as_xyz
  1  'x, y, z'
loop_
 _atom_site_type_symbol
 _atom_site_label
 _atom_site_symmetry_multiplicity
 _atom_site_fract_x
 _atom_site_fract_y
 _atom_site_fract_z
 _atom_site_occupancy
  K  K0  1  0.43881000  0.56119000  0.75000000  1
  K  K1  1  0.56119000  0.43881000  0.25000000  1
  K  K2  1  0.20821800  0.09537500  0.61574300  1
  K  K3  1  0.90462500  0.79178200  0.88425700  1
  K  K4  1  0.79178200  0.90462500  0.38425700  1
  K  K5  1  0.09537500  0.20821800  0.11574300  1
  P  P6  1  0.87350100  0.48502500  0.80709100  1
  P  P7  1  0.51497500  0.12649900  0.69290900  1
  P  P8  1  0.12649900  0.51497500  0.19290900  1
  P  P9  1  0.48502500  0.87350100  0.30709100  1
  P  P10  1  0.72922700  0.20750100  0.98394900  1
  P  P11  1  0.79249900  0.27077300  0.51605100  1
  P  P12  1  0.27077300  0.79249900  0.01605100  1
  P  P13  1  0.20750100  0.72922700  0.48394900  1
  H  H14  1  0.00000000  0.00000000  0.00000000  1
  H  H15  1  0.00000000  0.00000000  0.50000000  1
  H  H16  1  0.50700700  0.14974600  0.05172300  1
  H  H17  1  0.85025400  0.49299300  0.44827700  1
  H  H18  1  0.49299300  0.85025400  0.94827700  1
  H  H19  1  0.14974600  0.50700700  0.55172300  1
  H  H20  1  0.72675500  0.77687400  0.73081300  1
  H  H21  1  0.22312600  0.27324500  0.76918700  1
  H  H22  1  0.27324500  0.22312600  0.26918700  1
  H  H23  1  0.77687400  0.72675500  0.23081300  1
  O  O24  1  0.85911100  0.49298300  0.94501000  1
  O  O25  1  0.50701700  0.14088900  0.55499000  1
  O  O26  1  0.14088900  0.50701700  0.05499000  1
  O  O27  1  0.49298300  0.85911100  0.44501000  1
  O  O28  1  0.80072300  0.67684100  0.68773400  1
  O  O29  1  0.32315900  0.19927700  0.81226600  1
  O  O30  1  0.19927700  0.32315900  0.31226600  1
  O  O31  1  0.67684100  0.80072300  0.18773400  1
  O  O32  1  0.05621700  0.38100500  0.71197000  1
  O  O33  1  0.61899500  0.94378300  0.78803000  1
  O  O34  1  0.94378300  0.61899500  0.28803000  1
  O  O35  1  0.38100500  0.05621700  0.21197000  1
  O  O36  1  0.73385000  0.40331700  0.86108600  1
  O  O37  1  0.59668300  0.26615000  0.63891400  1
  O  O38  1  0.26615000  0.59668300  0.13891400  1
  O  O39  1  0.40331700  0.73385000  0.36108600  1
  O  O40  1  0.91102900  0.06787600  0.92272600  1
  O  O41  1  0.93212400  0.08897100  0.57727400  1
  O  O42  1  0.08897100  0.93212400  0.07727400  1
  O  O43  1  0.06787600  0.91102900  0.42272600  1
  O  O44  1  0.67702300  0.18694200  0.14676800  1
  O  O45  1  0.81305800  0.32297700  0.35323200  1
  O  O46  1  0.32297700  0.81305800  0.85323200  1
  O  O47  1  0.18694200  0.67702300  0.64676800  1
  O  O48  1  0.58558100  0.21577100  0.95316200  1
  O  O49  1  0.78422900  0.41441900  0.54683800  1
  O  O50  1  0.41441900  0.78422900  0.04683800  1
  O  O51  1  0.21577100  0.58558100  0.45316200  1
