# generated using pymatgen
data_BiH3Ru3(CO)9
_symmetry_space_group_name_H-M   'P 1'
_cell_length_a   8.32366900
_cell_length_b   9.37787473
_cell_length_c   12.68639846
_cell_angle_alpha   87.94481996
_cell_angle_beta   108.11970541
_cell_angle_gamma   111.22675955
_symmetry_Int_Tables_number   1
_chemical_formula_structural   BiH3Ru3(CO)9
_chemical_formula_sum   'Bi2 H6 Ru6 C18 O18'
_cell_volume   874.01853571
_cell_formula_units_Z   2
loop_
 _symmetry_equiv_pos_site_id
 _symmetry_equiv_pos_as_xyz
  1  'x, y, z'
loop_
 _atom_site_type_symbol
 _atom_site_label
 _atom_site_symmetry_multiplicity
 _atom_site_fract_x
 _atom_site_fract_y
 _atom_site_fract_z
 _atom_site_occupancy
  Bi  Bi0  1  0.49284500  0.21508700  0.59714900  1
  Bi  Bi1  1  0.50715500  0.78491300  0.40285100  1
  H  H2  1  0.50748900  0.14549100  0.85882500  1
  H  H3  1  0.49251100  0.85450900  0.14117500  1
  H  H4  1  0.34314300  0.31425200  0.79472000  1
  H  H5  1  0.65685700  0.68574800  0.20528000  1
  H  H6  1  0.66224700  0.40609100  0.85289900  1
  H  H7  1  0.33775300  0.59390900  0.14710100  1
  Ru  Ru8  1  0.29848300  0.11978400  0.74925500  1
  Ru  Ru9  1  0.70151700  0.88021600  0.25074500  1
  Ru  Ru10  1  0.70932500  0.24082700  0.82090800  1
  Ru  Ru11  1  0.29067500  0.75917300  0.17909200  1
  Ru  Ru12  1  0.50853700  0.45329700  0.73464000  1
  Ru  Ru13  1  0.49146300  0.54670300  0.26536000  1
  C  C14  1  0.21274600  0.09267200  0.87598800  1
  C  C15  1  0.78725400  0.90732800  0.12401200  1
  C  C16  1  0.08042200  0.11027500  0.63822500  1
  C  C17  1  0.91957800  0.88972500  0.36177500  1
  C  C18  1  0.26485600  0.91253600  0.71277300  1
  C  C19  1  0.73514400  0.08746400  0.28722700  1
  C  C20  1  0.72619700  0.05010900  0.79224200  1
  C  C21  1  0.27380300  0.94989100  0.20775800  1
  C  C22  1  0.82751800  0.27157200  0.98082500  1
  C  C23  1  0.17248200  0.72842800  0.01917500  1
  C  C24  1  0.91662300  0.35714400  0.77841100  1
  C  C25  1  0.08337700  0.64285600  0.22158900  1
  C  C26  1  0.69866300  0.60038200  0.68999300  1
  C  C27  1  0.30133700  0.39961800  0.31000700  1
  C  C28  1  0.50594400  0.57991300  0.85042100  1
  C  C29  1  0.49405600  0.42008700  0.14957900  1
  C  C30  1  0.32077000  0.48405100  0.61455700  1
  C  C31  1  0.67923000  0.51594900  0.38544300  1
  O  O32  1  0.15329200  0.07639000  0.94899200  1
  O  O33  1  0.84670800  0.92361000  0.05100800  1
  O  O34  1  0.94457800  0.10723000  0.57344800  1
  O  O35  1  0.05542200  0.89277000  0.42655200  1
  O  O36  1  0.24571900  0.78646200  0.69342700  1
  O  O37  1  0.75428100  0.21353800  0.30657300  1
  O  O38  1  0.73664600  0.93325300  0.77663500  1
  O  O39  1  0.26335400  0.06674700  0.22336500  1
  O  O40  1  0.90735000  0.29037000  0.07554200  1
  O  O41  1  0.09265000  0.70963000  0.92445800  1
  O  O42  1  0.04332300  0.43111200  0.75387200  1
  O  O43  1  0.95667700  0.56888800  0.24612800  1
  O  O44  1  0.81523800  0.69226200  0.66506900  1
  O  O45  1  0.18476200  0.30773800  0.33493100  1
  O  O46  1  0.49549700  0.65417800  0.91711900  1
  O  O47  1  0.50450300  0.34582200  0.08288100  1
  O  O48  1  0.20574000  0.50286800  0.54280400  1
  O  O49  1  0.79426000  0.49713200  0.45719600  1
