# generated using pymatgen
data_H2Ru3C8SO8
_symmetry_space_group_name_H-M   'P 1'
_cell_length_a   11.52851000
_cell_length_b   12.81557388
_cell_length_c   19.16986584
_cell_angle_alpha   87.10266037
_cell_angle_beta   107.38521089
_cell_angle_gamma   116.23677398
_symmetry_Int_Tables_number   1
_chemical_formula_structural   H2Ru3C8SO8
_chemical_formula_sum   'H12 Ru18 C48 S6 O48'
_cell_volume   2413.36954372
_cell_formula_units_Z   6
loop_
 _symmetry_equiv_pos_site_id
 _symmetry_equiv_pos_as_xyz
  1  'x, y, z'
loop_
 _atom_site_type_symbol
 _atom_site_label
 _atom_site_symmetry_multiplicity
 _atom_site_fract_x
 _atom_site_fract_y
 _atom_site_fract_z
 _atom_site_occupancy
  H  H0  1  0.39674700  0.18571000  0.36038000  1
  H  H1  1  0.60325300  0.81429000  0.63962000  1
  H  H2  1  0.75545500  0.52560000  0.19098900  1
  H  H3  1  0.24454500  0.47440000  0.80901100  1
  H  H4  1  0.87966900  0.15578800  0.23973900  1
  H  H5  1  0.12033100  0.84421200  0.76026100  1
  H  H6  1  0.64322400  0.22600600  0.41250500  1
  H  H7  1  0.35677600  0.77399400  0.58749500  1
  H  H8  1  0.67658500  0.95516100  0.19032700  1
  H  H9  1  0.32341500  0.04483900  0.80967300  1
  H  H10  1  0.61637500  0.44331700  0.07651100  1
  H  H11  1  0.38362500  0.55668300  0.92348900  1
  Ru  Ru12  1  0.70394400  0.09877200  0.18267900  1
  Ru  Ru13  1  0.29605600  0.90122800  0.81732100  1
  Ru  Ru14  1  0.65441700  0.91400300  0.28245100  1
  Ru  Ru15  1  0.34558300  0.08599700  0.71754900  1
  Ru  Ru16  1  0.88696900  0.12603500  0.33471200  1
  Ru  Ru17  1  0.11303100  0.87396500  0.66528800  1
  Ru  Ru18  1  0.50273000  0.15109400  0.32823900  1
  Ru  Ru19  1  0.49727000  0.84890600  0.67176100  1
  Ru  Ru20  1  0.41737000  0.33473900  0.33282500  1
  Ru  Ru21  1  0.58263000  0.66526100  0.66717500  1
  Ru  Ru22  1  0.68633100  0.38128400  0.40859600  1
  Ru  Ru23  1  0.31366900  0.61871600  0.59140400  1
  Ru  Ru24  1  0.72398500  0.39087400  0.04898400  1
  Ru  Ru25  1  0.27601500  0.60912600  0.95101600  1
  Ru  Ru26  1  0.89871200  0.50077600  0.18739800  1
  Ru  Ru27  1  0.10128800  0.49922400  0.81260200  1
  Ru  Ru28  1  0.60123900  0.39095400  0.15923800  1
  Ru  Ru29  1  0.39876100  0.60904600  0.84076200  1
  C  C30  1  0.78578500  0.08689400  0.11258600  1
  C  C31  1  0.21421500  0.91310600  0.88741400  1
  C  C32  1  0.52873000  0.03690200  0.11264200  1
  C  C33  1  0.47127000  0.96309800  0.88735800  1
  C  C34  1  0.46619200  0.81149600  0.23469500  1
  C  C35  1  0.53380800  0.18850400  0.76530500  1
  C  C36  1  0.73486500  0.81697000  0.26805000  1
  C  C37  1  0.26513500  0.18303000  0.73195000  1
  C  C38  1  0.64972300  0.87000800  0.37781300  1
  C  C39  1  0.35027700  0.12999200  0.62218700  1
  C  C40  1  0.91394500  0.10966700  0.43705900  1
  C  C41  1  0.08605500  0.89033300  0.56294100  1
  C  C42  1  0.00023400  0.05629000  0.32967000  1
  C  C43  1  0.99976600  0.94371000  0.67033000  1
  C  C44  1  0.01669200  0.28681600  0.34580100  1
  C  C45  1  0.98330800  0.71318400  0.65419900  1
  C  C46  1  0.35776300  0.05597800  0.24615800  1
  C  C47  1  0.64223700  0.94402200  0.75384200  1
  C  C48  1  0.44396000  0.02513100  0.38590300  1
  C  C49  1  0.55604000  0.97486900  0.61409700  1
  C  C50  1  0.35265100  0.32591400  0.41488000  1
  C  C51  1  0.64734900  0.67408600  0.58512000  1
  C  C52  1  0.24951800  0.27436800  0.25330400  1
  C  C53  1  0.75048200  0.72563200  0.74669600  1
  C  C54  1  0.44875400  0.49246700  0.32655900  1
  C  C55  1  0.55124600  0.50753300  0.67344100  1
  C  C56  1  0.65871400  0.37364200  0.50222100  1
  C  C57  1  0.34128600  0.62635800  0.49777900  1
  C  C58  1  0.86102900  0.38326700  0.44168000  1
  C  C59  1  0.13897100  0.61673300  0.55832000  1
  C  C60  1  0.75143500  0.54662300  0.40996500  1
  C  C61  1  0.24856500  0.45337700  0.59003500  1
  C  C62  1  0.56439800  0.27863200  0.97809600  1
  C  C63  1  0.43560200  0.72136800  0.02190400  1
  C  C64  1  0.84750800  0.36278000  0.01570000  1
  C  C65  1  0.15249200  0.63722000  0.98430000  1
  C  C66  1  0.75444900  0.53009100  0.99987400  1
  C  C67  1  0.24555100  0.46990900  0.00012600  1
  C  C68  1  0.05301300  0.49221200  0.17521300  1
  C  C69  1  0.94698700  0.50778800  0.82478700  1
  C  C70  1  0.97567300  0.54825600  0.29088500  1
  C  C71  1  0.02432700  0.45174400  0.70911500  1
  C  C72  1  0.95042300  0.65534300  0.15865300  1
  C  C73  1  0.04957700  0.34465700  0.84134700  1
  C  C74  1  0.42738800  0.26594800  0.11403500  1
  C  C75  1  0.57261200  0.73405200  0.88596500  1
  C  C76  1  0.52794700  0.49750200  0.15807600  1
  C  C77  1  0.47205300  0.50249800  0.84192400  1
  S  S78  1  0.65660500  0.09541300  0.29554800  1
  S  S79  1  0.34339500  0.90458700  0.70445200  1
  S  S80  1  0.57806200  0.33623700  0.27983600  1
  S  S81  1  0.42193800  0.66376300  0.72016400  1
  S  S82  1  0.74048500  0.29909800  0.15795500  1
  S  S83  1  0.25951500  0.70090200  0.84204500  1
  O  O84  1  0.83772700  0.07795300  0.07178500  1
  O  O85  1  0.16227300  0.92204700  0.92821500  1
  O  O86  1  0.42219800  0.99461900  0.06912500  1
  O  O87  1  0.57780200  0.00538100  0.93087500  1
  O  O88  1  0.35226600  0.75191500  0.20527300  1
  O  O89  1  0.64773400  0.24808500  0.79472700  1
  O  O90  1  0.78230000  0.75869600  0.25740500  1
  O  O91  1  0.21770000  0.24130400  0.74259500  1
  O  O92  1  0.64709200  0.84667500  0.43674900  1
  O  O93  1  0.35290800  0.15332500  0.56325100  1
  O  O94  1  0.93037900  0.10085400  0.49920000  1
  O  O95  1  0.06962100  0.89914600  0.50080000  1
  O  O96  1  0.06949300  0.01428900  0.32647400  1
  O  O97  1  0.93050700  0.98571100  0.67352600  1
  O  O98  1  0.10052800  0.38082000  0.34696000  1
  O  O99  1  0.89947200  0.61918000  0.65304000  1
  O  O100  1  0.26739900  0.99532000  0.19726000  1
  O  O101  1  0.73260100  0.00468000  0.80274000  1
  O  O102  1  0.40256000  0.94582800  0.41874200  1
  O  O103  1  0.59744000  0.05417200  0.58125800  1
  O  O104  1  0.31604800  0.32250000  0.46546500  1
  O  O105  1  0.68395200  0.67750000  0.53453500  1
  O  O106  1  0.14947300  0.23903300  0.20476500  1
  O  O107  1  0.85052700  0.76096700  0.79523500  1
  O  O108  1  0.47004200  0.58969700  0.32339100  1
  O  O109  1  0.52995800  0.41030300  0.67660900  1
  O  O110  1  0.64430200  0.36984500  0.55970100  1
  O  O111  1  0.35569800  0.63015500  0.44029900  1
  O  O112  1  0.96187400  0.37634600  0.46699100  1
  O  O113  1  0.03812600  0.62365400  0.53300900  1
  O  O114  1  0.79470600  0.64703800  0.40933900  1
  O  O115  1  0.20529400  0.35296200  0.59066100  1
  O  O116  1  0.46666100  0.21100800  0.93572200  1
  O  O117  1  0.53333900  0.78899200  0.06427800  1
  O  O118  1  0.92288400  0.34687700  0.99424500  1
  O  O119  1  0.07711600  0.65312300  0.00575500  1
  O  O120  1  0.76942700  0.61452300  0.97093300  1
  O  O121  1  0.23057300  0.38547700  0.02906700  1
  O  O122  1  0.14540300  0.48649000  0.16640000  1
  O  O123  1  0.85459700  0.51351000  0.83360000  1
  O  O124  1  0.02718800  0.58741700  0.35167200  1
  O  O125  1  0.97281200  0.41258300  0.64832800  1
  O  O126  1  0.97754900  0.74920800  0.14160900  1
  O  O127  1  0.02245100  0.25079200  0.85839100  1
  O  O128  1  0.32138200  0.18984100  0.08622900  1
  O  O129  1  0.67861800  0.81015900  0.91377100  1
  O  O130  1  0.48402900  0.56271000  0.15999700  1
  O  O131  1  0.51597100  0.43729000  0.84000300  1
