# generated using pymatgen
data_H6C(N3O2)2
_symmetry_space_group_name_H-M   'P 1'
_cell_length_a   8.49394700
_cell_length_b   9.43968119
_cell_length_c   10.02349786
_cell_angle_alpha   84.82104875
_cell_angle_beta   111.28738693
_cell_angle_gamma   112.11012754
_symmetry_Int_Tables_number   1
_chemical_formula_structural   H6C(N3O2)2
_chemical_formula_sum   'H24 C4 N24 O16'
_cell_volume   692.78009031
_cell_formula_units_Z   4
loop_
 _symmetry_equiv_pos_site_id
 _symmetry_equiv_pos_as_xyz
  1  'x, y, z'
loop_
 _atom_site_type_symbol
 _atom_site_label
 _atom_site_symmetry_multiplicity
 _atom_site_fract_x
 _atom_site_fract_y
 _atom_site_fract_z
 _atom_site_occupancy
  H  H0  1  0.64383100  0.01082500  0.42027000  1
  H  H1  1  0.35616900  0.98917500  0.57973000  1
  H  H2  1  0.07581400  0.72737500  0.88601600  1
  H  H3  1  0.92418600  0.27262500  0.11398400  1
  H  H4  1  0.29639200  0.75872200  0.11506000  1
  H  H5  1  0.70360800  0.24127800  0.88494000  1
  H  H6  1  0.10249600  0.21170400  0.64230400  1
  H  H7  1  0.89750400  0.78829600  0.35769600  1
  H  H8  1  0.60452800  0.86153400  0.53575800  1
  H  H9  1  0.39547200  0.13846600  0.46424200  1
  H  H10  1  0.94677700  0.18143300  0.46720700  1
  H  H11  1  0.05322300  0.81856700  0.53279300  1
  H  H12  1  0.84667800  0.65351600  0.86368500  1
  H  H13  1  0.15332200  0.34648400  0.13631500  1
  H  H14  1  0.91918700  0.56904300  0.22921600  1
  H  H15  1  0.08081300  0.43095700  0.77078400  1
  H  H16  1  0.81122200  0.90603200  0.77648200  1
  H  H17  1  0.18877800  0.09396800  0.22351800  1
  H  H18  1  0.75637300  0.56795400  0.06481200  1
  H  H19  1  0.24362700  0.43204600  0.93518800  1
  H  H20  1  0.23375100  0.67934900  0.26100900  1
  H  H21  1  0.76624900  0.32065100  0.73899100  1
  H  H22  1  0.03314100  0.03929900  0.81383000  1
  H  H23  1  0.96685900  0.96070100  0.18617000  1
  C  C24  1  0.85764300  0.03285000  0.60885100  1
  C  C25  1  0.14235700  0.96715000  0.39114900  1
  C  C26  1  0.02167300  0.66347300  0.07063700  1
  C  C27  1  0.97832700  0.33652700  0.92936300  1
  N  N28  1  0.56051200  0.18471200  0.03438000  1
  N  N29  1  0.43948800  0.81528800  0.96562000  1
  N  N30  1  0.30355900  0.48574500  0.63534800  1
  N  N31  1  0.69644100  0.51425500  0.36465200  1
  N  N32  1  0.60405100  0.15552400  0.17718000  1
  N  N33  1  0.39594900  0.84447600  0.82282000  1
  N  N34  1  0.48292600  0.55062100  0.72286300  1
  N  N35  1  0.51707400  0.44937900  0.27713700  1
  N  N36  1  0.37920700  0.15239600  0.95326800  1
  N  N37  1  0.62079300  0.84760400  0.04673200  1
  N  N38  1  0.25707800  0.54326700  0.50185400  1
  N  N39  1  0.74292200  0.45673300  0.49814600  1
  N  N40  1  0.97866900  0.69571300  0.93185600  1
  N  N41  1  0.02133100  0.30428700  0.06814400  1
  N  N42  1  0.90700700  0.98238700  0.74090900  1
  N  N43  1  0.09299300  0.01761300  0.25909100  1
  N  N44  1  0.19616100  0.69858400  0.15406500  1
  N  N45  1  0.80383900  0.30141600  0.84593500  1
  N  N46  1  0.69120400  0.96063700  0.51296900  1
  N  N47  1  0.30879600  0.03936300  0.48703100  1
  N  N48  1  0.89018400  0.59764100  0.12541100  1
  N  N49  1  0.10981600  0.40235900  0.87458900  1
  N  N50  1  0.97479300  0.15514100  0.57177800  1
  N  N51  1  0.02520700  0.84485900  0.42822200  1
  O  O52  1  0.50854700  0.52450100  0.85254200  1
  O  O53  1  0.49145300  0.47549900  0.14745800  1
  O  O54  1  0.35305700  0.16316000  0.82204300  1
  O  O55  1  0.64694300  0.83684000  0.17795700  1
  O  O56  1  0.10742800  0.45926300  0.41541600  1
  O  O57  1  0.89257200  0.54073700  0.58458400  1
  O  O58  1  0.49396800  0.08936900  0.23867600  1
  O  O59  1  0.50603200  0.91063100  0.76132400  1
  O  O60  1  0.61060700  0.61944400  0.67847700  1
  O  O61  1  0.38939300  0.38055600  0.32152300  1
  O  O62  1  0.77366900  0.19881100  0.24182900  1
  O  O63  1  0.22633100  0.80118900  0.75817100  1
  O  O64  1  0.25453600  0.12062200  0.00171400  1
  O  O65  1  0.74546400  0.87937800  0.99828600  1
  O  O66  1  0.34684000  0.67281800  0.47095700  1
  O  O67  1  0.65316000  0.32718200  0.52904300  1
