# generated using pymatgen
data_PrH20S4N5O16
_symmetry_space_group_name_H-M   'P 1'
_cell_length_a   12.28343003
_cell_length_b   12.28343003
_cell_length_c   9.48292491
_cell_angle_alpha   83.56818751
_cell_angle_beta   83.56818751
_cell_angle_gamma   141.14208613
_symmetry_Int_Tables_number   1
_chemical_formula_structural   PrH20S4N5O16
_chemical_formula_sum   'Pr2 H40 S8 N10 O32'
_cell_volume   845.24257050
_cell_formula_units_Z   2
loop_
 _symmetry_equiv_pos_site_id
 _symmetry_equiv_pos_as_xyz
  1  'x, y, z'
loop_
 _atom_site_type_symbol
 _atom_site_label
 _atom_site_symmetry_multiplicity
 _atom_site_fract_x
 _atom_site_fract_y
 _atom_site_fract_z
 _atom_site_occupancy
  Pr  Pr0  1  0.07612900  0.92387100  0.75000000  1
  Pr  Pr1  1  0.92387100  0.07612900  0.25000000  1
  H  H2  1  0.23020500  0.66897600  0.84360900  1
  H  H3  1  0.33102400  0.76979500  0.65639100  1
  H  H4  1  0.76979500  0.33102400  0.15639100  1
  H  H5  1  0.66897600  0.23020500  0.34360900  1
  H  H6  1  0.42873400  0.76470700  0.76128000  1
  H  H7  1  0.23529300  0.57126600  0.73872000  1
  H  H8  1  0.57126600  0.23529300  0.23872000  1
  H  H9  1  0.76470700  0.42873400  0.26128000  1
  H  H10  1  0.54249900  0.72733900  0.10182400  1
  H  H11  1  0.27266100  0.45750100  0.39817600  1
  H  H12  1  0.45750100  0.27266100  0.89817600  1
  H  H13  1  0.72733900  0.54249900  0.60182400  1
  H  H14  1  0.63622400  0.68527100  0.02938600  1
  H  H15  1  0.31472900  0.36377600  0.47061400  1
  H  H16  1  0.36377600  0.31472900  0.97061400  1
  H  H17  1  0.68527100  0.63622400  0.52938600  1
  H  H18  1  0.58230000  0.74502000  0.91796500  1
  H  H19  1  0.25498000  0.41770000  0.58203500  1
  H  H20  1  0.41770000  0.25498000  0.08203500  1
  H  H21  1  0.74502000  0.58230000  0.41796500  1
  H  H22  1  0.41191800  0.53819900  0.04883600  1
  H  H23  1  0.46180100  0.58808200  0.45116400  1
  H  H24  1  0.58808200  0.46180100  0.95116400  1
  H  H25  1  0.53819900  0.41191800  0.54883600  1
  H  H26  1  0.96886400  0.37880300  0.45665300  1
  H  H27  1  0.62119700  0.03113600  0.04334700  1
  H  H28  1  0.03113600  0.62119700  0.54334700  1
  H  H29  1  0.37880300  0.96886400  0.95665300  1
  H  H30  1  0.88373700  0.33405500  0.63998800  1
  H  H31  1  0.66594500  0.11626300  0.86001200  1
  H  H32  1  0.11626300  0.66594500  0.36001200  1
  H  H33  1  0.33405500  0.88373700  0.13998800  1
  H  H34  1  0.91360600  0.22544100  0.58901900  1
  H  H35  1  0.77455900  0.08639400  0.91098100  1
  H  H36  1  0.08639400  0.77455900  0.41098100  1
  H  H37  1  0.22544100  0.91360600  0.08901900  1
  H  H38  1  0.75195000  0.17613000  0.55144900  1
  H  H39  1  0.82387000  0.24805000  0.94855100  1
  H  H40  1  0.24805000  0.82387000  0.44855100  1
  H  H41  1  0.17613000  0.75195000  0.05144900  1
  S  S42  1  0.10092300  0.22319700  0.87916600  1
  S  S43  1  0.77680300  0.89907700  0.62083400  1
  S  S44  1  0.89907700  0.77680300  0.12083400  1
  S  S45  1  0.22319700  0.10092300  0.37916600  1
  S  S46  1  0.47114000  0.11552600  0.66647900  1
  S  S47  1  0.88447400  0.52886000  0.83352100  1
  S  S48  1  0.52886000  0.88447400  0.33352100  1
  S  S49  1  0.11552600  0.47114000  0.16647900  1
  N  N50  1  0.30561000  0.69439000  0.75000000  1
  N  N51  1  0.69439000  0.30561000  0.25000000  1
  N  N52  1  0.54229500  0.67244800  0.02591900  1
  N  N53  1  0.32755200  0.45770500  0.47408100  1
  N  N54  1  0.45770500  0.32755200  0.97408100  1
  N  N55  1  0.67244800  0.54229500  0.52591900  1
  N  N56  1  0.88065500  0.27897900  0.56209300  1
  N  N57  1  0.72102100  0.11934500  0.93790700  1
  N  N58  1  0.11934500  0.72102100  0.43790700  1
  N  N59  1  0.27897900  0.88065500  0.06209300  1
  O  O60  1  0.90441300  0.05570700  0.97446600  1
  O  O61  1  0.94429300  0.09558700  0.52553400  1
  O  O62  1  0.09558700  0.94429300  0.02553400  1
  O  O63  1  0.05570700  0.90441300  0.47446600  1
  O  O64  1  0.16228900  0.17871100  0.78811500  1
  O  O65  1  0.82128900  0.83771100  0.71188500  1
  O  O66  1  0.83771100  0.82128900  0.21188500  1
  O  O67  1  0.17871100  0.16228900  0.28811500  1
  O  O68  1  0.20746300  0.30792100  0.98794800  1
  O  O69  1  0.69207900  0.79253700  0.51205200  1
  O  O70  1  0.79253700  0.69207900  0.01205200  1
  O  O71  1  0.30792100  0.20746300  0.48794800  1
  O  O72  1  0.12918400  0.34835000  0.77534000  1
  O  O73  1  0.65165000  0.87081600  0.72466000  1
  O  O74  1  0.87081600  0.65165000  0.22466000  1
  O  O75  1  0.34835000  0.12918400  0.27534000  1
  O  O76  1  0.39681800  0.15003300  0.76009000  1
  O  O77  1  0.84996700  0.60318200  0.73991000  1
  O  O78  1  0.60318200  0.84996700  0.23991000  1
  O  O79  1  0.15003300  0.39681800  0.26009000  1
  O  O80  1  0.50022600  0.04174800  0.76653600  1
  O  O81  1  0.95825200  0.49977400  0.73346400  1
  O  O82  1  0.49977400  0.95825200  0.23346400  1
  O  O83  1  0.04174800  0.50022600  0.26653600  1
  O  O84  1  0.64472400  0.28466000  0.54872000  1
  O  O85  1  0.71534000  0.35527600  0.95128000  1
  O  O86  1  0.35527600  0.71534000  0.45128000  1
  O  O87  1  0.28466000  0.64472400  0.04872000  1
  O  O88  1  0.32267300  0.97302100  0.60395500  1
  O  O89  1  0.02697900  0.67732700  0.89604500  1
  O  O90  1  0.67732700  0.02697900  0.39604500  1
  O  O91  1  0.97302100  0.32267300  0.10395500  1
