# generated using pymatgen
data_CuH6SO7
_symmetry_space_group_name_H-M   'P 1'
_cell_length_a   7.43485429
_cell_length_b   7.43485429
_cell_length_c   7.22833228
_cell_angle_alpha   86.42731020
_cell_angle_beta   86.42731020
_cell_angle_gamma   136.14931074
_symmetry_Int_Tables_number   1
_chemical_formula_structural   CuH6SO7
_chemical_formula_sum   'Cu2 H12 S2 O14'
_cell_volume   272.92651669
_cell_formula_units_Z   2
loop_
 _symmetry_equiv_pos_site_id
 _symmetry_equiv_pos_as_xyz
  1  'x, y, z'
loop_
 _atom_site_type_symbol
 _atom_site_label
 _atom_site_symmetry_multiplicity
 _atom_site_fract_x
 _atom_site_fract_y
 _atom_site_fract_z
 _atom_site_occupancy
  Cu  Cu0  1  0.87032000  0.14828200  0.99883300  1
  Cu  Cu1  1  0.14828200  0.87032000  0.49883300  1
  H  H2  1  0.97949400  0.16626300  0.64048000  1
  H  H3  1  0.16626300  0.97949400  0.14048000  1
  H  H4  1  0.15368000  0.46454800  0.67637200  1
  H  H5  1  0.46454800  0.15368000  0.17637200  1
  H  H6  1  0.43120300  0.26016500  0.70430900  1
  H  H7  1  0.26016500  0.43120300  0.20430900  1
  H  H8  1  0.43209900  0.35232300  0.49913700  1
  H  H9  1  0.35232300  0.43209900  0.99913700  1
  H  H10  1  0.38941100  0.76487700  0.98519100  1
  H  H11  1  0.76487700  0.38941100  0.48519100  1
  H  H12  1  0.52226100  0.91650000  0.77628500  1
  H  H13  1  0.91650000  0.52226100  0.27628500  1
  S  S14  1  0.83560800  0.62211200  0.92295700  1
  S  S15  1  0.62211200  0.83560800  0.42295700  1
  O  O16  1  0.00390700  0.67315200  0.75412900  1
  O  O17  1  0.67315200  0.00390700  0.25412900  1
  O  O18  1  0.45665100  0.81602400  0.57111800  1
  O  O19  1  0.81602400  0.45665100  0.07111800  1
  O  O20  1  0.56914600  0.47245100  0.87678400  1
  O  O21  1  0.47245100  0.56914600  0.37678400  1
  O  O22  1  0.87136900  0.95772600  0.48643500  1
  O  O23  1  0.95772600  0.87136900  0.98643500  1
  O  O24  1  0.05699700  0.28594500  0.73813700  1
  O  O25  1  0.28594500  0.05699700  0.23813700  1
  O  O26  1  0.42306000  0.22447700  0.57250600  1
  O  O27  1  0.22447700  0.42306000  0.07250600  1
  O  O28  1  0.52981400  0.94333500  0.91162600  1
  O  O29  1  0.94333500  0.52981400  0.41162600  1
