# generated using pymatgen
data_Ru4C12N2O13
_symmetry_space_group_name_H-M   'P 1'
_cell_length_a   9.86232700
_cell_length_b   14.06884054
_cell_length_c   16.67509473
_cell_angle_alpha   97.98913576
_cell_angle_beta   97.21436766
_cell_angle_gamma   107.75214572
_symmetry_Int_Tables_number   1
_chemical_formula_structural   Ru4C12N2O13
_chemical_formula_sum   'Ru16 C48 N8 O52'
_cell_volume   2147.25904037
_cell_formula_units_Z   4
loop_
 _symmetry_equiv_pos_site_id
 _symmetry_equiv_pos_as_xyz
  1  'x, y, z'
loop_
 _atom_site_type_symbol
 _atom_site_label
 _atom_site_symmetry_multiplicity
 _atom_site_fract_x
 _atom_site_fract_y
 _atom_site_fract_z
 _atom_site_occupancy
  Ru  Ru0  1  0.54380600  0.83683400  0.61650400  1
  Ru  Ru1  1  0.45619400  0.16316600  0.38349600  1
  Ru  Ru2  1  0.78847800  0.85638900  0.73908100  1
  Ru  Ru3  1  0.21152200  0.14361100  0.26091900  1
  Ru  Ru4  1  0.53051200  0.95720400  0.76782500  1
  Ru  Ru5  1  0.46948800  0.04279600  0.23217500  1
  Ru  Ru6  1  0.57498400  0.79237800  0.84015100  1
  Ru  Ru7  1  0.42501600  0.20762200  0.15984900  1
  Ru  Ru8  1  0.82240500  0.62693200  0.11959100  1
  Ru  Ru9  1  0.17759500  0.37306800  0.88040900  1
  Ru  Ru10  1  0.04962300  0.61686300  0.24113200  1
  Ru  Ru11  1  0.95037700  0.38313700  0.75886800  1
  Ru  Ru12  1  0.80277800  0.72454400  0.27873200  1
  Ru  Ru13  1  0.19722200  0.27545600  0.72126800  1
  Ru  Ru14  1  0.81811800  0.54094600  0.32919900  1
  Ru  Ru15  1  0.18188200  0.45905400  0.67080100  1
  C  C16  1  0.56537700  0.72822300  0.54318200  1
  C  C17  1  0.43462300  0.27177700  0.45681800  1
  C  C18  1  0.62353800  0.93607400  0.55069100  1
  C  C19  1  0.37646200  0.06392600  0.44930900  1
  C  C20  1  0.34781800  0.81269400  0.56736400  1
  C  C21  1  0.65218200  0.18730600  0.43263600  1
  C  C22  1  0.79791100  0.72127900  0.70071900  1
  C  C23  1  0.20208900  0.27872100  0.29928100  1
  C  C24  1  0.91157300  0.91731600  0.66651500  1
  C  C25  1  0.08842700  0.08268400  0.33348500  1
  C  C26  1  0.93506800  0.87947300  0.83383600  1
  C  C27  1  0.06493200  0.12052700  0.16616400  1
  C  C28  1  0.32061100  0.90477400  0.75542000  1
  C  C29  1  0.67938900  0.09522600  0.24458000  1
  C  C30  1  0.52309100  0.06076800  0.70538100  1
  C  C31  1  0.47690900  0.93923200  0.29461900  1
  C  C32  1  0.55130100  0.03194000  0.87651000  1
  C  C33  1  0.44869900  0.96806000  0.12349000  1
  C  C34  1  0.60788600  0.66782800  0.84980500  1
  C  C35  1  0.39211400  0.33217200  0.15019500  1
  C  C36  1  0.67779900  0.85937300  0.94983300  1
  C  C37  1  0.32220100  0.14062700  0.05016700  1
  C  C38  1  0.39173600  0.75269600  0.87463700  1
  C  C39  1  0.60826400  0.24730400  0.12536300  1
  C  C40  1  0.92804500  0.73173800  0.06468300  1
  C  C41  1  0.07195500  0.26826200  0.93531700  1
  C  C42  1  0.82783300  0.52026500  0.03754000  1
  C  C43  1  0.17216700  0.47973500  0.96246000  1
  C  C44  1  0.63793500  0.62692100  0.07036000  1
  C  C45  1  0.36206500  0.37307900  0.92964000  1
  C  C46  1  0.17913100  0.61484100  0.33646100  1
  C  C47  1  0.82086900  0.38515900  0.66353900  1
  C  C48  1  0.18907600  0.68878300  0.18114400  1
  C  C49  1  0.81092400  0.31121700  0.81885600  1
  C  C50  1  0.04477100  0.48390700  0.18499300  1
  C  C51  1  0.95522900  0.51609300  0.81500700  1
  C  C52  1  0.81989000  0.78844500  0.39043200  1
  C  C53  1  0.18011000  0.21155500  0.60956800  1
  C  C54  1  0.80688400  0.83899700  0.22744800  1
  C  C55  1  0.19311600  0.16100300  0.77255200  1
  C  C56  1  0.59205800  0.67225600  0.26066200  1
  C  C57  1  0.40794200  0.32774400  0.73933800  1
  C  C58  1  0.89875400  0.58274000  0.44558300  1
  C  C59  1  0.10124600  0.41726000  0.55441700  1
  C  C60  1  0.84116100  0.41102400  0.32173500  1
  C  C61  1  0.15883900  0.58897600  0.67826500  1
  C  C62  1  0.62557100  0.49465200  0.34905100  1
  C  C63  1  0.37442900  0.50534800  0.65094900  1
  N  N64  1  0.75136400  0.99013900  0.77810200  1
  N  N65  1  0.24863600  0.00986100  0.22189800  1
  N  N66  1  0.55112500  0.80691700  0.72608300  1
  N  N67  1  0.44887500  0.19308300  0.27391700  1
  N  N68  1  0.02301600  0.74962100  0.29566700  1
  N  N69  1  0.97698400  0.25037900  0.70433300  1
  N  N70  1  0.81317800  0.57737300  0.22150500  1
  N  N71  1  0.18682200  0.42262700  0.77849500  1
  O  O72  1  0.84302200  0.07286300  0.80303100  1
  O  O73  1  0.15697800  0.92713700  0.19696900  1
  O  O74  1  0.57724800  0.66081100  0.49910700  1
  O  O75  1  0.42275200  0.33918900  0.50089300  1
  O  O76  1  0.67566700  0.99828300  0.51450700  1
  O  O77  1  0.32433300  0.00171700  0.48549300  1
  O  O78  1  0.22827200  0.79515400  0.53704300  1
  O  O79  1  0.77172800  0.20484600  0.46295700  1
  O  O80  1  0.80875000  0.64267200  0.67883500  1
  O  O81  1  0.19125000  0.35732800  0.32116500  1
  O  O82  1  0.99073300  0.95734600  0.62637300  1
  O  O83  1  0.00926700  0.04265400  0.37362700  1
  O  O84  1  0.02607200  0.89618100  0.88987800  1
  O  O85  1  0.97392800  0.10381900  0.11012200  1
  O  O86  1  0.19609400  0.87530600  0.74828900  1
  O  O87  1  0.80390600  0.12469400  0.25171100  1
  O  O88  1  0.51895500  0.12643200  0.67093500  1
  O  O89  1  0.48104500  0.87356800  0.32906500  1
  O  O90  1  0.56592900  0.08090800  0.94087700  1
  O  O91  1  0.43407100  0.91909200  0.05912300  1
  O  O92  1  0.62566800  0.59076300  0.85513700  1
  O  O93  1  0.37433200  0.40923700  0.14486300  1
  O  O94  1  0.74188600  0.90486100  0.01384100  1
  O  O95  1  0.25811400  0.09513900  0.98615900  1
  O  O96  1  0.28039700  0.72570700  0.89531600  1
  O  O97  1  0.71960300  0.27429300  0.10468400  1
  O  O98  1  0.11818700  0.82618800  0.33242900  1
  O  O99  1  0.88181300  0.17381200  0.66757100  1
  O  O100  1  0.99766500  0.79287600  0.03330800  1
  O  O101  1  0.00233500  0.20712400  0.96669200  1
  O  O102  1  0.82676700  0.45301700  0.98831200  1
  O  O103  1  0.17323300  0.54698300  0.01168800  1
  O  O104  1  0.52494000  0.62661900  0.04018800  1
  O  O105  1  0.47506000  0.37338100  0.95981200  1
  O  O106  1  0.25981500  0.61648400  0.39398100  1
  O  O107  1  0.74018500  0.38351600  0.60601900  1
  O  O108  1  0.27730900  0.73462100  0.14859300  1
  O  O109  1  0.72269100  0.26537900  0.85140700  1
  O  O110  1  0.04457500  0.40609800  0.15149500  1
  O  O111  1  0.95542500  0.59390200  0.84850500  1
  O  O112  1  0.83658700  0.83112600  0.45738800  1
  O  O113  1  0.16341300  0.16887400  0.54261200  1
  O  O114  1  0.80359900  0.90870100  0.19841600  1
  O  O115  1  0.19640100  0.09129900  0.80158400  1
  O  O116  1  0.46723100  0.63920800  0.25037500  1
  O  O117  1  0.53276900  0.36079200  0.74962500  1
  O  O118  1  0.94819000  0.61103300  0.51481000  1
  O  O119  1  0.05181000  0.38896700  0.48519000  1
  O  O120  1  0.85188900  0.33053600  0.31412600  1
  O  O121  1  0.14811100  0.66946400  0.68587400  1
  O  O122  1  0.50773300  0.46388700  0.36039400  1
  O  O123  1  0.49226700  0.53611300  0.63960600  1
