# generated using pymatgen
data_CsB6H8O7
_symmetry_space_group_name_H-M   'P 1'
_cell_length_a   7.38721500
_cell_length_b   8.60586400
_cell_length_c   13.31179530
_cell_angle_alpha   83.98889683
_cell_angle_beta   90.00000000
_cell_angle_gamma   90.00000000
_symmetry_Int_Tables_number   1
_chemical_formula_structural   CsB6H8O7
_chemical_formula_sum   'Cs4 B24 H32 O28'
_cell_volume   841.62251184
_cell_formula_units_Z   4
loop_
 _symmetry_equiv_pos_site_id
 _symmetry_equiv_pos_as_xyz
  1  'x, y, z'
loop_
 _atom_site_type_symbol
 _atom_site_label
 _atom_site_symmetry_multiplicity
 _atom_site_fract_x
 _atom_site_fract_y
 _atom_site_fract_z
 _atom_site_occupancy
  Cs  Cs0  1  0.71094500  0.55024600  0.30486700  1
  Cs  Cs1  1  0.21094500  0.44975400  0.19513300  1
  Cs  Cs2  1  0.28905500  0.44975400  0.69513300  1
  Cs  Cs3  1  0.78905500  0.55024600  0.80486700  1
  B  B4  1  0.54875000  0.06927100  0.37744600  1
  B  B5  1  0.04875000  0.93072900  0.12255400  1
  B  B6  1  0.45125000  0.93072900  0.62255400  1
  B  B7  1  0.95125000  0.06927100  0.87744600  1
  B  B8  1  0.47710200  0.19771800  0.46766800  1
  B  B9  1  0.97710200  0.80228200  0.03233200  1
  B  B10  1  0.52289800  0.80228200  0.53233200  1
  B  B11  1  0.02289800  0.19771800  0.96766800  1
  B  B12  1  0.69407900  0.10817500  0.47986400  1
  B  B13  1  0.19407900  0.89182500  0.02013600  1
  B  B14  1  0.30592100  0.89182500  0.52013600  1
  B  B15  1  0.80592100  0.10817500  0.97986400  1
  B  B16  1  0.67494900  0.91263600  0.44356000  1
  B  B17  1  0.17494900  0.08736400  0.05644000  1
  B  B18  1  0.32505100  0.08736400  0.55644000  1
  B  B19  1  0.82505100  0.91263600  0.94356000  1
  B  B20  1  0.44349800  0.88082600  0.40887300  1
  B  B21  1  0.94349800  0.11917400  0.09112700  1
  B  B22  1  0.55650200  0.11917400  0.59112700  1
  B  B23  1  0.05650200  0.88082600  0.90887300  1
  B  B24  1  0.32212500  0.05856000  0.42498800  1
  B  B25  1  0.82212500  0.94144000  0.07501200  1
  B  B26  1  0.67787500  0.94144000  0.57501200  1
  B  B27  1  0.17787500  0.05856000  0.92498800  1
  H  H28  1  0.84038700  0.38180400  0.55433500  1
  H  H29  1  0.34038700  0.61819600  0.94566500  1
  H  H30  1  0.15961300  0.61819600  0.44566500  1
  H  H31  1  0.65961300  0.38180400  0.05433500  1
  H  H32  1  0.91262800  0.55476400  0.53213100  1
  H  H33  1  0.41262800  0.44523600  0.96786900  1
  H  H34  1  0.08737200  0.44523600  0.46786900  1
  H  H35  1  0.58737200  0.55476400  0.03213100  1
  H  H36  1  0.47507400  0.13615700  0.23086100  1
  H  H37  1  0.97507400  0.86384300  0.26913900  1
  H  H38  1  0.52492600  0.86384300  0.76913900  1
  H  H39  1  0.02492600  0.13615700  0.73086100  1
  H  H40  1  0.34262400  0.40567200  0.43456300  1
  H  H41  1  0.84262400  0.59432800  0.06543700  1
  H  H42  1  0.65737600  0.59432800  0.56543700  1
  H  H43  1  0.15737600  0.40567200  0.93456300  1
  H  H44  1  0.95063700  0.16681900  0.42405000  1
  H  H45  1  0.45063700  0.83318100  0.07595000  1
  H  H46  1  0.04936300  0.83318100  0.57595000  1
  H  H47  1  0.54936300  0.16681900  0.92405000  1
  H  H48  1  0.93797000  0.84307300  0.43639400  1
  H  H49  1  0.43797000  0.15692700  0.06360600  1
  H  H50  1  0.06203000  0.15692700  0.56360600  1
  H  H51  1  0.56203000  0.84307300  0.93639400  1
  H  H52  1  0.29226900  0.81775700  0.29206000  1
  H  H53  1  0.79226900  0.18224300  0.20794000  1
  H  H54  1  0.70773100  0.18224300  0.70794000  1
  H  H55  1  0.20773100  0.81775700  0.79206000  1
  H  H56  1  0.13715700  0.05127700  0.31077600  1
  H  H57  1  0.63715700  0.94872300  0.18922400  1
  H  H58  1  0.86284300  0.94872300  0.68922400  1
  H  H59  1  0.36284300  0.05127700  0.81077600  1
  O  O60  1  0.87447500  0.47672700  0.58623200  1
  O  O61  1  0.37447500  0.52327300  0.91376800  1
  O  O62  1  0.12552500  0.52327300  0.41376800  1
  O  O63  1  0.62552500  0.47672700  0.08623200  1
  O  O64  1  0.58603900  0.12292700  0.27186900  1
  O  O65  1  0.08603900  0.87707300  0.22813100  1
  O  O66  1  0.41396100  0.87707300  0.72813100  1
  O  O67  1  0.91396100  0.12292700  0.77186900  1
  O  O68  1  0.46523900  0.36235300  0.43838800  1
  O  O69  1  0.96523900  0.63764700  0.06161200  1
  O  O70  1  0.53476100  0.63764700  0.56161200  1
  O  O71  1  0.03476100  0.36235300  0.93838800  1
  O  O72  1  0.85923600  0.20207700  0.47151800  1
  O  O73  1  0.35923600  0.79792300  0.02848200  1
  O  O74  1  0.14076400  0.79792300  0.52848200  1
  O  O75  1  0.64076400  0.20207700  0.97151800  1
  O  O76  1  0.82571800  0.83739500  0.39693600  1
  O  O77  1  0.32571800  0.16260500  0.10306400  1
  O  O78  1  0.17428200  0.16260500  0.60306400  1
  O  O79  1  0.67428200  0.83739500  0.89693600  1
  O  O80  1  0.39846700  0.78009700  0.33260100  1
  O  O81  1  0.89846700  0.21990300  0.16739900  1
  O  O82  1  0.60153300  0.21990300  0.66739900  1
  O  O83  1  0.10153300  0.78009700  0.83260100  1
  O  O84  1  0.16633600  0.11649900  0.36525300  1
  O  O85  1  0.66633600  0.88350100  0.13474700  1
  O  O86  1  0.83366400  0.88350100  0.63474700  1
  O  O87  1  0.33366400  0.11649900  0.86525300  1
