# generated using pymatgen
data_YScPd2
_symmetry_space_group_name_H-M   'P 1'
_cell_length_a   13.08446775
_cell_length_b   13.08446775
_cell_length_c   13.08446775
_cell_angle_alpha   134.60734919
_cell_angle_beta   116.76180387
_cell_angle_gamma   81.22661452
_symmetry_Int_Tables_number   1
_chemical_formula_structural   YScPd2
_chemical_formula_sum   'Y1 Sc1 Pd2'
_cell_volume   1375.96852509
_cell_formula_units_Z   1
loop_
 _symmetry_equiv_pos_site_id
 _symmetry_equiv_pos_as_xyz
  1  'x, y, z'
loop_
 _atom_site_type_symbol
 _atom_site_label
 _atom_site_symmetry_multiplicity
 _atom_site_fract_x
 _atom_site_fract_y
 _atom_site_fract_z
 _atom_site_occupancy
  Y  Y0  1  0.00000000  0.50000000  0.50000000  1
  Sc  Sc1  1  0.00000000  0.00000000  0.00000000  1
  Pd  Pd2  1  0.00000000  0.24812900  0.24812900  1
  Pd  Pd3  1  0.00000000  0.75187100  0.75187100  1
