# generated using pymatgen
data_KH2SeNO3
_symmetry_space_group_name_H-M   'P 1'
_cell_length_a   7.44143400
_cell_length_b   7.63695700
_cell_length_c   8.18429938
_cell_angle_alpha   83.59528089
_cell_angle_beta   90.00000000
_cell_angle_gamma   90.00000000
_symmetry_Int_Tables_number   1
_chemical_formula_structural   KH2SeNO3
_chemical_formula_sum   'K4 H8 Se4 N4 O12'
_cell_volume   462.21011579
_cell_formula_units_Z   4
loop_
 _symmetry_equiv_pos_site_id
 _symmetry_equiv_pos_as_xyz
  1  'x, y, z'
loop_
 _atom_site_type_symbol
 _atom_site_label
 _atom_site_symmetry_multiplicity
 _atom_site_fract_x
 _atom_site_fract_y
 _atom_site_fract_z
 _atom_site_occupancy
  K  K0  1  0.12471700  0.38477900  0.35308700  1
  K  K1  1  0.62471700  0.11522100  0.64691300  1
  K  K2  1  0.87528300  0.61522100  0.64691300  1
  K  K3  1  0.37528300  0.88477900  0.35308700  1
  H  H4  1  0.67632400  0.38455700  0.97296400  1
  H  H5  1  0.17632400  0.11544300  0.02703600  1
  H  H6  1  0.32367600  0.61544300  0.02703600  1
  H  H7  1  0.82367600  0.88455700  0.97296400  1
  H  H8  1  0.82716600  0.27376600  0.10162700  1
  H  H9  1  0.32716600  0.22623400  0.89837300  1
  H  H10  1  0.17283400  0.72623400  0.89837300  1
  H  H11  1  0.67283400  0.77376600  0.10162700  1
  Se  Se12  1  0.60588800  0.40487300  0.25000800  1
  Se  Se13  1  0.10588800  0.09512700  0.74999200  1
  Se  Se14  1  0.39411200  0.59512700  0.74999200  1
  Se  Se15  1  0.89411200  0.90487300  0.25000800  1
  N  N16  1  0.75768900  0.39126700  0.07535900  1
  N  N17  1  0.25768900  0.10873300  0.92464100  1
  N  N18  1  0.24231100  0.60873300  0.92464100  1
  N  N19  1  0.74231100  0.89126700  0.07535900  1
  O  O20  1  0.45878500  0.24058800  0.27405800  1
  O  O21  1  0.95878500  0.25941200  0.72594200  1
  O  O22  1  0.54121500  0.75941200  0.72594200  1
  O  O23  1  0.04121500  0.74058800  0.27405800  1
  O  O24  1  0.74120700  0.40323300  0.41103200  1
  O  O25  1  0.24120700  0.09676700  0.58896800  1
  O  O26  1  0.25879300  0.59676700  0.58896800  1
  O  O27  1  0.75879300  0.90323300  0.41103200  1
  O  O28  1  0.49776500  0.59598500  0.20445300  1
  O  O29  1  0.99776500  0.90401500  0.79554700  1
  O  O30  1  0.50223500  0.40401500  0.79554700  1
  O  O31  1  0.00223500  0.09598500  0.20445300  1
