# generated using pymatgen
data_BaH6C2S2N2O3
_symmetry_space_group_name_H-M   'P 1'
_cell_length_a   8.48676397
_cell_length_b   8.48676397
_cell_length_c   13.57042334
_cell_angle_alpha   76.12863819
_cell_angle_beta   76.12863819
_cell_angle_gamma   30.96295365
_symmetry_Int_Tables_number   1
_chemical_formula_structural   BaH6C2S2N2O3
_chemical_formula_sum   'Ba2 H12 C4 S4 N4 O6'
_cell_volume   487.05399199
_cell_formula_units_Z   2
loop_
 _symmetry_equiv_pos_site_id
 _symmetry_equiv_pos_as_xyz
  1  'x, y, z'
loop_
 _atom_site_type_symbol
 _atom_site_label
 _atom_site_symmetry_multiplicity
 _atom_site_fract_x
 _atom_site_fract_y
 _atom_site_fract_z
 _atom_site_occupancy
  Ba  Ba0  1  0.12103800  0.12103800  0.72842800  1
  Ba  Ba1  1  0.87896200  0.87896200  0.27157200  1
  H  H2  1  0.79276000  0.13480800  0.61755400  1
  H  H3  1  0.13480800  0.79276000  0.61755400  1
  H  H4  1  0.20724000  0.86519200  0.38244600  1
  H  H5  1  0.86519200  0.20724000  0.38244600  1
  H  H6  1  0.93997900  0.28162900  0.97361300  1
  H  H7  1  0.28162900  0.93997900  0.97361300  1
  H  H8  1  0.06002100  0.71837100  0.02638700  1
  H  H9  1  0.71837100  0.06002100  0.02638700  1
  H  H10  1  0.76846800  0.76846800  0.74431100  1
  H  H11  1  0.23153200  0.23153200  0.25568900  1
  H  H12  1  0.72890400  0.72890400  0.86074100  1
  H  H13  1  0.27109600  0.27109600  0.13925900  1
  C  C14  1  0.34130900  0.34130900  0.50414500  1
  C  C15  1  0.65869100  0.65869100  0.49585500  1
  C  C16  1  0.43527900  0.43527900  0.85142600  1
  C  C17  1  0.56472100  0.56472100  0.14857400  1
  S  S18  1  0.34500800  0.34500800  0.62356600  1
  S  S19  1  0.65499200  0.65499200  0.37643400  1
  S  S20  1  0.33662300  0.33662300  0.91626600  1
  S  S21  1  0.66337700  0.66337700  0.08373400  1
  N  N22  1  0.33901800  0.33901800  0.41722100  1
  N  N23  1  0.66098200  0.66098200  0.58277900  1
  N  N24  1  0.50718400  0.50718400  0.80453700  1
  N  N25  1  0.49281600  0.49281600  0.19546300  1
  O  O26  1  0.99915800  0.99915800  0.62332500  1
  O  O27  1  0.00084200  0.00084200  0.37667500  1
  O  O28  1  0.09973100  0.09973100  0.93448900  1
  O  O29  1  0.90026900  0.90026900  0.06551100  1
  O  O30  1  0.71427100  0.71427100  0.79502500  1
  O  O31  1  0.28572900  0.28572900  0.20497500  1
