# generated using pymatgen
data_ZnH12(IN2)2
_symmetry_space_group_name_H-M   'P 1'
_cell_length_a   7.80317000
_cell_length_b   12.23996300
_cell_length_c   12.43115700
_cell_angle_alpha   90.00000000
_cell_angle_beta   90.00000000
_cell_angle_gamma   90.00000000
_symmetry_Int_Tables_number   1
_chemical_formula_structural   ZnH12(IN2)2
_chemical_formula_sum   'Zn4 H48 I8 N16'
_cell_volume   1187.30617085
_cell_formula_units_Z   4
loop_
 _symmetry_equiv_pos_site_id
 _symmetry_equiv_pos_as_xyz
  1  'x, y, z'
loop_
 _atom_site_type_symbol
 _atom_site_label
 _atom_site_symmetry_multiplicity
 _atom_site_fract_x
 _atom_site_fract_y
 _atom_site_fract_z
 _atom_site_occupancy
  Zn  Zn0  1  0.25000000  0.10054300  0.28195800  1
  Zn  Zn1  1  0.25000000  0.39945700  0.78195800  1
  Zn  Zn2  1  0.75000000  0.89945700  0.71804200  1
  Zn  Zn3  1  0.75000000  0.60054300  0.21804200  1
  H  H4  1  0.14388300  0.91182000  0.19829200  1
  H  H5  1  0.35611700  0.58818000  0.69829200  1
  H  H6  1  0.64388300  0.08818000  0.80170800  1
  H  H7  1  0.85611700  0.41182000  0.30170800  1
  H  H8  1  0.85611700  0.08818000  0.80170800  1
  H  H9  1  0.64388300  0.41182000  0.30170800  1
  H  H10  1  0.35611700  0.91182000  0.19829200  1
  H  H11  1  0.14388300  0.58818000  0.69829200  1
  H  H12  1  0.25000000  0.90048600  0.31142200  1
  H  H13  1  0.25000000  0.59951400  0.81142200  1
  H  H14  1  0.75000000  0.09951400  0.68857800  1
  H  H15  1  0.75000000  0.40048600  0.18857800  1
  H  H16  1  0.14325600  0.14079900  0.47605300  1
  H  H17  1  0.35674400  0.35920100  0.97605300  1
  H  H18  1  0.64325600  0.85920100  0.52394700  1
  H  H19  1  0.85674400  0.64079900  0.02394700  1
  H  H20  1  0.85674400  0.85920100  0.52394700  1
  H  H21  1  0.64325600  0.64079900  0.02394700  1
  H  H22  1  0.35674400  0.14079900  0.47605300  1
  H  H23  1  0.14325600  0.35920100  0.97605300  1
  H  H24  1  0.25000000  0.02184100  0.48318600  1
  H  H25  1  0.25000000  0.47815900  0.98318600  1
  H  H26  1  0.75000000  0.97815900  0.51681400  1
  H  H27  1  0.75000000  0.52184100  0.01681400  1
  H  H28  1  0.79802800  0.09293000  0.22026900  1
  H  H29  1  0.70197200  0.40707000  0.72026900  1
  H  H30  1  0.29802800  0.90707000  0.77973100  1
  H  H31  1  0.20197200  0.59293000  0.27973100  1
  H  H32  1  0.20197200  0.90707000  0.77973100  1
  H  H33  1  0.29802800  0.59293000  0.27973100  1
  H  H34  1  0.70197200  0.09293000  0.22026900  1
  H  H35  1  0.79802800  0.40707000  0.72026900  1
  H  H36  1  0.00486000  0.31225800  0.30321200  1
  H  H37  1  0.49514000  0.18774200  0.80321200  1
  H  H38  1  0.50486000  0.68774200  0.69678800  1
  H  H39  1  0.99514000  0.81225800  0.19678800  1
  H  H40  1  0.99514000  0.68774200  0.69678800  1
  H  H41  1  0.50486000  0.81225800  0.19678800  1
  H  H42  1  0.49514000  0.31225800  0.30321200  1
  H  H43  1  0.00486000  0.18774200  0.80321200  1
  H  H44  1  0.03881100  0.17912400  0.13583900  1
  H  H45  1  0.46118900  0.32087600  0.63583900  1
  H  H46  1  0.53881100  0.82087600  0.86416100  1
  H  H47  1  0.96118900  0.67912400  0.36416100  1
  H  H48  1  0.96118900  0.82087600  0.86416100  1
  H  H49  1  0.53881100  0.67912400  0.36416100  1
  H  H50  1  0.46118900  0.17912400  0.13583900  1
  H  H51  1  0.03881100  0.32087600  0.63583900  1
  I  I52  1  0.25000000  0.18380400  0.78892300  1
  I  I53  1  0.25000000  0.31619600  0.28892300  1
  I  I54  1  0.75000000  0.81619600  0.21107700  1
  I  I55  1  0.75000000  0.68380400  0.71107700  1
  I  I56  1  0.25000000  0.81107900  0.49645300  1
  I  I57  1  0.25000000  0.68892100  0.99645300  1
  I  I58  1  0.75000000  0.18892100  0.50354700  1
  I  I59  1  0.75000000  0.31107900  0.00354700  1
  N  N60  1  0.25000000  0.94334700  0.23867900  1
  N  N61  1  0.25000000  0.55665300  0.73867900  1
  N  N62  1  0.75000000  0.05665300  0.76132100  1
  N  N63  1  0.75000000  0.44334700  0.26132100  1
  N  N64  1  0.25000000  0.09946900  0.44938000  1
  N  N65  1  0.25000000  0.40053100  0.94938000  1
  N  N66  1  0.75000000  0.90053100  0.55062000  1
  N  N67  1  0.75000000  0.59946900  0.05062000  1
  N  N68  1  0.17883700  0.02993100  0.01148700  1
  N  N69  1  0.32116300  0.47006900  0.51148700  1
  N  N70  1  0.67883700  0.97006900  0.98851300  1
  N  N71  1  0.82116300  0.52993100  0.48851300  1
  N  N72  1  0.82116300  0.97006900  0.98851300  1
  N  N73  1  0.67883700  0.52993100  0.48851300  1
  N  N74  1  0.32116300  0.02993100  0.01148700  1
  N  N75  1  0.17883700  0.47006900  0.51148700  1
