# generated using pymatgen
data_CsH24Ru(SO10)2
_symmetry_space_group_name_H-M   'P 1'
_cell_length_a   12.47467300
_cell_length_b   12.47467300
_cell_length_c   12.47467300
_cell_angle_alpha   90.00000000
_cell_angle_beta   90.00000000
_cell_angle_gamma   90.00000000
_symmetry_Int_Tables_number   1
_chemical_formula_structural   CsH24Ru(SO10)2
_chemical_formula_sum   'Cs4 H96 Ru4 S8 O80'
_cell_volume   1941.27700714
_cell_formula_units_Z   4
loop_
 _symmetry_equiv_pos_site_id
 _symmetry_equiv_pos_as_xyz
  1  'x, y, z'
loop_
 _atom_site_type_symbol
 _atom_site_label
 _atom_site_symmetry_multiplicity
 _atom_site_fract_x
 _atom_site_fract_y
 _atom_site_fract_z
 _atom_site_occupancy
  Cs  Cs0  1  0.00000000  0.00000000  0.50000000  1
  Cs  Cs1  1  0.00000000  0.50000000  0.00000000  1
  Cs  Cs2  1  0.50000000  0.00000000  0.00000000  1
  Cs  Cs3  1  0.50000000  0.50000000  0.50000000  1
  H  H4  1  0.21919500  0.50838800  0.22945900  1
  H  H5  1  0.78080500  0.00838800  0.27054100  1
  H  H6  1  0.28080500  0.49161200  0.72945900  1
  H  H7  1  0.71919500  0.99161200  0.77054100  1
  H  H8  1  0.22945900  0.21919500  0.50838800  1
  H  H9  1  0.27054100  0.78080500  0.00838800  1
  H  H10  1  0.72945900  0.28080500  0.49161200  1
  H  H11  1  0.77054100  0.71919500  0.99161200  1
  H  H12  1  0.50838800  0.22945900  0.21919500  1
  H  H13  1  0.00838800  0.27054100  0.78080500  1
  H  H14  1  0.49161200  0.72945900  0.28080500  1
  H  H15  1  0.99161200  0.77054100  0.71919500  1
  H  H16  1  0.78080500  0.49161200  0.77054100  1
  H  H17  1  0.21919500  0.99161200  0.72945900  1
  H  H18  1  0.71919500  0.50838800  0.27054100  1
  H  H19  1  0.28080500  0.00838800  0.22945900  1
  H  H20  1  0.77054100  0.78080500  0.49161200  1
  H  H21  1  0.72945900  0.21919500  0.99161200  1
  H  H22  1  0.27054100  0.71919500  0.50838800  1
  H  H23  1  0.22945900  0.28080500  0.00838800  1
  H  H24  1  0.49161200  0.77054100  0.78080500  1
  H  H25  1  0.99161200  0.72945900  0.21919500  1
  H  H26  1  0.50838800  0.27054100  0.71919500  1
  H  H27  1  0.00838800  0.22945900  0.28080500  1
  H  H28  1  0.18179200  0.62758500  0.22055500  1
  H  H29  1  0.81820800  0.12758500  0.27944500  1
  H  H30  1  0.31820800  0.37241500  0.72055500  1
  H  H31  1  0.68179200  0.87241500  0.77944500  1
  H  H32  1  0.22055500  0.18179200  0.62758500  1
  H  H33  1  0.27944500  0.81820800  0.12758500  1
  H  H34  1  0.72055500  0.31820800  0.37241500  1
  H  H35  1  0.77944500  0.68179200  0.87241500  1
  H  H36  1  0.62758500  0.22055500  0.18179200  1
  H  H37  1  0.12758500  0.27944500  0.81820800  1
  H  H38  1  0.37241500  0.72055500  0.31820800  1
  H  H39  1  0.87241500  0.77944500  0.68179200  1
  H  H40  1  0.81820800  0.37241500  0.77944500  1
  H  H41  1  0.18179200  0.87241500  0.72055500  1
  H  H42  1  0.68179200  0.62758500  0.27944500  1
  H  H43  1  0.31820800  0.12758500  0.22055500  1
  H  H44  1  0.77944500  0.81820800  0.37241500  1
  H  H45  1  0.72055500  0.18179200  0.87241500  1
  H  H46  1  0.27944500  0.68179200  0.62758500  1
  H  H47  1  0.22055500  0.31820800  0.12758500  1
  H  H48  1  0.37241500  0.77944500  0.81820800  1
  H  H49  1  0.87241500  0.72055500  0.18179200  1
  H  H50  1  0.62758500  0.27944500  0.68179200  1
  H  H51  1  0.12758500  0.22055500  0.31820800  1
  H  H52  1  0.47650500  0.71000600  0.93730400  1
  H  H53  1  0.52349500  0.21000600  0.56269600  1
  H  H54  1  0.02349500  0.28999400  0.43730400  1
  H  H55  1  0.97650500  0.78999400  0.06269600  1
  H  H56  1  0.93730400  0.47650500  0.71000600  1
  H  H57  1  0.56269600  0.52349500  0.21000600  1
  H  H58  1  0.43730400  0.02349500  0.28999400  1
  H  H59  1  0.06269600  0.97650500  0.78999400  1
  H  H60  1  0.71000600  0.93730400  0.47650500  1
  H  H61  1  0.21000600  0.56269600  0.52349500  1
  H  H62  1  0.28999400  0.43730400  0.02349500  1
  H  H63  1  0.78999400  0.06269600  0.97650500  1
  H  H64  1  0.52349500  0.28999400  0.06269600  1
  H  H65  1  0.47650500  0.78999400  0.43730400  1
  H  H66  1  0.97650500  0.71000600  0.56269600  1
  H  H67  1  0.02349500  0.21000600  0.93730400  1
  H  H68  1  0.06269600  0.52349500  0.28999400  1
  H  H69  1  0.43730400  0.47650500  0.78999400  1
  H  H70  1  0.56269600  0.97650500  0.71000600  1
  H  H71  1  0.93730400  0.02349500  0.21000600  1
  H  H72  1  0.28999400  0.06269600  0.52349500  1
  H  H73  1  0.78999400  0.43730400  0.47650500  1
  H  H74  1  0.71000600  0.56269600  0.97650500  1
  H  H75  1  0.21000600  0.93730400  0.02349500  1
  H  H76  1  0.52775100  0.70586500  0.06280500  1
  H  H77  1  0.47224900  0.20586500  0.43719500  1
  H  H78  1  0.97224900  0.29413500  0.56280500  1
  H  H79  1  0.02775100  0.79413500  0.93719500  1
  H  H80  1  0.06280500  0.52775100  0.70586500  1
  H  H81  1  0.43719500  0.47224900  0.20586500  1
  H  H82  1  0.56280500  0.97224900  0.29413500  1
  H  H83  1  0.93719500  0.02775100  0.79413500  1
  H  H84  1  0.70586500  0.06280500  0.52775100  1
  H  H85  1  0.20586500  0.43719500  0.47224900  1
  H  H86  1  0.29413500  0.56280500  0.97224900  1
  H  H87  1  0.79413500  0.93719500  0.02775100  1
  H  H88  1  0.47224900  0.29413500  0.93719500  1
  H  H89  1  0.52775100  0.79413500  0.56280500  1
  H  H90  1  0.02775100  0.70586500  0.43719500  1
  H  H91  1  0.97224900  0.20586500  0.06280500  1
  H  H92  1  0.93719500  0.47224900  0.29413500  1
  H  H93  1  0.56280500  0.52775100  0.79413500  1
  H  H94  1  0.43719500  0.02775100  0.70586500  1
  H  H95  1  0.06280500  0.97224900  0.20586500  1
  H  H96  1  0.29413500  0.93719500  0.47224900  1
  H  H97  1  0.79413500  0.56280500  0.52775100  1
  H  H98  1  0.70586500  0.43719500  0.02775100  1
  H  H99  1  0.20586500  0.06280500  0.97224900  1
  Ru  Ru100  1  0.50000000  0.50000000  0.00000000  1
  Ru  Ru101  1  0.50000000  0.00000000  0.50000000  1
  Ru  Ru102  1  0.00000000  0.50000000  0.50000000  1
  Ru  Ru103  1  0.00000000  0.00000000  0.00000000  1
  S  S104  1  0.17379400  0.82620600  0.32620600  1
  S  S105  1  0.82620600  0.32620600  0.17379400  1
  S  S106  1  0.32620600  0.17379400  0.82620600  1
  S  S107  1  0.67379400  0.67379400  0.67379400  1
  S  S108  1  0.82620600  0.17379400  0.67379400  1
  S  S109  1  0.17379400  0.67379400  0.82620600  1
  S  S110  1  0.67379400  0.82620600  0.17379400  1
  S  S111  1  0.32620600  0.32620600  0.32620600  1
  O  O112  1  0.24335300  0.75664700  0.25664700  1
  O  O113  1  0.75664700  0.25664700  0.24335300  1
  O  O114  1  0.25664700  0.24335300  0.75664700  1
  O  O115  1  0.74335300  0.74335300  0.74335300  1
  O  O116  1  0.75664700  0.24335300  0.74335300  1
  O  O117  1  0.24335300  0.74335300  0.75664700  1
  O  O118  1  0.74335300  0.75664700  0.24335300  1
  O  O119  1  0.25664700  0.25664700  0.25664700  1
  O  O120  1  0.06411100  0.77887500  0.33380100  1
  O  O121  1  0.93588900  0.27887500  0.16619900  1
  O  O122  1  0.43588900  0.22112500  0.83380100  1
  O  O123  1  0.56411100  0.72112500  0.66619900  1
  O  O124  1  0.33380100  0.06411100  0.77887500  1
  O  O125  1  0.16619900  0.93588900  0.27887500  1
  O  O126  1  0.83380100  0.43588900  0.22112500  1
  O  O127  1  0.66619900  0.56411100  0.72112500  1
  O  O128  1  0.77887500  0.33380100  0.06411100  1
  O  O129  1  0.27887500  0.16619900  0.93588900  1
  O  O130  1  0.22112500  0.83380100  0.43588900  1
  O  O131  1  0.72112500  0.66619900  0.56411100  1
  O  O132  1  0.93588900  0.22112500  0.66619900  1
  O  O133  1  0.06411100  0.72112500  0.83380100  1
  O  O134  1  0.56411100  0.77887500  0.16619900  1
  O  O135  1  0.43588900  0.27887500  0.33380100  1
  O  O136  1  0.66619900  0.93588900  0.22112500  1
  O  O137  1  0.83380100  0.06411100  0.72112500  1
  O  O138  1  0.16619900  0.56411100  0.77887500  1
  O  O139  1  0.33380100  0.43588900  0.27887500  1
  O  O140  1  0.22112500  0.66619900  0.93588900  1
  O  O141  1  0.72112500  0.83380100  0.06411100  1
  O  O142  1  0.77887500  0.16619900  0.56411100  1
  O  O143  1  0.27887500  0.33380100  0.43588900  1
  O  O144  1  0.15659800  0.55326800  0.20927700  1
  O  O145  1  0.84340200  0.05326800  0.29072300  1
  O  O146  1  0.34340200  0.44673200  0.70927700  1
  O  O147  1  0.65659800  0.94673200  0.79072300  1
  O  O148  1  0.20927700  0.15659800  0.55326800  1
  O  O149  1  0.29072300  0.84340200  0.05326800  1
  O  O150  1  0.70927700  0.34340200  0.44673200  1
  O  O151  1  0.79072300  0.65659800  0.94673200  1
  O  O152  1  0.55326800  0.20927700  0.15659800  1
  O  O153  1  0.05326800  0.29072300  0.84340200  1
  O  O154  1  0.44673200  0.70927700  0.34340200  1
  O  O155  1  0.94673200  0.79072300  0.65659800  1
  O  O156  1  0.84340200  0.44673200  0.79072300  1
  O  O157  1  0.15659800  0.94673200  0.70927700  1
  O  O158  1  0.65659800  0.55326800  0.29072300  1
  O  O159  1  0.34340200  0.05326800  0.20927700  1
  O  O160  1  0.79072300  0.84340200  0.44673200  1
  O  O161  1  0.70927700  0.15659800  0.94673200  1
  O  O162  1  0.29072300  0.65659800  0.55326800  1
  O  O163  1  0.20927700  0.34340200  0.05326800  1
  O  O164  1  0.44673200  0.79072300  0.84340200  1
  O  O165  1  0.94673200  0.70927700  0.15659800  1
  O  O166  1  0.55326800  0.29072300  0.65659800  1
  O  O167  1  0.05326800  0.20927700  0.34340200  1
  O  O168  1  0.50212700  0.66359400  0.99958700  1
  O  O169  1  0.49787300  0.16359400  0.50041300  1
  O  O170  1  0.99787300  0.33640600  0.49958700  1
  O  O171  1  0.00212700  0.83640600  0.00041300  1
  O  O172  1  0.99958700  0.50212700  0.66359400  1
  O  O173  1  0.50041300  0.49787300  0.16359400  1
  O  O174  1  0.49958700  0.99787300  0.33640600  1
  O  O175  1  0.00041300  0.00212700  0.83640600  1
  O  O176  1  0.66359400  0.99958700  0.50212700  1
  O  O177  1  0.16359400  0.50041300  0.49787300  1
  O  O178  1  0.33640600  0.49958700  0.99787300  1
  O  O179  1  0.83640600  0.00041300  0.00212700  1
  O  O180  1  0.49787300  0.33640600  0.00041300  1
  O  O181  1  0.50212700  0.83640600  0.49958700  1
  O  O182  1  0.00212700  0.66359400  0.50041300  1
  O  O183  1  0.99787300  0.16359400  0.99958700  1
  O  O184  1  0.00041300  0.49787300  0.33640600  1
  O  O185  1  0.49958700  0.50212700  0.83640600  1
  O  O186  1  0.50041300  0.00212700  0.66359400  1
  O  O187  1  0.99958700  0.99787300  0.16359400  1
  O  O188  1  0.33640600  0.00041300  0.49787300  1
  O  O189  1  0.83640600  0.49958700  0.50212700  1
  O  O190  1  0.66359400  0.50041300  0.00212700  1
  O  O191  1  0.16359400  0.99958700  0.99787300  1
