# generated using pymatgen
data_HOs6C18S2O19
_symmetry_space_group_name_H-M   'P 1'
_cell_length_a   9.25673100
_cell_length_b   12.28654946
_cell_length_c   14.20096636
_cell_angle_alpha   90.23474524
_cell_angle_beta   103.23250034
_cell_angle_gamma   98.32533792
_symmetry_Int_Tables_number   1
_chemical_formula_structural   HOs6C18S2O19
_chemical_formula_sum   'H2 Os12 C36 S4 O38'
_cell_volume   1554.50804392
_cell_formula_units_Z   2
loop_
 _symmetry_equiv_pos_site_id
 _symmetry_equiv_pos_as_xyz
  1  'x, y, z'
loop_
 _atom_site_type_symbol
 _atom_site_label
 _atom_site_symmetry_multiplicity
 _atom_site_fract_x
 _atom_site_fract_y
 _atom_site_fract_z
 _atom_site_occupancy
  H  H0  1  0.52469400  0.57986600  0.07871300  1
  H  H1  1  0.47530600  0.42013400  0.92128700  1
  Os  Os2  1  0.80542600  0.54455200  0.16403100  1
  Os  Os3  1  0.19457400  0.45544800  0.83596900  1
  Os  Os4  1  0.06128800  0.99667500  0.23248100  1
  Os  Os5  1  0.93871200  0.00332500  0.76751900  1
  Os  Os6  1  0.05683200  0.82537000  0.39155400  1
  Os  Os7  1  0.94316800  0.17463000  0.60844600  1
  Os  Os8  1  0.61130400  0.46480900  0.29486500  1
  Os  Os9  1  0.38869600  0.53519100  0.70513500  1
  Os  Os10  1  0.58951500  0.69358300  0.24520800  1
  Os  Os11  1  0.41048500  0.30641700  0.75479200  1
  Os  Os12  1  0.76089200  0.88597300  0.18311800  1
  Os  Os13  1  0.23910800  0.11402700  0.81688200  1
  C  C14  1  0.72621200  0.41169900  0.09024400  1
  C  C15  1  0.27378800  0.58830100  0.90975600  1
  C  C16  1  0.96570000  0.47704700  0.23572100  1
  C  C17  1  0.03430000  0.52295300  0.76427900  1
  C  C18  1  0.91713400  0.60435500  0.07203500  1
  C  C19  1  0.08286600  0.39564500  0.92796500  1
  C  C20  1  0.10904500  0.94663700  0.11731100  1
  C  C21  1  0.89095500  0.05336300  0.88268900  1
  C  C22  1  0.25966300  0.06687100  0.29279400  1
  C  C23  1  0.74033700  0.93312900  0.70720600  1
  C  C24  1  0.01294500  0.13065000  0.18067800  1
  C  C25  1  0.98705500  0.86935000  0.81932200  1
  C  C26  1  0.97259100  0.78783200  0.49936100  1
  C  C27  1  0.02740900  0.21216800  0.50063900  1
  C  C28  1  0.22304800  0.92066100  0.46800600  1
  C  C29  1  0.77695200  0.07933900  0.53199400  1
  C  C30  1  0.17819300  0.71037200  0.40605600  1
  C  C31  1  0.82180700  0.28962800  0.59394400  1
  C  C32  1  0.67474800  0.32337300  0.30628200  1
  C  C33  1  0.32525200  0.67662700  0.69371800  1
  C  C34  1  0.78057000  0.52740800  0.39808600  1
  C  C35  1  0.21943000  0.47259200  0.60191400  1
  C  C36  1  0.46715400  0.44384300  0.37406700  1
  C  C37  1  0.53284600  0.55615700  0.62593300  1
  C  C38  1  0.45720500  0.42805800  0.17681100  1
  C  C39  1  0.54279500  0.57194200  0.82318900  1
  C  C40  1  0.38054400  0.65007300  0.21509900  1
  C  C41  1  0.61945600  0.34992700  0.78490100  1
  C  C42  1  0.58449100  0.74117700  0.36996900  1
  C  C43  1  0.41550900  0.25882300  0.63003100  1
  C  C44  1  0.74552100  0.84396900  0.05219200  1
  C  C45  1  0.25447900  0.15603100  0.94780800  1
  C  C46  1  0.69576600  0.01997800  0.13960100  1
  C  C47  1  0.30423400  0.98002200  0.86039900  1
  C  C48  1  0.53778600  0.84885900  0.19046200  1
  C  C49  1  0.46221400  0.15114100  0.80953800  1
  S  S50  1  0.86246000  0.72450800  0.25962300  1
  S  S51  1  0.13754000  0.27549200  0.74037700  1
  S  S52  1  0.90279900  0.96919000  0.34172500  1
  S  S53  1  0.09720100  0.03081000  0.65827500  1
  O  O54  1  0.67700300  0.33247600  0.04180500  1
  O  O55  1  0.32299700  0.66752400  0.95819500  1
  O  O56  1  0.06072800  0.43442500  0.28126600  1
  O  O57  1  0.93927200  0.56557500  0.71873400  1
  O  O58  1  0.98677700  0.63335900  0.01621600  1
  O  O59  1  0.01322300  0.36664100  0.98378400  1
  O  O60  1  0.12757900  0.91466900  0.04454200  1
  O  O61  1  0.87242100  0.08533100  0.95545800  1
  O  O62  1  0.37735700  0.11854500  0.32293900  1
  O  O63  1  0.62264300  0.88145500  0.67706100  1
  O  O64  1  0.98387100  0.21650400  0.15526200  1
  O  O65  1  0.01612900  0.78349600  0.84473800  1
  O  O66  1  0.92143300  0.77099600  0.56616600  1
  O  O67  1  0.07856700  0.22900400  0.43383400  1
  O  O68  1  0.32754300  0.97441300  0.51589900  1
  O  O69  1  0.67245700  0.02558700  0.48410100  1
  O  O70  1  0.25041800  0.63975600  0.41817500  1
  O  O71  1  0.74958200  0.36024400  0.58182500  1
  O  O72  1  0.71607000  0.23845700  0.31616100  1
  O  O73  1  0.28393000  0.76154300  0.68383900  1
  O  O74  1  0.88192900  0.55976900  0.46087700  1
  O  O75  1  0.11807100  0.44023100  0.53912300  1
  O  O76  1  0.37855700  0.42527400  0.41986100  1
  O  O77  1  0.62144300  0.57472600  0.58013900  1
  O  O78  1  0.36562400  0.41011700  0.10524900  1
  O  O79  1  0.63437600  0.58988300  0.89475100  1
  O  O80  1  0.25030900  0.62689400  0.19335100  1
  O  O81  1  0.74969100  0.37310600  0.80664900  1
  O  O82  1  0.58087500  0.77101400  0.44727100  1
  O  O83  1  0.41912500  0.22898600  0.55272900  1
  O  O84  1  0.74603300  0.82592200  0.97176700  1
  O  O85  1  0.25396700  0.17407800  0.02823300  1
  O  O86  1  0.64590900  0.09849500  0.11160000  1
  O  O87  1  0.35409100  0.90150500  0.88840000  1
  O  O88  1  0.42839300  0.89175400  0.17658200  1
  O  O89  1  0.57160700  0.10824600  0.82341800  1
  O  O90  1  0.61637600  0.62982800  0.10775600  1
  O  O91  1  0.38362400  0.37017200  0.89224400  1
