# generated using pymatgen
data_CuH3(NO2)3
_symmetry_space_group_name_H-M   'P 1'
_cell_length_a   8.76791300
_cell_length_b   6.77343400
_cell_length_c   9.96731939
_cell_angle_alpha   77.58211633
_cell_angle_beta   90.00000000
_cell_angle_gamma   90.00000000
_symmetry_Int_Tables_number   1
_chemical_formula_structural   CuH3(NO2)3
_chemical_formula_sum   'Cu4 H12 N12 O24'
_cell_volume   578.09943503
_cell_formula_units_Z   4
loop_
 _symmetry_equiv_pos_site_id
 _symmetry_equiv_pos_as_xyz
  1  'x, y, z'
loop_
 _atom_site_type_symbol
 _atom_site_label
 _atom_site_symmetry_multiplicity
 _atom_site_fract_x
 _atom_site_fract_y
 _atom_site_fract_z
 _atom_site_occupancy
  Cu  Cu0  1  0.08180900  0.06264900  0.83348100  1
  Cu  Cu1  1  0.58180900  0.93735100  0.66651900  1
  Cu  Cu2  1  0.91819100  0.93735100  0.16651900  1
  Cu  Cu3  1  0.41819100  0.06264900  0.33348100  1
  H  H4  1  0.16699500  0.30637100  0.61486900  1
  H  H5  1  0.66699500  0.69362900  0.88513100  1
  H  H6  1  0.83300500  0.69362900  0.38513100  1
  H  H7  1  0.33300500  0.30637100  0.11486900  1
  H  H8  1  0.97888500  0.31269000  0.63240100  1
  H  H9  1  0.47888500  0.68731000  0.86759900  1
  H  H10  1  0.02111500  0.68731000  0.36759900  1
  H  H11  1  0.52111500  0.31269000  0.13240100  1
  H  H12  1  0.08997700  0.43405000  0.72158200  1
  H  H13  1  0.58997700  0.56595000  0.77841800  1
  H  H14  1  0.91002300  0.56595000  0.27841800  1
  H  H15  1  0.41002300  0.43405000  0.22158200  1
  N  N16  1  0.08026000  0.30562500  0.68407000  1
  N  N17  1  0.58026000  0.69437500  0.81593000  1
  N  N18  1  0.91974000  0.69437500  0.31593000  1
  N  N19  1  0.41974000  0.30562500  0.18407000  1
  N  N20  1  0.85305700  0.33415700  0.99403100  1
  N  N21  1  0.35305700  0.66584300  0.50596900  1
  N  N22  1  0.14694300  0.66584300  0.00596900  1
  N  N23  1  0.64694300  0.33415700  0.49403100  1
  N  N24  1  0.40121600  0.12792400  0.84348800  1
  N  N25  1  0.90121600  0.87207600  0.65651200  1
  N  N26  1  0.59878400  0.87207600  0.15651200  1
  N  N27  1  0.09878400  0.12792400  0.34348800  1
  O  O28  1  0.93292100  0.16587800  0.00415400  1
  O  O29  1  0.43292100  0.83412200  0.49584600  1
  O  O30  1  0.06707900  0.83412200  0.99584600  1
  O  O31  1  0.56707900  0.16587800  0.50415400  1
  O  O32  1  0.87009500  0.46679800  0.88770600  1
  O  O33  1  0.37009500  0.53320200  0.61229400  1
  O  O34  1  0.12990500  0.53320200  0.11229400  1
  O  O35  1  0.62990500  0.46679800  0.38770600  1
  O  O36  1  0.76735700  0.34958500  0.09097600  1
  O  O37  1  0.26735700  0.65041500  0.40902400  1
  O  O38  1  0.23264300  0.65041500  0.90902400  1
  O  O39  1  0.73264300  0.34958500  0.59097600  1
  O  O40  1  0.38500500  0.04086400  0.74164900  1
  O  O41  1  0.88500500  0.95913600  0.75835100  1
  O  O42  1  0.61499500  0.95913600  0.25835100  1
  O  O43  1  0.11499500  0.04086400  0.24164900  1
  O  O44  1  0.27960000  0.15575800  0.90915100  1
  O  O45  1  0.77960000  0.84424200  0.59084900  1
  O  O46  1  0.72040000  0.84424200  0.09084900  1
  O  O47  1  0.22040000  0.15575800  0.40915100  1
  O  O48  1  0.52695500  0.18196800  0.87844100  1
  O  O49  1  0.02695500  0.81803200  0.62155900  1
  O  O50  1  0.47304500  0.81803200  0.12155900  1
  O  O51  1  0.97304500  0.18196800  0.37844100  1
