# generated using pymatgen
data_NaCa3UH16C3SO25F
_symmetry_space_group_name_H-M   'P 1'
_cell_length_a   9.64256200
_cell_length_b   9.64824090
_cell_length_c   14.26183303
_cell_angle_alpha   87.92323133
_cell_angle_beta   86.47775427
_cell_angle_gamma   60.22917943
_symmetry_Int_Tables_number   1
_chemical_formula_structural   NaCa3UH16C3SO25F
_chemical_formula_sum   'Na2 Ca6 U2 H32 C6 S2 O50 F2'
_cell_volume   1149.51387346
_cell_formula_units_Z   2
loop_
 _symmetry_equiv_pos_site_id
 _symmetry_equiv_pos_as_xyz
  1  'x, y, z'
loop_
 _atom_site_type_symbol
 _atom_site_label
 _atom_site_symmetry_multiplicity
 _atom_site_fract_x
 _atom_site_fract_y
 _atom_site_fract_z
 _atom_site_occupancy
  Na  Na0  1  0.98097200  0.99959900  0.71253200  1
  Na  Na1  1  0.01902800  0.00040100  0.28746800  1
  Ca  Ca2  1  0.66222100  0.88833900  0.76905000  1
  Ca  Ca3  1  0.33777900  0.11166100  0.23095000  1
  Ca  Ca4  1  0.85534900  0.42666100  0.77301800  1
  Ca  Ca5  1  0.14465100  0.57333900  0.22698200  1
  Ca  Ca6  1  0.39690600  0.69343500  0.78114200  1
  Ca  Ca7  1  0.60309400  0.30656500  0.21885800  1
  U  U8  1  0.30025400  0.33581700  0.81832100  1
  U  U9  1  0.69974600  0.66418300  0.18167900  1
  H  H10  1  0.75045600  0.94952700  0.56665000  1
  H  H11  1  0.24954400  0.05047300  0.43335000  1
  H  H12  1  0.69222700  0.11217500  0.61213800  1
  H  H13  1  0.30777300  0.88782500  0.38786200  1
  H  H14  1  0.94307400  0.29674000  0.56694600  1
  H  H15  1  0.05692600  0.70326000  0.43305400  1
  H  H16  1  0.10206900  0.19274200  0.61323000  1
  H  H17  1  0.89793100  0.80725800  0.38677000  1
  H  H18  1  0.28536200  0.76114000  0.57208200  1
  H  H19  1  0.71463800  0.23886000  0.42791800  1
  H  H20  1  0.17817500  0.69931300  0.61635900  1
  H  H21  1  0.82182500  0.30068700  0.38364100  1
  H  H22  1  0.80346400  0.47772500  0.98447200  1
  H  H23  1  0.19653600  0.52227500  0.01552800  1
  H  H24  1  0.92647200  0.29350700  0.96768200  1
  H  H25  1  0.07352800  0.70649300  0.03231800  1
  H  H26  1  0.47057800  0.69120800  0.98097500  1
  H  H27  1  0.52942200  0.30879200  0.01902500  1
  H  H28  1  0.31706500  0.66919400  0.99606500  1
  H  H29  1  0.68293500  0.33080600  0.00393500  1
  H  H30  1  0.63065900  0.00538700  0.41277000  1
  H  H31  1  0.36934100  0.99461300  0.58723000  1
  H  H32  1  0.67884000  0.83274900  0.45455300  1
  H  H33  1  0.32116000  0.16725100  0.54544700  1
  H  H34  1  0.01360900  0.37372400  0.41291000  1
  H  H35  1  0.98639100  0.62627600  0.58709000  1
  H  H36  1  0.83579100  0.49098500  0.45209000  1
  H  H37  1  0.16420900  0.50901500  0.54791000  1
  H  H38  1  0.37765300  0.62338800  0.41251900  1
  H  H39  1  0.62234700  0.37661200  0.58748100  1
  H  H40  1  0.49151600  0.67800500  0.45517000  1
  H  H41  1  0.50848400  0.32199500  0.54483000  1
  C  C42  1  0.04182000  0.66336900  0.80946400  1
  C  C43  1  0.95818000  0.33663100  0.19053600  1
  C  C44  1  0.62971300  0.26436600  0.80183700  1
  C  C45  1  0.37028700  0.73563400  0.19816300  1
  C  C46  1  0.23323100  0.07784400  0.80598400  1
  C  C47  1  0.76676900  0.92215600  0.19401600  1
  S  S48  1  0.65369200  0.66853700  0.61132100  1
  S  S49  1  0.34630800  0.33146300  0.38867900  1
  O  O50  1  0.28736500  0.34282800  0.94861900  1
  O  O51  1  0.71263500  0.65717200  0.05138100  1
  O  O52  1  0.31127000  0.33564900  0.69068600  1
  O  O53  1  0.68873000  0.66435100  0.30931400  1
  O  O54  1  0.01791100  0.54044100  0.81335400  1
  O  O55  1  0.98208900  0.45955900  0.18664600  1
  O  O56  1  0.19228400  0.62426500  0.81486400  1
  O  O57  1  0.80771600  0.37573500  0.18513600  1
  O  O58  1  0.93051600  0.80644900  0.80115900  1
  O  O59  1  0.06948400  0.19355100  0.19884100  1
  O  O60  1  0.50834600  0.40977000  0.81078400  1
  O  O61  1  0.49165400  0.59023000  0.18921600  1
  O  O62  1  0.58875600  0.15300100  0.81266200  1
  O  O63  1  0.41124400  0.84699900  0.18733800  1
  O  O64  1  0.77184900  0.23315000  0.78343400  1
  O  O65  1  0.22815100  0.76685000  0.21656600  1
  O  O66  1  0.37908300  0.05416200  0.81024400  1
  O  O67  1  0.62091700  0.94583800  0.18975600  1
  O  O68  1  0.12133200  0.22812300  0.81619100  1
  O  O69  1  0.87866800  0.77187700  0.18380900  1
  O  O70  1  0.20248800  0.96778900  0.79209000  1
  O  O71  1  0.79751200  0.03221100  0.20791000  1
  O  O72  1  0.62959200  0.53527400  0.64999500  1
  O  O73  1  0.37040800  0.46472600  0.35000500  1
  O  O74  1  0.51779600  0.82334800  0.64786400  1
  O  O75  1  0.48220400  0.17665200  0.35213600  1
  O  O76  1  0.80536000  0.64866800  0.64782100  1
  O  O77  1  0.19464000  0.35133200  0.35217900  1
  O  O78  1  0.66221600  0.66776400  0.50720800  1
  O  O79  1  0.33778400  0.33223600  0.49279200  1
  O  O80  1  0.74434900  0.99547500  0.62843300  1
  O  O81  1  0.25565100  0.00452500  0.37156700  1
  O  O82  1  0.98482300  0.25383500  0.62939300  1
  O  O83  1  0.01517700  0.74616500  0.37060700  1
  O  O84  1  0.23463200  0.75707700  0.63361700  1
  O  O85  1  0.76536800  0.24292300  0.36638300  1
  O  O86  1  0.64419700  0.92781700  0.95057000  1
  O  O87  1  0.35580300  0.07218300  0.04943000  1
  O  O88  1  0.82701300  0.38373700  0.94691400  1
  O  O89  1  0.17298700  0.61626300  0.05308600  1
  O  O90  1  0.38136400  0.69563300  0.94959800  1
  O  O91  1  0.61863600  0.30436700  0.05040200  1
  O  O92  1  0.71493800  0.91244300  0.44577400  1
  O  O93  1  0.28506200  0.08755700  0.55422600  1
  O  O94  1  0.91757300  0.37729800  0.44436700  1
  O  O95  1  0.08242700  0.62270200  0.55563300  1
  O  O96  1  0.37840100  0.71125900  0.44564000  1
  O  O97  1  0.62159900  0.28874100  0.55436000  1
  O  O98  1  0.97102600  0.95839800  0.99065500  1
  O  O99  1  0.02897400  0.04160200  0.00934500  1
  F  F100  1  0.63851200  0.67101500  0.82246200  1
  F  F101  1  0.36148800  0.32898500  0.17753800  1
