# generated using pymatgen
data_CdH24C4(BrN2)6
_symmetry_space_group_name_H-M   'P 1'
_cell_length_a   19.70182700
_cell_length_b   8.36206000
_cell_length_c   15.17317193
_cell_angle_alpha   76.83052661
_cell_angle_beta   90.00000000
_cell_angle_gamma   90.00000000
_symmetry_Int_Tables_number   1
_chemical_formula_structural   CdH24C4(BrN2)6
_chemical_formula_sum   'Cd4 H96 C16 Br24 N48'
_cell_volume   2434.00530475
_cell_formula_units_Z   4
loop_
 _symmetry_equiv_pos_site_id
 _symmetry_equiv_pos_as_xyz
  1  'x, y, z'
loop_
 _atom_site_type_symbol
 _atom_site_label
 _atom_site_symmetry_multiplicity
 _atom_site_fract_x
 _atom_site_fract_y
 _atom_site_fract_z
 _atom_site_occupancy
  Cd  Cd0  1  0.11531100  0.94540600  0.26607900  1
  Cd  Cd1  1  0.61531100  0.55459400  0.23392100  1
  Cd  Cd2  1  0.88468900  0.05459400  0.73392100  1
  Cd  Cd3  1  0.38468900  0.44540600  0.76607900  1
  H  H4  1  0.81149400  0.83419600  0.46184100  1
  H  H5  1  0.31149400  0.66580400  0.03815900  1
  H  H6  1  0.18850600  0.16580400  0.53815900  1
  H  H7  1  0.68850600  0.33419600  0.96184100  1
  H  H8  1  0.76852000  0.75309800  0.37951700  1
  H  H9  1  0.26852000  0.74690200  0.12048300  1
  H  H10  1  0.23148000  0.24690200  0.62048300  1
  H  H11  1  0.73148000  0.25309800  0.87951700  1
  H  H12  1  0.71386100  0.94569800  0.25823600  1
  H  H13  1  0.21386100  0.55430200  0.24176400  1
  H  H14  1  0.28613900  0.05430200  0.74176400  1
  H  H15  1  0.78613900  0.44569800  0.75823600  1
  H  H16  1  0.69373600  0.13677700  0.27727500  1
  H  H17  1  0.19373600  0.36322300  0.22272500  1
  H  H18  1  0.30626400  0.86322300  0.72272500  1
  H  H19  1  0.80626400  0.63677700  0.77727500  1
  H  H20  1  0.76318000  0.24479900  0.38063900  1
  H  H21  1  0.26318000  0.25520100  0.11936100  1
  H  H22  1  0.23682000  0.75520100  0.61936100  1
  H  H23  1  0.73682000  0.74479900  0.88063900  1
  H  H24  1  0.80237900  0.09948100  0.46742700  1
  H  H25  1  0.30237900  0.40051900  0.03257300  1
  H  H26  1  0.19762100  0.90051900  0.53257300  1
  H  H27  1  0.69762100  0.59948100  0.96742700  1
  H  H28  1  0.95182400  0.65913500  0.68853700  1
  H  H29  1  0.45182400  0.84086500  0.81146300  1
  H  H30  1  0.04817600  0.34086500  0.31146300  1
  H  H31  1  0.54817600  0.15913500  0.18853700  1
  H  H32  1  0.97701400  0.45649000  0.72717000  1
  H  H33  1  0.47701400  0.04351000  0.77283000  1
  H  H34  1  0.02298600  0.54351000  0.27283000  1
  H  H35  1  0.52298600  0.95649000  0.22717000  1
  H  H36  1  0.05037300  0.33954000  0.62855500  1
  H  H37  1  0.55037300  0.16046000  0.87144500  1
  H  H38  1  0.94962700  0.66046000  0.37144500  1
  H  H39  1  0.44962700  0.83954000  0.12855500  1
  H  H40  1  0.08934400  0.47811000  0.53904500  1
  H  H41  1  0.58934400  0.02189000  0.96095500  1
  H  H42  1  0.91065600  0.52189000  0.46095500  1
  H  H43  1  0.41065600  0.97811000  0.03904500  1
  H  H44  1  0.00614300  0.83232100  0.56561600  1
  H  H45  1  0.50614300  0.66767900  0.93438400  1
  H  H46  1  0.99385700  0.16767900  0.43438400  1
  H  H47  1  0.49385700  0.33232100  0.06561600  1
  H  H48  1  0.05892200  0.74195400  0.49702100  1
  H  H49  1  0.55892200  0.75804600  0.00297900  1
  H  H50  1  0.94107800  0.25804600  0.50297900  1
  H  H51  1  0.44107800  0.24195400  0.99702100  1
  H  H52  1  0.93945400  0.09215200  0.00968200  1
  H  H53  1  0.43945400  0.40784800  0.49031800  1
  H  H54  1  0.06054600  0.90784800  0.99031800  1
  H  H55  1  0.56054600  0.59215200  0.50968200  1
  H  H56  1  0.97212400  0.97343100  0.11177500  1
  H  H57  1  0.47212400  0.52656900  0.38822500  1
  H  H58  1  0.02787600  0.02656900  0.88822500  1
  H  H59  1  0.52787600  0.47343100  0.61177500  1
  H  H60  1  0.81718200  0.78735300  0.19167500  1
  H  H61  1  0.31718200  0.71264700  0.30832500  1
  H  H62  1  0.18281800  0.21264700  0.80832500  1
  H  H63  1  0.68281800  0.28735300  0.69167500  1
  H  H64  1  0.89123700  0.87103000  0.22648500  1
  H  H65  1  0.39123700  0.62897000  0.27351500  1
  H  H66  1  0.10876300  0.12897000  0.77351500  1
  H  H67  1  0.60876300  0.37103000  0.72648500  1
  H  H68  1  0.83147300  0.01278400  0.96236600  1
  H  H69  1  0.33147300  0.48721600  0.53763400  1
  H  H70  1  0.16852700  0.98721600  0.03763400  1
  H  H71  1  0.66852700  0.51278400  0.46236600  1
  H  H72  1  0.77171800  0.94046800  0.04863100  1
  H  H73  1  0.27171800  0.55953200  0.45136900  1
  H  H74  1  0.22828200  0.05953200  0.95136900  1
  H  H75  1  0.72828200  0.44046800  0.54863100  1
  H  H76  1  0.16674800  0.41118200  0.98655700  1
  H  H77  1  0.66674800  0.08881800  0.51344300  1
  H  H78  1  0.83325200  0.58881800  0.01344300  1
  H  H79  1  0.33325200  0.91118200  0.48655700  1
  H  H80  1  0.21740800  0.50451100  0.89431300  1
  H  H81  1  0.71740800  0.99548900  0.60568700  1
  H  H82  1  0.78259200  0.49548900  0.10568700  1
  H  H83  1  0.28259200  0.00451100  0.39431300  1
  H  H84  1  0.16952200  0.69951000  0.77840900  1
  H  H85  1  0.66952200  0.80049000  0.72159100  1
  H  H86  1  0.83047800  0.30049000  0.22159100  1
  H  H87  1  0.33047800  0.19951000  0.27840900  1
  H  H88  1  0.08237100  0.73207500  0.76867600  1
  H  H89  1  0.58237100  0.76792500  0.73132400  1
  H  H90  1  0.91762900  0.26792500  0.23132400  1
  H  H91  1  0.41762900  0.23207500  0.26867600  1
  H  H92  1  0.05199200  0.43416200  0.97753700  1
  H  H93  1  0.55199200  0.06583800  0.52246300  1
  H  H94  1  0.94800800  0.56583800  0.02246300  1
  H  H95  1  0.44800800  0.93416200  0.47753700  1
  H  H96  1  0.01266600  0.59356900  0.89645200  1
  H  H97  1  0.51266600  0.90643100  0.60354800  1
  H  H98  1  0.98733400  0.40643100  0.10354800  1
  H  H99  1  0.48733400  0.09356900  0.39645200  1
  C  C100  1  0.75995300  0.00347200  0.36815900  1
  C  C101  1  0.25995300  0.49652800  0.13184100  1
  C  C102  1  0.24004700  0.99652800  0.63184100  1
  C  C103  1  0.74004700  0.50347200  0.86815900  1
  C  C104  1  0.02477900  0.58527500  0.61189600  1
  C  C105  1  0.52477900  0.91472500  0.88810400  1
  C  C106  1  0.97522100  0.41472500  0.38810400  1
  C  C107  1  0.47522100  0.08527500  0.11189600  1
  C  C108  1  0.86959700  0.95134300  0.09187700  1
  C  C109  1  0.36959700  0.54865700  0.40812300  1
  C  C110  1  0.13040300  0.04865700  0.90812300  1
  C  C111  1  0.63040300  0.45134300  0.59187700  1
  C  C112  1  0.11603400  0.56606200  0.88388800  1
  C  C113  1  0.61603400  0.93393800  0.61611200  1
  C  C114  1  0.88396600  0.43393800  0.11611200  1
  C  C115  1  0.38396600  0.06606200  0.38388800  1
  Br  Br116  1  0.25211900  0.96310300  0.20115100  1
  Br  Br117  1  0.75211900  0.53689700  0.29884900  1
  Br  Br118  1  0.74788100  0.03689700  0.79884900  1
  Br  Br119  1  0.24788100  0.46310300  0.70115100  1
  Br  Br120  1  0.97764100  0.94994900  0.32512600  1
  Br  Br121  1  0.47764100  0.55005100  0.17487400  1
  Br  Br122  1  0.02235900  0.05005100  0.67487400  1
  Br  Br123  1  0.52235900  0.44994900  0.82512600  1
  Br  Br124  1  0.09106100  0.24497700  0.12755400  1
  Br  Br125  1  0.59106100  0.25502300  0.37244600  1
  Br  Br126  1  0.90893900  0.75502300  0.87244600  1
  Br  Br127  1  0.40893900  0.74497700  0.62755400  1
  Br  Br128  1  0.15578900  0.66202100  0.40181700  1
  Br  Br129  1  0.65578900  0.83797900  0.09818300  1
  Br  Br130  1  0.84421100  0.33797900  0.59818300  1
  Br  Br131  1  0.34421100  0.16202100  0.90181700  1
  Br  Br132  1  0.07645500  0.75705300  0.14864600  1
  Br  Br133  1  0.57645500  0.74294700  0.35135400  1
  Br  Br134  1  0.92354500  0.24294700  0.85135400  1
  Br  Br135  1  0.42354500  0.25705300  0.64864600  1
  Br  Br136  1  0.14801900  0.14237600  0.38571300  1
  Br  Br137  1  0.64801900  0.35762400  0.11428700  1
  Br  Br138  1  0.85198100  0.85762400  0.61428700  1
  Br  Br139  1  0.35198100  0.64237600  0.88571300  1
  N  N140  1  0.78416600  0.85286600  0.40290300  1
  N  N141  1  0.28416600  0.64713400  0.09709700  1
  N  N142  1  0.21583400  0.14713400  0.59709700  1
  N  N143  1  0.71583400  0.35286600  0.90290300  1
  N  N144  1  0.72526800  0.03708900  0.29004900  1
  N  N145  1  0.22526800  0.46291100  0.20995100  1
  N  N146  1  0.27473200  0.96291100  0.70995100  1
  N  N147  1  0.77473200  0.53708900  0.79004900  1
  N  N148  1  0.77268300  0.12412400  0.41099800  1
  N  N149  1  0.27268300  0.37587600  0.08900200  1
  N  N150  1  0.22731700  0.87587600  0.58900200  1
  N  N151  1  0.72731700  0.62412400  0.91099800  1
  N  N152  1  0.98678900  0.56977600  0.68681700  1
  N  N153  1  0.48678900  0.93022400  0.81318300  1
  N  N154  1  0.01321100  0.43022400  0.31318300  1
  N  N155  1  0.51321100  0.06977600  0.18681700  1
  N  N156  1  0.06150000  0.45863700  0.59722800  1
  N  N157  1  0.56150000  0.04136300  0.90277200  1
  N  N158  1  0.93850000  0.54136300  0.40277200  1
  N  N159  1  0.43850000  0.95863700  0.09722800  1
  N  N160  1  0.02878000  0.73056300  0.55282100  1
  N  N161  1  0.52878000  0.76943700  0.94717900  1
  N  N162  1  0.97122000  0.26943700  0.44717900  1
  N  N163  1  0.47122000  0.23056300  0.05282100  1
  N  N164  1  0.93136100  0.01577900  0.07161400  1
  N  N165  1  0.43136100  0.48422100  0.42838600  1
  N  N166  1  0.06863900  0.98422100  0.92838600  1
  N  N167  1  0.56863900  0.51577900  0.57161400  1
  N  N168  1  0.85705100  0.86631900  0.17641800  1
  N  N169  1  0.35705100  0.63368100  0.32358200  1
  N  N170  1  0.14294900  0.13368100  0.82358200  1
  N  N171  1  0.64294900  0.36631900  0.67641800  1
  N  N172  1  0.82034300  0.97498900  0.02951600  1
  N  N173  1  0.32034300  0.52501100  0.47048400  1
  N  N174  1  0.17965700  0.02501100  0.97048400  1
  N  N175  1  0.67965700  0.47498900  0.52951600  1
  N  N176  1  0.17132500  0.49188400  0.92540500  1
  N  N177  1  0.67132500  0.00811600  0.57459500  1
  N  N178  1  0.82867500  0.50811600  0.07459500  1
  N  N179  1  0.32867500  0.99188400  0.42540500  1
  N  N180  1  0.12262500  0.67660600  0.80532600  1
  N  N181  1  0.62262500  0.82339400  0.69467400  1
  N  N182  1  0.87737500  0.32339400  0.19467400  1
  N  N183  1  0.37737500  0.17660600  0.30532600  1
  N  N184  1  0.05533700  0.52943200  0.92207900  1
  N  N185  1  0.55533700  0.97056800  0.57792100  1
  N  N186  1  0.94466300  0.47056800  0.07792100  1
  N  N187  1  0.44466300  0.02943200  0.42207900  1
