# generated using pymatgen
data_GeH12(NF2)4
_symmetry_space_group_name_H-M   'P 1'
_cell_length_a   6.29426000
_cell_length_b   11.94228200
_cell_length_c   13.66785500
_cell_angle_alpha   90.00000000
_cell_angle_beta   90.00000000
_cell_angle_gamma   90.00000000
_symmetry_Int_Tables_number   1
_chemical_formula_structural   GeH12(NF2)4
_chemical_formula_sum   'Ge4 H48 N16 F32'
_cell_volume   1027.38297242
_cell_formula_units_Z   4
loop_
 _symmetry_equiv_pos_site_id
 _symmetry_equiv_pos_as_xyz
  1  'x, y, z'
loop_
 _atom_site_type_symbol
 _atom_site_label
 _atom_site_symmetry_multiplicity
 _atom_site_fract_x
 _atom_site_fract_y
 _atom_site_fract_z
 _atom_site_occupancy
  Ge  Ge0  1  0.25000000  0.65312900  0.25000000  1
  Ge  Ge1  1  0.75000000  0.84687100  0.75000000  1
  Ge  Ge2  1  0.75000000  0.34687100  0.75000000  1
  Ge  Ge3  1  0.25000000  0.15312900  0.25000000  1
  H  H4  1  0.92215500  0.75837800  0.14539000  1
  H  H5  1  0.57784500  0.75837800  0.35461000  1
  H  H6  1  0.42215500  0.74162200  0.85461000  1
  H  H7  1  0.07784500  0.74162200  0.64539000  1
  H  H8  1  0.07784500  0.24162200  0.85461000  1
  H  H9  1  0.42215500  0.24162200  0.64539000  1
  H  H10  1  0.57784500  0.25837800  0.14539000  1
  H  H11  1  0.92215500  0.25837800  0.35461000  1
  H  H12  1  0.47078600  0.92034200  0.57042800  1
  H  H13  1  0.02921400  0.92034200  0.92957200  1
  H  H14  1  0.97078600  0.57965800  0.42957200  1
  H  H15  1  0.52921400  0.57965800  0.07042800  1
  H  H16  1  0.52921400  0.07965800  0.42957200  1
  H  H17  1  0.97078600  0.07965800  0.07042800  1
  H  H18  1  0.02921400  0.42034200  0.57042800  1
  H  H19  1  0.47078600  0.42034200  0.92957200  1
  H  H20  1  0.61927400  0.41013100  0.42148500  1
  H  H21  1  0.88072600  0.41013100  0.07851500  1
  H  H22  1  0.11927400  0.08986900  0.57851500  1
  H  H23  1  0.38072600  0.08986900  0.92148500  1
  H  H24  1  0.38072600  0.58986900  0.57851500  1
  H  H25  1  0.11927400  0.58986900  0.92148500  1
  H  H26  1  0.88072600  0.91013100  0.42148500  1
  H  H27  1  0.61927400  0.91013100  0.07851500  1
  H  H28  1  0.41934200  0.86488200  0.14924900  1
  H  H29  1  0.08065800  0.86488200  0.35075100  1
  H  H30  1  0.91934200  0.63511800  0.85075100  1
  H  H31  1  0.58065800  0.63511800  0.64924900  1
  H  H32  1  0.58065800  0.13511800  0.85075100  1
  H  H33  1  0.91934200  0.13511800  0.64924900  1
  H  H34  1  0.08065800  0.36488200  0.14924900  1
  H  H35  1  0.41934200  0.36488200  0.35075100  1
  H  H36  1  0.87153100  0.03392300  0.56647600  1
  H  H37  1  0.62846900  0.03392300  0.93352400  1
  H  H38  1  0.37153100  0.46607700  0.43352400  1
  H  H39  1  0.12846900  0.46607700  0.06647600  1
  H  H40  1  0.12846900  0.96607700  0.43352400  1
  H  H41  1  0.37153100  0.96607700  0.06647600  1
  H  H42  1  0.62846900  0.53392300  0.56647600  1
  H  H43  1  0.87153100  0.53392300  0.93352400  1
  H  H44  1  0.07864200  0.83484400  0.47197800  1
  H  H45  1  0.42135800  0.83484400  0.02802200  1
  H  H46  1  0.57864200  0.66515600  0.52802200  1
  H  H47  1  0.92135800  0.66515600  0.97197800  1
  H  H48  1  0.92135800  0.16515600  0.52802200  1
  H  H49  1  0.57864200  0.16515600  0.97197800  1
  H  H50  1  0.42135800  0.33484400  0.47197800  1
  H  H51  1  0.07864200  0.33484400  0.02802200  1
  N  N52  1  0.57964800  0.01701500  0.47748700  1
  N  N53  1  0.92035200  0.01701500  0.02251300  1
  N  N54  1  0.07964800  0.48298500  0.52251300  1
  N  N55  1  0.42035200  0.48298500  0.97748700  1
  N  N56  1  0.42035200  0.98298500  0.52251300  1
  N  N57  1  0.07964800  0.98298500  0.97748700  1
  N  N58  1  0.92035200  0.51701500  0.47748700  1
  N  N59  1  0.57964800  0.51701500  0.02251300  1
  N  N60  1  0.04193900  0.89445200  0.41954500  1
  N  N61  1  0.45806100  0.89445200  0.08045500  1
  N  N62  1  0.54193900  0.60554800  0.58045500  1
  N  N63  1  0.95806100  0.60554800  0.91954500  1
  N  N64  1  0.95806100  0.10554800  0.58045500  1
  N  N65  1  0.54193900  0.10554800  0.91954500  1
  N  N66  1  0.45806100  0.39445200  0.41954500  1
  N  N67  1  0.04193900  0.39445200  0.08045500  1
  F  F68  1  0.21105700  0.66274700  0.38160400  1
  F  F69  1  0.28894300  0.66274700  0.11839600  1
  F  F70  1  0.71105700  0.83725300  0.61839600  1
  F  F71  1  0.78894300  0.83725300  0.88160400  1
  F  F72  1  0.78894300  0.33725300  0.61839600  1
  F  F73  1  0.71105700  0.33725300  0.88160400  1
  F  F74  1  0.28894300  0.16274700  0.38160400  1
  F  F75  1  0.21105700  0.16274700  0.11839600  1
  F  F76  1  0.45762400  0.55094600  0.26307200  1
  F  F77  1  0.04237600  0.55094600  0.23692800  1
  F  F78  1  0.95762400  0.94905400  0.73692800  1
  F  F79  1  0.54237600  0.94905400  0.76307200  1
  F  F80  1  0.54237600  0.44905400  0.73692800  1
  F  F81  1  0.95762400  0.44905400  0.76307200  1
  F  F82  1  0.04237600  0.05094600  0.26307200  1
  F  F83  1  0.45762400  0.05094600  0.23692800  1
  F  F84  1  0.45121800  0.77120900  0.26555100  1
  F  F85  1  0.04878200  0.77120900  0.23444900  1
  F  F86  1  0.95121800  0.72879100  0.73444900  1
  F  F87  1  0.54878200  0.72879100  0.76555100  1
  F  F88  1  0.54878200  0.22879100  0.73444900  1
  F  F89  1  0.95121800  0.22879100  0.76555100  1
  F  F90  1  0.04878200  0.27120900  0.26555100  1
  F  F91  1  0.45121800  0.27120900  0.23444900  1
  F  F92  1  0.16169900  0.74560400  0.58409200  1
  F  F93  1  0.33830100  0.74560400  0.91590800  1
  F  F94  1  0.66169900  0.75439600  0.41590800  1
  F  F95  1  0.83830100  0.75439600  0.08409200  1
  F  F96  1  0.83830100  0.25439600  0.41590800  1
  F  F97  1  0.66169900  0.25439600  0.08409200  1
  F  F98  1  0.33830100  0.24560400  0.58409200  1
  F  F99  1  0.16169900  0.24560400  0.91590800  1
