# generated using pymatgen
data_FeH16C4(NCl2)2
_symmetry_space_group_name_H-M   'P 1'
_cell_length_a   11.42494100
_cell_length_b   7.98915600
_cell_length_c   16.00947027
_cell_angle_alpha   65.81705754
_cell_angle_beta   90.00000000
_cell_angle_gamma   90.00000000
_symmetry_Int_Tables_number   1
_chemical_formula_structural   FeH16C4(NCl2)2
_chemical_formula_sum   'Fe4 H64 C16 N8 Cl16'
_cell_volume   1333.03621167
_cell_formula_units_Z   4
loop_
 _symmetry_equiv_pos_site_id
 _symmetry_equiv_pos_as_xyz
  1  'x, y, z'
loop_
 _atom_site_type_symbol
 _atom_site_label
 _atom_site_symmetry_multiplicity
 _atom_site_fract_x
 _atom_site_fract_y
 _atom_site_fract_z
 _atom_site_occupancy
  Fe  Fe0  1  0.79615300  0.25513800  0.95381200  1
  Fe  Fe1  1  0.70384700  0.25513800  0.45381200  1
  Fe  Fe2  1  0.20384700  0.74486200  0.04618800  1
  Fe  Fe3  1  0.29615300  0.74486200  0.54618800  1
  H  H4  1  0.72673000  0.81821700  0.06870200  1
  H  H5  1  0.77327000  0.81821700  0.56870200  1
  H  H6  1  0.27327000  0.18178300  0.93129800  1
  H  H7  1  0.22673000  0.18178300  0.43129800  1
  H  H8  1  0.72605500  0.67138100  0.01634000  1
  H  H9  1  0.77394500  0.67138100  0.51634000  1
  H  H10  1  0.27394500  0.32861900  0.98366000  1
  H  H11  1  0.22605500  0.32861900  0.48366000  1
  H  H12  1  0.04227000  0.96451200  0.87957000  1
  H  H13  1  0.45773000  0.96451200  0.37957000  1
  H  H14  1  0.95773000  0.03548800  0.12043000  1
  H  H15  1  0.54227000  0.03548800  0.62043000  1
  H  H16  1  0.90260400  0.00213800  0.84695800  1
  H  H17  1  0.59739600  0.00213800  0.34695800  1
  H  H18  1  0.09739600  0.99786200  0.15304200  1
  H  H19  1  0.40260400  0.99786200  0.65304200  1
  H  H20  1  0.68904800  0.41388500  0.15889200  1
  H  H21  1  0.81095200  0.41388500  0.65889200  1
  H  H22  1  0.31095200  0.58611500  0.84110800  1
  H  H23  1  0.18904800  0.58611500  0.34110800  1
  H  H24  1  0.81781400  0.53589200  0.16549200  1
  H  H25  1  0.68218600  0.53589200  0.66549200  1
  H  H26  1  0.18218600  0.46410800  0.83450800  1
  H  H27  1  0.31781400  0.46410800  0.33450800  1
  H  H28  1  0.68379300  0.56724900  0.21517700  1
  H  H29  1  0.81620700  0.56724900  0.71517700  1
  H  H30  1  0.31620700  0.43275100  0.78482300  1
  H  H31  1  0.18379300  0.43275100  0.28482300  1
  H  H32  1  0.52400700  0.75523800  0.10931700  1
  H  H33  1  0.97599300  0.75523800  0.60931700  1
  H  H34  1  0.47599300  0.24476200  0.89068300  1
  H  H35  1  0.02400700  0.24476200  0.39068300  1
  H  H36  1  0.54788800  0.83590100  0.98835700  1
  H  H37  1  0.95211200  0.83590100  0.48835700  1
  H  H38  1  0.45211200  0.16409900  0.01164300  1
  H  H39  1  0.04788800  0.16409900  0.51164300  1
  H  H40  1  0.52408100  0.59619000  0.05678300  1
  H  H41  1  0.97591900  0.59619000  0.55678300  1
  H  H42  1  0.47591900  0.40381000  0.94321700  1
  H  H43  1  0.02408100  0.40381000  0.44321700  1
  H  H44  1  0.95659500  0.15905500  0.68909600  1
  H  H45  1  0.54340500  0.15905500  0.18909600  1
  H  H46  1  0.04340500  0.84094500  0.31090400  1
  H  H47  1  0.45659500  0.84094500  0.81090400  1
  H  H48  1  0.02138400  0.26054600  0.76018500  1
  H  H49  1  0.47861600  0.26054600  0.26018500  1
  H  H50  1  0.97861600  0.73945400  0.23981500  1
  H  H51  1  0.52138400  0.73945400  0.73981500  1
  H  H52  1  0.10799100  0.11867900  0.72185000  1
  H  H53  1  0.39200900  0.11867900  0.22185000  1
  H  H54  1  0.89200900  0.88132100  0.27815000  1
  H  H55  1  0.60799100  0.88132100  0.77815000  1
  H  H56  1  0.07008100  0.78661300  0.78739200  1
  H  H57  1  0.42991900  0.78661300  0.28739200  1
  H  H58  1  0.92991900  0.21338700  0.21260800  1
  H  H59  1  0.57008100  0.21338700  0.71260800  1
  H  H60  1  0.96708700  0.69000400  0.88041300  1
  H  H61  1  0.53291300  0.69000400  0.38041300  1
  H  H62  1  0.03291300  0.30999600  0.11958700  1
  H  H63  1  0.46708700  0.30999600  0.61958700  1
  H  H64  1  0.91527900  0.81293700  0.76553000  1
  H  H65  1  0.58472100  0.81293700  0.26553000  1
  H  H66  1  0.08472100  0.18706300  0.23447000  1
  H  H67  1  0.41527900  0.18706300  0.73447000  1
  C  C68  1  0.72246700  0.54223700  0.15874000  1
  C  C69  1  0.77753300  0.54223700  0.65874000  1
  C  C70  1  0.27753300  0.45776300  0.84126000  1
  C  C71  1  0.22246700  0.45776300  0.34126000  1
  C  C72  1  0.56265400  0.72261800  0.05518300  1
  C  C73  1  0.93734600  0.72261800  0.55518300  1
  C  C74  1  0.43734600  0.27738200  0.94481700  1
  C  C75  1  0.06265400  0.27738200  0.44481700  1
  C  C76  1  0.02071100  0.14131100  0.74311300  1
  C  C77  1  0.47928900  0.14131100  0.24311300  1
  C  C78  1  0.97928900  0.85868900  0.25688700  1
  C  C79  1  0.52071100  0.85868900  0.75688700  1
  C  C80  1  0.98492400  0.80342600  0.81433200  1
  C  C81  1  0.51507600  0.80342600  0.31433200  1
  C  C82  1  0.01507600  0.19657400  0.18566800  1
  C  C83  1  0.48492400  0.19657400  0.68566800  1
  N  N84  1  0.69114100  0.69678900  0.07048700  1
  N  N85  1  0.80885900  0.69678900  0.57048700  1
  N  N86  1  0.30885900  0.30321100  0.92951300  1
  N  N87  1  0.19114100  0.30321100  0.42951300  1
  N  N88  1  0.98551500  0.97825900  0.82648100  1
  N  N89  1  0.51448500  0.97825900  0.32648100  1
  N  N90  1  0.01448500  0.02174100  0.17351900  1
  N  N91  1  0.48551500  0.02174100  0.67351900  1
  Cl  Cl92  1  0.99547400  0.26961600  0.94190000  1
  Cl  Cl93  1  0.50452600  0.26961600  0.44190000  1
  Cl  Cl94  1  0.00452600  0.73038400  0.05810000  1
  Cl  Cl95  1  0.49547400  0.73038400  0.55810000  1
  Cl  Cl96  1  0.73684100  0.07056700  0.10198800  1
  Cl  Cl97  1  0.76315900  0.07056700  0.60198800  1
  Cl  Cl98  1  0.26315900  0.92943300  0.89801200  1
  Cl  Cl99  1  0.23684100  0.92943300  0.39801200  1
  Cl  Cl100  1  0.72898400  0.10043700  0.86890600  1
  Cl  Cl101  1  0.77101600  0.10043700  0.36890600  1
  Cl  Cl102  1  0.27101600  0.89956300  0.13109400  1
  Cl  Cl103  1  0.22898400  0.89956300  0.63109400  1
  Cl  Cl104  1  0.71726100  0.54101000  0.91232900  1
  Cl  Cl105  1  0.78273900  0.54101000  0.41232900  1
  Cl  Cl106  1  0.28273900  0.45899000  0.08767100  1
  Cl  Cl107  1  0.21726100  0.45899000  0.58767100  1
