# generated using pymatgen
data_Sr3Tm3Al4Si8N17O4
_symmetry_space_group_name_H-M   'P 1'
_cell_length_a   6.09035600
_cell_length_b   6.41874240
_cell_length_c   28.52352226
_cell_angle_alpha   87.10526918
_cell_angle_beta   87.98797359
_cell_angle_gamma   65.59773498
_symmetry_Int_Tables_number   1
_chemical_formula_structural   Sr3Tm3Al4Si8N17O4
_chemical_formula_sum   'Sr6 Tm6 Al8 Si16 N34 O8'
_cell_volume   1014.02286635
_cell_formula_units_Z   2
loop_
 _symmetry_equiv_pos_site_id
 _symmetry_equiv_pos_as_xyz
  1  'x, y, z'
loop_
 _atom_site_type_symbol
 _atom_site_label
 _atom_site_symmetry_multiplicity
 _atom_site_fract_x
 _atom_site_fract_y
 _atom_site_fract_z
 _atom_site_occupancy
  Sr  Sr0  1  0.39283300  0.32328300  0.62223500  1
  Sr  Sr1  1  0.35413300  0.25084400  0.96288700  1
  Sr  Sr2  1  0.22771300  0.37876200  0.29791800  1
  Sr  Sr3  1  0.69729100  0.58398300  0.45030400  1
  Sr  Sr4  1  0.67086500  0.72752800  0.12589600  1
  Sr  Sr5  1  0.68573300  0.60870100  0.79074100  1
  Tm  Tm6  1  0.22324900  0.40071500  0.08013700  1
  Tm  Tm7  1  0.37758300  0.14121500  0.41550200  1
  Tm  Tm8  1  0.44680100  0.16399900  0.74313300  1
  Tm  Tm9  1  0.76542400  0.55433500  0.92539300  1
  Tm  Tm10  1  0.73318600  0.63630600  0.56925100  1
  Tm  Tm11  1  0.62431100  0.79560700  0.24485900  1
  Al  Al12  1  0.68049300  0.23598000  0.19995800  1
  Al  Al13  1  0.65766500  0.13982100  0.51879800  1
  Al  Al14  1  0.88405200  0.80291300  0.68998800  1
  Al  Al15  1  0.75375500  0.87023600  0.34753900  1
  Al  Al16  1  0.88260800  0.80920000  0.01287000  1
  Al  Al17  1  0.35733800  0.84070900  0.67902200  1
  Al  Al18  1  0.37478200  0.75211100  0.35206300  1
  Al  Al19  1  0.35983400  0.81734800  0.02302700  1
  Si  Si20  1  0.96524200  0.04266400  0.75806500  1
  Si  Si21  1  0.99823800  0.95743100  0.93433400  1
  Si  Si22  1  0.66938500  0.14583700  0.85110900  1
  Si  Si23  1  0.14859200  0.15986100  0.51786000  1
  Si  Si24  1  0.23986500  0.15698700  0.18682900  1
  Si  Si25  1  0.99830900  0.99118700  0.42705600  1
  Si  Si26  1  0.14188900  0.20071800  0.85015500  1
  Si  Si27  1  0.06143000  0.01891200  0.09880800  1
  Si  Si28  1  0.22055000  0.57750900  0.52786300  1
  Si  Si29  1  0.19991000  0.66363200  0.19157400  1
  Si  Si30  1  0.25080100  0.56512800  0.87134000  1
  Si  Si31  1  0.85068100  0.39260600  0.67290500  1
  Si  Si32  1  0.76880900  0.34316000  0.34958000  1
  Si  Si33  1  0.80113800  0.38751000  0.03387800  1
  Si  Si34  1  0.98790600  0.94430800  0.60504900  1
  Si  Si35  1  0.10469100  0.91320000  0.27767300  1
  N  N36  1  0.47837800  0.49985900  0.02762500  1
  N  N37  1  0.06727200  0.17515700  0.90991600  1
  N  N38  1  0.66760300  0.34037000  0.98665500  1
  N  N39  1  0.94141300  0.11674900  0.81847300  1
  N  N40  1  0.12151500  0.12592200  0.58315000  1
  N  N41  1  0.89084400  0.29533500  0.61096600  1
  N  N42  1  0.96125300  0.05805700  0.48840600  1
  N  N43  1  0.21215700  0.08483500  0.24589500  1
  N  N44  1  0.82816600  0.10138400  0.30731500  1
  N  N45  1  0.86248500  0.30250800  0.09106600  1
  N  N46  1  0.76444700  0.28879900  0.72400000  1
  N  N47  1  0.96209600  0.25464900  0.39483700  1
  N  N48  1  0.06053600  0.49316300  0.68470300  1
  N  N49  1  0.74206800  0.60296100  0.32374300  1
  N  N50  1  0.99912500  0.49185200  0.01147700  1
  N  N51  1  0.04025500  0.50140100  0.84743300  1
  N  N52  1  0.03639900  0.46037700  0.50877000  1
  N  N53  1  0.12693800  0.45196400  0.16540800  1
  N  N54  1  0.19375900  0.68600100  0.92273000  1
  N  N55  1  0.11069300  0.68154200  0.57967900  1
  N  N56  1  0.02407600  0.74208700  0.24286500  1
  N  N57  1  0.99524100  0.81373200  0.07294100  1
  N  N58  1  0.10515600  0.97309200  0.16116400  1
  N  N59  1  0.81402400  0.87590800  0.75178800  1
  N  N60  1  0.78115100  0.91109600  0.40909100  1
  N  N61  1  0.55384200  0.43205400  0.86686100  1
  N  N62  1  0.52340700  0.46134200  0.52473200  1
  N  N63  1  0.51439800  0.55654100  0.20023300  1
  N  N64  1  0.44085400  0.08955000  0.82648300  1
  N  N65  1  0.44178200  0.03134700  0.49794300  1
  N  N66  1  0.55154600  0.04569000  0.18037300  1
  N  N67  1  0.32968100  0.00846900  0.07064400  1
  N  N68  1  0.26068200  0.92238200  0.73896300  1
  N  N69  1  0.29285400  0.82010600  0.41494000  1
  O  O70  1  0.71274000  0.00605000  0.57805100  1
  O  O71  1  0.74516100  0.98290300  0.90166700  1
  O  O72  1  0.65776400  0.17423200  0.26648700  1
  O  O73  1  0.55999100  0.97986800  0.67271700  1
  O  O74  1  0.43474800  0.01379800  0.34120300  1
  O  O75  1  0.59106500  0.84756300  0.98517700  1
  O  O76  1  0.56885200  0.58975100  0.65124700  1
  O  O77  1  0.47649600  0.41531100  0.36474800  1
