# generated using pymatgen
data_AlSi2HC6NCl3
_symmetry_space_group_name_H-M   'P 1'
_cell_length_a   9.52008100
_cell_length_b   16.67259300
_cell_length_c   17.84070500
_cell_angle_alpha   90.00000000
_cell_angle_beta   90.00000000
_cell_angle_gamma   90.00000000
_symmetry_Int_Tables_number   1
_chemical_formula_structural   AlSi2HC6NCl3
_chemical_formula_sum   'Al8 Si16 H8 C48 N8 Cl24'
_cell_volume   2831.75583611
_cell_formula_units_Z   8
loop_
 _symmetry_equiv_pos_site_id
 _symmetry_equiv_pos_as_xyz
  1  'x, y, z'
loop_
 _atom_site_type_symbol
 _atom_site_label
 _atom_site_symmetry_multiplicity
 _atom_site_fract_x
 _atom_site_fract_y
 _atom_site_fract_z
 _atom_site_occupancy
  Al  Al0  1  0.02933800  0.90377200  0.86559600  1
  Al  Al1  1  0.47066200  0.09622800  0.36559600  1
  Al  Al2  1  0.52933800  0.59622800  0.13440400  1
  Al  Al3  1  0.97066200  0.40377200  0.63440400  1
  Al  Al4  1  0.97066200  0.09622800  0.13440400  1
  Al  Al5  1  0.52933800  0.90377200  0.63440400  1
  Al  Al6  1  0.47066200  0.40377200  0.86559600  1
  Al  Al7  1  0.02933800  0.59622800  0.36559600  1
  Si  Si8  1  0.16205900  0.81589200  0.11795500  1
  Si  Si9  1  0.33794100  0.18410800  0.61795500  1
  Si  Si10  1  0.66205900  0.68410800  0.88204500  1
  Si  Si11  1  0.83794100  0.31589200  0.38204500  1
  Si  Si12  1  0.83794100  0.18410800  0.88204500  1
  Si  Si13  1  0.66205900  0.81589200  0.38204500  1
  Si  Si14  1  0.33794100  0.31589200  0.11795500  1
  Si  Si15  1  0.16205900  0.68410800  0.61795500  1
  Si  Si16  1  0.35928800  0.93259700  0.90255900  1
  Si  Si17  1  0.14071200  0.06740300  0.40255900  1
  Si  Si18  1  0.85928800  0.56740300  0.09744100  1
  Si  Si19  1  0.64071200  0.43259700  0.59744100  1
  Si  Si20  1  0.64071200  0.06740300  0.09744100  1
  Si  Si21  1  0.85928800  0.93259700  0.59744100  1
  Si  Si22  1  0.14071200  0.43259700  0.90255900  1
  Si  Si23  1  0.35928800  0.56740300  0.40255900  1
  H  H24  1  0.16627100  0.98190200  0.95978200  1
  H  H25  1  0.33372900  0.01809800  0.45978200  1
  H  H26  1  0.66627100  0.51809800  0.04021800  1
  H  H27  1  0.83372900  0.48190200  0.54021800  1
  H  H28  1  0.83372900  0.01809800  0.04021800  1
  H  H29  1  0.66627100  0.98190200  0.54021800  1
  H  H30  1  0.33372900  0.48190200  0.95978200  1
  H  H31  1  0.16627100  0.51809800  0.45978200  1
  C  C32  1  0.00445400  0.77705400  0.17934500  1
  C  C33  1  0.49554600  0.22294600  0.67934500  1
  C  C34  1  0.50445400  0.72294600  0.82065500  1
  C  C35  1  0.99554600  0.27705400  0.32065500  1
  C  C36  1  0.99554600  0.22294600  0.82065500  1
  C  C37  1  0.50445400  0.77705400  0.32065500  1
  C  C38  1  0.49554600  0.27705400  0.17934500  1
  C  C39  1  0.00445400  0.72294600  0.67934500  1
  C  C40  1  0.01679100  0.72962300  0.11622200  1
  C  C41  1  0.48320900  0.27037700  0.61622200  1
  C  C42  1  0.51679100  0.77037700  0.88377800  1
  C  C43  1  0.98320900  0.22962300  0.38377800  1
  C  C44  1  0.98320900  0.27037700  0.88377800  1
  C  C45  1  0.51679100  0.72962300  0.38377800  1
  C  C46  1  0.48320900  0.22962300  0.11622200  1
  C  C47  1  0.01679100  0.77037700  0.61622200  1
  C  C48  1  0.48522400  0.96707800  0.97740900  1
  C  C49  1  0.01477600  0.03292200  0.47740900  1
  C  C50  1  0.98522400  0.53292200  0.02259100  1
  C  C51  1  0.51477600  0.46707800  0.52259100  1
  C  C52  1  0.51477600  0.03292200  0.02259100  1
  C  C53  1  0.98522400  0.96707800  0.52259100  1
  C  C54  1  0.01477600  0.46707800  0.97740900  1
  C  C55  1  0.48522400  0.53292200  0.47740900  1
  C  C56  1  0.47482300  0.83955900  0.91418400  1
  C  C57  1  0.02517700  0.16044100  0.41418400  1
  C  C58  1  0.97482300  0.66044100  0.08581600  1
  C  C59  1  0.52517700  0.33955900  0.58581600  1
  C  C60  1  0.52517700  0.16044100  0.08581600  1
  C  C61  1  0.97482300  0.83955900  0.58581600  1
  C  C62  1  0.02517700  0.33955900  0.91418400  1
  C  C63  1  0.47482300  0.66044100  0.41418400  1
  C  C64  1  0.06797400  0.83600000  0.21407500  1
  C  C65  1  0.43202600  0.16400000  0.71407500  1
  C  C66  1  0.56797400  0.66400000  0.78592500  1
  C  C67  1  0.93202600  0.33600000  0.28592500  1
  C  C68  1  0.93202600  0.16400000  0.78592500  1
  C  C69  1  0.56797400  0.83600000  0.28592500  1
  C  C70  1  0.43202600  0.33600000  0.21407500  1
  C  C71  1  0.06797400  0.66400000  0.71407500  1
  C  C72  1  0.52132700  0.88903600  0.97240600  1
  C  C73  1  0.97867300  0.11096400  0.47240600  1
  C  C74  1  0.02132700  0.61096400  0.02759400  1
  C  C75  1  0.47867300  0.38903600  0.52759400  1
  C  C76  1  0.47867300  0.11096400  0.02759400  1
  C  C77  1  0.02132700  0.88903600  0.52759400  1
  C  C78  1  0.97867300  0.38903600  0.97240600  1
  C  C79  1  0.52132700  0.61096400  0.47240600  1
  N  N80  1  0.18716200  0.94014500  0.91852200  1
  N  N81  1  0.31283800  0.05985500  0.41852200  1
  N  N82  1  0.68716200  0.55985500  0.08147800  1
  N  N83  1  0.81283800  0.44014500  0.58147800  1
  N  N84  1  0.81283800  0.05985500  0.08147800  1
  N  N85  1  0.68716200  0.94014500  0.58147800  1
  N  N86  1  0.31283800  0.44014500  0.91852200  1
  N  N87  1  0.18716200  0.55985500  0.41852200  1
  Cl  Cl88  1  0.84959900  0.96803200  0.90943000  1
  Cl  Cl89  1  0.65040100  0.03196800  0.40943000  1
  Cl  Cl90  1  0.34959900  0.53196800  0.09057000  1
  Cl  Cl91  1  0.15040100  0.46803200  0.59057000  1
  Cl  Cl92  1  0.15040100  0.03196800  0.09057000  1
  Cl  Cl93  1  0.34959900  0.96803200  0.59057000  1
  Cl  Cl94  1  0.65040100  0.46803200  0.90943000  1
  Cl  Cl95  1  0.84959900  0.53196800  0.40943000  1
  Cl  Cl96  1  0.00442400  0.77729200  0.88596300  1
  Cl  Cl97  1  0.49557600  0.22270800  0.38596300  1
  Cl  Cl98  1  0.50442400  0.72270800  0.11403700  1
  Cl  Cl99  1  0.99557600  0.27729200  0.61403700  1
  Cl  Cl100  1  0.99557600  0.22270800  0.11403700  1
  Cl  Cl101  1  0.50442400  0.77729200  0.61403700  1
  Cl  Cl102  1  0.49557600  0.27729200  0.88596300  1
  Cl  Cl103  1  0.00442400  0.72270800  0.38596300  1
  Cl  Cl104  1  0.06268600  0.93215700  0.74867300  1
  Cl  Cl105  1  0.43731400  0.06784300  0.24867300  1
  Cl  Cl106  1  0.56268600  0.56784300  0.25132700  1
  Cl  Cl107  1  0.93731400  0.43215700  0.75132700  1
  Cl  Cl108  1  0.93731400  0.06784300  0.25132700  1
  Cl  Cl109  1  0.56268600  0.93215700  0.75132700  1
  Cl  Cl110  1  0.43731400  0.43215700  0.74867300  1
  Cl  Cl111  1  0.06268600  0.56784300  0.24867300  1
