# generated using pymatgen
data_Mo3O8
_symmetry_space_group_name_H-M   'P 1'
_cell_length_a   6.03007464
_cell_length_b   6.03007464
_cell_length_c   6.01066692
_cell_angle_alpha   61.89963507
_cell_angle_beta   61.89963507
_cell_angle_gamma   61.41609210
_symmetry_Int_Tables_number   1
_chemical_formula_structural   Mo3O8
_chemical_formula_sum   'Mo3 O8'
_cell_volume   160.55785973
_cell_formula_units_Z   1
loop_
 _symmetry_equiv_pos_site_id
 _symmetry_equiv_pos_as_xyz
  1  'x, y, z'
loop_
 _atom_site_type_symbol
 _atom_site_label
 _atom_site_symmetry_multiplicity
 _atom_site_fract_x
 _atom_site_fract_y
 _atom_site_fract_z
 _atom_site_occupancy
  Mo  Mo0  1  0.50000000  0.00000000  0.50000000  1
  Mo  Mo1  1  0.00000000  0.00000000  0.00000000  1
  Mo  Mo2  1  0.00000000  0.50000000  0.50000000  1
  O  O3  1  0.19792600  0.75989700  0.24429600  1
  O  O4  1  0.24646900  0.24646900  0.30721600  1
  O  O5  1  0.75353100  0.75353100  0.69278400  1
  O  O6  1  0.80207400  0.24010300  0.75570400  1
  O  O7  1  0.75989700  0.19792600  0.24429600  1
  O  O8  1  0.24010300  0.80207400  0.75570400  1
  O  O9  1  0.23599900  0.23599900  0.75296800  1
  O  O10  1  0.76400100  0.76400100  0.24703200  1
