# generated using pymatgen
data_Ba2Na7Ti16Bi7O48
_symmetry_space_group_name_H-M   'P 1'
_cell_length_a   5.65480619
_cell_length_b   5.65447341
_cell_length_c   45.04229007
_cell_angle_alpha   59.00811594
_cell_angle_beta   59.00669662
_cell_angle_gamma   58.70215108
_symmetry_Int_Tables_number   1
_chemical_formula_structural   Ba2Na7Ti16Bi7O48
_chemical_formula_sum   'Ba2 Na7 Ti16 Bi7 O48'
_cell_volume   992.93787351
_cell_formula_units_Z   1
loop_
 _symmetry_equiv_pos_site_id
 _symmetry_equiv_pos_as_xyz
  1  'x, y, z'
loop_
 _atom_site_type_symbol
 _atom_site_label
 _atom_site_symmetry_multiplicity
 _atom_site_fract_x
 _atom_site_fract_y
 _atom_site_fract_z
 _atom_site_occupancy
  Ba  Ba0  1  0.76455000  0.76453400  0.84324500  1
  Ba  Ba1  1  0.75800300  0.75818800  0.97153800  1
  Na  Na2  1  0.26665200  0.26447000  0.03819400  1
  Na  Na3  1  0.27866300  0.27691300  0.15993800  1
  Na  Na4  1  0.27852400  0.27832200  0.28465900  1
  Na  Na5  1  0.27906600  0.27876600  0.40952700  1
  Na  Na6  1  0.27947000  0.27908200  0.53444300  1
  Na  Na7  1  0.28321500  0.28029300  0.65835500  1
  Na  Na8  1  0.28813500  0.28850100  0.78031600  1
  Ti  Ti9  1  0.99705900  0.99110700  0.00737800  1
  Ti  Ti10  1  0.02288500  0.01590000  0.12841000  1
  Ti  Ti11  1  0.51473300  0.51685000  0.06553100  1
  Ti  Ti12  1  0.01990500  0.01937400  0.25252400  1
  Ti  Ti13  1  0.51137000  0.51089200  0.18998000  1
  Ti  Ti14  1  0.02099600  0.02099300  0.37723100  1
  Ti  Ti15  1  0.51568100  0.51425100  0.31403800  1
  Ti  Ti16  1  0.02204600  0.02088700  0.50199600  1
  Ti  Ti17  1  0.51636400  0.51477300  0.43882900  1
  Ti  Ti18  1  0.02393800  0.02240500  0.62666000  1
  Ti  Ti19  1  0.51641800  0.51548300  0.56372000  1
  Ti  Ti20  1  0.02327200  0.04077100  0.74958100  1
  Ti  Ti21  1  0.52288300  0.51773900  0.68729000  1
  Ti  Ti22  1  0.02492300  0.02165700  0.87205700  1
  Ti  Ti23  1  0.52172200  0.51860200  0.81209100  1
  Ti  Ti24  1  0.51831900  0.51162900  0.94110400  1
  Bi  Bi25  1  0.79487200  0.78357500  0.10018500  1
  Bi  Bi26  1  0.78912900  0.79060500  0.22376500  1
  Bi  Bi27  1  0.79093500  0.79207300  0.34836400  1
  Bi  Bi28  1  0.79140600  0.79209700  0.47329800  1
  Bi  Bi29  1  0.79383700  0.79477000  0.59738100  1
  Bi  Bi30  1  0.79615800  0.79161200  0.72344600  1
  Bi  Bi31  1  0.27992500  0.28237000  0.91337900  1
  O  O32  1  0.18765600  0.30341300  0.09640700  1
  O  O33  1  0.26726200  0.74335400  0.03082200  1
  O  O34  1  0.74655200  0.22354500  0.03712400  1
  O  O35  1  0.22675900  0.80201500  0.08935600  1
  O  O36  1  0.69396900  0.22971400  0.10164300  1
  O  O37  1  0.18531100  0.30925800  0.21957000  1
  O  O38  1  0.77876800  0.71594800  0.03410000  1
  O  O39  1  0.31066800  0.74223200  0.14996200  1
  O  O40  1  0.74617900  0.18213500  0.16525100  1
  O  O41  1  0.23129400  0.80388800  0.21210000  1
  O  O42  1  0.68959400  0.23173100  0.22643100  1
  O  O43  1  0.18617600  0.31010500  0.34416900  1
  O  O44  1  0.80270400  0.68376200  0.15551500  1
  O  O45  1  0.31062100  0.74720300  0.27374600  1
  O  O46  1  0.74900100  0.18517000  0.28938900  1
  O  O47  1  0.23227400  0.80479900  0.33657500  1
  O  O48  1  0.69107000  0.23395200  0.35079500  1
  O  O49  1  0.18650300  0.31037300  0.46908000  1
  O  O50  1  0.80308900  0.68892600  0.27988700  1
  O  O51  1  0.31058200  0.74781600  0.39861100  1
  O  O52  1  0.74948900  0.18604700  0.41421100  1
  O  O53  1  0.23277500  0.80501500  0.46147600  1
  O  O54  1  0.69137500  0.23453600  0.47566600  1
  O  O55  1  0.18874200  0.31216800  0.59346700  1
  O  O56  1  0.80299200  0.69027500  0.40460300  1
  O  O57  1  0.31104200  0.74812200  0.52346100  1
  O  O58  1  0.75059800  0.18556000  0.53907000  1
  O  O59  1  0.23527400  0.80587300  0.58612700  1
  O  O60  1  0.69285200  0.23506400  0.60040500  1
  O  O61  1  0.20449800  0.31408400  0.71583300  1
  O  O62  1  0.80410900  0.69042800  0.52940200  1
  O  O63  1  0.31886400  0.75228800  0.64745200  1
  O  O64  1  0.75734400  0.18800700  0.66329900  1
  O  O65  1  0.23640300  0.80000300  0.71164100  1
  O  O66  1  0.69930900  0.23639900  0.72389000  1
  O  O67  1  0.23964300  0.26575100  0.84329300  1
  O  O68  1  0.80863900  0.69442600  0.65378200  1
  O  O69  1  0.28559500  0.77359000  0.77551000  1
  O  O70  1  0.74528300  0.24806800  0.78172500  1
  O  O71  1  0.25979100  0.78236100  0.83892900  1
  O  O72  1  0.72467700  0.25871000  0.84647900  1
  O  O73  1  0.22994300  0.26122600  0.96743500  1
  O  O74  1  0.79976800  0.71377600  0.77872100  1
  O  O75  1  0.25905600  0.72848100  0.90420200  1
  O  O76  1  0.72614100  0.22702600  0.90809500  1
  O  O77  1  0.25478800  0.78622300  0.96491700  1
  O  O78  1  0.72078400  0.25301100  0.97336400  1
  O  O79  1  0.78353900  0.70906100  0.90634700  1
