# generated using pymatgen
data_KSn2H36C12(Se2N)3
_symmetry_space_group_name_H-M   'P 1'
_cell_length_a   9.78492300
_cell_length_b   10.21831871
_cell_length_c   16.29655008
_cell_angle_alpha   95.16547851
_cell_angle_beta   92.65954267
_cell_angle_gamma   107.02632683
_symmetry_Int_Tables_number   1
_chemical_formula_structural   KSn2H36C12(Se2N)3
_chemical_formula_sum   'K2 Sn4 H72 C24 Se12 N6'
_cell_volume   1547.13761787
_cell_formula_units_Z   2
loop_
 _symmetry_equiv_pos_site_id
 _symmetry_equiv_pos_as_xyz
  1  'x, y, z'
loop_
 _atom_site_type_symbol
 _atom_site_label
 _atom_site_symmetry_multiplicity
 _atom_site_fract_x
 _atom_site_fract_y
 _atom_site_fract_z
 _atom_site_occupancy
  K  K0  1  0.69621200  0.18964700  0.68678600  1
  K  K1  1  0.30378800  0.81035300  0.31321400  1
  Sn  Sn2  1  0.90334100  0.40231500  0.90551300  1
  Sn  Sn3  1  0.09665900  0.59768500  0.09448700  1
  Sn  Sn4  1  0.60370200  0.13188200  0.43852700  1
  Sn  Sn5  1  0.39629800  0.86811800  0.56147300  1
  H  H6  1  0.81312500  0.75328900  0.91508300  1
  H  H7  1  0.18687500  0.24671100  0.08491700  1
  H  H8  1  0.84742900  0.93821300  0.93525600  1
  H  H9  1  0.15257100  0.06178700  0.06474400  1
  H  H10  1  0.90547300  0.84149000  0.01140900  1
  H  H11  1  0.09452700  0.15851000  0.98859100  1
  H  H12  1  0.64985500  0.59901400  0.98493800  1
  H  H13  1  0.35014500  0.40098600  0.01506200  1
  H  H14  1  0.73828900  0.68623400  0.08210400  1
  H  H15  1  0.26171100  0.31376600  0.91789600  1
  H  H16  1  0.54656900  0.65614400  0.06274600  1
  H  H17  1  0.45343100  0.34385600  0.93725400  1
  H  H18  1  0.57038900  0.72046300  0.88538900  1
  H  H19  1  0.42961100  0.27953700  0.11461100  1
  H  H20  1  0.46296100  0.78049600  0.95726200  1
  H  H21  1  0.53703900  0.21950400  0.04273800  1
  H  H22  1  0.59367500  0.90143500  0.90430300  1
  H  H23  1  0.40632500  0.09856500  0.09569700  1
  H  H24  1  0.76829400  0.93144700  0.11372900  1
  H  H25  1  0.23170600  0.06855300  0.88627100  1
  H  H26  1  0.71005900  0.02526300  0.03851300  1
  H  H27  1  0.28994100  0.97473700  0.96148700  1
  H  H28  1  0.58062500  0.90492600  0.09168500  1
  H  H29  1  0.41937500  0.09507400  0.90831500  1
  H  H30  1  0.67816200  0.81152100  0.33264700  1
  H  H31  1  0.32183800  0.18847900  0.66735300  1
  H  H32  1  0.77430300  0.76998200  0.24668200  1
  H  H33  1  0.22569700  0.23001800  0.75331800  1
  H  H34  1  0.58169900  0.70045400  0.24333700  1
  H  H35  1  0.41830100  0.29954600  0.75666300  1
  H  H36  1  0.57073200  0.63523700  0.42056000  1
  H  H37  1  0.42926800  0.36476300  0.57944000  1
  H  H38  1  0.47517400  0.52565400  0.33127400  1
  H  H39  1  0.52482600  0.47434600  0.66872600  1
  H  H40  1  0.58725100  0.46405500  0.40012700  1
  H  H41  1  0.41274900  0.53594500  0.59987300  1
  H  H42  1  0.71265600  0.40831800  0.28359700  1
  H  H43  1  0.28734400  0.59168200  0.71640300  1
  H  H44  1  0.60305800  0.47142800  0.21603000  1
  H  H45  1  0.39694200  0.52857200  0.78397000  1
  H  H46  1  0.79450200  0.54056000  0.21860300  1
  H  H47  1  0.20549800  0.45944000  0.78139700  1
  H  H48  1  0.83232400  0.73247400  0.42400300  1
  H  H49  1  0.16767600  0.26752600  0.57599700  1
  H  H50  1  0.85193400  0.56308500  0.40418600  1
  H  H51  1  0.14806600  0.43691500  0.59581400  1
  H  H52  1  0.92568500  0.69358500  0.33708100  1
  H  H53  1  0.07431500  0.30641500  0.66291900  1
  H  H54  1  0.02767600  0.89427600  0.80371000  1
  H  H55  1  0.97232400  0.10572400  0.19629000  1
  H  H56  1  0.95444800  0.70966500  0.79667900  1
  H  H57  1  0.04555200  0.29033500  0.20332100  1
  H  H58  1  0.11940700  0.78747600  0.74953500  1
  H  H59  1  0.88059300  0.21252400  0.25046500  1
  H  H60  1  0.84291500  0.66927600  0.57643800  1
  H  H61  1  0.15708500  0.33072400  0.42356200  1
  H  H62  1  0.00920400  0.65645400  0.61901900  1
  H  H63  1  0.99079600  0.34354600  0.38098100  1
  H  H64  1  0.84530800  0.58218500  0.66744300  1
  H  H65  1  0.15469200  0.41781500  0.33255700  1
  H  H66  1  0.80411200  0.90728200  0.75363700  1
  H  H67  1  0.19588800  0.09271800  0.24636300  1
  H  H68  1  0.71312800  0.80831600  0.65951000  1
  H  H69  1  0.28687200  0.19168400  0.34049000  1
  H  H70  1  0.73862500  0.72243200  0.74877800  1
  H  H71  1  0.26137500  0.27756800  0.25122200  1
  H  H72  1  0.01451800  0.01359300  0.68376100  1
  H  H73  1  0.98548200  0.98640700  0.31623900  1
  H  H74  1  0.10423800  0.90799500  0.62693900  1
  H  H75  1  0.89576200  0.09200500  0.37306100  1
  H  H76  1  0.93210700  0.91763400  0.58722500  1
  H  H77  1  0.06789300  0.08236600  0.41277500  1
  C  C78  1  0.82372300  0.84013500  0.96239400  1
  C  C79  1  0.17627700  0.15986500  0.03760600  1
  C  C80  1  0.65052700  0.67816200  0.03551400  1
  C  C81  1  0.34947300  0.32183800  0.96448600  1
  C  C82  1  0.56829600  0.80410000  0.93196600  1
  C  C83  1  0.43170400  0.19590000  0.06803400  1
  C  C84  1  0.68501900  0.92718900  0.06534100  1
  C  C85  1  0.31498100  0.07281100  0.93465900  1
  C  C86  1  0.68204000  0.73236600  0.28329900  1
  C  C87  1  0.31796000  0.26763400  0.71670100  1
  C  C88  1  0.57371100  0.55392200  0.37246600  1
  C  C89  1  0.42628900  0.44607800  0.62753400  1
  C  C90  1  0.70358900  0.49923000  0.25532600  1
  C  C91  1  0.29641100  0.50077000  0.74467400  1
  C  C92  1  0.83783200  0.65227500  0.37588700  1
  C  C93  1  0.16216800  0.34772500  0.62411300  1
  C  C94  1  0.01447100  0.79672000  0.76535400  1
  C  C95  1  0.98552900  0.20328000  0.23464600  1
  C  C96  1  0.90458800  0.66664300  0.63388100  1
  C  C97  1  0.09541200  0.33335700  0.36611900  1
  C  C98  1  0.78406600  0.80979600  0.71386100  1
  C  C99  1  0.21593400  0.19020400  0.28613900  1
  C  C100  1  0.99996900  0.91850700  0.64301100  1
  C  C101  1  0.00003100  0.08149300  0.35698900  1
  Se  Se102  1  0.13353700  0.61940800  0.93752200  1
  Se  Se103  1  0.86646300  0.38059200  0.06247800  1
  Se  Se104  1  0.70163800  0.45997000  0.83031100  1
  Se  Se105  1  0.29836200  0.54003000  0.16968900  1
  Se  Se106  1  0.95549900  0.19451200  0.83473200  1
  Se  Se107  1  0.04450100  0.80548800  0.16526800  1
  Se  Se108  1  0.34499500  0.07875100  0.49435000  1
  Se  Se109  1  0.65500500  0.92124900  0.50565000  1
  Se  Se110  1  0.77487800  0.34373800  0.51136200  1
  Se  Se111  1  0.22512200  0.65626200  0.48863800  1
  Se  Se112  1  0.42225200  0.90865900  0.71511500  1
  Se  Se113  1  0.57774800  0.09134100  0.28488500  1
  N  N114  1  0.68142100  0.81351500  0.99942000  1
  N  N115  1  0.31857900  0.18648500  0.00058000  1
  N  N116  1  0.69905000  0.60912900  0.32200300  1
  N  N117  1  0.30095000  0.39087100  0.67799700  1
  N  N118  1  0.92615200  0.79883000  0.68803100  1
  N  N119  1  0.07384800  0.20117000  0.31196900  1
