# generated using pymatgen
data_MoO3
_symmetry_space_group_name_H-M   'P 1'
_cell_length_a   5.20367300
_cell_length_b   5.32089500
_cell_length_c   9.18954546
_cell_angle_alpha   73.78100441
_cell_angle_beta   90.00000000
_cell_angle_gamma   90.00000000
_symmetry_Int_Tables_number   1
_chemical_formula_structural   MoO3
_chemical_formula_sum   'Mo4 O12'
_cell_volume   244.31545066
_cell_formula_units_Z   4
loop_
 _symmetry_equiv_pos_site_id
 _symmetry_equiv_pos_as_xyz
  1  'x, y, z'
loop_
 _atom_site_type_symbol
 _atom_site_label
 _atom_site_symmetry_multiplicity
 _atom_site_fract_x
 _atom_site_fract_y
 _atom_site_fract_z
 _atom_site_occupancy
  Mo  Mo0  1  0.26384500  0.01818400  0.04195300  1
  Mo  Mo1  1  0.73615500  0.51818400  0.04195300  1
  Mo  Mo2  1  0.76839800  0.29391400  0.52706400  1
  Mo  Mo3  1  0.23160200  0.79391400  0.52706400  1
  O  O4  1  0.46998600  0.05979400  0.51917700  1
  O  O5  1  0.53001400  0.55979400  0.51917700  1
  O  O6  1  0.67153300  0.42774900  0.23253500  1
  O  O7  1  0.32846700  0.92774900  0.23253500  1
  O  O8  1  0.04157700  0.52820800  0.45264300  1
  O  O9  1  0.95842300  0.02820800  0.45264300  1
  O  O10  1  0.84273000  0.19139700  0.71555800  1
  O  O11  1  0.15727000  0.69139700  0.71555800  1
  O  O12  1  0.50410800  0.28164700  0.96573500  1
  O  O13  1  0.49589200  0.78164700  0.96573500  1
  O  O14  1  0.99206000  0.25030700  0.02453400  1
  O  O15  1  0.00794000  0.75030700  0.02453400  1
