# generated using pymatgen
data_V4O9
_symmetry_space_group_name_H-M   'P 1'
_cell_length_a   6.93423273
_cell_length_b   6.93423273
_cell_length_c   15.16334500
_cell_angle_alpha   90.00000000
_cell_angle_beta   90.00000000
_cell_angle_gamma   102.27292106
_symmetry_Int_Tables_number   1
_chemical_formula_structural   V4O9
_chemical_formula_sum   'V16 O36'
_cell_volume   712.44504096
_cell_formula_units_Z   4
loop_
 _symmetry_equiv_pos_site_id
 _symmetry_equiv_pos_as_xyz
  1  'x, y, z'
loop_
 _atom_site_type_symbol
 _atom_site_label
 _atom_site_symmetry_multiplicity
 _atom_site_fract_x
 _atom_site_fract_y
 _atom_site_fract_z
 _atom_site_occupancy
  V  V0  1  0.69165200  0.69165200  0.36778100  1
  V  V1  1  0.30834800  0.30834800  0.63221900  1
  V  V2  1  0.69165200  0.69165200  0.13221900  1
  V  V3  1  0.30834800  0.30834800  0.86778100  1
  V  V4  1  0.32235100  0.32235100  0.37377200  1
  V  V5  1  0.67764900  0.67764900  0.62622800  1
  V  V6  1  0.32235100  0.32235100  0.12622800  1
  V  V7  1  0.67764900  0.67764900  0.87377200  1
  V  V8  1  0.79049900  0.21619700  0.38537400  1
  V  V9  1  0.78380300  0.20950100  0.61462600  1
  V  V10  1  0.79049900  0.21619700  0.11462600  1
  V  V11  1  0.78380300  0.20950100  0.88537400  1
  V  V12  1  0.20950100  0.78380300  0.61462600  1
  V  V13  1  0.21619700  0.79049900  0.38537400  1
  V  V14  1  0.20950100  0.78380300  0.88537400  1
  V  V15  1  0.21619700  0.79049900  0.11462600  1
  O  O16  1  0.33179400  0.33179400  0.25000000  1
  O  O17  1  0.66820600  0.66820600  0.75000000  1
  O  O18  1  0.68146100  0.68146100  0.25000000  1
  O  O19  1  0.31853900  0.31853900  0.75000000  1
  O  O20  1  0.02719200  0.30032000  0.35734600  1
  O  O21  1  0.69968000  0.97280800  0.64265400  1
  O  O22  1  0.02719200  0.30032000  0.14265400  1
  O  O23  1  0.69968000  0.97280800  0.85734600  1
  O  O24  1  0.97280800  0.69968000  0.64265400  1
  O  O25  1  0.30032000  0.02719200  0.35734600  1
  O  O26  1  0.97280800  0.69968000  0.85734600  1
  O  O27  1  0.30032000  0.02719200  0.14265400  1
  O  O28  1  0.96901200  0.70565700  0.36038200  1
  O  O29  1  0.29434300  0.03098800  0.63961800  1
  O  O30  1  0.96901200  0.70565700  0.13961800  1
  O  O31  1  0.29434300  0.03098800  0.86038200  1
  O  O32  1  0.03098800  0.29434300  0.63961800  1
  O  O33  1  0.70565700  0.96901200  0.36038200  1
  O  O34  1  0.03098800  0.29434300  0.86038200  1
  O  O35  1  0.70565700  0.96901200  0.13961800  1
  O  O36  1  0.79423800  0.20576200  0.50000000  1
  O  O37  1  0.79423800  0.20576200  0.00000000  1
  O  O38  1  0.20576200  0.79423800  0.50000000  1
  O  O39  1  0.20576200  0.79423800  0.00000000  1
  O  O40  1  0.31096700  0.31096700  0.49181600  1
  O  O41  1  0.68903300  0.68903300  0.50818400  1
  O  O42  1  0.31096700  0.31096700  0.00818400  1
  O  O43  1  0.68903300  0.68903300  0.99181600  1
  O  O44  1  0.63325900  0.38597900  0.36750400  1
  O  O45  1  0.61402100  0.36674100  0.63249600  1
  O  O46  1  0.63325900  0.38597900  0.13249600  1
  O  O47  1  0.61402100  0.36674100  0.86750400  1
  O  O48  1  0.36674100  0.61402100  0.63249600  1
  O  O49  1  0.38597900  0.63325900  0.36750400  1
  O  O50  1  0.36674100  0.61402100  0.86750400  1
  O  O51  1  0.38597900  0.63325900  0.13249600  1
