# generated using pymatgen
data_ReSi2Tc
_symmetry_space_group_name_H-M   'P 1'
_cell_length_a   10.01142920
_cell_length_b   10.01142920
_cell_length_c   10.01142920
_cell_angle_alpha   124.91018918
_cell_angle_beta   117.57305747
_cell_angle_gamma   87.98443588
_symmetry_Int_Tables_number   1
_chemical_formula_structural   ReSi2Tc
_chemical_formula_sum   'Re1 Si2 Tc1'
_cell_volume   692.02068387
_cell_formula_units_Z   1
loop_
 _symmetry_equiv_pos_site_id
 _symmetry_equiv_pos_as_xyz
  1  'x, y, z'
loop_
 _atom_site_type_symbol
 _atom_site_label
 _atom_site_symmetry_multiplicity
 _atom_site_fract_x
 _atom_site_fract_y
 _atom_site_fract_z
 _atom_site_occupancy
  Re  Re0  1  0.00000000  0.50000000  0.50000000  1
  Si  Si1  1  0.00000000  0.24974900  0.24974900  1
  Si  Si2  1  0.00000000  0.75025100  0.75025100  1
  Tc  Tc3  1  0.00000000  0.00000000  0.00000000  1
