# generated using pymatgen
data_Sr5Al10(Si7O24)2
_symmetry_space_group_name_H-M   'P 1'
_cell_length_a   7.25946600
_cell_length_b   7.78405675
_cell_length_c   20.10435627
_cell_angle_alpha   100.10124543
_cell_angle_beta   90.42345331
_cell_angle_gamma   103.60687219
_symmetry_Int_Tables_number   1
_chemical_formula_structural   Sr5Al10(Si7O24)2
_chemical_formula_sum   'Sr5 Al10 Si14 O48'
_cell_volume   1085.65143837
_cell_formula_units_Z   1
loop_
 _symmetry_equiv_pos_site_id
 _symmetry_equiv_pos_as_xyz
  1  'x, y, z'
loop_
 _atom_site_type_symbol
 _atom_site_label
 _atom_site_symmetry_multiplicity
 _atom_site_fract_x
 _atom_site_fract_y
 _atom_site_fract_z
 _atom_site_occupancy
  Sr  Sr0  1  0.36656600  0.50847700  0.75327000  1
  Sr  Sr1  1  0.69471900  0.84304100  0.41939000  1
  Sr  Sr2  1  0.93635600  0.81293300  0.91521600  1
  Sr  Sr3  1  0.27759100  0.17703200  0.56417400  1
  Sr  Sr4  1  0.59467500  0.46263200  0.24511000  1
  Al  Al5  1  0.82227300  0.42906700  0.39451700  1
  Al  Al6  1  0.60998600  0.57348900  0.61205400  1
  Al  Al7  1  0.86707400  0.39012300  0.80956000  1
  Al  Al8  1  0.85025100  0.24014000  0.94070700  1
  Al  Al9  1  0.06424100  0.09915300  0.72061100  1
  Al  Al10  1  0.26569100  0.02601600  0.39566200  1
  Al  Al11  1  0.15714000  0.56748100  0.60837700  1
  Al  Al12  1  0.37629100  0.42899900  0.39266200  1
  Al  Al13  1  0.50710100  0.89602200  0.26957900  1
  Al  Al14  1  0.72027900  0.75490800  0.06073200  1
  Si  Si15  1  0.50967100  0.10102400  0.72837000  1
  Si  Si16  1  0.28947300  0.25013800  0.94306200  1
  Si  Si17  1  0.49723400  0.96146400  0.86022600  1
  Si  Si18  1  0.40957100  0.64948100  0.93922300  1
  Si  Si19  1  0.80437100  0.27881400  0.52633600  1
  Si  Si20  1  0.75218900  0.96874300  0.60333000  1
  Si  Si21  1  0.95297400  0.90507100  0.27344900  1
  Si  Si22  1  0.16330500  0.76829200  0.06310300  1
  Si  Si23  1  0.15603500  0.61198300  0.19047100  1
  Si  Si24  1  0.06365800  0.30475400  0.26768900  1
  Si  Si25  1  0.92132100  0.70398000  0.73436300  1
  Si  Si26  1  0.17789400  0.71974000  0.47660800  1
  Si  Si27  1  0.59817600  0.35309300  0.06256000  1
  Si  Si28  1  0.51003600  0.04381000  0.14042100  1
  O  O29  1  0.31243400  0.14618900  0.70511900  1
  O  O30  1  0.35732400  0.08286400  0.89557000  1
  O  O31  1  0.24827700  0.71078000  0.98783300  1
  O  O32  1  0.36699400  0.50358500  0.62749300  1
  O  O33  1  0.61812900  0.50000300  0.37354500  1
  O  O34  1  0.41061000  0.74711500  0.87081000  1
  O  O35  1  0.34434400  0.43293900  0.90742300  1
  O  O36  1  0.47638100  0.94424100  0.77745200  1
  O  O37  1  0.64622800  0.37322500  0.56414400  1
  O  O38  1  0.59942000  0.02504700  0.65819600  1
  O  O39  1  0.71086400  0.02768100  0.89298900  1
  O  O40  1  0.61929800  0.71174800  0.97544700  1
  O  O41  1  0.96102400  0.80017600  0.04140200  1
  O  O42  1  0.73834100  0.06244700  0.53556000  1
  O  O43  1  0.68873400  0.75694200  0.57158700  1
  O  O44  1  0.79682000  0.26094600  0.44468400  1
  O  O45  1  0.01509400  0.73620000  0.22497100  1
  O  O46  1  0.89427900  0.36149500  0.31227100  1
  O  O47  1  0.71095200  0.63055700  0.69545100  1
  O  O48  1  0.63656200  0.28826900  0.77052200  1
  O  O49  1  0.01576400  0.36113400  0.56273800  1
  O  O50  1  0.96732000  0.04553500  0.63601700  1
  O  O51  1  0.07436700  0.40404200  0.20078200  1
  O  O52  1  0.00845800  0.08572800  0.23917700  1
  O  O53  1  0.14913400  0.61143600  0.10846600  1
  O  O54  1  0.86860400  0.41397800  0.89693200  1
  O  O55  1  0.97851300  0.91989400  0.76128600  1
  O  O56  1  0.90878300  0.62169600  0.80440900  1
  O  O57  1  0.04202000  0.94535100  0.35017400  1
  O  O58  1  0.96703100  0.62856900  0.44036600  1
  O  O59  1  0.37051600  0.68614000  0.22408800  1
  O  O60  1  0.27205600  0.36994800  0.30758900  1
  O  O61  1  0.04537100  0.30465000  0.76699600  1
  O  O62  1  0.08621000  0.63527300  0.68991600  1
  O  O63  1  0.18501400  0.72879500  0.55804800  1
  O  O64  1  0.31257300  0.25109400  0.43511700  1
  O  O65  1  0.23085100  0.93208300  0.46988500  1
  O  O66  1  0.06472000  0.16997600  0.94707200  1
  O  O67  1  0.39540800  0.30181700  0.01742500  1
  O  O68  1  0.29846100  0.95406300  0.10336800  1
  O  O69  1  0.44909300  0.95171300  0.35253800  1
  O  O70  1  0.34194900  0.63139000  0.43905900  1
  O  O71  1  0.50886700  0.06657300  0.22242100  1
  O  O72  1  0.65107200  0.56390200  0.09691700  1
  O  O73  1  0.55902800  0.25599500  0.13004400  1
  O  O74  1  0.66027900  0.93775400  0.10780300  1
  O  O75  1  0.75598100  0.28069200  0.01887900  1
  O  O76  1  0.72358200  0.82870000  0.27931800  1
