# generated using pymatgen
data_Ca3Y9Al18CrSiO48
_symmetry_space_group_name_H-M   'P 1'
_cell_length_a   10.49929600
_cell_length_b   10.50177627
_cell_length_c   10.50375461
_cell_angle_alpha   109.32770414
_cell_angle_beta   109.31432781
_cell_angle_gamma   109.55634273
_symmetry_Int_Tables_number   1
_chemical_formula_structural   Ca3Y9Al18CrSiO48
_chemical_formula_sum   'Ca3 Y9 Al18 Cr1 Si1 O48'
_cell_volume   893.90697907
_cell_formula_units_Z   1
loop_
 _symmetry_equiv_pos_site_id
 _symmetry_equiv_pos_as_xyz
  1  'x, y, z'
loop_
 _atom_site_type_symbol
 _atom_site_label
 _atom_site_symmetry_multiplicity
 _atom_site_fract_x
 _atom_site_fract_y
 _atom_site_fract_z
 _atom_site_occupancy
  Ca  Ca0  1  0.11797400  0.87094300  0.24229100  1
  Ca  Ca1  1  0.62792300  0.25241000  0.87803000  1
  Ca  Ca2  1  0.24505300  0.61779200  0.37306500  1
  Y  Y3  1  0.36853600  0.74292000  0.11929200  1
  Y  Y4  1  0.75458100  0.38077500  0.62785000  1
  Y  Y5  1  0.88144900  0.13057500  0.75858500  1
  Y  Y6  1  0.74808200  0.87543500  0.12106200  1
  Y  Y7  1  0.62474900  0.37233500  0.24795400  1
  Y  Y8  1  0.87492800  0.75411400  0.62929800  1
  Y  Y9  1  0.12665200  0.24875600  0.37161200  1
  Y  Y10  1  0.37380300  0.62451300  0.74719700  1
  Y  Y11  1  0.25359800  0.12734500  0.87658000  1
  Al  Al12  1  0.37344700  0.12804700  0.25109300  1
  Al  Al13  1  0.25129500  0.37749800  0.12705300  1
  Al  Al14  1  0.49896100  0.49953900  0.49875400  1
  Al  Al15  1  0.12373100  0.74850400  0.87361100  1
  Al  Al16  1  0.75052000  0.12569700  0.37195200  1
  Al  Al17  1  0.62949900  0.75081900  0.37406100  1
  Al  Al18  1  0.00185300  0.00074600  0.00257300  1
  Al  Al19  1  0.12545800  0.37479700  0.74974400  1
  Al  Al20  1  0.00123000  0.00103800  0.50284000  1
  Al  Al21  1  0.49924400  0.50144100  0.99898600  1
  Al  Al22  1  0.00412500  0.49836400  0.49897300  1
  Al  Al23  1  0.37117200  0.24975400  0.62797000  1
  Al  Al24  1  0.87320500  0.25029000  0.12421800  1
  Al  Al25  1  0.24897300  0.87213000  0.62985300  1
  Al  Al26  1  0.50033100  0.00181500  0.00053100  1
  Al  Al27  1  0.74996000  0.62531600  0.87473600  1
  Al  Al28  1  0.62617400  0.87107000  0.74977500  1
  Al  Al29  1  0.99739700  0.49783400  0.99817500  1
  Cr  Cr30  1  0.49568900  0.99866300  0.49924000  1
  Si  Si31  1  0.87485300  0.62651800  0.24991900  1
  O  O32  1  0.11622000  0.69440300  0.01570200  1
  O  O33  1  0.52267900  0.32080600  0.40275100  1
  O  O34  1  0.70006900  0.58135500  0.67895800  1
  O  O35  1  0.38742200  0.98287600  0.30374900  1
  O  O36  1  0.19875100  0.52035900  0.11612900  1
  O  O37  1  0.48757900  0.80953800  0.38338800  1
  O  O38  1  0.69766800  0.11918000  0.51855600  1
  O  O39  1  0.59749400  0.98110800  0.17957600  1
  O  O40  1  0.97919400  0.60022500  0.67516100  1
  O  O41  1  0.80249900  0.32272800  0.42120100  1
  O  O42  1  0.82232200  0.92157200  0.80125500  1
  O  O43  1  0.40441600  0.38353100  0.08220900  1
  O  O44  1  0.97868000  0.38068800  0.79696900  1
  O  O45  1  0.62102200  0.59997100  0.41900900  1
  O  O46  1  0.57778400  0.69941800  0.17817800  1
  O  O47  1  0.41825500  0.11918800  0.10017100  1
  O  O48  1  0.82135000  0.90350900  0.52159400  1
  O  O49  1  0.10155600  0.18055500  0.98103000  1
  O  O50  1  0.89830500  0.07547700  0.37932100  1
  O  O51  1  0.32027500  0.79991200  0.92025900  1
  O  O52  1  0.11926400  0.41822300  0.59891100  1
  O  O53  1  0.08063400  0.17979700  0.70123700  1
  O  O54  1  0.69106800  0.49747800  0.11200100  1
  O  O55  1  0.08040400  0.90060700  0.88191800  1
  O  O56  1  0.91822300  0.09844900  0.11715100  1
  O  O57  1  0.31996200  0.51967400  0.90037200  1
  O  O58  1  0.91103300  0.80754600  0.30156500  1
  O  O59  1  0.88543600  0.58450800  0.39217600  1
  O  O60  1  0.67954000  0.20178700  0.08586300  1
  O  O61  1  0.09859400  0.91859800  0.61889100  1
  O  O62  1  0.89594300  0.82128700  0.01593800  1
  O  O63  1  0.17732200  0.09936700  0.48451400  1
  O  O64  1  0.58156000  0.88289600  0.90122900  1
  O  O65  1  0.42078300  0.30339000  0.82361800  1
  O  O66  1  0.38254200  0.39987400  0.58134400  1
  O  O67  1  0.00204400  0.61092100  0.19628300  1
  O  O68  1  0.59829100  0.61866800  0.91938000  1
  O  O69  1  0.17997600  0.08255700  0.19980200  1
  O  O70  1  0.19897800  0.67875900  0.58313500  1
  O  O71  1  0.01554600  0.39500200  0.32073500  1
  O  O72  1  0.39822600  0.01531700  0.82174400  1
  O  O73  1  0.31088400  0.89025200  0.49044200  1
  O  O74  1  0.51389400  0.19383800  0.60962900  1
  O  O75  1  0.80264500  0.48224800  0.87900800  1
  O  O76  1  0.61647200  0.01265800  0.69048000  1
  O  O77  1  0.30261700  0.41503000  0.31981100  1
  O  O78  1  0.48488300  0.67848600  0.60142500  1
  O  O79  1  0.88525000  0.29858900  0.97935400  1
