# generated using pymatgen
data_Na2Sc2P4H12C4O13
_symmetry_space_group_name_H-M   'P 1'
_cell_length_a   18.06031700
_cell_length_b   18.06031700
_cell_length_c   5.45529200
_cell_angle_alpha   90.00000000
_cell_angle_beta   90.00000000
_cell_angle_gamma   90.00000000
_symmetry_Int_Tables_number   1
_chemical_formula_structural   Na2Sc2P4H12C4O13
_chemical_formula_sum   'Na8 Sc8 P16 H48 C16 O52'
_cell_volume   1779.38014163
_cell_formula_units_Z   4
loop_
 _symmetry_equiv_pos_site_id
 _symmetry_equiv_pos_as_xyz
  1  'x, y, z'
loop_
 _atom_site_type_symbol
 _atom_site_label
 _atom_site_symmetry_multiplicity
 _atom_site_fract_x
 _atom_site_fract_y
 _atom_site_fract_z
 _atom_site_occupancy
  Na  Na0  1  0.37035100  0.03359500  0.01003800  1
  Na  Na1  1  0.62964900  0.96640500  0.01003800  1
  Na  Na2  1  0.46640500  0.87035100  0.51003800  1
  Na  Na3  1  0.53359500  0.12964900  0.51003800  1
  Na  Na4  1  0.12964900  0.46640500  0.48996200  1
  Na  Na5  1  0.87035100  0.53359500  0.48996200  1
  Na  Na6  1  0.03359500  0.62964900  0.98996200  1
  Na  Na7  1  0.96640500  0.37035100  0.98996200  1
  Sc  Sc8  1  0.33119700  0.15348200  0.49304400  1
  Sc  Sc9  1  0.66880300  0.84651800  0.49304400  1
  Sc  Sc10  1  0.34651800  0.83119700  0.99304400  1
  Sc  Sc11  1  0.65348200  0.16880300  0.99304400  1
  Sc  Sc12  1  0.16880300  0.34651800  0.00695600  1
  Sc  Sc13  1  0.83119700  0.65348200  0.00695600  1
  Sc  Sc14  1  0.15348200  0.66880300  0.50695600  1
  Sc  Sc15  1  0.84651800  0.33119700  0.50695600  1
  P  P16  1  0.45468200  0.18263100  0.00297000  1
  P  P17  1  0.54531800  0.81736900  0.00297000  1
  P  P18  1  0.31736900  0.95468200  0.50297000  1
  P  P19  1  0.68263100  0.04531800  0.50297000  1
  P  P20  1  0.04531800  0.31736900  0.49703000  1
  P  P21  1  0.95468200  0.68263100  0.49703000  1
  P  P22  1  0.18263100  0.54531800  0.99703000  1
  P  P23  1  0.81736900  0.45468200  0.99703000  1
  P  P24  1  0.20788100  0.15490800  0.98998100  1
  P  P25  1  0.79211900  0.84509200  0.98998100  1
  P  P26  1  0.34509200  0.70788100  0.48998100  1
  P  P27  1  0.65490800  0.29211900  0.48998100  1
  P  P28  1  0.29211900  0.34509200  0.51001900  1
  P  P29  1  0.70788100  0.65490800  0.51001900  1
  P  P30  1  0.15490800  0.79211900  0.01001900  1
  P  P31  1  0.84509200  0.20788100  0.01001900  1
  H  H32  1  0.50795600  0.30052100  0.90683700  1
  H  H33  1  0.49204400  0.69947900  0.90683700  1
  H  H34  1  0.19947900  0.00795600  0.40683700  1
  H  H35  1  0.80052100  0.99204400  0.40683700  1
  H  H36  1  0.99204400  0.19947900  0.59316300  1
  H  H37  1  0.00795600  0.80052100  0.59316300  1
  H  H38  1  0.30052100  0.49204400  0.09316300  1
  H  H39  1  0.69947900  0.50795600  0.09316300  1
  H  H40  1  0.41089200  0.29733600  0.83448000  1
  H  H41  1  0.58910800  0.70266400  0.83448000  1
  H  H42  1  0.20266400  0.91089200  0.33448000  1
  H  H43  1  0.79733600  0.08910800  0.33448000  1
  H  H44  1  0.08910800  0.20266400  0.66552000  1
  H  H45  1  0.91089200  0.79733600  0.66552000  1
  H  H46  1  0.29733600  0.58910800  0.16552000  1
  H  H47  1  0.70266400  0.41089200  0.16552000  1
  H  H48  1  0.44013100  0.30886200  0.14426500  1
  H  H49  1  0.55986900  0.69113800  0.14426500  1
  H  H50  1  0.19113800  0.94013100  0.64426500  1
  H  H51  1  0.80886200  0.05986900  0.64426500  1
  H  H52  1  0.05986900  0.19113800  0.35573500  1
  H  H53  1  0.94013100  0.80886200  0.35573500  1
  H  H54  1  0.30886200  0.55986900  0.85573500  1
  H  H55  1  0.69113800  0.44013100  0.85573500  1
  H  H56  1  0.10553600  0.08320800  0.82666700  1
  H  H57  1  0.89446400  0.91679200  0.82666700  1
  H  H58  1  0.41679200  0.60553600  0.32666700  1
  H  H59  1  0.58320800  0.39446400  0.32666700  1
  H  H60  1  0.39446400  0.41679200  0.67333300  1
  H  H61  1  0.60553600  0.58320800  0.67333300  1
  H  H62  1  0.08320800  0.89446400  0.17333300  1
  H  H63  1  0.91679200  0.10553600  0.17333300  1
  H  H64  1  0.15401200  0.03468100  0.06194800  1
  H  H65  1  0.84598800  0.96531900  0.06194800  1
  H  H66  1  0.46531900  0.65401200  0.56194800  1
  H  H67  1  0.53468100  0.34598800  0.56194800  1
  H  H68  1  0.34598800  0.46531900  0.43805200  1
  H  H69  1  0.65401200  0.53468100  0.43805200  1
  H  H70  1  0.03468100  0.84598800  0.93805200  1
  H  H71  1  0.96531900  0.15401200  0.93805200  1
  H  H72  1  0.09061500  0.10602100  0.14098700  1
  H  H73  1  0.90938500  0.89397900  0.14098700  1
  H  H74  1  0.39397900  0.59061500  0.64098700  1
  H  H75  1  0.60602100  0.40938500  0.64098700  1
  H  H76  1  0.40938500  0.39397900  0.35901300  1
  H  H77  1  0.59061500  0.60602100  0.35901300  1
  H  H78  1  0.10602100  0.90938500  0.85901300  1
  H  H79  1  0.89397900  0.09061500  0.85901300  1
  C  C80  1  0.45327800  0.28231600  0.96931800  1
  C  C81  1  0.54672200  0.71768400  0.96931800  1
  C  C82  1  0.21768400  0.95327800  0.46931800  1
  C  C83  1  0.78231600  0.04672200  0.46931800  1
  C  C84  1  0.04672200  0.21768400  0.53068200  1
  C  C85  1  0.95327800  0.78231600  0.53068200  1
  C  C86  1  0.28231600  0.54672200  0.03068200  1
  C  C87  1  0.71768400  0.45327800  0.03068200  1
  C  C88  1  0.13223200  0.08874600  0.00634800  1
  C  C89  1  0.86776800  0.91125400  0.00634800  1
  C  C90  1  0.41125400  0.63223200  0.50634800  1
  C  C91  1  0.58874600  0.36776800  0.50634800  1
  C  C92  1  0.36776800  0.41125400  0.49365200  1
  C  C93  1  0.63223200  0.58874600  0.49365200  1
  C  C94  1  0.08874600  0.86776800  0.99365200  1
  C  C95  1  0.91125400  0.13223200  0.99365200  1
  O  O96  1  0.42535900  0.16022600  0.25839400  1
  O  O97  1  0.57464100  0.83977400  0.25839400  1
  O  O98  1  0.33977400  0.92535900  0.75839400  1
  O  O99  1  0.66022600  0.07464100  0.75839400  1
  O  O100  1  0.07464100  0.33977400  0.24160600  1
  O  O101  1  0.92535900  0.66022600  0.24160600  1
  O  O102  1  0.16022600  0.57464100  0.74160600  1
  O  O103  1  0.83977400  0.42535900  0.74160600  1
  O  O104  1  0.40771100  0.14871300  0.79437100  1
  O  O105  1  0.59228900  0.85128700  0.79437100  1
  O  O106  1  0.35128700  0.90771100  0.29437100  1
  O  O107  1  0.64871300  0.09228900  0.29437100  1
  O  O108  1  0.09228900  0.35128700  0.70562900  1
  O  O109  1  0.90771100  0.64871300  0.70562900  1
  O  O110  1  0.14871300  0.59228900  0.20562900  1
  O  O111  1  0.85128700  0.40771100  0.20562900  1
  O  O112  1  0.34489400  0.03538600  0.47943200  1
  O  O113  1  0.65510600  0.96461400  0.47943200  1
  O  O114  1  0.46461400  0.84489400  0.97943200  1
  O  O115  1  0.53538600  0.15510600  0.97943200  1
  O  O116  1  0.15510600  0.46461400  0.02056800  1
  O  O117  1  0.84489400  0.53538600  0.02056800  1
  O  O118  1  0.03538600  0.65510600  0.52056800  1
  O  O119  1  0.96461400  0.34489400  0.52056800  1
  O  O120  1  0.24339000  0.14595300  0.73458200  1
  O  O121  1  0.75661000  0.85404700  0.73458200  1
  O  O122  1  0.35404700  0.74339000  0.23458200  1
  O  O123  1  0.64595300  0.25661000  0.23458200  1
  O  O124  1  0.25661000  0.35404700  0.76541800  1
  O  O125  1  0.74339000  0.64595300  0.76541800  1
  O  O126  1  0.14595300  0.75661000  0.26541800  1
  O  O127  1  0.85404700  0.24339000  0.26541800  1
  O  O128  1  0.26390500  0.13301800  0.18988900  1
  O  O129  1  0.73609500  0.86698200  0.18988900  1
  O  O130  1  0.36698200  0.76390500  0.68988900  1
  O  O131  1  0.63301800  0.23609500  0.68988900  1
  O  O132  1  0.23609500  0.36698200  0.31011100  1
  O  O133  1  0.76390500  0.63301800  0.31011100  1
  O  O134  1  0.13301800  0.73609500  0.81011100  1
  O  O135  1  0.86698200  0.26390500  0.81011100  1
  O  O136  1  0.32567800  0.26793800  0.47162100  1
  O  O137  1  0.67432200  0.73206200  0.47162100  1
  O  O138  1  0.23206200  0.82567800  0.97162100  1
  O  O139  1  0.76793800  0.17432200  0.97162100  1
  O  O140  1  0.17432200  0.23206200  0.02837900  1
  O  O141  1  0.82567800  0.76793800  0.02837900  1
  O  O142  1  0.26793800  0.67432200  0.52837900  1
  O  O143  1  0.73206200  0.32567800  0.52837900  1
  O  O144  1  0.50000000  0.00000000  0.02039000  1
  O  O145  1  0.50000000  0.00000000  0.52039000  1
  O  O146  1  0.00000000  0.50000000  0.47961000  1
  O  O147  1  0.00000000  0.50000000  0.97961000  1
