# generated using pymatgen
data_Fe2O3
_symmetry_space_group_name_H-M   'P 1'
_cell_length_a   8.23585389
_cell_length_b   8.23241683
_cell_length_c   8.22394943
_cell_angle_alpha   71.06874052
_cell_angle_beta   109.56383065
_cell_angle_gamma   70.17116481
_symmetry_Int_Tables_number   1
_chemical_formula_structural   Fe2O3
_chemical_formula_sum   'Fe16 O24'
_cell_volume   429.68825542
_cell_formula_units_Z   8
loop_
 _symmetry_equiv_pos_site_id
 _symmetry_equiv_pos_as_xyz
  1  'x, y, z'
loop_
 _atom_site_type_symbol
 _atom_site_label
 _atom_site_symmetry_multiplicity
 _atom_site_fract_x
 _atom_site_fract_y
 _atom_site_fract_z
 _atom_site_occupancy
  Fe  Fe0  1  0.78607000  0.96821900  0.24959700  1
  Fe  Fe1  1  0.46286600  0.75124300  0.21307800  1
  Fe  Fe2  1  0.21296300  0.03770200  0.75071100  1
  Fe  Fe3  1  0.24781200  0.78401000  0.46511700  1
  Fe  Fe4  1  0.29159200  0.46019100  0.25146700  1
  Fe  Fe5  1  0.75188700  0.21662800  0.53939200  1
  Fe  Fe6  1  0.24333500  0.28880600  0.96101500  1
  Fe  Fe7  1  0.74766200  0.71762500  0.03388200  1
  Fe  Fe8  1  0.71250400  0.53787600  0.74976700  1
  Fe  Fe9  1  0.04014900  0.24904700  0.28893800  1
  Fe  Fe10  1  0.96132800  0.74913900  0.71299000  1
  Fe  Fe11  1  0.53580600  0.25213000  0.78564100  1
  Fe  Fe12  1  0.99918300  0.50128400  0.49586000  1
  Fe  Fe13  1  0.00009100  0.99660500  0.00082000  1
  Fe  Fe14  1  0.50169700  0.49956500  0.00103700  1
  Fe  Fe15  1  0.50005300  0.99844700  0.49823300  1
  O  O16  1  0.99253900  0.04612300  0.23140400  1
  O  O17  1  0.22448600  0.72754800  0.22976800  1
  O  O18  1  0.73095300  0.77522000  0.77376200  1
  O  O19  1  0.72429800  0.00149900  0.45221700  1
  O  O20  1  0.22563700  0.04274200  0.00468300  1
  O  O21  1  0.95254500  0.27545700  0.49450300  1
  O  O22  1  0.54958300  0.45740800  0.27290900  1
  O  O23  1  0.45477400  0.77332000  0.95220600  1
  O  O24  1  0.76695600  0.95973700  0.99213900  1
  O  O25  1  0.05056700  0.49956300  0.27470700  1
  O  O26  1  0.22388600  0.54491500  0.96023300  1
  O  O27  1  0.49489600  0.23582300  0.53943400  1
  O  O28  1  0.27492300  0.99546800  0.54727200  1
  O  O29  1  0.50714000  0.76347800  0.45927400  1
  O  O30  1  0.77370200  0.27443800  0.76732300  1
  O  O31  1  0.45143300  0.54344700  0.72412000  1
  O  O32  1  0.54584600  0.23003700  0.04604600  1
  O  O33  1  0.95788500  0.49235300  0.73287300  1
  O  O34  1  0.77605600  0.45842700  0.04205700  1
  O  O35  1  0.27729300  0.26206200  0.73261900  1
  O  O36  1  0.04836800  0.72363500  0.50851400  1
  O  O37  1  0.72739100  0.73218600  0.27063000  1
  O  O38  1  0.00428800  0.95422100  0.76809100  1
  O  O39  1  0.26955500  0.22237300  0.22567500  1
