# generated using pymatgen
data_Sr3Nd10Al12Si18(N2O)18
_symmetry_space_group_name_H-M   'P 1'
_cell_length_a   11.69093901
_cell_length_b   11.69093901
_cell_length_c   11.69476286
_cell_angle_alpha   70.56198168
_cell_angle_beta   70.56198168
_cell_angle_gamma   109.44454157
_symmetry_Int_Tables_number   1
_chemical_formula_structural   Sr3Nd10Al12Si18(N2O)18
_chemical_formula_sum   'Sr3 Nd10 Al12 Si18 N36 O18'
_cell_volume   1231.87381566
_cell_formula_units_Z   1
loop_
 _symmetry_equiv_pos_site_id
 _symmetry_equiv_pos_as_xyz
  1  'x, y, z'
loop_
 _atom_site_type_symbol
 _atom_site_label
 _atom_site_symmetry_multiplicity
 _atom_site_fract_x
 _atom_site_fract_y
 _atom_site_fract_z
 _atom_site_occupancy
  Sr  Sr0  1  0.42499200  0.99997100  0.31995000  1
  Sr  Sr1  1  0.99997100  0.42499200  0.31995000  1
  Sr  Sr2  1  0.99958700  0.99958700  0.00207200  1
  Nd  Nd3  1  0.57914000  0.57914000  0.74780400  1
  Nd  Nd4  1  0.75065400  0.32678000  0.66801900  1
  Nd  Nd5  1  0.32678000  0.75065400  0.66801900  1
  Nd  Nd6  1  0.00279000  0.67476200  0.57737400  1
  Nd  Nd7  1  0.67476200  0.00279000  0.57737400  1
  Nd  Nd8  1  0.57553000  0.24957400  0.41970200  1
  Nd  Nd9  1  0.24957400  0.57553000  0.41970200  1
  Nd  Nd10  1  0.32647000  0.32647000  0.25293600  1
  Nd  Nd11  1  0.67319800  0.42105300  0.00221300  1
  Nd  Nd12  1  0.42105300  0.67319800  0.00221300  1
  Al  Al13  1  0.99986300  0.75370700  0.83755400  1
  Al  Al14  1  0.75311900  0.16193100  0.00027300  1
  Al  Al15  1  0.16193100  0.75311900  0.00027300  1
  Al  Al16  1  0.75370700  0.99986300  0.83755400  1
  Al  Al17  1  0.83765400  0.83765400  0.40945200  1
  Al  Al18  1  0.24738300  0.40995800  0.75292700  1
  Al  Al19  1  0.40995800  0.24738300  0.75292700  1
  Al  Al20  1  0.24639700  0.24639700  0.59172300  1
  Al  Al21  1  0.59104500  0.83788700  0.16244800  1
  Al  Al22  1  0.83788700  0.59104500  0.16244800  1
  Al  Al23  1  0.00045500  0.16266600  0.24619200  1
  Al  Al24  1  0.16266600  0.00045500  0.24619200  1
  Si  Si25  1  0.69909800  0.69909800  0.99984300  1
  Si  Si26  1  0.84003800  0.84003800  0.69856600  1
  Si  Si27  1  0.16086900  0.46172900  0.99827300  1
  Si  Si28  1  0.99952000  0.29979700  0.69978400  1
  Si  Si29  1  0.99953500  0.46138400  0.83907000  1
  Si  Si30  1  0.46138400  0.99953500  0.83907000  1
  Si  Si31  1  0.69908300  0.53908600  0.46137700  1
  Si  Si32  1  0.53908600  0.69908300  0.46137700  1
  Si  Si33  1  0.29979700  0.99952000  0.69978400  1
  Si  Si34  1  0.53871700  0.53871700  0.30058500  1
  Si  Si35  1  0.00042900  0.16138700  0.53763000  1
  Si  Si36  1  0.16138700  0.00042900  0.53763000  1
  Si  Si37  1  0.84172100  0.30129000  0.15923900  1
  Si  Si38  1  0.30129000  0.84172100  0.15923900  1
  Si  Si39  1  0.69966800  0.00007700  0.30104100  1
  Si  Si40  1  0.00007700  0.69966800  0.30104100  1
  Si  Si41  1  0.46172900  0.16086900  0.99827300  1
  Si  Si42  1  0.30141600  0.30141600  0.00004200  1
  N  N43  1  0.68885600  0.84250600  0.99982700  1
  N  N44  1  0.84250600  0.68885600  0.99982700  1
  N  N45  1  0.69552000  0.69552000  0.85369400  1
  N  N46  1  0.30572700  0.45176200  0.99907700  1
  N  N47  1  0.84661100  0.15614600  0.84368400  1
  N  N48  1  0.15614600  0.84661100  0.84368400  1
  N  N49  1  0.48020000  0.15129000  0.84709500  1
  N  N50  1  0.15129000  0.48020000  0.84709500  1
  N  N51  1  0.31181000  0.31181000  0.84624400  1
  N  N52  1  0.00009600  0.30399000  0.55082700  1
  N  N53  1  0.00004500  0.84990300  0.67252900  1
  N  N54  1  0.84990300  0.00004500  0.67252900  1
  N  N55  1  0.84306000  0.99961500  0.31109300  1
  N  N56  1  0.67266600  0.67266600  0.47766700  1
  N  N57  1  0.85373200  0.55101900  0.45134200  1
  N  N58  1  0.55101900  0.85373200  0.45134200  1
  N  N59  1  0.15348000  0.31066900  0.69027400  1
  N  N60  1  0.31066900  0.15348000  0.69027400  1
  N  N61  1  0.99673700  0.44839100  0.69671400  1
  N  N62  1  0.44839100  0.99673700  0.69671400  1
  N  N63  1  0.52176900  0.67223900  0.32784200  1
  N  N64  1  0.67223900  0.52176900  0.32784200  1
  N  N65  1  0.00000400  0.69289900  0.15619600  1
  N  N66  1  0.30399000  0.00009600  0.55082700  1
  N  N67  1  0.15061700  0.15061700  0.52267500  1
  N  N68  1  0.99961500  0.84306000  0.31109300  1
  N  N69  1  0.69887400  0.14723800  0.30486500  1
  N  N70  1  0.14723800  0.69887400  0.30486500  1
  N  N71  1  0.55047200  0.55047200  0.14509600  1
  N  N72  1  0.84903500  0.32813600  0.99937200  1
  N  N73  1  0.32813600  0.84903500  0.99937200  1
  N  N74  1  0.69289900  0.00000400  0.15619600  1
  N  N75  1  0.15831200  0.15831200  0.15266600  1
  N  N76  1  0.00183400  0.32544000  0.14401200  1
  N  N77  1  0.32544000  0.00183400  0.14401200  1
  N  N78  1  0.45176200  0.30572700  0.99907700  1
  O  O79  1  0.74989600  0.50116300  0.74918600  1
  O  O80  1  0.50116300  0.74989600  0.74918600  1
  O  O81  1  0.81154600  0.81154600  0.57836700  1
  O  O82  1  0.99969000  0.61024400  0.81257100  1
  O  O83  1  0.61024400  0.99969000  0.81257100  1
  O  O84  1  0.39139600  0.57718800  0.61032200  1
  O  O85  1  0.57718800  0.39139600  0.61032200  1
  O  O86  1  0.24063700  0.73327800  0.51210500  1
  O  O87  1  0.73327800  0.24063700  0.51210500  1
  O  O88  1  0.99929700  0.18237900  0.39142400  1
  O  O89  1  0.38987800  0.38987800  0.42307700  1
  O  O90  1  0.42300700  0.81343200  0.18609700  1
  O  O91  1  0.81343200  0.42300700  0.18609700  1
  O  O92  1  0.50658900  0.26613700  0.24444400  1
  O  O93  1  0.26613700  0.50658900  0.24444400  1
  O  O94  1  0.18237900  0.99929700  0.39142400  1
  O  O95  1  0.18758100  0.61006800  0.99974100  1
  O  O96  1  0.61006800  0.18758100  0.99974100  1
