# generated using pymatgen
data_CrO3
_symmetry_space_group_name_H-M   'P 1'
_cell_length_a   4.91040250
_cell_length_b   4.91040250
_cell_length_c   5.78753000
_cell_angle_alpha   90.00000000
_cell_angle_beta   90.00000000
_cell_angle_gamma   117.70433022
_symmetry_Int_Tables_number   1
_chemical_formula_structural   CrO3
_chemical_formula_sum   'Cr2 O6'
_cell_volume   123.55109452
_cell_formula_units_Z   2
loop_
 _symmetry_equiv_pos_site_id
 _symmetry_equiv_pos_as_xyz
  1  'x, y, z'
loop_
 _atom_site_type_symbol
 _atom_site_label
 _atom_site_symmetry_multiplicity
 _atom_site_fract_x
 _atom_site_fract_y
 _atom_site_fract_z
 _atom_site_occupancy
  Cr  Cr0  1  0.09378800  0.88379400  0.25000000  1
  Cr  Cr1  1  0.88379400  0.09378800  0.75000000  1
  O  O2  1  0.84827400  0.40066600  0.75000000  1
  O  O3  1  0.40066600  0.84827400  0.25000000  1
  O  O4  1  0.80767500  0.55016400  0.25000000  1
  O  O5  1  0.55016400  0.80767500  0.75000000  1
  O  O6  1  0.09183200  0.09183200  0.00000000  1
  O  O7  1  0.09183200  0.09183200  0.50000000  1
