# generated using pymatgen
data_Ti2P4H9C2NO16
_symmetry_space_group_name_H-M   'P 1'
_cell_length_a   6.45316200
_cell_length_b   10.91397500
_cell_length_c   21.04182146
_cell_angle_alpha   74.04428698
_cell_angle_beta   90.00000000
_cell_angle_gamma   90.00000000
_symmetry_Int_Tables_number   1
_chemical_formula_structural   Ti2P4H9C2NO16
_chemical_formula_sum   'Ti8 P16 H36 C8 N4 O64'
_cell_volume   1424.87447840
_cell_formula_units_Z   4
loop_
 _symmetry_equiv_pos_site_id
 _symmetry_equiv_pos_as_xyz
  1  'x, y, z'
loop_
 _atom_site_type_symbol
 _atom_site_label
 _atom_site_symmetry_multiplicity
 _atom_site_fract_x
 _atom_site_fract_y
 _atom_site_fract_z
 _atom_site_occupancy
  Ti  Ti0  1  0.53754100  0.30673700  0.30065600  1
  Ti  Ti1  1  0.96245900  0.30673700  0.80065600  1
  Ti  Ti2  1  0.46245900  0.69326300  0.69934400  1
  Ti  Ti3  1  0.03754100  0.69326300  0.19934400  1
  Ti  Ti4  1  0.03985400  0.29352100  0.10692100  1
  Ti  Ti5  1  0.46014600  0.29352100  0.60692100  1
  Ti  Ti6  1  0.96014600  0.70647900  0.89307900  1
  Ti  Ti7  1  0.53985400  0.70647900  0.39307900  1
  P  P8  1  0.68442300  0.00512500  0.32797800  1
  P  P9  1  0.81557700  0.00512500  0.82797800  1
  P  P10  1  0.31557700  0.99487500  0.67202200  1
  P  P11  1  0.18442300  0.99487500  0.17202200  1
  P  P12  1  0.03751600  0.36018300  0.25625800  1
  P  P13  1  0.46248400  0.36018300  0.75625800  1
  P  P14  1  0.96248400  0.63981700  0.74374200  1
  P  P15  1  0.53751600  0.63981700  0.24374200  1
  P  P16  1  0.54648400  0.33601300  0.13466700  1
  P  P17  1  0.95351600  0.33601300  0.63466700  1
  P  P18  1  0.45351600  0.66398700  0.86533300  1
  P  P19  1  0.04648400  0.66398700  0.36533300  1
  P  P20  1  0.07452200  0.62506100  0.05351400  1
  P  P21  1  0.42547800  0.62506100  0.55351400  1
  P  P22  1  0.92547800  0.37493900  0.94648600  1
  P  P23  1  0.57452200  0.37493900  0.44648600  1
  H  H24  1  0.74884700  0.93300300  0.24117800  1
  H  H25  1  0.75115300  0.93300300  0.74117800  1
  H  H26  1  0.25115300  0.06699700  0.75882200  1
  H  H27  1  0.24884700  0.06699700  0.25882200  1
  H  H28  1  0.70445000  0.51923800  0.12839000  1
  H  H29  1  0.79555000  0.51923800  0.62839000  1
  H  H30  1  0.29555000  0.48076200  0.87161000  1
  H  H31  1  0.20445000  0.48076200  0.37161000  1
  H  H32  1  0.41277600  0.58194600  0.06764700  1
  H  H33  1  0.08722400  0.58194600  0.56764700  1
  H  H34  1  0.58722400  0.41805400  0.93235300  1
  H  H35  1  0.91277600  0.41805400  0.43235300  1
  H  H36  1  0.96716300  0.92507400  0.42644400  1
  H  H37  1  0.53283700  0.92507400  0.92644400  1
  H  H38  1  0.03283700  0.07492600  0.57355600  1
  H  H39  1  0.46716300  0.07492600  0.07355600  1
  H  H40  1  0.09331900  0.80090500  0.48117400  1
  H  H41  1  0.40668100  0.80090500  0.98117400  1
  H  H42  1  0.90668100  0.19909500  0.51882600  1
  H  H43  1  0.59331900  0.19909500  0.01882600  1
  H  H44  1  0.31027700  0.98590200  0.43498300  1
  H  H45  1  0.18972300  0.98590200  0.93498300  1
  H  H46  1  0.68972300  0.01409800  0.56501700  1
  H  H47  1  0.81027700  0.01409800  0.06501700  1
  H  H48  1  0.29139500  0.94360200  0.52340500  1
  H  H49  1  0.20860500  0.94360200  0.02340500  1
  H  H50  1  0.70860500  0.05639800  0.47659500  1
  H  H51  1  0.79139500  0.05639800  0.97659500  1
  H  H52  1  0.95820800  0.84792000  0.57630000  1
  H  H53  1  0.54179200  0.84792000  0.07630000  1
  H  H54  1  0.04179200  0.15208000  0.42370000  1
  H  H55  1  0.45820800  0.15208000  0.92370000  1
  H  H56  1  0.75701400  0.82108100  0.52382400  1
  H  H57  1  0.74298600  0.82108100  0.02382400  1
  H  H58  1  0.24298600  0.17891900  0.47617600  1
  H  H59  1  0.25701400  0.17891900  0.97617600  1
  C  C60  1  0.20736100  0.98203000  0.47687600  1
  C  C61  1  0.29263900  0.98203000  0.97687600  1
  C  C62  1  0.79263900  0.01797000  0.52312400  1
  C  C63  1  0.70736100  0.01797000  0.02312400  1
  C  C64  1  0.88066900  0.88642300  0.52853300  1
  C  C65  1  0.61933100  0.88642300  0.02853300  1
  C  C66  1  0.11933100  0.11357700  0.47146700  1
  C  C67  1  0.38066900  0.11357700  0.97146700  1
  N  N68  1  0.03519800  0.89196200  0.47485700  1
  N  N69  1  0.46480200  0.89196200  0.97485700  1
  N  N70  1  0.96480200  0.10803800  0.52514300  1
  N  N71  1  0.53519800  0.10803800  0.02514300  1
  O  O72  1  0.22909600  0.31313300  0.30018500  1
  O  O73  1  0.27090400  0.31313300  0.80018500  1
  O  O74  1  0.77090400  0.68686700  0.69981500  1
  O  O75  1  0.72909600  0.68686700  0.19981500  1
  O  O76  1  0.52567800  0.30531900  0.39372800  1
  O  O77  1  0.97432200  0.30531900  0.89372800  1
  O  O78  1  0.47432200  0.69468100  0.60627200  1
  O  O79  1  0.02567800  0.69468100  0.10627200  1
  O  O80  1  0.84052800  0.31450900  0.29788200  1
  O  O81  1  0.65947200  0.31450900  0.79788200  1
  O  O82  1  0.15947200  0.68549100  0.70211800  1
  O  O83  1  0.34052800  0.68549100  0.20211800  1
  O  O84  1  0.53000000  0.29306200  0.20946700  1
  O  O85  1  0.97000000  0.29306200  0.70946700  1
  O  O86  1  0.47000000  0.70693800  0.79053300  1
  O  O87  1  0.03000000  0.70693800  0.29053300  1
  O  O88  1  0.53629000  0.49340800  0.27049000  1
  O  O89  1  0.96371000  0.49340800  0.77049000  1
  O  O90  1  0.46371000  0.50659200  0.72951000  1
  O  O91  1  0.03629000  0.50659200  0.22951000  1
  O  O92  1  0.54386000  0.12070400  0.32765700  1
  O  O93  1  0.95614000  0.12070400  0.82765700  1
  O  O94  1  0.45614000  0.87929600  0.67234300  1
  O  O95  1  0.04386000  0.87929600  0.17234300  1
  O  O96  1  0.04218200  0.30114900  0.19686300  1
  O  O97  1  0.45781800  0.30114900  0.69686300  1
  O  O98  1  0.95781800  0.69885100  0.80313700  1
  O  O99  1  0.54218200  0.69885100  0.30313700  1
  O  O100  1  0.34902900  0.31417500  0.09961300  1
  O  O101  1  0.15097100  0.31417500  0.59961300  1
  O  O102  1  0.65097100  0.68582500  0.90038700  1
  O  O103  1  0.84902900  0.68582500  0.40038700  1
  O  O104  1  0.03450200  0.30274100  0.01074800  1
  O  O105  1  0.46549800  0.30274100  0.51074800  1
  O  O106  1  0.96549800  0.69725900  0.98925200  1
  O  O107  1  0.53450200  0.69725900  0.48925200  1
  O  O108  1  0.73447300  0.27840200  0.10897000  1
  O  O109  1  0.76552700  0.27840200  0.60897000  1
  O  O110  1  0.26552700  0.72159800  0.89103000  1
  O  O111  1  0.23447300  0.72159800  0.39103000  1
  O  O112  1  0.06508700  0.11593300  0.12959500  1
  O  O113  1  0.43491300  0.11593300  0.62959500  1
  O  O114  1  0.93491300  0.88406700  0.87040500  1
  O  O115  1  0.56508700  0.88406700  0.37040500  1
  O  O116  1  0.01145200  0.48515900  0.07888600  1
  O  O117  1  0.48854800  0.48515900  0.57888600  1
  O  O118  1  0.98854800  0.51484100  0.92111400  1
  O  O119  1  0.51145200  0.51484100  0.42111400  1
  O  O120  1  0.67468200  0.00135200  0.25325500  1
  O  O121  1  0.82531800  0.00135200  0.75325500  1
  O  O122  1  0.32531800  0.99864800  0.74674500  1
  O  O123  1  0.17468200  0.99864800  0.24674500  1
  O  O124  1  0.89699700  0.00925900  0.35629400  1
  O  O125  1  0.60300300  0.00925900  0.85629400  1
  O  O126  1  0.10300300  0.99074100  0.64370600  1
  O  O127  1  0.39699700  0.99074100  0.14370600  1
  O  O128  1  0.57434200  0.48965000  0.11326700  1
  O  O129  1  0.92565800  0.48965000  0.61326700  1
  O  O130  1  0.42565800  0.51035000  0.88673300  1
  O  O131  1  0.07434200  0.51035000  0.38673300  1
  O  O132  1  0.31382900  0.63945300  0.03616700  1
  O  O133  1  0.18617100  0.63945300  0.53616700  1
  O  O134  1  0.68617100  0.36054700  0.96383300  1
  O  O135  1  0.81382900  0.36054700  0.46383300  1
