# generated using pymatgen
data_Sr10Fe4Co(MoO6)5
_symmetry_space_group_name_H-M   'P 1'
_cell_length_a   7.97763100
_cell_length_b   9.73684348
_cell_length_c   9.84457508
_cell_angle_alpha   81.40600954
_cell_angle_beta   113.86108631
_cell_angle_gamma   114.11769782
_symmetry_Int_Tables_number   1
_chemical_formula_structural   Sr10Fe4Co(MoO6)5
_chemical_formula_sum   'Sr10 Fe4 Co1 Mo5 O30'
_cell_volume   638.17529658
_cell_formula_units_Z   1
loop_
 _symmetry_equiv_pos_site_id
 _symmetry_equiv_pos_as_xyz
  1  'x, y, z'
loop_
 _atom_site_type_symbol
 _atom_site_label
 _atom_site_symmetry_multiplicity
 _atom_site_fract_x
 _atom_site_fract_y
 _atom_site_fract_z
 _atom_site_occupancy
  Sr  Sr0  1  0.05135300  0.39737500  0.19938000  1
  Sr  Sr1  1  0.54582600  0.39696600  0.19973900  1
  Sr  Sr2  1  0.24418800  0.99932500  0.99928400  1
  Sr  Sr3  1  0.75581200  0.00067500  0.00071600  1
  Sr  Sr4  1  0.45417400  0.60303400  0.80026100  1
  Sr  Sr5  1  0.94864700  0.60262500  0.80062000  1
  Sr  Sr6  1  0.64741800  0.19590000  0.59822300  1
  Sr  Sr7  1  0.14656000  0.19515600  0.59889500  1
  Sr  Sr8  1  0.85344000  0.80484400  0.40110500  1
  Sr  Sr9  1  0.35258200  0.80410000  0.40177700  1
  Fe  Fe10  1  0.69968300  0.09736400  0.30134100  1
  Fe  Fe11  1  0.90078900  0.69955100  0.10283900  1
  Fe  Fe12  1  0.09921100  0.30044900  0.89716100  1
  Fe  Fe13  1  0.30031700  0.90263600  0.69865900  1
  Co  Co14  1  0.50000000  0.50000000  0.50000000  1
  Mo  Mo15  1  0.20008700  0.10092800  0.29762500  1
  Mo  Mo16  1  0.39915200  0.69767000  0.09917300  1
  Mo  Mo17  1  0.60084800  0.30233000  0.90082700  1
  Mo  Mo18  1  0.79991300  0.89907200  0.70237500  1
  Mo  Mo19  1  0.00000000  0.50000000  0.50000000  1
  O  O20  1  0.92595500  0.07325600  0.28455400  1
  O  O21  1  0.08842900  0.90580200  0.20603500  1
  O  O22  1  0.51120800  0.89699000  0.19531600  1
  O  O23  1  0.13958100  0.67314700  0.08685200  1
  O  O24  1  0.44802200  0.60471400  0.29194700  1
  O  O25  1  0.66106500  0.72732400  0.11382400  1
  O  O26  1  0.28820800  0.50722000  0.00114200  1
  O  O27  1  0.14896700  0.19971200  0.10122600  1
  O  O28  1  0.71179200  0.49278000  0.99885800  1
  O  O29  1  0.33893500  0.27267600  0.88617600  1
  O  O30  1  0.64899100  0.20199400  0.09587900  1
  O  O31  1  0.86041900  0.32685300  0.91314800  1
  O  O32  1  0.48879200  0.10301000  0.80468400  1
  O  O33  1  0.35100900  0.79800600  0.90412100  1
  O  O34  1  0.91157100  0.09419800  0.79396500  1
  O  O35  1  0.52554000  0.87043200  0.68732200  1
  O  O36  1  0.85103300  0.80028800  0.89877400  1
  O  O37  1  0.07404500  0.92674400  0.71544600  1
  O  O38  1  0.68784700  0.70721700  0.60243400  1
  O  O39  1  0.55197800  0.39528600  0.70805300  1
  O  O40  1  0.11298600  0.69563900  0.59965000  1
  O  O41  1  0.73761500  0.47307900  0.48658100  1
  O  O42  1  0.04757300  0.40382400  0.69115300  1
  O  O43  1  0.26238500  0.52692100  0.51341900  1
  O  O44  1  0.88701400  0.30436100  0.40035000  1
  O  O45  1  0.74930800  0.00041900  0.49822500  1
  O  O46  1  0.31215300  0.29278300  0.39756600  1
  O  O47  1  0.25069200  0.99958100  0.50177500  1
  O  O48  1  0.47446000  0.12956800  0.31267800  1
  O  O49  1  0.95242700  0.59617600  0.30884700  1
