# generated using pymatgen
data_Yb2Se3
_symmetry_space_group_name_H-M   'P 1'
_cell_length_a   16.02601462
_cell_length_b   15.25856155
_cell_length_c   6.80623532
_cell_angle_alpha   83.83240689
_cell_angle_beta   71.19144228
_cell_angle_gamma   24.97615083
_symmetry_Int_Tables_number   1
_chemical_formula_structural   Yb2Se3
_chemical_formula_sum   'Yb8 Se12'
_cell_volume   589.84155993
_cell_formula_units_Z   4
loop_
 _symmetry_equiv_pos_site_id
 _symmetry_equiv_pos_as_xyz
  1  'x, y, z'
loop_
 _atom_site_type_symbol
 _atom_site_label
 _atom_site_symmetry_multiplicity
 _atom_site_fract_x
 _atom_site_fract_y
 _atom_site_fract_z
 _atom_site_occupancy
  Yb  Yb0  1  0.75046300  0.75046300  0.24953700  1
  Yb  Yb1  1  0.24953700  0.24953700  0.75046300  1
  Yb  Yb2  1  0.49953700  0.49953700  0.00046300  1
  Yb  Yb3  1  0.00046300  0.00046300  0.49953700  1
  Yb  Yb4  1  0.09141200  0.09141200  0.90858800  1
  Yb  Yb5  1  0.90858800  0.90858800  0.09141200  1
  Yb  Yb6  1  0.15858800  0.15858800  0.34141200  1
  Yb  Yb7  1  0.34141200  0.34141200  0.15858800  1
  Se  Se8  1  0.08436200  0.57484200  0.91359100  1
  Se  Se9  1  0.42720500  0.91359100  0.57484200  1
  Se  Se10  1  0.91359100  0.42720500  0.08436200  1
  Se  Se11  1  0.57484200  0.08436200  0.42720500  1
  Se  Se12  1  0.16563800  0.67515800  0.33640900  1
  Se  Se13  1  0.82279500  0.33640900  0.67515800  1
  Se  Se14  1  0.33640900  0.82279500  0.16563800  1
  Se  Se15  1  0.67515800  0.16563800  0.82279500  1
  Se  Se16  1  0.06806000  0.43194000  0.43194000  1
  Se  Se17  1  0.43194000  0.06806000  0.06806000  1
  Se  Se18  1  0.18194000  0.81806000  0.81806000  1
  Se  Se19  1  0.81806000  0.18194000  0.18194000  1
