# generated using pymatgen
data_Al2Si2H4O9
_symmetry_space_group_name_H-M   'P 1'
_cell_length_a   5.22580742
_cell_length_b   5.22580742
_cell_length_c   14.58991435
_cell_angle_alpha   86.80074722
_cell_angle_beta   86.80074722
_cell_angle_gamma   120.13460033
_symmetry_Int_Tables_number   1
_chemical_formula_structural   Al2Si2H4O9
_chemical_formula_sum   'Al4 Si4 H8 O18'
_cell_volume   342.42546978
_cell_formula_units_Z   2
loop_
 _symmetry_equiv_pos_site_id
 _symmetry_equiv_pos_as_xyz
  1  'x, y, z'
loop_
 _atom_site_type_symbol
 _atom_site_label
 _atom_site_symmetry_multiplicity
 _atom_site_fract_x
 _atom_site_fract_y
 _atom_site_fract_z
 _atom_site_occupancy
  Al  Al0  1  0.16895500  0.65991500  0.26917600  1
  Al  Al1  1  0.65991500  0.16895500  0.76917600  1
  Al  Al2  1  0.83909400  0.00106700  0.27085500  1
  Al  Al3  1  0.00106700  0.83909400  0.77085500  1
  Si  Si4  1  0.41453000  0.61246200  0.46064200  1
  Si  Si5  1  0.61246200  0.41453000  0.96064200  1
  Si  Si6  1  0.07264400  0.92733700  0.46130700  1
  Si  Si7  1  0.92733700  0.07264400  0.96130700  1
  H  H8  1  0.67601700  0.30972900  0.34604300  1
  H  H9  1  0.30972900  0.67601700  0.84604300  1
  H  H10  1  0.55501300  0.03721300  0.14169800  1
  H  H11  1  0.03721300  0.55501300  0.64169800  1
  H  H12  1  0.25617500  0.36094500  0.14822600  1
  H  H13  1  0.36094500  0.25617500  0.64822600  1
  H  H14  1  0.86472700  0.69881500  0.14364500  1
  H  H15  1  0.69881500  0.86472700  0.64364500  1
  O  O16  1  0.19794500  0.72234100  0.50807500  1
  O  O17  1  0.72234100  0.19794500  0.00807500  1
  O  O18  1  0.72954400  0.78565600  0.50835800  1
  O  O19  1  0.78565600  0.72954400  0.00835800  1
  O  O20  1  0.27157500  0.25983600  0.49505000  1
  O  O21  1  0.25983600  0.27157500  0.99505000  1
  O  O22  1  0.47023400  0.68875200  0.34973600  1
  O  O23  1  0.68875200  0.47023400  0.84973600  1
  O  O24  1  0.08740100  0.92297400  0.35017500  1
  O  O25  1  0.92297400  0.08740100  0.85017500  1
  O  O26  1  0.86239900  0.30907200  0.34393600  1
  O  O27  1  0.30907200  0.86239900  0.84393600  1
  O  O28  1  0.52374700  0.96206300  0.20627200  1
  O  O29  1  0.96206300  0.52374700  0.70627200  1
  O  O30  1  0.13837400  0.35030200  0.20340800  1
  O  O31  1  0.35030300  0.13837400  0.70340800  1
  O  O32  1  0.91168200  0.74066600  0.20652800  1
  O  O33  1  0.74066600  0.91168200  0.70652800  1
