# generated using pymatgen
data_RbH3(SeO3)2
_symmetry_space_group_name_H-M   'P 1'
_cell_length_a   6.16054500
_cell_length_b   12.39267400
_cell_length_c   20.11637200
_cell_angle_alpha   90.00000000
_cell_angle_beta   90.00000000
_cell_angle_gamma   90.00000000
_symmetry_Int_Tables_number   1
_chemical_formula_structural   RbH3(SeO3)2
_chemical_formula_sum   'Rb8 H24 Se16 O48'
_cell_volume   1535.79701012
_cell_formula_units_Z   8
loop_
 _symmetry_equiv_pos_site_id
 _symmetry_equiv_pos_as_xyz
  1  'x, y, z'
loop_
 _atom_site_type_symbol
 _atom_site_label
 _atom_site_symmetry_multiplicity
 _atom_site_fract_x
 _atom_site_fract_y
 _atom_site_fract_z
 _atom_site_occupancy
  Rb  Rb0  1  0.02386100  0.37506900  0.14141600  1
  Rb  Rb1  1  0.97613900  0.87506900  0.35858400  1
  Rb  Rb2  1  0.52386100  0.12493100  0.85858400  1
  Rb  Rb3  1  0.47613900  0.62493100  0.64141600  1
  Rb  Rb4  1  0.52267600  0.62598400  0.85841800  1
  Rb  Rb5  1  0.47732400  0.12598400  0.64158200  1
  Rb  Rb6  1  0.02267600  0.87401600  0.14158200  1
  Rb  Rb7  1  0.97732400  0.37401600  0.35841800  1
  H  H8  1  0.06450700  0.25354000  0.79888200  1
  H  H9  1  0.93549300  0.75354000  0.70111800  1
  H  H10  1  0.56450700  0.24646000  0.20111800  1
  H  H11  1  0.43549300  0.74646000  0.29888200  1
  H  H12  1  0.56336200  0.74201000  0.20633400  1
  H  H13  1  0.43663800  0.24201000  0.29366600  1
  H  H14  1  0.06336200  0.75799000  0.79366600  1
  H  H15  1  0.93663800  0.25799000  0.70633400  1
  H  H16  1  0.71818300  0.49027100  0.01420100  1
  H  H17  1  0.28181700  0.99027100  0.48579900  1
  H  H18  1  0.21818300  0.00972900  0.98579900  1
  H  H19  1  0.78181700  0.50972900  0.51420100  1
  H  H20  1  0.21836900  0.50935800  0.98579600  1
  H  H21  1  0.78163100  0.00935800  0.51420400  1
  H  H22  1  0.71836900  0.99064200  0.01420400  1
  H  H23  1  0.28163100  0.49064200  0.48579600  1
  H  H24  1  0.35209100  0.38706900  0.87262100  1
  H  H25  1  0.64790900  0.88706900  0.62737900  1
  H  H26  1  0.85209100  0.11293100  0.12737900  1
  H  H27  1  0.14790900  0.61293100  0.37262100  1
  H  H28  1  0.85454000  0.61218900  0.12738600  1
  H  H29  1  0.14546000  0.11218900  0.37261400  1
  H  H30  1  0.35454000  0.88781100  0.87261400  1
  H  H31  1  0.64546000  0.38781100  0.62738600  1
  Se  Se32  1  0.97263000  0.39859300  0.86548500  1
  Se  Se33  1  0.02737000  0.89859300  0.63451500  1
  Se  Se34  1  0.47263000  0.10140700  0.13451500  1
  Se  Se35  1  0.52737000  0.60140700  0.36548500  1
  Se  Se36  1  0.47569400  0.60246400  0.13488000  1
  Se  Se37  1  0.52430600  0.10246400  0.36512000  1
  Se  Se38  1  0.97569400  0.89753600  0.86512000  1
  Se  Se39  1  0.02430600  0.39753600  0.63488000  1
  Se  Se40  1  0.48779400  0.33335100  0.00573900  1
  Se  Se41  1  0.51220600  0.83335100  0.49426100  1
  Se  Se42  1  0.98779400  0.16664900  0.99426100  1
  Se  Se43  1  0.01220600  0.66664900  0.50573900  1
  Se  Se44  1  0.98885700  0.66657600  0.99401300  1
  Se  Se45  1  0.01114300  0.16657600  0.50598700  1
  Se  Se46  1  0.48885700  0.83342400  0.00598700  1
  Se  Se47  1  0.51114300  0.33342400  0.49401300  1
  O  O48  1  0.93570400  0.25992900  0.82780600  1
  O  O49  1  0.06429600  0.75992900  0.67219400  1
  O  O50  1  0.43570400  0.24007100  0.17219400  1
  O  O51  1  0.56429600  0.74007100  0.32780600  1
  O  O52  1  0.44466100  0.74036900  0.17348500  1
  O  O53  1  0.55533900  0.24036900  0.32651500  1
  O  O54  1  0.94466100  0.75963100  0.82651500  1
  O  O55  1  0.05533900  0.25963100  0.67348500  1
  O  O56  1  0.25352600  0.40319800  0.01933200  1
  O  O57  1  0.74647400  0.90319800  0.48066800  1
  O  O58  1  0.75352600  0.09680200  0.98066800  1
  O  O59  1  0.24647400  0.59680200  0.51933200  1
  O  O60  1  0.75473800  0.59648700  0.98062400  1
  O  O61  1  0.24526200  0.09648700  0.51937600  1
  O  O62  1  0.25473800  0.90351300  0.01937600  1
  O  O63  1  0.74526200  0.40351300  0.48062400  1
  O  O64  1  0.24767300  0.41050100  0.83522100  1
  O  O65  1  0.75232700  0.91050100  0.66477900  1
  O  O66  1  0.74767300  0.08949900  0.16477900  1
  O  O67  1  0.25232700  0.58949900  0.33522100  1
  O  O68  1  0.75087900  0.58704400  0.16449500  1
  O  O69  1  0.24912100  0.08704400  0.33550500  1
  O  O70  1  0.25087900  0.91295600  0.83550500  1
  O  O71  1  0.74912100  0.41295600  0.66449500  1
  O  O72  1  0.53452400  0.34650300  0.92225600  1
  O  O73  1  0.46547600  0.84650300  0.57774400  1
  O  O74  1  0.03452400  0.15349700  0.07774400  1
  O  O75  1  0.96547600  0.65349700  0.42225600  1
  O  O76  1  0.03576400  0.65428000  0.07752700  1
  O  O77  1  0.96423600  0.15428000  0.42247300  1
  O  O78  1  0.53576400  0.84572000  0.92247300  1
  O  O79  1  0.46423600  0.34572000  0.57752700  1
  O  O80  1  0.84011100  0.47827700  0.81499900  1
  O  O81  1  0.15988900  0.97827700  0.68500100  1
  O  O82  1  0.34011100  0.02172300  0.18500100  1
  O  O83  1  0.65988900  0.52172300  0.31499900  1
  O  O84  1  0.34209900  0.52203300  0.18480700  1
  O  O85  1  0.65790100  0.02203300  0.31519300  1
  O  O86  1  0.84209900  0.97796700  0.81519300  1
  O  O87  1  0.15790100  0.47796700  0.68480700  1
  O  O88  1  0.69360500  0.41895000  0.04137300  1
  O  O89  1  0.30639500  0.91895000  0.45862700  1
  O  O90  1  0.19360500  0.08105000  0.95862700  1
  O  O91  1  0.80639500  0.58105000  0.54137300  1
  O  O92  1  0.19461400  0.58068800  0.95857400  1
  O  O93  1  0.80538600  0.08068800  0.54142600  1
  O  O94  1  0.69461400  0.91931200  0.04142600  1
  O  O95  1  0.30538600  0.41931200  0.45857400  1
