# generated using pymatgen
data_NaUHOF5
_symmetry_space_group_name_H-M   'P 1'
_cell_length_a   6.97895300
_cell_length_b   8.74821300
_cell_length_c   15.39392700
_cell_angle_alpha   90.00000000
_cell_angle_beta   90.00000000
_cell_angle_gamma   90.00000000
_symmetry_Int_Tables_number   1
_chemical_formula_structural   NaUHOF5
_chemical_formula_sum   'Na8 U8 H8 O8 F40'
_cell_volume   939.85108026
_cell_formula_units_Z   8
loop_
 _symmetry_equiv_pos_site_id
 _symmetry_equiv_pos_as_xyz
  1  'x, y, z'
loop_
 _atom_site_type_symbol
 _atom_site_label
 _atom_site_symmetry_multiplicity
 _atom_site_fract_x
 _atom_site_fract_y
 _atom_site_fract_z
 _atom_site_occupancy
  Na  Na0  1  0.29738700  0.63962500  0.68554900  1
  Na  Na1  1  0.20261300  0.86037500  0.18554900  1
  Na  Na2  1  0.79738700  0.86037500  0.31445100  1
  Na  Na3  1  0.70261300  0.63962500  0.81445100  1
  Na  Na4  1  0.70261300  0.36037500  0.31445100  1
  Na  Na5  1  0.79738700  0.13962500  0.81445100  1
  Na  Na6  1  0.20261300  0.13962500  0.68554900  1
  Na  Na7  1  0.29738700  0.36037500  0.18554900  1
  U  U8  1  0.16170300  0.67101300  0.95786900  1
  U  U9  1  0.33829700  0.82898700  0.45786900  1
  U  U10  1  0.66170300  0.82898700  0.04213100  1
  U  U11  1  0.83829700  0.67101300  0.54213100  1
  U  U12  1  0.83829700  0.32898700  0.04213100  1
  U  U13  1  0.66170300  0.17101300  0.54213100  1
  U  U14  1  0.33829700  0.17101300  0.95786900  1
  U  U15  1  0.16170300  0.32898700  0.45786900  1
  H  H16  1  0.55963000  0.90354600  0.70715100  1
  H  H17  1  0.94037000  0.59645400  0.20715100  1
  H  H18  1  0.05963000  0.59645400  0.29284900  1
  H  H19  1  0.44037000  0.90354600  0.79284900  1
  H  H20  1  0.44037000  0.09645400  0.29284900  1
  H  H21  1  0.05963000  0.40354600  0.79284900  1
  H  H22  1  0.94037000  0.40354600  0.70715100  1
  H  H23  1  0.55963000  0.09645400  0.20715100  1
  O  O24  1  0.50000000  0.46293400  0.75000000  1
  O  O25  1  0.00000000  0.03706600  0.25000000  1
  O  O26  1  0.50000000  0.53706600  0.25000000  1
  O  O27  1  0.00000000  0.96293400  0.75000000  1
  O  O28  1  0.50000000  0.83664600  0.75000000  1
  O  O29  1  0.00000000  0.66335400  0.25000000  1
  O  O30  1  0.50000000  0.16335400  0.25000000  1
  O  O31  1  0.00000000  0.33664600  0.75000000  1
  F  F32  1  0.15399000  0.66132300  0.82241600  1
  F  F33  1  0.34601000  0.83867700  0.32241600  1
  F  F34  1  0.65399000  0.83867700  0.17758400  1
  F  F35  1  0.84601000  0.66132300  0.67758400  1
  F  F36  1  0.84601000  0.33867700  0.17758400  1
  F  F37  1  0.65399000  0.16132300  0.67758400  1
  F  F38  1  0.34601000  0.16132300  0.82241600  1
  F  F39  1  0.15399000  0.33867700  0.32241600  1
  F  F40  1  0.98589200  0.79831200  0.07155500  1
  F  F41  1  0.51410800  0.70168800  0.57155500  1
  F  F42  1  0.48589200  0.70168800  0.92844500  1
  F  F43  1  0.01410800  0.79831200  0.42844500  1
  F  F44  1  0.01410800  0.20168800  0.92844500  1
  F  F45  1  0.48589200  0.29831200  0.42844500  1
  F  F46  1  0.51410800  0.29831200  0.07155500  1
  F  F47  1  0.98589200  0.20168800  0.57155500  1
  F  F48  1  0.35963000  0.71527900  0.07673000  1
  F  F49  1  0.14037000  0.78472100  0.57673000  1
  F  F50  1  0.85963000  0.78472100  0.92327000  1
  F  F51  1  0.64037000  0.71527900  0.42327000  1
  F  F52  1  0.64037000  0.28472100  0.92327000  1
  F  F53  1  0.85963000  0.21527900  0.42327000  1
  F  F54  1  0.14037000  0.21527900  0.07673000  1
  F  F55  1  0.35963000  0.28472100  0.57673000  1
  F  F56  1  0.91772900  0.49616800  0.92606500  1
  F  F57  1  0.58227100  0.00383200  0.42606500  1
  F  F58  1  0.41772900  0.00383200  0.07393500  1
  F  F59  1  0.08227100  0.49616800  0.57393500  1
  F  F60  1  0.08227100  0.50383200  0.07393500  1
  F  F61  1  0.41772900  0.99616800  0.57393500  1
  F  F62  1  0.58227100  0.99616800  0.92606500  1
  F  F63  1  0.91772900  0.50383200  0.42606500  1
  F  F64  1  0.21135900  0.92560600  0.93583900  1
  F  F65  1  0.28864100  0.57439400  0.43583900  1
  F  F66  1  0.71135900  0.57439400  0.06416100  1
  F  F67  1  0.78864100  0.92560600  0.56416100  1
  F  F68  1  0.78864100  0.07439400  0.06416100  1
  F  F69  1  0.71135900  0.42560600  0.56416100  1
  F  F70  1  0.28864100  0.42560600  0.93583900  1
  F  F71  1  0.21135900  0.07439400  0.43583900  1
