# generated using pymatgen
data_Na3AsH14SO10
_symmetry_space_group_name_H-M   'P 1'
_cell_length_a   12.74214300
_cell_length_b   6.77473600
_cell_length_c   7.10608055
_cell_angle_alpha   85.86546282
_cell_angle_beta   90.00000000
_cell_angle_gamma   90.00000000
_symmetry_Int_Tables_number   1
_chemical_formula_structural   Na3AsH14SO10
_chemical_formula_sum   'Na6 As2 H28 S2 O20'
_cell_volume   611.83350184
_cell_formula_units_Z   2
loop_
 _symmetry_equiv_pos_site_id
 _symmetry_equiv_pos_as_xyz
  1  'x, y, z'
loop_
 _atom_site_type_symbol
 _atom_site_label
 _atom_site_symmetry_multiplicity
 _atom_site_fract_x
 _atom_site_fract_y
 _atom_site_fract_z
 _atom_site_occupancy
  Na  Na0  1  0.23869000  0.19958000  0.79979600  1
  Na  Na1  1  0.73869000  0.80042000  0.20020400  1
  Na  Na2  1  0.13178800  0.20297900  0.32614600  1
  Na  Na3  1  0.63178800  0.79702100  0.67385400  1
  Na  Na4  1  0.49397600  0.22327100  0.67741900  1
  Na  Na5  1  0.99397600  0.77672900  0.32258100  1
  As  As6  1  0.85107700  0.19950000  0.80691400  1
  As  As7  1  0.35107700  0.80050000  0.19308600  1
  H  H8  1  0.77747900  0.35526400  0.41579900  1
  H  H9  1  0.27747900  0.64473600  0.58420100  1
  H  H10  1  0.67038000  0.35999200  0.30272400  1
  H  H11  1  0.17038000  0.64000800  0.69727600  1
  H  H12  1  0.40418400  0.20024400  0.05426200  1
  H  H13  1  0.90418400  0.79975600  0.94573800  1
  H  H14  1  0.39362900  0.43189000  0.97935300  1
  H  H15  1  0.89362900  0.56811000  0.02064700  1
  H  H16  1  0.91289600  0.17067400  0.40653500  1
  H  H17  1  0.41289600  0.82932600  0.59346500  1
  H  H18  1  0.92612200  0.18912500  0.18364200  1
  H  H19  1  0.42612200  0.81087500  0.81635800  1
  H  H20  1  0.97218800  0.42035200  0.53663700  1
  H  H21  1  0.47218800  0.57964800  0.46336300  1
  H  H22  1  0.08906300  0.47349000  0.58844400  1
  H  H23  1  0.58906300  0.52651000  0.41155600  1
  H  H24  1  0.32970200  0.39790100  0.42742800  1
  H  H25  1  0.82970200  0.60209900  0.57257200  1
  H  H26  1  0.04662600  0.36256800  0.98123000  1
  H  H27  1  0.54662600  0.63743200  0.01877000  1
  H  H28  1  0.14429400  0.50978100  0.01433600  1
  H  H29  1  0.64429400  0.49021900  0.98566400  1
  H  H30  1  0.03321100  0.99346100  0.68820900  1
  H  H31  1  0.53321100  0.00653900  0.31179100  1
  H  H32  1  0.14739700  0.89525200  0.69000000  1
  H  H33  1  0.64739700  0.10474800  0.31000000  1
  H  H34  1  0.34604800  0.17168400  0.37999100  1
  H  H35  1  0.84604800  0.82831600  0.62000900  1
  S  S36  1  0.69110300  0.13936500  0.89049400  1
  S  S37  1  0.19110300  0.86063500  0.10950600  1
  O  O38  1  0.91954100  0.32065100  0.97275600  1
  O  O39  1  0.41954100  0.67934900  0.02724400  1
  O  O40  1  0.91486500  0.97884400  0.76733900  1
  O  O41  1  0.41486500  0.02115600  0.23266100  1
  O  O42  1  0.85910600  0.34636100  0.59443600  1
  O  O43  1  0.35910600  0.65363900  0.40556400  1
  O  O44  1  0.74502200  0.38618800  0.28832300  1
  O  O45  1  0.24502200  0.61381200  0.71167700  1
  O  O46  1  0.39483900  0.29366300  0.93935300  1
  O  O47  1  0.89483900  0.70633700  0.06064700  1
  O  O48  1  0.94623300  0.10684000  0.30192600  1
  O  O49  1  0.44623300  0.89316000  0.69807400  1
  O  O50  1  0.04117000  0.47594600  0.48084000  1
  O  O51  1  0.54117000  0.52405400  0.51916000  1
  O  O52  1  0.30890400  0.25902800  0.46667900  1
  O  O53  1  0.80890400  0.74097200  0.53332100  1
  O  O54  1  0.12531700  0.37184000  0.99635800  1
  O  O55  1  0.62531700  0.62816000  0.00364200  1
  O  O56  1  0.10535100  0.99936800  0.62465100  1
  O  O57  1  0.60535100  0.00063200  0.37534900  1
