# generated using pymatgen
data_Na3H6S2NO10
_symmetry_space_group_name_H-M   'P 1'
_cell_length_a   9.57697124
_cell_length_b   9.57697124
_cell_length_c   5.96992400
_cell_angle_alpha   90.00000000
_cell_angle_beta   90.00000000
_cell_angle_gamma   108.56903180
_symmetry_Int_Tables_number   1
_chemical_formula_structural   Na3H6S2NO10
_chemical_formula_sum   'Na6 H12 S4 N2 O20'
_cell_volume   519.04656901
_cell_formula_units_Z   2
loop_
 _symmetry_equiv_pos_site_id
 _symmetry_equiv_pos_as_xyz
  1  'x, y, z'
loop_
 _atom_site_type_symbol
 _atom_site_label
 _atom_site_symmetry_multiplicity
 _atom_site_fract_x
 _atom_site_fract_y
 _atom_site_fract_z
 _atom_site_occupancy
  Na  Na0  1  0.51122500  0.76142800  0.01097800  1
  Na  Na1  1  0.76142800  0.51122500  0.01097800  1
  Na  Na2  1  0.48877500  0.23857200  0.51097800  1
  Na  Na3  1  0.23857200  0.48877500  0.51097800  1
  Na  Na4  1  0.90218700  0.90218700  0.99570000  1
  Na  Na5  1  0.09781300  0.09781300  0.49570000  1
  H  H6  1  0.80249200  0.34899100  0.59088100  1
  H  H7  1  0.34899100  0.80249200  0.59088100  1
  H  H8  1  0.19750800  0.65100900  0.09088100  1
  H  H9  1  0.65100900  0.19750800  0.09088100  1
  H  H10  1  0.17932100  0.76815800  0.63345100  1
  H  H11  1  0.76815800  0.17932100  0.63345100  1
  H  H12  1  0.82067900  0.23184200  0.13345100  1
  H  H13  1  0.23184200  0.82067900  0.13345100  1
  H  H14  1  0.41044700  0.41044700  0.85692200  1
  H  H15  1  0.58955300  0.58955300  0.35692200  1
  H  H16  1  0.54478500  0.54478500  0.76717600  1
  H  H17  1  0.45521500  0.45521500  0.26717600  1
  S  S18  1  0.70160000  0.89224500  0.51454700  1
  S  S19  1  0.89224500  0.70160000  0.51454700  1
  S  S20  1  0.29840000  0.10775500  0.01454700  1
  S  S21  1  0.10775500  0.29840000  0.01454700  1
  N  N22  1  0.71893000  0.71893000  0.58163800  1
  N  N23  1  0.28107000  0.28107000  0.08163800  1
  O  O24  1  0.69636000  0.69636000  0.81312900  1
  O  O25  1  0.30364000  0.30364000  0.31312900  1
  O  O26  1  0.82636800  0.00733100  0.61796800  1
  O  O27  1  0.00733100  0.82636800  0.61796800  1
  O  O28  1  0.17363200  0.99266900  0.11796800  1
  O  O29  1  0.99266900  0.17363200  0.11796800  1
  O  O30  1  0.56090400  0.88325400  0.61738000  1
  O  O31  1  0.88325400  0.56090400  0.61738000  1
  O  O32  1  0.43909600  0.11674600  0.11738000  1
  O  O33  1  0.11674600  0.43909600  0.11738000  1
  O  O34  1  0.70298900  0.89612400  0.26910300  1
  O  O35  1  0.89612400  0.70298900  0.26910300  1
  O  O36  1  0.29701100  0.10387600  0.76910300  1
  O  O37  1  0.10387600  0.29701100  0.76910300  1
  O  O38  1  0.27748900  0.74346700  0.11269000  1
  O  O39  1  0.74346700  0.27748900  0.11269000  1
  O  O40  1  0.72251100  0.25653300  0.61269000  1
  O  O41  1  0.25653300  0.72251100  0.61269000  1
  O  O42  1  0.45863800  0.45863800  0.71841900  1
  O  O43  1  0.54136200  0.54136200  0.21841900  1
