# generated using pymatgen
data_Na2Te(H5O4)2
_symmetry_space_group_name_H-M   'P 1'
_cell_length_a   7.74235441
_cell_length_b   7.74235441
_cell_length_c   17.74250359
_cell_angle_alpha   83.56978946
_cell_angle_beta   83.56978946
_cell_angle_gamma   58.03792811
_symmetry_Int_Tables_number   1
_chemical_formula_structural   Na2Te(H5O4)2
_chemical_formula_sum   'Na8 Te4 H40 O32'
_cell_volume   894.89023183
_cell_formula_units_Z   4
loop_
 _symmetry_equiv_pos_site_id
 _symmetry_equiv_pos_as_xyz
  1  'x, y, z'
loop_
 _atom_site_type_symbol
 _atom_site_label
 _atom_site_symmetry_multiplicity
 _atom_site_fract_x
 _atom_site_fract_y
 _atom_site_fract_z
 _atom_site_occupancy
  Na  Na0  1  0.52871800  0.56847600  0.07472300  1
  Na  Na1  1  0.43152400  0.47128200  0.42527700  1
  Na  Na2  1  0.47128200  0.43152400  0.92527700  1
  Na  Na3  1  0.56847600  0.52871800  0.57472300  1
  Na  Na4  1  0.47045200  0.52954800  0.25000000  1
  Na  Na5  1  0.52954800  0.47045200  0.75000000  1
  Na  Na6  1  0.00000000  0.50000000  0.00000000  1
  Na  Na7  1  0.50000000  0.00000000  0.50000000  1
  Te  Te8  1  0.82272100  0.86256700  0.17433900  1
  Te  Te9  1  0.13743300  0.17727900  0.32566100  1
  Te  Te10  1  0.17727900  0.13743300  0.82566100  1
  Te  Te11  1  0.86256700  0.82272100  0.67433900  1
  H  H12  1  0.22529800  0.47202600  0.14469900  1
  H  H13  1  0.52797400  0.77470200  0.35530100  1
  H  H14  1  0.77470200  0.52797400  0.85530100  1
  H  H15  1  0.47202600  0.22529800  0.64469900  1
  H  H16  1  0.43711600  0.25849400  0.14432900  1
  H  H17  1  0.74150600  0.56288400  0.35567100  1
  H  H18  1  0.56288400  0.74150600  0.85567100  1
  H  H19  1  0.25849400  0.43711600  0.64432900  1
  H  H20  1  0.56912500  0.83743100  0.96087400  1
  H  H21  1  0.16256900  0.43087500  0.53912600  1
  H  H22  1  0.43087500  0.16256900  0.03912600  1
  H  H23  1  0.83743100  0.56912500  0.46087400  1
  H  H24  1  0.64567200  0.84860200  0.03903000  1
  H  H25  1  0.15139800  0.35432800  0.46097000  1
  H  H26  1  0.35432800  0.15139800  0.96097000  1
  H  H27  1  0.84860200  0.64567200  0.53903000  1
  H  H28  1  0.87129600  0.44270200  0.16088700  1
  H  H29  1  0.55729800  0.12870400  0.33911300  1
  H  H30  1  0.12870400  0.55729800  0.83911300  1
  H  H31  1  0.44270200  0.87129600  0.66088700  1
  H  H32  1  0.85354700  0.24434900  0.15865700  1
  H  H33  1  0.75565100  0.14645300  0.34134300  1
  H  H34  1  0.14645300  0.75565100  0.84134300  1
  H  H35  1  0.24434900  0.85354700  0.65865700  1
  H  H36  1  0.16942200  0.82851100  0.95460200  1
  H  H37  1  0.17148900  0.83057800  0.54539800  1
  H  H38  1  0.83057800  0.17148900  0.04539800  1
  H  H39  1  0.82851100  0.16942200  0.45460200  1
  H  H40  1  0.13015600  0.78808900  0.04102100  1
  H  H41  1  0.21191100  0.86984400  0.45897900  1
  H  H42  1  0.86984400  0.21191100  0.95897900  1
  H  H43  1  0.78808900  0.13015600  0.54102100  1
  H  H44  1  0.20401100  0.90467800  0.14604900  1
  H  H45  1  0.09532200  0.79598900  0.35395100  1
  H  H46  1  0.79598900  0.09532200  0.85395100  1
  H  H47  1  0.90467800  0.20401100  0.64604900  1
  H  H48  1  0.40970400  0.90686500  0.15400300  1
  H  H49  1  0.09313500  0.59029600  0.34599700  1
  H  H50  1  0.59029600  0.09313500  0.84599800  1
  H  H51  1  0.90686500  0.40970400  0.65400300  1
  O  O52  1  0.95255400  0.99391100  0.12005900  1
  O  O53  1  0.00608900  0.04744600  0.37994100  1
  O  O54  1  0.04744600  0.00608900  0.87994100  1
  O  O55  1  0.99391100  0.95255400  0.62005900  1
  O  O56  1  0.57969000  0.99344000  0.12102000  1
  O  O57  1  0.00656000  0.42031000  0.37898000  1
  O  O58  1  0.42031000  0.00656000  0.87898000  1
  O  O59  1  0.99344000  0.57969000  0.62102000  1
  O  O60  1  0.96864600  0.60899900  0.12969500  1
  O  O61  1  0.39100100  0.03135400  0.37030500  1
  O  O62  1  0.03135400  0.39100100  0.87030500  1
  O  O63  1  0.60899900  0.96864600  0.62969500  1
  O  O64  1  0.77841100  0.38932800  0.17111800  1
  O  O65  1  0.61067200  0.22158900  0.32888200  1
  O  O66  1  0.22158900  0.61067200  0.82888200  1
  O  O67  1  0.38932800  0.77841100  0.67111800  1
  O  O68  1  0.22374200  0.72052600  0.99720600  1
  O  O69  1  0.27947400  0.77625800  0.50279400  1
  O  O70  1  0.77625800  0.27947400  0.00279400  1
  O  O71  1  0.72052600  0.22374200  0.49720600  1
  O  O72  1  0.34384600  0.82525700  0.16519900  1
  O  O73  1  0.17474300  0.65615400  0.33480100  1
  O  O74  1  0.65615400  0.17474300  0.83480100  1
  O  O75  1  0.82525700  0.34384600  0.66519900  1
  O  O76  1  0.37379700  0.40474700  0.15327000  1
  O  O77  1  0.59525300  0.62620300  0.34673000  1
  O  O78  1  0.62620300  0.59525300  0.84673000  1
  O  O79  1  0.40474700  0.37379700  0.65327000  1
  O  O80  1  0.66448300  0.75370500  0.00070900  1
  O  O81  1  0.24629500  0.33551700  0.49929100  1
  O  O82  1  0.33551700  0.24629500  0.99929100  1
  O  O83  1  0.75370500  0.66448300  0.50070900  1
