# generated using pymatgen
data_BaB2(HO)8
_symmetry_space_group_name_H-M   'P 1'
_cell_length_a   17.99996400
_cell_length_b   8.92113700
_cell_length_c   12.29774622
_cell_angle_alpha   66.14416171
_cell_angle_beta   90.00000000
_cell_angle_gamma   90.00000000
_symmetry_Int_Tables_number   1
_chemical_formula_structural   BaB2(HO)8
_chemical_formula_sum   'Ba8 B16 H64 O64'
_cell_volume   1806.06094702
_cell_formula_units_Z   8
loop_
 _symmetry_equiv_pos_site_id
 _symmetry_equiv_pos_as_xyz
  1  'x, y, z'
loop_
 _atom_site_type_symbol
 _atom_site_label
 _atom_site_symmetry_multiplicity
 _atom_site_fract_x
 _atom_site_fract_y
 _atom_site_fract_z
 _atom_site_occupancy
  Ba  Ba0  1  0.71883200  0.13220200  0.19991200  1
  Ba  Ba1  1  0.78116800  0.13220200  0.69991200  1
  Ba  Ba2  1  0.28116800  0.86779800  0.80008800  1
  Ba  Ba3  1  0.21883200  0.86779800  0.30008800  1
  Ba  Ba4  1  0.57566200  0.58290200  0.75328400  1
  Ba  Ba5  1  0.92433800  0.58290200  0.25328400  1
  Ba  Ba6  1  0.42433800  0.41709800  0.24671600  1
  Ba  Ba7  1  0.07566200  0.41709800  0.74671600  1
  B  B8  1  0.50642900  0.19654300  0.06046300  1
  B  B9  1  0.99357100  0.19654300  0.56046300  1
  B  B10  1  0.49357100  0.80345700  0.93953700  1
  B  B11  1  0.00642900  0.80345700  0.43953700  1
  B  B12  1  0.73383100  0.26816200  0.91589900  1
  B  B13  1  0.76616900  0.26816200  0.41589900  1
  B  B14  1  0.26616900  0.73183800  0.08410100  1
  B  B15  1  0.23383100  0.73183800  0.58410100  1
  B  B16  1  0.52086000  0.73485000  0.30932800  1
  B  B17  1  0.97914000  0.73485000  0.80932800  1
  B  B18  1  0.47914000  0.26515000  0.69067200  1
  B  B19  1  0.02086000  0.26515000  0.19067200  1
  B  B20  1  0.79815600  0.76497500  0.57937800  1
  B  B21  1  0.70184400  0.76497500  0.07937800  1
  B  B22  1  0.20184400  0.23502500  0.42062200  1
  B  B23  1  0.29815600  0.23502500  0.92062200  1
  H  H24  1  0.56312000  0.02888700  0.19565700  1
  H  H25  1  0.93688000  0.02888700  0.69565700  1
  H  H26  1  0.43688000  0.97111300  0.80434300  1
  H  H27  1  0.06312000  0.97111300  0.30434300  1
  H  H28  1  0.43713200  0.89344300  0.20189000  1
  H  H29  1  0.06286800  0.89344300  0.70189000  1
  H  H30  1  0.56286800  0.10655700  0.79811000  1
  H  H31  1  0.93713200  0.10655700  0.29811000  1
  H  H32  1  0.24818500  0.21999900  0.78489000  1
  H  H33  1  0.25181500  0.21999900  0.28489000  1
  H  H34  1  0.75181500  0.78000100  0.21511000  1
  H  H35  1  0.74818500  0.78000100  0.71511000  1
  H  H36  1  0.44944600  0.99609300  0.39285100  1
  H  H37  1  0.05055400  0.99609300  0.89285100  1
  H  H38  1  0.55055400  0.00390700  0.60714900  1
  H  H39  1  0.94944600  0.00390700  0.10714900  1
  H  H40  1  0.77677200  0.59119300  0.83819100  1
  H  H41  1  0.72322800  0.59119300  0.33819100  1
  H  H42  1  0.22322800  0.40880700  0.16180900  1
  H  H43  1  0.27677200  0.40880700  0.66180900  1
  H  H44  1  0.77083500  0.41079300  0.02833600  1
  H  H45  1  0.72916500  0.41079300  0.52833600  1
  H  H46  1  0.22916500  0.58920700  0.97166400  1
  H  H47  1  0.27083500  0.58920700  0.47166400  1
  H  H48  1  0.07626300  0.47046900  0.11742000  1
  H  H49  1  0.42373700  0.47046900  0.61742000  1
  H  H50  1  0.92373700  0.52953100  0.88258000  1
  H  H51  1  0.57626300  0.52953100  0.38258000  1
  H  H52  1  0.16110100  0.20694300  0.98486600  1
  H  H53  1  0.33889900  0.20694300  0.48486600  1
  H  H54  1  0.83889900  0.79305700  0.01513400  1
  H  H55  1  0.66110100  0.79305700  0.51513400  1
  H  H56  1  0.71905900  0.44648500  0.57254500  1
  H  H57  1  0.78094100  0.44648500  0.07254500  1
  H  H58  1  0.28094100  0.55351500  0.42745500  1
  H  H59  1  0.21905900  0.55351500  0.92745500  1
  H  H60  1  0.62708000  0.97937700  0.55268300  1
  H  H61  1  0.87292000  0.97937700  0.05268300  1
  H  H62  1  0.37292000  0.02062300  0.44731700  1
  H  H63  1  0.12708000  0.02062300  0.94731700  1
  H  H64  1  0.22234200  0.37676000  0.37630700  1
  H  H65  1  0.27765800  0.37676000  0.87630700  1
  H  H66  1  0.77765800  0.62324000  0.62369300  1
  H  H67  1  0.72234200  0.62324000  0.12369300  1
  H  H68  1  0.39747700  0.24698400  0.55613400  1
  H  H69  1  0.10252300  0.24698400  0.05613400  1
  H  H70  1  0.60252300  0.75301600  0.44386600  1
  H  H71  1  0.89747700  0.75301600  0.94386600  1
  H  H72  1  0.44952700  0.28062800  0.91593700  1
  H  H73  1  0.05047300  0.28062800  0.41593700  1
  H  H74  1  0.55047300  0.71937200  0.08406300  1
  H  H75  1  0.94952700  0.71937200  0.58406300  1
  H  H76  1  0.85999300  0.26279300  0.85219500  1
  H  H77  1  0.64000700  0.26279300  0.35219500  1
  H  H78  1  0.14000700  0.73720700  0.14780500  1
  H  H79  1  0.35999300  0.73720700  0.64780500  1
  H  H80  1  0.78376700  0.64505900  0.87108300  1
  H  H81  1  0.71623300  0.64505900  0.37108300  1
  H  H82  1  0.21623300  0.35494100  0.12891700  1
  H  H83  1  0.28376700  0.35494100  0.62891700  1
  H  H84  1  0.89447700  0.79227500  0.42519600  1
  H  H85  1  0.60552300  0.79227500  0.92519600  1
  H  H86  1  0.10552300  0.20772500  0.57480400  1
  H  H87  1  0.39447700  0.20772500  0.07480400  1
  O  O88  1  0.55374000  0.79115700  0.87580600  1
  O  O89  1  0.94626000  0.79115700  0.37580600  1
  O  O90  1  0.44626000  0.20884300  0.12419400  1
  O  O91  1  0.05374000  0.20884300  0.62419400  1
  O  O92  1  0.57134200  0.11929600  0.11483700  1
  O  O93  1  0.92865800  0.11929600  0.61483700  1
  O  O94  1  0.42865800  0.88070400  0.88516300  1
  O  O95  1  0.07134200  0.88070400  0.38516300  1
  O  O96  1  0.62294800  0.45775700  0.02602100  1
  O  O97  1  0.87705200  0.45775700  0.52602100  1
  O  O98  1  0.37705200  0.54224300  0.97397900  1
  O  O99  1  0.12294800  0.54224300  0.47397900  1
  O  O100  1  0.40112100  0.56250900  0.87130500  1
  O  O101  1  0.09887900  0.56250900  0.37130500  1
  O  O102  1  0.59887900  0.43749100  0.12869500  1
  O  O103  1  0.90112100  0.43749100  0.62869500  1
  O  O104  1  0.65932000  0.83183300  0.98501300  1
  O  O105  1  0.84068000  0.83183300  0.48501300  1
  O  O106  1  0.34068000  0.16816700  0.01498700  1
  O  O107  1  0.15932000  0.16816700  0.51498700  1
  O  O108  1  0.75518800  0.35905100  0.81373100  1
  O  O109  1  0.74481200  0.35905100  0.31373100  1
  O  O110  1  0.24481200  0.64094900  0.18626900  1
  O  O111  1  0.25518800  0.64094900  0.68626900  1
  O  O112  1  0.49751200  0.73963100  0.06448100  1
  O  O113  1  0.00248800  0.73963100  0.56448100  1
  O  O114  1  0.50248800  0.26036900  0.93551900  1
  O  O115  1  0.99751200  0.26036900  0.43551900  1
  O  O116  1  0.55664100  0.20652400  0.72468600  1
  O  O117  1  0.94335900  0.20652400  0.22468600  1
  O  O118  1  0.44335900  0.79347600  0.27531400  1
  O  O119  1  0.05664100  0.79347600  0.77531400  1
  O  O120  1  0.52733500  0.56531800  0.34722800  1
  O  O121  1  0.97266500  0.56531800  0.84722800  1
  O  O122  1  0.47266500  0.43468200  0.65277200  1
  O  O123  1  0.02733500  0.43468200  0.15277200  1
  O  O124  1  0.56839000  0.84637100  0.30619100  1
  O  O125  1  0.93161000  0.84637100  0.80619100  1
  O  O126  1  0.43161000  0.15362900  0.69380900  1
  O  O127  1  0.06839000  0.15362900  0.19380900  1
  O  O128  1  0.61823900  0.15617000  0.36236900  1
  O  O129  1  0.88176100  0.15617000  0.86236900  1
  O  O130  1  0.38176100  0.84383000  0.63763100  1
  O  O131  1  0.11823900  0.84383000  0.13763100  1
  O  O132  1  0.59407800  0.93317700  0.62568600  1
  O  O133  1  0.90592200  0.93317700  0.12568600  1
  O  O134  1  0.40592200  0.06682300  0.37431400  1
  O  O135  1  0.09407800  0.06682300  0.87431400  1
  O  O136  1  0.87885500  0.31453100  0.21842300  1
  O  O137  1  0.62114500  0.31453100  0.71842300  1
  O  O138  1  0.12114500  0.68546900  0.78157700  1
  O  O139  1  0.37885500  0.68546900  0.28157700  1
  O  O140  1  0.62871900  0.70075000  0.52239500  1
  O  O141  1  0.87128100  0.70075000  0.02239500  1
  O  O142  1  0.37128100  0.29925000  0.47760500  1
  O  O143  1  0.12871900  0.29925000  0.97760500  1
  O  O144  1  0.76955300  0.85885200  0.64138800  1
  O  O145  1  0.73044700  0.85885200  0.14138800  1
  O  O146  1  0.23044700  0.14114800  0.35861200  1
  O  O147  1  0.26955300  0.14114800  0.85861200  1
  O  O148  1  0.67895300  0.04684400  0.43609600  1
  O  O149  1  0.82104700  0.04684400  0.93609600  1
  O  O150  1  0.32104700  0.95315600  0.56390400  1
  O  O151  1  0.17895300  0.95315600  0.06390400  1
