# generated using pymatgen
data_SrLa7TiGa7O24
_symmetry_space_group_name_H-M   'P 1'
_cell_length_a   5.53913852
_cell_length_b   5.53913852
_cell_length_c   36.67436060
_cell_angle_alpha   85.24897594
_cell_angle_beta   85.24897594
_cell_angle_gamma   60.62630115
_symmetry_Int_Tables_number   1
_chemical_formula_structural   SrLa7TiGa7O24
_chemical_formula_sum   'Sr2 La14 Ti2 Ga14 O48'
_cell_volume   976.05861663
_cell_formula_units_Z   2
loop_
 _symmetry_equiv_pos_site_id
 _symmetry_equiv_pos_as_xyz
  1  'x, y, z'
loop_
 _atom_site_type_symbol
 _atom_site_label
 _atom_site_symmetry_multiplicity
 _atom_site_fract_x
 _atom_site_fract_y
 _atom_site_fract_z
 _atom_site_occupancy
  Sr  Sr0  1  0.72035800  0.65630700  0.43658200  1
  Sr  Sr1  1  0.34369300  0.27964200  0.56341800  1
  La  La2  1  0.96816200  0.90693600  0.68744000  1
  La  La3  1  0.03194000  0.96806000  0.50000000  1
  La  La4  1  0.59369200  0.53131400  0.81250600  1
  La  La5  1  0.65628200  0.59263000  0.62591500  1
  La  La6  1  0.21875500  0.15625400  0.93747900  1
  La  La7  1  0.28103000  0.21896700  0.74992400  1
  La  La8  1  0.84374600  0.78124500  0.06252100  1
  La  La9  1  0.90625800  0.84375400  0.87497600  1
  La  La10  1  0.46868600  0.40630800  0.18749400  1
  La  La11  1  0.53124900  0.46875100  0.00000000  1
  La  La12  1  0.09306400  0.03183800  0.31256000  1
  La  La13  1  0.15624600  0.09374200  0.12502400  1
  La  La14  1  0.78103300  0.71897000  0.25007600  1
  La  La15  1  0.40737000  0.34371800  0.37408500  1
  Ti  Ti16  1  0.68812600  0.62543300  0.53247300  1
  Ti  Ti17  1  0.37456700  0.31187400  0.46752700  1
  Ga  Ga18  1  0.06075000  0.00254400  0.40557000  1
  Ga  Ga19  1  0.31495700  0.24861800  0.65567100  1
  Ga  Ga20  1  0.99745600  0.93925000  0.59443000  1
  Ga  Ga21  1  0.56250200  0.50000700  0.90623900  1
  Ga  Ga22  1  0.62514900  0.56225600  0.71882600  1
  Ga  Ga23  1  0.25000000  0.18750000  0.84374000  1
  Ga  Ga24  1  0.93761300  0.87492100  0.78124100  1
  Ga  Ga25  1  0.18749800  0.12500100  0.03125500  1
  Ga  Ga26  1  0.87499900  0.81250200  0.96874500  1
  Ga  Ga27  1  0.49999300  0.43749800  0.09376100  1
  Ga  Ga28  1  0.43774400  0.37485100  0.28117400  1
  Ga  Ga29  1  0.12507900  0.06238700  0.21875900  1
  Ga  Ga30  1  0.81250000  0.75000000  0.15626000  1
  Ga  Ga31  1  0.75138200  0.68504300  0.34432900  1
  O  O32  1  0.46856500  0.53143500  0.50000000  1
  O  O33  1  0.24459100  0.61536300  0.43056500  1
  O  O34  1  0.99885700  0.48802600  0.49347300  1
  O  O35  1  0.75554400  0.13395000  0.44633800  1
  O  O36  1  0.08839000  0.15842400  0.62544500  1
  O  O37  1  0.51197400  0.00114300  0.50652700  1
  O  O38  1  0.86605000  0.24445600  0.55366200  1
  O  O39  1  0.27159100  0.10440300  0.43861100  1
  O  O40  1  0.62421100  0.11294200  0.61803300  1
  O  O41  1  0.38463700  0.75540900  0.56943500  1
  O  O42  1  0.71560800  0.78433600  0.75000400  1
  O  O43  1  0.13306200  0.63410100  0.63297000  1
  O  O44  1  0.49299800  0.86471000  0.67936200  1
  O  O45  1  0.89559700  0.72840900  0.56138900  1
  O  O46  1  0.24028200  0.74341800  0.74184700  1
  O  O47  1  0.01001500  0.38186700  0.69544600  1
  O  O48  1  0.34073000  0.40927300  0.87500400  1
  O  O49  1  0.75677300  0.25961200  0.75819500  1
  O  O50  1  0.11829900  0.49027300  0.80430600  1
  O  O51  1  0.53353800  0.34195500  0.68747600  1
  O  O52  1  0.86528600  0.36832900  0.86681300  1
  O  O53  1  0.63471800  0.00668300  0.82068900  1
  O  O54  1  0.96572300  0.03427700  0.00000000  1
  O  O55  1  0.38168800  0.88469400  0.88319700  1
  O  O56  1  0.74331400  0.11529800  0.92931100  1
  O  O57  1  0.15925300  0.96576100  0.81250800  1
  O  O58  1  0.49029300  0.99332400  0.99180800  1
  O  O59  1  0.25968700  0.63169000  0.94569400  1
  O  O60  1  0.59072700  0.65927000  0.12499600  1
  O  O61  1  0.00667600  0.50970700  0.00819200  1
  O  O62  1  0.36831000  0.74031300  0.05430600  1
  O  O63  1  0.78427100  0.59073500  0.93750300  1
  O  O64  1  0.11530600  0.61831200  0.11680300  1
  O  O65  1  0.88470200  0.25668600  0.07068900  1
  O  O66  1  0.21566400  0.28439200  0.24999600  1
  O  O67  1  0.63167100  0.13471400  0.13318700  1
  O  O68  1  0.99331700  0.36528200  0.17931100  1
  O  O69  1  0.40926500  0.21572900  0.06249700  1
  O  O70  1  0.74038800  0.24322700  0.24180500  1
  O  O71  1  0.50972700  0.88170100  0.19569400  1
  O  O72  1  0.84157600  0.91161000  0.37455500  1
  O  O73  1  0.25658200  0.75971800  0.25815300  1
  O  O74  1  0.61813300  0.98998500  0.30455400  1
  O  O75  1  0.03423900  0.84074700  0.18749200  1
  O  O76  1  0.36589900  0.86693800  0.36703000  1
  O  O77  1  0.13529000  0.50700200  0.32063800  1
  O  O78  1  0.88705800  0.37578900  0.38196700  1
  O  O79  1  0.65804500  0.46646200  0.31252400  1
