# generated using pymatgen
data_Na4CaTa4TiO15
_symmetry_space_group_name_H-M   'P 1'
_cell_length_a   5.50445500
_cell_length_b   5.57754486
_cell_length_c   39.07108418
_cell_angle_alpha   90.13109467
_cell_angle_beta   90.04959387
_cell_angle_gamma   90.20256544
_symmetry_Int_Tables_number   1
_chemical_formula_structural   Na4CaTa4TiO15
_chemical_formula_sum   'Na16 Ca4 Ta16 Ti4 O60'
_cell_volume   1199.52372819
_cell_formula_units_Z   4
loop_
 _symmetry_equiv_pos_site_id
 _symmetry_equiv_pos_as_xyz
  1  'x, y, z'
loop_
 _atom_site_type_symbol
 _atom_site_label
 _atom_site_symmetry_multiplicity
 _atom_site_fract_x
 _atom_site_fract_y
 _atom_site_fract_z
 _atom_site_occupancy
  Na  Na0  1  0.99143400  0.03190100  0.35100000  1
  Na  Na1  1  0.99080300  0.02436500  0.55458500  1
  Na  Na2  1  0.98963300  0.02364300  0.74758900  1
  Na  Na3  1  0.99600200  0.02015500  0.95504500  1
  Na  Na4  1  0.50987800  0.52746600  0.15203500  1
  Na  Na5  1  0.50727400  0.51884700  0.55479500  1
  Na  Na6  1  0.50811000  0.52325000  0.74773100  1
  Na  Na7  1  0.51415900  0.51640100  0.95471500  1
  Na  Na8  1  0.49090400  0.48221300  0.24691300  1
  Na  Na9  1  0.49118600  0.48005900  0.04622900  1
  Na  Na10  1  0.48263200  0.48340200  0.64677100  1
  Na  Na11  1  0.49411700  0.47486000  0.44943500  1
  Na  Na12  1  0.49371800  0.47081000  0.85042500  1
  Na  Na13  1  0.00968200  0.97672300  0.24744000  1
  Na  Na14  1  0.01165500  0.97498000  0.04641600  1
  Na  Na15  1  0.00911800  0.97882300  0.64659500  1
  Ca  Ca16  1  0.99075000  0.04549400  0.15213100  1
  Ca  Ca17  1  0.50987500  0.53839100  0.35129000  1
  Ca  Ca18  1  0.01102800  0.95301200  0.44877500  1
  Ca  Ca19  1  0.00880300  0.95686600  0.85046600  1
  Ta  Ta20  1  0.00437400  0.49438900  0.90223500  1
  Ta  Ta21  1  0.49821300  0.00261300  0.09931500  1
  Ta  Ta22  1  0.51082400  0.99485800  0.99995600  1
  Ta  Ta23  1  0.50224300  0.99710800  0.50103100  1
  Ta  Ta24  1  0.49817200  0.00456100  0.29926100  1
  Ta  Ta25  1  0.50412000  0.99796600  0.90082300  1
  Ta  Ta26  1  0.49714500  0.00821500  0.19991300  1
  Ta  Ta27  1  0.49161700  0.00619300  0.60076400  1
  Ta  Ta28  1  0.49871100  0.00140200  0.69936500  1
  Ta  Ta29  1  0.50588000  0.00473900  0.39994800  1
  Ta  Ta30  1  0.50136700  0.99789500  0.79907600  1
  Ta  Ta31  1  0.99892000  0.50620300  0.09937600  1
  Ta  Ta32  1  0.99895000  0.50148900  0.29876900  1
  Ta  Ta33  1  0.00270800  0.49296600  0.50105200  1
  Ta  Ta34  1  0.99446100  0.50165300  0.69782300  1
  Ta  Ta35  1  0.00082200  0.49416300  0.79913900  1
  Ti  Ti36  1  0.01143900  0.49139200  0.00166600  1
  Ti  Ti37  1  0.00445100  0.51787900  0.19932800  1
  Ti  Ti38  1  0.98793100  0.51010400  0.59946200  1
  Ti  Ti39  1  0.00855300  0.49421900  0.40047300  1
  O  O40  1  0.92481900  0.50923700  0.05100400  1
  O  O41  1  0.92757600  0.51069600  0.25046400  1
  O  O42  1  0.92824400  0.51828000  0.44882000  1
  O  O43  1  0.92497200  0.50776900  0.64992500  1
  O  O44  1  0.92462600  0.52011700  0.84988200  1
  O  O45  1  0.77390900  0.77758600  0.39251000  1
  O  O46  1  0.77175700  0.76172300  0.59264400  1
  O  O47  1  0.78402100  0.78683400  0.79357200  1
  O  O48  1  0.78184400  0.77367600  0.19173300  1
  O  O49  1  0.78577100  0.78261800  0.10959200  1
  O  O50  1  0.77195900  0.77103600  0.30925200  1
  O  O51  1  0.78429900  0.78586200  0.50547400  1
  O  O52  1  0.76999900  0.76885100  0.70838900  1
  O  O53  1  0.76552600  0.76644700  0.99325800  1
  O  O54  1  0.78625000  0.78850600  0.90613000  1
  O  O55  1  0.73094800  0.26529500  0.19198500  1
  O  O56  1  0.72576400  0.27109100  0.10956800  1
  O  O57  1  0.73813700  0.26402000  0.59274300  1
  O  O58  1  0.71322500  0.28087500  0.30927700  1
  O  O59  1  0.72732500  0.26912400  0.70848400  1
  O  O60  1  0.71178500  0.28684100  0.39121000  1
  O  O61  1  0.71482500  0.28494400  0.79254500  1
  O  O62  1  0.71548200  0.28514900  0.50665900  1
  O  O63  1  0.71759600  0.28595400  0.90722300  1
  O  O64  1  0.73204400  0.26913600  0.99337800  1
  O  O65  1  0.57385200  0.01141400  0.05085200  1
  O  O66  1  0.57731100  0.00764200  0.25062900  1
  O  O67  1  0.57770100  0.00641600  0.65056000  1
  O  O68  1  0.58413000  0.01580200  0.44964300  1
  O  O69  1  0.58469200  0.01697500  0.84980400  1
  O  O70  1  0.42195600  0.98166200  0.34980900  1
  O  O71  1  0.41681900  0.98222600  0.14992600  1
  O  O72  1  0.42723600  0.98727300  0.54913200  1
  O  O73  1  0.42204700  0.98704900  0.75065800  1
  O  O74  1  0.42521900  0.99152700  0.94925100  1
  O  O75  1  0.27405100  0.72052700  0.20719800  1
  O  O76  1  0.26185600  0.73486300  0.00709000  1
  O  O77  1  0.28430400  0.71516200  0.09269800  1
  O  O78  1  0.26822800  0.72963800  0.60657100  1
  O  O79  1  0.27227400  0.72524500  0.69287600  1
  O  O80  1  0.28279800  0.71450900  0.29351400  1
  O  O81  1  0.27264900  0.72270300  0.40708000  1
  O  O82  1  0.27420200  0.72905900  0.49016700  1
  O  O83  1  0.27492400  0.72823100  0.80910300  1
  O  O84  1  0.27530600  0.73004600  0.89068000  1
  O  O85  1  0.22861500  0.23706300  0.00715200  1
  O  O86  1  0.21668000  0.21391800  0.09408300  1
  O  O87  1  0.22244200  0.21939700  0.20622700  1
  O  O88  1  0.21651700  0.21487900  0.29263500  1
  O  O89  1  0.21042200  0.21603200  0.40813300  1
  O  O90  1  0.21531500  0.21699600  0.49013300  1
  O  O91  1  0.23490000  0.23219000  0.60670700  1
  O  O92  1  0.22543800  0.22447900  0.69302300  1
  O  O93  1  0.21697900  0.21982400  0.89053400  1
  O  O94  1  0.21373900  0.21695600  0.80923500  1
  O  O95  1  0.07411300  0.48196700  0.15052200  1
  O  O96  1  0.08136000  0.48497300  0.35032900  1
  O  O97  1  0.07483500  0.48963900  0.54875700  1
  O  O98  1  0.07672700  0.48921500  0.75070200  1
  O  O99  1  0.07599800  0.49117300  0.94971300  1
