# generated using pymatgen
data_H2Ru4(CO)13
_symmetry_space_group_name_H-M   'P 1'
_cell_length_a   9.15107800
_cell_length_b   9.24799523
_cell_length_c   26.88283901
_cell_angle_alpha   98.14414227
_cell_angle_beta   88.17616506
_cell_angle_gamma   112.06907581
_symmetry_Int_Tables_number   1
_chemical_formula_structural   H2Ru4(CO)13
_chemical_formula_sum   'H8 Ru16 C52 O52'
_cell_volume   2086.54888244
_cell_formula_units_Z   4
loop_
 _symmetry_equiv_pos_site_id
 _symmetry_equiv_pos_as_xyz
  1  'x, y, z'
loop_
 _atom_site_type_symbol
 _atom_site_label
 _atom_site_symmetry_multiplicity
 _atom_site_fract_x
 _atom_site_fract_y
 _atom_site_fract_z
 _atom_site_occupancy
  H  H0  1  0.09707800  0.58216200  0.07734900  1
  H  H1  1  0.90292200  0.41783800  0.92265100  1
  H  H2  1  0.10820700  0.80281300  0.14467100  1
  H  H3  1  0.89179300  0.19718700  0.85532900  1
  H  H4  1  0.62605800  0.29711900  0.37863200  1
  H  H5  1  0.37394200  0.70288100  0.62136800  1
  H  H6  1  0.66923900  0.05669800  0.32254000  1
  H  H7  1  0.33076100  0.94330200  0.67746000  1
  Ru  Ru8  1  0.09757400  0.60764300  0.14423500  1
  Ru  Ru9  1  0.90242600  0.39235700  0.85576500  1
  Ru  Ru10  1  0.28302500  0.68043800  0.04940800  1
  Ru  Ru11  1  0.71697500  0.31956200  0.95059200  1
  Ru  Ru12  1  0.43236900  0.72199900  0.14337100  1
  Ru  Ru13  1  0.56763100  0.27800100  0.85662900  1
  Ru  Ru14  1  0.29392900  0.93868200  0.12628800  1
  Ru  Ru15  1  0.70607100  0.06131800  0.87371200  1
  Ru  Ru16  1  0.59090800  0.09845500  0.38151600  1
  Ru  Ru17  1  0.40909200  0.90154500  0.61848400  1
  Ru  Ru18  1  0.86565900  0.18251600  0.31167600  1
  Ru  Ru19  1  0.13434100  0.81748400  0.68832400  1
  Ru  Ru20  1  0.90737200  0.19449900  0.41607900  1
  Ru  Ru21  1  0.09262800  0.80550100  0.58392100  1
  Ru  Ru22  1  0.82489100  0.43148100  0.38188000  1
  Ru  Ru23  1  0.17510900  0.56851900  0.61812000  1
  C  C24  1  0.10739500  0.64526800  0.21593800  1
  C  C25  1  0.89260500  0.35473200  0.78406200  1
  C  C26  1  0.87352300  0.55744000  0.13841200  1
  C  C27  1  0.12647700  0.44256000  0.86158800  1
  C  C28  1  0.07797000  0.39434100  0.14261200  1
  C  C29  1  0.92203000  0.60565900  0.85738800  1
  C  C30  1  0.16480700  0.73954400  0.00490800  1
  C  C31  1  0.83519300  0.26045600  0.99509200  1
  C  C32  1  0.25821900  0.49319300  0.00413800  1
  C  C33  1  0.74178100  0.50680700  0.99586200  1
  C  C34  1  0.48126800  0.80773200  0.02571000  1
  C  C35  1  0.51873200  0.19226800  0.97429000  1
  C  C36  1  0.40284400  0.53014000  0.09539000  1
  C  C37  1  0.59715600  0.46986000  0.90461000  1
  C  C38  1  0.65309600  0.82879800  0.13178500  1
  C  C39  1  0.34690400  0.17120200  0.86821500  1
  C  C40  1  0.45617600  0.61681200  0.19727000  1
  C  C41  1  0.54382400  0.38318800  0.80273000  1
  C  C42  1  0.42524800  0.89686100  0.19504500  1
  C  C43  1  0.57475200  0.10313900  0.80495500  1
  C  C44  1  0.26550100  0.08346100  0.18056200  1
  C  C45  1  0.73449900  0.91653900  0.81943800  1
  C  C46  1  0.48859900  0.08291000  0.10551900  1
  C  C47  1  0.51140100  0.91709000  0.89448100  1
  C  C48  1  0.16825400  0.98734700  0.08038100  1
  C  C49  1  0.83174600  0.01265300  0.91961900  1
  C  C50  1  0.52078100  0.12976000  0.44814300  1
  C  C51  1  0.47921900  0.87024000  0.55185700  1
  C  C52  1  0.39353900  0.06532800  0.34870600  1
  C  C53  1  0.60646100  0.93467200  0.65129400  1
  C  C54  1  0.55192600  0.88079600  0.38088500  1
  C  C55  1  0.44807400  0.11920400  0.61911500  1
  C  C56  1  0.87141900  0.99816200  0.27136100  1
  C  C57  1  0.12858100  0.00183800  0.72863900  1
  C  C58  1  0.80206300  0.24572300  0.25480700  1
  C  C59  1  0.19793700  0.75427700  0.74519300  1
  C  C60  1  0.08362300  0.31230300  0.30814400  1
  C  C61  1  0.91637700  0.68769700  0.69185600  1
  C  C62  1  0.03670600  0.57861900  0.38133100  1
  C  C63  1  0.96329400  0.42138100  0.61866900  1
  C  C64  1  0.75608100  0.57489200  0.42635700  1
  C  C65  1  0.24391900  0.42510800  0.57364300  1
  C  C66  1  0.76724700  0.49412600  0.32306400  1
  C  C67  1  0.23275300  0.50587400  0.67693600  1
  C  C68  1  0.84873800  0.35986600  0.45963000  1
  C  C69  1  0.15126200  0.64013400  0.54037000  1
  C  C70  1  0.13385800  0.29178800  0.42233600  1
  C  C71  1  0.86614200  0.70821200  0.57766400  1
  C  C72  1  0.87541700  0.09986500  0.47637600  1
  C  C73  1  0.12458300  0.90013500  0.52362400  1
  C  C74  1  0.90823600  0.00436600  0.37423900  1
  C  C75  1  0.09176400  0.99563400  0.62576100  1
  O  O76  1  0.11066600  0.66762100  0.25951800  1
  O  O77  1  0.88933400  0.33237900  0.74048200  1
  O  O78  1  0.73818400  0.52375500  0.13823700  1
  O  O79  1  0.26181600  0.47624500  0.86176300  1
  O  O80  1  0.06038700  0.26336100  0.14229600  1
  O  O81  1  0.93961300  0.73663900  0.85770400  1
  O  O82  1  0.09563400  0.76638400  0.97440700  1
  O  O83  1  0.90436600  0.23361600  0.02559300  1
  O  O84  1  0.24680700  0.38227200  0.97589800  1
  O  O85  1  0.75319300  0.61772800  0.02410200  1
  O  O86  1  0.60141400  0.88445800  0.01059300  1
  O  O87  1  0.39858600  0.11554200  0.98940700  1
  O  O88  1  0.41013900  0.40717800  0.08080500  1
  O  O89  1  0.58986100  0.59282200  0.91919500  1
  O  O90  1  0.78661200  0.89508300  0.12586000  1
  O  O91  1  0.21338800  0.10491700  0.87414000  1
  O  O92  1  0.46995700  0.55364500  0.22993000  1
  O  O93  1  0.53004300  0.44635500  0.77007000  1
  O  O94  1  0.45433200  0.96842600  0.23575300  1
  O  O95  1  0.54566800  0.03157400  0.76424700  1
  O  O96  1  0.24977600  0.17001200  0.21389200  1
  O  O97  1  0.75022400  0.82998800  0.78610800  1
  O  O98  1  0.60791400  0.17256600  0.09408500  1
  O  O99  1  0.39208600  0.82743400  0.90591500  1
  O  O100  1  0.09367400  0.02778300  0.05571300  1
  O  O101  1  0.90632600  0.97221700  0.94428700  1
  O  O102  1  0.47985100  0.15165400  0.48877400  1
  O  O103  1  0.52014900  0.84834600  0.51122600  1
  O  O104  1  0.27155300  0.04406900  0.33139100  1
  O  O105  1  0.72844700  0.95593100  0.66860900  1
  O  O106  1  0.52719700  0.74756600  0.37828200  1
  O  O107  1  0.47280300  0.25243400  0.62171800  1
  O  O108  1  0.87489100  0.88734900  0.24587200  1
  O  O109  1  0.12510900  0.11265100  0.75412800  1
  O  O110  1  0.76769000  0.27657500  0.21752100  1
  O  O111  1  0.23231000  0.72342500  0.78247900  1
  O  O112  1  0.21635000  0.38828300  0.30551200  1
  O  O113  1  0.78365000  0.61171700  0.69448800  1
  O  O114  1  0.16392400  0.67132800  0.38148100  1
  O  O115  1  0.83607600  0.32867200  0.61851900  1
  O  O116  1  0.71929000  0.66359100  0.45322600  1
  O  O117  1  0.28071000  0.33640900  0.54677400  1
  O  O118  1  0.73053500  0.54467300  0.29071800  1
  O  O119  1  0.26946500  0.45532700  0.70928200  1
  O  O120  1  0.82455900  0.41283800  0.50019100  1
  O  O121  1  0.17544100  0.58716200  0.49980900  1
  O  O122  1  0.27058100  0.34468600  0.42512400  1
  O  O123  1  0.72941900  0.65531400  0.57487600  1
  O  O124  1  0.85975800  0.05015500  0.51430100  1
  O  O125  1  0.14024200  0.94984500  0.48569900  1
  O  O126  1  0.91402300  0.87966100  0.36292800  1
  O  O127  1  0.08597700  0.12033900  0.63707200  1
