# generated using pymatgen
data_NiH12S2O9
_symmetry_space_group_name_H-M   'P 1'
_cell_length_a   8.60145000
_cell_length_b   12.65503200
_cell_length_c   17.29958900
_cell_angle_alpha   90.00000000
_cell_angle_beta   90.00000000
_cell_angle_gamma   90.00000000
_symmetry_Int_Tables_number   1
_chemical_formula_structural   NiH12S2O9
_chemical_formula_sum   'Ni4 H48 S8 O36'
_cell_volume   1883.08837442
_cell_formula_units_Z   4
loop_
 _symmetry_equiv_pos_site_id
 _symmetry_equiv_pos_as_xyz
  1  'x, y, z'
loop_
 _atom_site_type_symbol
 _atom_site_label
 _atom_site_symmetry_multiplicity
 _atom_site_fract_x
 _atom_site_fract_y
 _atom_site_fract_z
 _atom_site_occupancy
  Ni  Ni0  1  0.50000000  0.50000000  0.00000000  1
  Ni  Ni1  1  0.00000000  0.00000000  0.50000000  1
  Ni  Ni2  1  0.50000000  0.50000000  0.50000000  1
  Ni  Ni3  1  0.00000000  0.00000000  0.00000000  1
  H  H4  1  0.17260800  0.43402900  0.05628300  1
  H  H5  1  0.32739200  0.93402900  0.44371700  1
  H  H6  1  0.82739200  0.56597100  0.55628300  1
  H  H7  1  0.67260800  0.06597100  0.94371700  1
  H  H8  1  0.82739200  0.56597100  0.94371700  1
  H  H9  1  0.67260800  0.06597100  0.55628300  1
  H  H10  1  0.17260800  0.43402900  0.44371700  1
  H  H11  1  0.32739200  0.93402900  0.05628300  1
  H  H12  1  0.40368000  0.29710600  0.13252900  1
  H  H13  1  0.09632000  0.79710600  0.36747100  1
  H  H14  1  0.59632000  0.70289400  0.63252900  1
  H  H15  1  0.90368000  0.20289400  0.86747100  1
  H  H16  1  0.59632000  0.70289400  0.86747100  1
  H  H17  1  0.90368000  0.20289400  0.63252900  1
  H  H18  1  0.40368000  0.29710600  0.36747100  1
  H  H19  1  0.09632000  0.79710600  0.13252900  1
  H  H20  1  0.17463200  0.31943700  0.22839300  1
  H  H21  1  0.32536800  0.81943700  0.27160700  1
  H  H22  1  0.82536800  0.68056300  0.72839300  1
  H  H23  1  0.67463200  0.18056300  0.77160700  1
  H  H24  1  0.82536800  0.68056300  0.77160700  1
  H  H25  1  0.67463200  0.18056300  0.72839300  1
  H  H26  1  0.17463200  0.31943700  0.27160700  1
  H  H27  1  0.32536800  0.81943700  0.22839300  1
  H  H28  1  0.87777700  0.34840500  0.22833800  1
  H  H29  1  0.62222300  0.84840500  0.27166200  1
  H  H30  1  0.12222300  0.65159500  0.72833800  1
  H  H31  1  0.37777700  0.15159500  0.77166200  1
  H  H32  1  0.12222300  0.65159500  0.77166200  1
  H  H33  1  0.37777700  0.15159500  0.72833800  1
  H  H34  1  0.87777700  0.34840500  0.27166200  1
  H  H35  1  0.62222300  0.84840500  0.22833800  1
  H  H36  1  0.21176300  0.88680100  0.95698100  1
  H  H37  1  0.28823700  0.38680100  0.54301900  1
  H  H38  1  0.78823700  0.11319900  0.45698100  1
  H  H39  1  0.71176300  0.61319900  0.04301900  1
  H  H40  1  0.78823700  0.11319900  0.04301900  1
  H  H41  1  0.71176300  0.61319900  0.45698100  1
  H  H42  1  0.21176300  0.88680100  0.54301900  1
  H  H43  1  0.28823700  0.38680100  0.95698100  1
  H  H44  1  0.97807700  0.19167700  0.84636600  1
  H  H45  1  0.52192300  0.69167700  0.65363400  1
  H  H46  1  0.02192300  0.80832300  0.34636600  1
  H  H47  1  0.47807700  0.30832300  0.15363400  1
  H  H48  1  0.02192300  0.80832300  0.15363400  1
  H  H49  1  0.47807700  0.30832300  0.34636600  1
  H  H50  1  0.97807700  0.19167700  0.65363400  1
  H  H51  1  0.52192300  0.69167700  0.84636600  1
  S  S52  1  0.83336900  0.66194800  0.25000000  1
  S  S53  1  0.66663100  0.16194800  0.25000000  1
  S  S54  1  0.16663100  0.33805200  0.75000000  1
  S  S55  1  0.33336900  0.83805200  0.75000000  1
  S  S56  1  0.00974500  0.57061200  0.25000000  1
  S  S57  1  0.49025500  0.07061200  0.25000000  1
  S  S58  1  0.99025500  0.42938800  0.75000000  1
  S  S59  1  0.50974500  0.92938800  0.75000000  1
  O  O60  1  0.07565700  0.44290300  0.09098300  1
  O  O61  1  0.42434300  0.94290300  0.40901700  1
  O  O62  1  0.92434300  0.55709700  0.59098300  1
  O  O63  1  0.57565700  0.05709700  0.90901700  1
  O  O64  1  0.92434300  0.55709700  0.90901700  1
  O  O65  1  0.57565700  0.05709700  0.59098300  1
  O  O66  1  0.07565700  0.44290300  0.40901700  1
  O  O67  1  0.42434300  0.94290300  0.09098300  1
  O  O68  1  0.16304000  0.62217200  0.25000000  1
  O  O69  1  0.33696000  0.12217200  0.25000000  1
  O  O70  1  0.83696000  0.37782800  0.75000000  1
  O  O71  1  0.66304000  0.87782800  0.75000000  1
  O  O72  1  0.32190000  0.42591900  0.00245000  1
  O  O73  1  0.17810000  0.92591900  0.49755000  1
  O  O74  1  0.67810000  0.57408100  0.50245000  1
  O  O75  1  0.82190000  0.07408100  0.99755000  1
  O  O76  1  0.67810000  0.57408100  0.99755000  1
  O  O77  1  0.82190000  0.07408100  0.50245000  1
  O  O78  1  0.32190000  0.42591900  0.49755000  1
  O  O79  1  0.17810000  0.92591900  0.00245000  1
  O  O80  1  0.46926500  0.12481800  0.93654800  1
  O  O81  1  0.03073500  0.62481800  0.56345200  1
  O  O82  1  0.53073500  0.87518200  0.43654800  1
  O  O83  1  0.96926500  0.37518200  0.06345200  1
  O  O84  1  0.53073500  0.87518200  0.06345200  1
  O  O85  1  0.96926500  0.37518200  0.43654800  1
  O  O86  1  0.46926500  0.12481800  0.56345200  1
  O  O87  1  0.03073500  0.62481800  0.93654800  1
  O  O88  1  0.01718200  0.02897900  0.28560600  1
  O  O89  1  0.48281800  0.52897900  0.21439400  1
  O  O90  1  0.98281800  0.97102100  0.78560600  1
  O  O91  1  0.51718200  0.47102100  0.71439400  1
  O  O92  1  0.98281800  0.97102100  0.71439400  1
  O  O93  1  0.51718200  0.47102100  0.78560600  1
  O  O94  1  0.01718200  0.02897900  0.21439400  1
  O  O95  1  0.48281800  0.52897900  0.28560600  1
