# generated using pymatgen
data_K5H3S4N2O15
_symmetry_space_group_name_H-M   'P 1'
_cell_length_a   12.02018600
_cell_length_b   14.16708791
_cell_length_c   16.31798638
_cell_angle_alpha   86.25180403
_cell_angle_beta   77.07621536
_cell_angle_gamma   73.69346004
_symmetry_Int_Tables_number   1
_chemical_formula_structural   K5H3S4N2O15
_chemical_formula_sum   'K30 H18 S24 N12 O90'
_cell_volume   2599.45462358
_cell_formula_units_Z   6
loop_
 _symmetry_equiv_pos_site_id
 _symmetry_equiv_pos_as_xyz
  1  'x, y, z'
loop_
 _atom_site_type_symbol
 _atom_site_label
 _atom_site_symmetry_multiplicity
 _atom_site_fract_x
 _atom_site_fract_y
 _atom_site_fract_z
 _atom_site_occupancy
  K  K0  1  0.59519900  0.91752000  0.15850200  1
  K  K1  1  0.40480100  0.08248000  0.84149800  1
  K  K2  1  0.78038300  0.74366100  0.48578100  1
  K  K3  1  0.21961700  0.25633900  0.51421900  1
  K  K4  1  0.92914100  0.57422200  0.82760100  1
  K  K5  1  0.07085900  0.42577800  0.17239900  1
  K  K6  1  0.86450100  0.06284500  0.07471600  1
  K  K7  1  0.13549900  0.93715500  0.92528400  1
  K  K8  1  0.03089400  0.88300800  0.41996600  1
  K  K9  1  0.96910600  0.11699200  0.58003400  1
  K  K10  1  0.18273700  0.71200400  0.75464400  1
  K  K11  1  0.81726300  0.28799600  0.24535600  1
  K  K12  1  0.35295800  0.53766800  0.09151500  1
  K  K13  1  0.64704200  0.46233200  0.90848500  1
  K  K14  1  0.52022100  0.37605800  0.41526300  1
  K  K15  1  0.47977900  0.62394200  0.58473700  1
  K  K16  1  0.69629400  0.22102000  0.73954700  1
  K  K17  1  0.30370600  0.77898000  0.26045300  1
  K  K18  1  0.01279200  0.70038900  0.06318800  1
  K  K19  1  0.98720800  0.29961100  0.93681200  1
  K  K20  1  0.17155400  0.52828100  0.39957600  1
  K  K21  1  0.82844600  0.47171900  0.60042400  1
  K  K22  1  0.27507200  0.35353800  0.74454400  1
  K  K23  1  0.72492800  0.64646200  0.25545600  1
  K  K24  1  0.43191800  0.19339500  0.07435700  1
  K  K25  1  0.56808200  0.80660500  0.92564300  1
  K  K26  1  0.58579800  0.03763300  0.39697900  1
  K  K27  1  0.41420200  0.96236700  0.60302100  1
  K  K28  1  0.84247000  0.87109200  0.72721000  1
  K  K29  1  0.15753000  0.12890800  0.27279000  1
  H  H30  1  0.91647300  0.08242300  0.83013700  1
  H  H31  1  0.08352700  0.91757700  0.16986300  1
  H  H32  1  0.75209100  0.25827500  0.49392700  1
  H  H33  1  0.24790900  0.74172500  0.50607300  1
  H  H34  1  0.57967400  0.41910900  0.16312500  1
  H  H35  1  0.42032600  0.58089100  0.83687500  1
  H  H36  1  0.73172500  0.22619700  0.95648100  1
  H  H37  1  0.26827500  0.77380300  0.04351900  1
  H  H38  1  0.90940200  0.04833500  0.29233900  1
  H  H39  1  0.09059800  0.95166500  0.70766100  1
  H  H40  1  0.57975600  0.38776900  0.62904700  1
  H  H41  1  0.42024400  0.61223100  0.37095300  1
  H  H42  1  0.71923600  0.28736500  0.03685500  1
  H  H43  1  0.28076400  0.71263500  0.96314500  1
  H  H44  1  0.88217700  0.10957100  0.37473700  1
  H  H45  1  0.11782300  0.89042900  0.62526300  1
  H  H46  1  0.55914600  0.44953900  0.71109500  1
  H  H47  1  0.44085400  0.55046100  0.28890500  1
  S  S48  1  0.82502400  0.49817300  0.06488100  1
  S  S49  1  0.17497600  0.50182700  0.93511900  1
  S  S50  1  0.99144800  0.32543200  0.40054800  1
  S  S51  1  0.00855200  0.67456800  0.59945200  1
  S  S52  1  0.15867900  0.12554500  0.73564200  1
  S  S53  1  0.84132100  0.87445500  0.26435800  1
  S  S54  1  0.32625900  0.95987300  0.07040600  1
  S  S55  1  0.67374100  0.04012700  0.92959400  1
  S  S56  1  0.49742600  0.80478400  0.40224800  1
  S  S57  1  0.50257400  0.19521600  0.59775200  1
  S  S58  1  0.66374400  0.66805000  0.73114100  1
  S  S59  1  0.33625600  0.33195000  0.26885900  1
  S  S60  1  0.57793500  0.63819900  0.09600200  1
  S  S61  1  0.42206500  0.36180100  0.90399800  1
  S  S62  1  0.75301800  0.47610400  0.41580500  1
  S  S63  1  0.24698200  0.52389600  0.58419500  1
  S  S64  1  0.95347100  0.30338600  0.73927300  1
  S  S65  1  0.04652900  0.69661400  0.26072700  1
  S  S66  1  0.11740000  0.13527500  0.07642800  1
  S  S67  1  0.88260000  0.86472500  0.92357200  1
  S  S68  1  0.26802400  0.96119600  0.43509100  1
  S  S69  1  0.73197600  0.03880400  0.56490900  1
  S  S70  1  0.41223800  0.79853900  0.76896000  1
  S  S71  1  0.58776200  0.20146100  0.23104000  1
  N  N72  1  0.67499400  0.52317400  0.11758200  1
  N  N73  1  0.32500600  0.47682600  0.88241800  1
  N  N74  1  0.83910000  0.36055800  0.44671100  1
  N  N75  1  0.16090000  0.63944200  0.55328900  1
  N  N76  1  0.00773800  0.18348800  0.77876300  1
  N  N77  1  0.99226200  0.81651200  0.22123700  1
  N  N78  1  0.17554500  0.01677300  0.11654100  1
  N  N79  1  0.82445500  0.98322700  0.88345900  1
  N  N80  1  0.34703300  0.84034900  0.45596000  1
  N  N81  1  0.65296700  0.15965100  0.54404000  1
  N  N82  1  0.51564600  0.68633800  0.78804300  1
  N  N83  1  0.48435400  0.31366200  0.21195700  1
  O  O84  1  0.62617000  0.44985300  0.09711000  1
  O  O85  1  0.37383000  0.55014700  0.90289000  1
  O  O86  1  0.78604200  0.28917000  0.42799200  1
  O  O87  1  0.21395800  0.71083000  0.57200800  1
  O  O88  1  0.93830200  0.12440200  0.76161700  1
  O  O89  1  0.06169800  0.87559800  0.23838300  1
  O  O90  1  0.10439100  0.95744500  0.10292000  1
  O  O91  1  0.89560900  0.04255500  0.89708000  1
  O  O92  1  0.28503100  0.77757500  0.43473700  1
  O  O93  1  0.71496900  0.22242500  0.56526300  1
  O  O94  1  0.46990000  0.61031900  0.76936300  1
  O  O95  1  0.53010000  0.38968100  0.23063700  1
  O  O96  1  0.87886400  0.40019500  0.09643900  1
  O  O97  1  0.12113600  0.59980500  0.90356100  1
  O  O98  1  0.03487100  0.22712700  0.43564000  1
  O  O99  1  0.96512900  0.77287300  0.56436000  1
  O  O100  1  0.17657600  0.02572600  0.77099400  1
  O  O101  1  0.82342400  0.97427400  0.22900600  1
  O  O102  1  0.34451600  0.85827900  0.10129800  1
  O  O103  1  0.65548400  0.14172100  0.89870200  1
  O  O104  1  0.53279300  0.69769900  0.41489700  1
  O  O105  1  0.46720700  0.30230100  0.58510300  1
  O  O106  1  0.72412500  0.57090800  0.76092100  1
  O  O107  1  0.27587500  0.42909200  0.23907900  1
  O  O108  1  0.86711500  0.57493200  0.09380200  1
  O  O109  1  0.13288500  0.42506800  0.90619800  1
  O  O110  1  0.03738000  0.39889900  0.42993000  1
  O  O111  1  0.96262000  0.60110100  0.57007000  1
  O  O112  1  0.22267100  0.18330600  0.76852400  1
  O  O113  1  0.77732900  0.81669400  0.23147600  1
  O  O114  1  0.39144200  0.01461500  0.10553100  1
  O  O115  1  0.60855800  0.98538500  0.89446900  1
  O  O116  1  0.55471300  0.85623100  0.44843100  1
  O  O117  1  0.44528700  0.14376900  0.55156900  1
  O  O118  1  0.70073400  0.74771100  0.76015100  1
  O  O119  1  0.29926600  0.25228900  0.23984900  1
  O  O120  1  0.83283800  0.49836900  0.97342500  1
  O  O121  1  0.16716200  0.50163100  0.02657500  1
  O  O122  1  0.00597500  0.32261000  0.30837300  1
  O  O123  1  0.99402500  0.67739000  0.69162700  1
  O  O124  1  0.17959500  0.12444800  0.64341000  1
  O  O125  1  0.82040500  0.87555200  0.35659000  1
  O  O126  1  0.34459400  0.96467100  0.97803000  1
  O  O127  1  0.65540600  0.03532900  0.02197000  1
  O  O128  1  0.50799500  0.83196200  0.31278700  1
  O  O129  1  0.49200500  0.16803800  0.68721300  1
  O  O130  1  0.66762600  0.66963100  0.64028600  1
  O  O131  1  0.33237400  0.33036900  0.35971400  1
  O  O132  1  0.47287700  0.63793600  0.16195500  1
  O  O133  1  0.52712300  0.36206400  0.83804500  1
  O  O134  1  0.64027500  0.48416600  0.47513500  1
  O  O135  1  0.35972500  0.51583400  0.52486500  1
  O  O136  1  0.83094000  0.33295100  0.78741300  1
  O  O137  1  0.16906000  0.66704900  0.21258700  1
  O  O138  1  0.00085500  0.16781000  0.13280700  1
  O  O139  1  0.99914500  0.83219000  0.86719300  1
  O  O140  1  0.15917900  0.97424100  0.50071800  1
  O  O141  1  0.84082100  0.02575900  0.49928200  1
  O  O142  1  0.31040500  0.79444200  0.83690800  1
  O  O143  1  0.68959500  0.20555800  0.16309200  1
  O  O144  1  0.63392400  0.71462000  0.10702400  1
  O  O145  1  0.36607600  0.28538000  0.89297600  1
  O  O146  1  0.81306800  0.54876600  0.42893200  1
  O  O147  1  0.18693200  0.45123400  0.57106800  1
  O  O148  1  0.02748200  0.36070300  0.76082800  1
  O  O149  1  0.97251800  0.63929700  0.23917200  1
  O  O150  1  0.19878000  0.19166200  0.08577200  1
  O  O151  1  0.80122000  0.80833800  0.91422800  1
  O  O152  1  0.34148000  0.02464800  0.44515600  1
  O  O153  1  0.65852000  0.97535200  0.55484400  1
  O  O154  1  0.46395400  0.87855400  0.77756000  1
  O  O155  1  0.53604600  0.12144600  0.22244000  1
  O  O156  1  0.55723100  0.63459800  0.01077400  1
  O  O157  1  0.44276900  0.36540200  0.98922600  1
  O  O158  1  0.74501300  0.46775100  0.32796600  1
  O  O159  1  0.25498700  0.53224900  0.67203400  1
  O  O160  1  0.96192200  0.29635200  0.64850100  1
  O  O161  1  0.03807800  0.70364800  0.35149900  1
  O  O162  1  0.10935800  0.12424700  0.98907100  1
  O  O163  1  0.89064200  0.87575300  0.01092900  1
  O  O164  1  0.24412600  0.96262600  0.35030500  1
  O  O165  1  0.75587400  0.03737400  0.64969500  1
  O  O166  1  0.38736600  0.79389900  0.68516700  1
  O  O167  1  0.61263400  0.20610100  0.31483300  1
  O  O168  1  0.23104200  0.73276200  0.01885500  1
  O  O169  1  0.76895800  0.26723800  0.98114500  1
  O  O170  1  0.93616200  0.09480400  0.32011200  1
  O  O171  1  0.06383800  0.90519600  0.67988800  1
  O  O172  1  0.61414900  0.42747700  0.65804800  1
  O  O173  1  0.38585100  0.57252300  0.34195200  1
