# generated using pymatgen
data_Ba6Yb6Al13Si11N29O13
_symmetry_space_group_name_H-M   'P 1'
_cell_length_a   6.27812700
_cell_length_b   6.33805931
_cell_length_c   29.54334832
_cell_angle_alpha   89.83403106
_cell_angle_beta   89.74600826
_cell_angle_gamma   60.55710688
_symmetry_Int_Tables_number   1
_chemical_formula_structural   Ba6Yb6Al13Si11N29O13
_chemical_formula_sum   'Ba6 Yb6 Al13 Si11 N29 O13'
_cell_volume   1023.72448050
_cell_formula_units_Z   1
loop_
 _symmetry_equiv_pos_site_id
 _symmetry_equiv_pos_as_xyz
  1  'x, y, z'
loop_
 _atom_site_type_symbol
 _atom_site_label
 _atom_site_symmetry_multiplicity
 _atom_site_fract_x
 _atom_site_fract_y
 _atom_site_fract_z
 _atom_site_occupancy
  Ba  Ba0  1  0.70239600  0.65859200  0.96301300  1
  Ba  Ba1  1  0.64485500  0.68222900  0.29006300  1
  Ba  Ba2  1  0.67937300  0.67188800  0.61153600  1
  Ba  Ba3  1  0.32110900  0.32930200  0.44714000  1
  Ba  Ba4  1  0.29609200  0.32468200  0.12056100  1
  Ba  Ba5  1  0.38247500  0.29577400  0.78133900  1
  Yb  Yb6  1  0.75704800  0.60498300  0.75719200  1
  Yb  Yb7  1  0.63286600  0.60977300  0.09689900  1
  Yb  Yb8  1  0.65294400  0.65395100  0.42808000  1
  Yb  Yb9  1  0.38103500  0.33573600  0.90936700  1
  Yb  Yb10  1  0.33813300  0.33955200  0.55908600  1
  Yb  Yb11  1  0.32518300  0.31737300  0.23823300  1
  Al  Al12  1  0.31639500  0.85972100  0.18930000  1
  Al  Al13  1  0.33146100  0.87369300  0.51676300  1
  Al  Al14  1  0.02008400  0.99414800  0.93167700  1
  Al  Al15  1  0.86501600  0.81352400  0.51595000  1
  Al  Al16  1  0.10705700  0.68755100  0.35764900  1
  Al  Al17  1  0.16838900  0.65693000  0.68126400  1
  Al  Al18  1  0.14684800  0.66413900  0.02207300  1
  Al  Al19  1  0.19067500  0.15078300  0.68155200  1
  Al  Al20  1  0.17523800  0.13543700  0.35461900  1
  Al  Al21  1  0.15316900  0.15515000  0.02430500  1
  Al  Al22  1  0.69408900  0.17890200  0.68426900  1
  Al  Al23  1  0.64752100  0.21729800  0.35246200  1
  Al  Al24  1  0.64666200  0.18637200  0.01715000  1
  Si  Si25  1  0.37782800  0.83729300  0.85252500  1
  Si  Si26  1  0.02076500  0.95985600  0.76824500  1
  Si  Si27  1  0.00166000  0.01352200  0.59561700  1
  Si  Si28  1  0.99498300  0.00809400  0.43346900  1
  Si  Si29  1  0.96664200  0.02102700  0.26759400  1
  Si  Si30  1  0.97236700  0.01127300  0.10446500  1
  Si  Si31  1  0.83192100  0.80932500  0.19099300  1
  Si  Si32  1  0.89206100  0.77776600  0.85240500  1
  Si  Si33  1  0.76064700  0.35627300  0.19232300  1
  Si  Si34  1  0.79695900  0.34452600  0.51980500  1
  Si  Si35  1  0.80955200  0.36321400  0.85609300  1
  N  N36  1  0.04593900  0.95477000  0.82806300  1
  N  N37  1  0.20757900  0.74656600  0.07966800  1
  N  N38  1  0.06513000  0.71087800  0.74165900  1
  N  N39  1  0.96255100  0.76631100  0.41654700  1
  N  N40  1  0.01372200  0.46111300  0.34376800  1
  N  N41  1  0.99013600  0.48676000  0.03366400  1
  N  N42  1  0.99232400  0.47642900  0.83771300  1
  N  N43  1  0.93577700  0.49984300  0.18153200  1
  N  N44  1  0.96937200  0.48360300  0.51203400  1
  N  N45  1  0.75578300  0.26196500  0.57618800  1
  N  N46  1  0.78325500  0.27374100  0.90801100  1
  N  N47  1  0.72875900  0.26767600  0.24584500  1
  N  N48  1  0.50952300  0.53774200  0.83779900  1
  N  N49  1  0.49358000  0.54326200  0.50489700  1
  N  N50  1  0.46939200  0.53747400  0.17345700  1
  N  N51  1  0.25069700  0.97474000  0.08100200  1
  N  N52  1  0.06802100  0.18185900  0.74187700  1
  N  N53  1  0.26214100  0.97049500  0.41014300  1
  N  N54  1  0.58279400  0.94369800  0.84094700  1
  N  N55  1  0.52875400  0.98406800  0.18535100  1
  N  N56  1  0.53899400  0.99267600  0.50835900  1
  N  N57  1  0.71436900  0.20229500  0.07772900  1
  N  N58  1  0.79257000  0.22800800  0.74381800  1
  N  N59  1  0.74793100  0.25338200  0.40985100  1
  N  N60  1  0.96672500  0.00914600  0.16462500  1
  N  N61  1  0.98660200  0.99235500  0.99387300  1
  N  N62  1  0.01681500  0.99160200  0.65629100  1
  N  N63  1  0.99148700  0.02853800  0.49477100  1
  N  N64  1  0.97539400  0.99960100  0.32559600  1
  O  O65  1  0.30709100  0.93145400  0.90605600  1
  O  O66  1  0.26104600  0.99848900  0.57912800  1
  O  O67  1  0.22477900  0.99229200  0.24663300  1
  O  O68  1  0.51707600  0.02417200  0.68829100  1
  O  O69  1  0.47081500  0.08261200  0.33297700  1
  O  O70  1  0.44932800  0.07108100  0.99883400  1
  O  O71  1  0.99956900  0.74242700  0.90590300  1
  O  O72  1  0.01566700  0.76300200  0.57555500  1
  O  O73  1  0.97314000  0.77320000  0.24272300  1
  O  O74  1  0.49315300  0.49458100  0.67419100  1
  O  O75  1  0.42808400  0.53285000  0.34426400  1
  O  O76  1  0.43566400  0.48583100  0.99255900  1
  O  O77  1  0.07697700  0.44776000  0.66153200  1
