# generated using pymatgen
data_HfSnAu2
_symmetry_space_group_name_H-M   'P 1'
_cell_length_a   11.18772306
_cell_length_b   11.18772306
_cell_length_c   11.18772306
_cell_angle_alpha   123.60066351
_cell_angle_beta   118.25594367
_cell_angle_gamma   88.46358768
_symmetry_Int_Tables_number   1
_chemical_formula_structural   HfSnAu2
_chemical_formula_sum   'Hf1 Sn1 Au2'
_cell_volume   973.15112675
_cell_formula_units_Z   1
loop_
 _symmetry_equiv_pos_site_id
 _symmetry_equiv_pos_as_xyz
  1  'x, y, z'
loop_
 _atom_site_type_symbol
 _atom_site_label
 _atom_site_symmetry_multiplicity
 _atom_site_fract_x
 _atom_site_fract_y
 _atom_site_fract_z
 _atom_site_occupancy
  Hf  Hf0  1  0.00000000  0.50000000  0.50000000  1
  Sn  Sn1  1  0.00000000  0.00000000  0.00000000  1
  Au  Au2  1  0.00000000  0.25510500  0.25510500  1
  Au  Au3  1  0.00000000  0.74489500  0.74489500  1
