# generated using pymatgen
data_VH11N3Cl5
_symmetry_space_group_name_H-M   'P 1'
_cell_length_a   6.96778700
_cell_length_b   10.70147500
_cell_length_c   13.78923100
_cell_angle_alpha   90.00000000
_cell_angle_beta   90.00000000
_cell_angle_gamma   90.00000000
_symmetry_Int_Tables_number   1
_chemical_formula_structural   VH11N3Cl5
_chemical_formula_sum   'V4 H44 N12 Cl20'
_cell_volume   1028.20226080
_cell_formula_units_Z   4
loop_
 _symmetry_equiv_pos_site_id
 _symmetry_equiv_pos_as_xyz
  1  'x, y, z'
loop_
 _atom_site_type_symbol
 _atom_site_label
 _atom_site_symmetry_multiplicity
 _atom_site_fract_x
 _atom_site_fract_y
 _atom_site_fract_z
 _atom_site_occupancy
  V  V0  1  0.31221100  0.25000000  0.61177800  1
  V  V1  1  0.18778900  0.25000000  0.11177800  1
  V  V2  1  0.68778900  0.75000000  0.38822200  1
  V  V3  1  0.81221100  0.75000000  0.88822200  1
  H  H4  1  0.44312300  0.25000000  0.42684700  1
  H  H5  1  0.05687700  0.25000000  0.92684700  1
  H  H6  1  0.55687700  0.75000000  0.57315300  1
  H  H7  1  0.94312300  0.75000000  0.07315300  1
  H  H8  1  0.59479000  0.32728700  0.49542000  1
  H  H9  1  0.90521000  0.17271300  0.99542000  1
  H  H10  1  0.40521000  0.82728700  0.50458000  1
  H  H11  1  0.09479000  0.67271300  0.00458000  1
  H  H12  1  0.40521000  0.67271300  0.50458000  1
  H  H13  1  0.09479000  0.82728700  0.00458000  1
  H  H14  1  0.59479000  0.17271300  0.49542000  1
  H  H15  1  0.90521000  0.32728700  0.99542000  1
  H  H16  1  0.75568500  0.52583700  0.59443200  1
  H  H17  1  0.74431500  0.97416300  0.09443200  1
  H  H18  1  0.24431500  0.02583700  0.40556800  1
  H  H19  1  0.25568500  0.47416300  0.90556800  1
  H  H20  1  0.24431500  0.47416300  0.40556800  1
  H  H21  1  0.25568500  0.02583700  0.90556800  1
  H  H22  1  0.75568500  0.97416300  0.59443200  1
  H  H23  1  0.74431500  0.52583700  0.09443200  1
  H  H24  1  0.98762500  0.51858100  0.62913800  1
  H  H25  1  0.51237500  0.98141900  0.12913800  1
  H  H26  1  0.01237500  0.01858100  0.37086200  1
  H  H27  1  0.48762500  0.48141900  0.87086200  1
  H  H28  1  0.01237500  0.48141900  0.37086200  1
  H  H29  1  0.48762500  0.01858100  0.87086200  1
  H  H30  1  0.98762500  0.98141900  0.62913800  1
  H  H31  1  0.51237500  0.51858100  0.12913800  1
  H  H32  1  0.82905800  0.41020900  0.66903500  1
  H  H33  1  0.67094200  0.08979100  0.16903500  1
  H  H34  1  0.17094200  0.91020900  0.33096500  1
  H  H35  1  0.32905800  0.58979100  0.83096500  1
  H  H36  1  0.17094200  0.58979100  0.33096500  1
  H  H37  1  0.32905800  0.91020900  0.83096500  1
  H  H38  1  0.82905800  0.08979100  0.66903500  1
  H  H39  1  0.67094200  0.41020900  0.16903500  1
  H  H40  1  0.81435500  0.55790900  0.71000200  1
  H  H41  1  0.68564500  0.94209100  0.21000200  1
  H  H42  1  0.18564500  0.05790900  0.28999800  1
  H  H43  1  0.31435500  0.44209100  0.78999800  1
  H  H44  1  0.18564500  0.44209100  0.28999800  1
  H  H45  1  0.31435500  0.05790900  0.78999800  1
  H  H46  1  0.81435500  0.94209100  0.71000200  1
  H  H47  1  0.68564500  0.55790900  0.21000200  1
  N  N48  1  0.50810700  0.25000000  0.49357200  1
  N  N49  1  0.99189300  0.25000000  0.99357200  1
  N  N50  1  0.49189300  0.75000000  0.50642800  1
  N  N51  1  0.00810700  0.75000000  0.00642800  1
  N  N52  1  0.84640400  0.50329900  0.65031200  1
  N  N53  1  0.65359600  0.99670100  0.15031200  1
  N  N54  1  0.15359600  0.00329900  0.34968800  1
  N  N55  1  0.34640400  0.49670100  0.84968800  1
  N  N56  1  0.15359600  0.49670100  0.34968800  1
  N  N57  1  0.34640400  0.00329900  0.84968800  1
  N  N58  1  0.84640400  0.99670100  0.65031200  1
  N  N59  1  0.65359600  0.50329900  0.15031200  1
  Cl  Cl60  1  0.31930300  0.47625400  0.60528100  1
  Cl  Cl61  1  0.18069700  0.02374600  0.10528100  1
  Cl  Cl62  1  0.68069700  0.97625400  0.39471900  1
  Cl  Cl63  1  0.81930300  0.52374600  0.89471900  1
  Cl  Cl64  1  0.68069700  0.52374600  0.39471900  1
  Cl  Cl65  1  0.81930300  0.97625400  0.89471900  1
  Cl  Cl66  1  0.31930300  0.02374600  0.60528100  1
  Cl  Cl67  1  0.18069700  0.47625400  0.10528100  1
  Cl  Cl68  1  0.05100500  0.25000000  0.50193800  1
  Cl  Cl69  1  0.44899500  0.25000000  0.00193800  1
  Cl  Cl70  1  0.94899500  0.75000000  0.49806200  1
  Cl  Cl71  1  0.55100500  0.75000000  0.99806200  1
  Cl  Cl72  1  0.10519400  0.25000000  0.75077500  1
  Cl  Cl73  1  0.39480600  0.25000000  0.25077500  1
  Cl  Cl74  1  0.89480600  0.75000000  0.24922500  1
  Cl  Cl75  1  0.60519400  0.75000000  0.74922500  1
  Cl  Cl76  1  0.58856700  0.25000000  0.71406600  1
  Cl  Cl77  1  0.91143300  0.25000000  0.21406600  1
  Cl  Cl78  1  0.41143300  0.75000000  0.28593400  1
  Cl  Cl79  1  0.08856700  0.75000000  0.78593400  1
