# generated using pymatgen
data_Na5CaAl5Fe(SiO3)12
_symmetry_space_group_name_H-M   'P 1'
_cell_length_a   6.48692750
_cell_length_b   6.48692750
_cell_length_c   15.89259555
_cell_angle_alpha   77.32129925
_cell_angle_beta   77.32129925
_cell_angle_gamma   84.46287849
_symmetry_Int_Tables_number   1
_chemical_formula_structural   Na5CaAl5Fe(SiO3)12
_chemical_formula_sum   'Na5 Ca1 Al5 Fe1 Si12 O36'
_cell_volume   635.72697970
_cell_formula_units_Z   1
loop_
 _symmetry_equiv_pos_site_id
 _symmetry_equiv_pos_as_xyz
  1  'x, y, z'
loop_
 _atom_site_type_symbol
 _atom_site_label
 _atom_site_symmetry_multiplicity
 _atom_site_fract_x
 _atom_site_fract_y
 _atom_site_fract_z
 _atom_site_occupancy
  Na  Na0  1  0.30127200  0.70000900  0.66664700  1
  Na  Na1  1  0.69614700  0.30161300  0.83462600  1
  Na  Na2  1  0.30275800  0.69724200  0.00000000  1
  Na  Na3  1  0.69838700  0.30385300  0.16537400  1
  Na  Na4  1  0.29999100  0.69872800  0.33335300  1
  Ca  Ca5  1  0.69849000  0.30151000  0.50000000  1
  Al  Al6  1  0.90524900  0.09001000  0.67063300  1
  Al  Al7  1  0.09601900  0.90273000  0.83487600  1
  Al  Al8  1  0.90329000  0.09671000  0.00000000  1
  Al  Al9  1  0.09727000  0.90398100  0.16512400  1
  Al  Al10  1  0.90999000  0.09475100  0.32936700  1
  Fe  Fe11  1  0.10412500  0.89587500  0.50000000  1
  Si  Si12  1  0.37856200  0.19739300  0.67647400  1
  Si  Si13  1  0.80409700  0.61398000  0.66313500  1
  Si  Si14  1  0.19445700  0.38292100  0.84261600  1
  Si  Si15  1  0.61461300  0.80236300  0.82602000  1
  Si  Si16  1  0.38241300  0.19547600  0.00847400  1
  Si  Si17  1  0.80452400  0.61758700  0.99152600  1
  Si  Si18  1  0.19763700  0.38538700  0.17398000  1
  Si  Si19  1  0.61707900  0.80554300  0.15738400  1
  Si  Si20  1  0.38602000  0.19590300  0.33686500  1
  Si  Si21  1  0.80260700  0.62143800  0.32352600  1
  Si  Si22  1  0.19396500  0.37403300  0.50730900  1
  Si  Si23  1  0.62596700  0.80603500  0.49269100  1
  O  O24  1  0.67591000  0.63026800  0.58118800  1
  O  O25  1  0.62199600  0.11044500  0.65017000  1
  O  O26  1  0.18429300  0.03396800  0.70973200  1
  O  O27  1  0.95956700  0.80990200  0.63894500  1
  O  O28  1  0.89558600  0.37271200  0.68789800  1
  O  O29  1  0.35786400  0.34449200  0.74983300  1
  O  O30  1  0.62622000  0.65624800  0.75184500  1
  O  O31  1  0.10119700  0.62325500  0.82014700  1
  O  O32  1  0.03347500  0.18455000  0.87515800  1
  O  O33  1  0.81150100  0.96526100  0.79402800  1
  O  O34  1  0.37585000  0.89996100  0.84926800  1
  O  O35  1  0.34235400  0.35955200  0.91651000  1
  O  O36  1  0.65711200  0.63856200  0.91736000  1
  O  O37  1  0.62292800  0.10174000  0.98533900  1
  O  O38  1  0.18455900  0.03406900  0.04095900  1
  O  O39  1  0.96593100  0.81544100  0.95904100  1
  O  O40  1  0.89826000  0.37707200  0.01466100  1
  O  O41  1  0.36143800  0.34288800  0.08264000  1
  O  O42  1  0.64044800  0.65764600  0.08349000  1
  O  O43  1  0.10003900  0.62415000  0.15073200  1
  O  O44  1  0.03473900  0.18849900  0.20597200  1
  O  O45  1  0.81545000  0.96652500  0.12484200  1
  O  O46  1  0.37674500  0.89880300  0.17985300  1
  O  O47  1  0.34375200  0.37378000  0.24815500  1
  O  O48  1  0.65550800  0.64213600  0.25016700  1
  O  O49  1  0.62728800  0.10441400  0.31210200  1
  O  O50  1  0.19009800  0.04043300  0.36105500  1
  O  O51  1  0.96603200  0.81570700  0.29026800  1
  O  O52  1  0.88955500  0.37800400  0.34983000  1
  O  O53  1  0.36973200  0.32409000  0.41881200  1
  O  O54  1  0.64033300  0.65677500  0.41795900  1
  O  O55  1  0.09222400  0.60331900  0.47686500  1
  O  O56  1  0.01987100  0.19268900  0.54738100  1
  O  O57  1  0.80731100  0.98012900  0.45261900  1
  O  O58  1  0.39668100  0.90777600  0.52313500  1
  O  O59  1  0.34322500  0.35966700  0.58204100  1
