# generated using pymatgen
data_Na2H6PtC4N4O3
_symmetry_space_group_name_H-M   'P 1'
_cell_length_a   7.37148100
_cell_length_b   9.11242626
_cell_length_c   15.50620316
_cell_angle_alpha   89.08727862
_cell_angle_beta   87.30040393
_cell_angle_gamma   84.93871255
_symmetry_Int_Tables_number   1
_chemical_formula_structural   Na2H6PtC4N4O3
_chemical_formula_sum   'Na8 H24 Pt4 C16 N16 O12'
_cell_volume   1036.29863533
_cell_formula_units_Z   4
loop_
 _symmetry_equiv_pos_site_id
 _symmetry_equiv_pos_as_xyz
  1  'x, y, z'
loop_
 _atom_site_type_symbol
 _atom_site_label
 _atom_site_symmetry_multiplicity
 _atom_site_fract_x
 _atom_site_fract_y
 _atom_site_fract_z
 _atom_site_occupancy
  Na  Na0  1  0.45700900  0.75501100  0.75482700  1
  Na  Na1  1  0.54299100  0.24498900  0.24517300  1
  Na  Na2  1  0.76062700  0.43345400  0.80775800  1
  Na  Na3  1  0.23937300  0.56654600  0.19224200  1
  Na  Na4  1  0.69304900  0.07206200  0.68837200  1
  Na  Na5  1  0.30695100  0.92793800  0.31162800  1
  Na  Na6  1  0.00000000  0.50000000  0.00000000  1
  Na  Na7  1  0.00000000  0.00000000  0.50000000  1
  H  H8  1  0.53610900  0.63652700  0.93107500  1
  H  H9  1  0.46389100  0.36347300  0.06892500  1
  H  H10  1  0.41617500  0.52316300  0.89806200  1
  H  H11  1  0.58382500  0.47683700  0.10193800  1
  H  H12  1  0.07050700  0.59990200  0.81566500  1
  H  H13  1  0.92949300  0.40009800  0.18433500  1
  H  H14  1  0.91575800  0.70955300  0.85282800  1
  H  H15  1  0.08424200  0.29044700  0.14717200  1
  H  H16  1  0.56854100  0.65006900  0.27286700  1
  H  H17  1  0.43145900  0.34993100  0.72713300  1
  H  H18  1  0.55684400  0.73620800  0.18896000  1
  H  H19  1  0.44315600  0.26379200  0.81104000  1
  H  H20  1  0.98398800  0.76260900  0.31255600  1
  H  H21  1  0.01601200  0.23739100  0.68744400  1
  H  H22  1  0.98563300  0.84211800  0.22516000  1
  H  H23  1  0.01436700  0.15788200  0.77484000  1
  H  H24  1  0.51417700  0.86414300  0.57713000  1
  H  H25  1  0.48582300  0.13585700  0.42287000  1
  H  H26  1  0.37392500  0.98514200  0.61419300  1
  H  H27  1  0.62607500  0.01485800  0.38580700  1
  H  H28  1  0.90635300  0.79390500  0.64948900  1
  H  H29  1  0.09364700  0.20609500  0.35051100  1
  H  H30  1  0.03591700  0.89638600  0.68820000  1
  H  H31  1  0.96408300  0.10361400  0.31180000  1
  Pt  Pt32  1  0.24628400  0.01221400  0.98717400  1
  Pt  Pt33  1  0.75371600  0.98778600  0.01282600  1
  Pt  Pt34  1  0.24790000  0.48707100  0.51685000  1
  Pt  Pt35  1  0.75210000  0.51292900  0.48315000  1
  C  C36  1  0.27293400  0.22069300  0.95279500  1
  C  C37  1  0.72706600  0.77930700  0.04720500  1
  C  C38  1  0.21860800  0.80558100  0.02462300  1
  C  C39  1  0.78139200  0.19441900  0.97537700  1
  C  C40  1  0.19844300  0.96383100  0.86589900  1
  C  C41  1  0.80155700  0.03616900  0.13410100  1
  C  C42  1  0.29649500  0.05887300  0.10796300  1
  C  C43  1  0.70350500  0.94112700  0.89203700  1
  C  C44  1  0.23576100  0.54254500  0.64041300  1
  C  C45  1  0.76423900  0.45745500  0.35958700  1
  C  C46  1  0.26730400  0.43188400  0.39351300  1
  C  C47  1  0.73269600  0.56811600  0.60648700  1
  C  C48  1  0.23063300  0.27795800  0.55184600  1
  C  C49  1  0.76936700  0.72204200  0.44815400  1
  C  C50  1  0.26081200  0.69575800  0.48036900  1
  C  C51  1  0.73918800  0.30424200  0.51963100  1
  N  N52  1  0.28885300  0.34466000  0.93410000  1
  N  N53  1  0.71114700  0.65534000  0.06590000  1
  N  N54  1  0.20009200  0.68512400  0.04907700  1
  N  N55  1  0.79990800  0.31487600  0.95092300  1
  N  N56  1  0.17160300  0.93575800  0.79407900  1
  N  N57  1  0.82839700  0.06424200  0.20592100  1
  N  N58  1  0.32800500  0.08636600  0.17918400  1
  N  N59  1  0.67199500  0.91363400  0.82081600  1
  N  N60  1  0.23295200  0.57264200  0.71392800  1
  N  N61  1  0.76704800  0.42735800  0.28607200  1
  N  N62  1  0.28417200  0.39919600  0.32043700  1
  N  N63  1  0.71582800  0.60080400  0.67956300  1
  N  N64  1  0.21736600  0.15486000  0.57318200  1
  N  N65  1  0.78263400  0.84514000  0.42681800  1
  N  N66  1  0.26414500  0.81839000  0.45642200  1
  N  N67  1  0.73585500  0.18161000  0.54357800  1
  O  O68  1  0.50513800  0.59205800  0.87756400  1
  O  O69  1  0.49486200  0.40794200  0.12243600  1
  O  O70  1  0.96647200  0.60744100  0.85843000  1
  O  O71  1  0.03352800  0.39255900  0.14157000  1
  O  O72  1  0.48571800  0.72015600  0.24274500  1
  O  O73  1  0.51428200  0.27984400  0.75725500  1
  O  O74  1  0.06094900  0.77257100  0.26045600  1
  O  O75  1  0.93905100  0.22742900  0.73954400  1
  O  O76  1  0.47677800  0.91460500  0.63061700  1
  O  O77  1  0.52322200  0.08539500  0.36938300  1
  O  O78  1  0.94791700  0.89234800  0.64245700  1
  O  O79  1  0.05208300  0.10765200  0.35754300  1
