# generated using pymatgen
data_CsAlH24(SO10)2
_symmetry_space_group_name_H-M   'P 1'
_cell_length_a   13.87885595
_cell_length_b   13.87885595
_cell_length_c   13.87885595
_cell_angle_alpha   90.00000000
_cell_angle_beta   90.00000000
_cell_angle_gamma   90.00000000
_symmetry_Int_Tables_number   1
_chemical_formula_structural   CsAlH24(SO10)2
_chemical_formula_sum   'Cs4 Al4 H96 S8 O80'
_cell_volume   2673.38190770
_cell_formula_units_Z   4
loop_
 _symmetry_equiv_pos_site_id
 _symmetry_equiv_pos_as_xyz
  1  'x, y, z'
loop_
 _atom_site_type_symbol
 _atom_site_label
 _atom_site_symmetry_multiplicity
 _atom_site_fract_x
 _atom_site_fract_y
 _atom_site_fract_z
 _atom_site_occupancy
  Cs  Cs0  1  0.00000000  0.00000000  0.50000000  1
  Cs  Cs1  1  0.00000000  0.50000000  0.00000000  1
  Cs  Cs2  1  0.50000000  0.00000000  0.00000000  1
  Cs  Cs3  1  0.50000000  0.50000000  0.50000000  1
  Al  Al4  1  0.50000000  0.50000000  0.00000000  1
  Al  Al5  1  0.50000000  0.00000000  0.50000000  1
  Al  Al6  1  0.00000000  0.50000000  0.50000000  1
  Al  Al7  1  0.00000000  0.00000000  0.00000000  1
  H  H8  1  0.33202696  0.11795531  0.23552485  1
  H  H9  1  0.66797304  0.61795531  0.26447515  1
  H  H10  1  0.16797304  0.88204469  0.73552485  1
  H  H11  1  0.83202696  0.38204469  0.76447515  1
  H  H12  1  0.23552485  0.33202696  0.11795531  1
  H  H13  1  0.26447515  0.66797304  0.61795531  1
  H  H14  1  0.73552485  0.16797304  0.88204469  1
  H  H15  1  0.76447515  0.83202696  0.38204469  1
  H  H16  1  0.11795531  0.23552485  0.33202696  1
  H  H17  1  0.61795531  0.26447515  0.66797304  1
  H  H18  1  0.88204469  0.73552485  0.16797304  1
  H  H19  1  0.38204469  0.76447515  0.83202696  1
  H  H20  1  0.66797304  0.88204469  0.76447515  1
  H  H21  1  0.33202696  0.38204469  0.73552485  1
  H  H22  1  0.83202696  0.11795531  0.26447515  1
  H  H23  1  0.16797304  0.61795531  0.23552485  1
  H  H24  1  0.76447515  0.66797304  0.88204469  1
  H  H25  1  0.73552485  0.33202696  0.38204469  1
  H  H26  1  0.26447515  0.83202696  0.11795531  1
  H  H27  1  0.23552485  0.16797304  0.61795531  1
  H  H28  1  0.88204469  0.76447515  0.66797304  1
  H  H29  1  0.38204469  0.73552485  0.33202696  1
  H  H30  1  0.11795531  0.26447515  0.83202696  1
  H  H31  1  0.61795531  0.23552485  0.16797304  1
  H  H32  1  0.50916232  0.24147888  0.19448718  1
  H  H33  1  0.49083768  0.74147888  0.30551282  1
  H  H34  1  0.99083768  0.75852112  0.69448718  1
  H  H35  1  0.00916232  0.25852112  0.80551282  1
  H  H36  1  0.19448718  0.50916232  0.24147888  1
  H  H37  1  0.30551282  0.49083768  0.74147888  1
  H  H38  1  0.69448718  0.99083768  0.75852112  1
  H  H39  1  0.80551282  0.00916232  0.25852112  1
  H  H40  1  0.24147888  0.19448718  0.50916232  1
  H  H41  1  0.74147888  0.30551282  0.49083768  1
  H  H42  1  0.75852112  0.69448718  0.99083768  1
  H  H43  1  0.25852112  0.80551282  0.00916232  1
  H  H44  1  0.49083768  0.75852112  0.80551282  1
  H  H45  1  0.50916232  0.25852112  0.69448718  1
  H  H46  1  0.00916232  0.24147888  0.30551282  1
  H  H47  1  0.99083768  0.74147888  0.19448718  1
  H  H48  1  0.80551282  0.49083768  0.75852112  1
  H  H49  1  0.69448718  0.50916232  0.25852112  1
  H  H50  1  0.30551282  0.00916232  0.24147888  1
  H  H51  1  0.19448718  0.99083768  0.74147888  1
  H  H52  1  0.75852112  0.80551282  0.49083768  1
  H  H53  1  0.25852112  0.69448718  0.50916232  1
  H  H54  1  0.24147888  0.30551282  0.00916232  1
  H  H55  1  0.74147888  0.19448718  0.99083768  1
  H  H56  1  0.15911328  0.18536767  0.06668398  1
  H  H57  1  0.84088672  0.68536767  0.43331602  1
  H  H58  1  0.34088672  0.81463233  0.56668398  1
  H  H59  1  0.65911328  0.31463233  0.93331602  1
  H  H60  1  0.06668398  0.15911328  0.18536767  1
  H  H61  1  0.43331602  0.84088672  0.68536767  1
  H  H62  1  0.56668398  0.34088672  0.81463233  1
  H  H63  1  0.93331602  0.65911328  0.31463233  1
  H  H64  1  0.18536767  0.06668398  0.15911328  1
  H  H65  1  0.68536767  0.43331602  0.84088672  1
  H  H66  1  0.81463233  0.56668398  0.34088672  1
  H  H67  1  0.31463233  0.93331602  0.65911328  1
  H  H68  1  0.84088672  0.81463233  0.93331602  1
  H  H69  1  0.15911328  0.31463233  0.56668398  1
  H  H70  1  0.65911328  0.18536767  0.43331602  1
  H  H71  1  0.34088672  0.68536767  0.06668398  1
  H  H72  1  0.93331602  0.84088672  0.81463233  1
  H  H73  1  0.56668398  0.15911328  0.31463233  1
  H  H74  1  0.43331602  0.65911328  0.18536767  1
  H  H75  1  0.06668398  0.34088672  0.68536767  1
  H  H76  1  0.81463233  0.93331602  0.84088672  1
  H  H77  1  0.31463233  0.56668398  0.15911328  1
  H  H78  1  0.18536767  0.43331602  0.65911328  1
  H  H79  1  0.68536767  0.06668398  0.34088672  1
  H  H80  1  0.15278977  0.03756594  0.19068350  1
  H  H81  1  0.84721023  0.53756594  0.30931650  1
  H  H82  1  0.34721023  0.96243406  0.69068350  1
  H  H83  1  0.65278977  0.46243406  0.80931650  1
  H  H84  1  0.19068350  0.15278977  0.03756594  1
  H  H85  1  0.30931650  0.84721023  0.53756594  1
  H  H86  1  0.69068350  0.34721023  0.96243406  1
  H  H87  1  0.80931650  0.65278977  0.46243406  1
  H  H88  1  0.03756594  0.19068350  0.15278977  1
  H  H89  1  0.53756594  0.30931650  0.84721023  1
  H  H90  1  0.96243406  0.69068350  0.34721023  1
  H  H91  1  0.46243406  0.80931650  0.65278977  1
  H  H92  1  0.84721023  0.96243406  0.80931650  1
  H  H93  1  0.15278977  0.46243406  0.69068350  1
  H  H94  1  0.65278977  0.03756594  0.30931650  1
  H  H95  1  0.34721023  0.53756594  0.19068350  1
  H  H96  1  0.80931650  0.84721023  0.96243406  1
  H  H97  1  0.69068350  0.15278977  0.46243406  1
  H  H98  1  0.30931650  0.65278977  0.03756594  1
  H  H99  1  0.19068350  0.34721023  0.53756594  1
  H  H100  1  0.96243406  0.80931650  0.84721023  1
  H  H101  1  0.46243406  0.69068350  0.15278977  1
  H  H102  1  0.03756594  0.30931650  0.65278977  1
  H  H103  1  0.53756594  0.19068350  0.34721023  1
  S  S104  1  0.17669790  0.82330210  0.32330210  1
  S  S105  1  0.82330210  0.32330210  0.17669790  1
  S  S106  1  0.32330210  0.17669790  0.82330210  1
  S  S107  1  0.67669790  0.67669790  0.67669790  1
  S  S108  1  0.82330210  0.17669790  0.67669790  1
  S  S109  1  0.17669790  0.67669790  0.82330210  1
  S  S110  1  0.67669790  0.82330210  0.17669790  1
  S  S111  1  0.32330210  0.32330210  0.32330210  1
  O  O112  1  0.23799411  0.76200589  0.26200589  1
  O  O113  1  0.76200589  0.26200589  0.23799411  1
  O  O114  1  0.26200589  0.23799411  0.76200589  1
  O  O115  1  0.73799411  0.73799411  0.73799411  1
  O  O116  1  0.76200589  0.23799411  0.73799411  1
  O  O117  1  0.23799411  0.73799411  0.76200589  1
  O  O118  1  0.73799411  0.76200589  0.23799411  1
  O  O119  1  0.26200589  0.26200589  0.26200589  1
  O  O120  1  0.07261338  0.80378777  0.30709943  1
  O  O121  1  0.92738662  0.30378777  0.19290057  1
  O  O122  1  0.42738662  0.19621223  0.80709943  1
  O  O123  1  0.57261338  0.69621223  0.69290057  1
  O  O124  1  0.30709943  0.07261338  0.80378777  1
  O  O125  1  0.19290057  0.92738662  0.30378777  1
  O  O126  1  0.80709943  0.42738662  0.19621223  1
  O  O127  1  0.69290057  0.57261338  0.69621223  1
  O  O128  1  0.80378777  0.30709943  0.07261338  1
  O  O129  1  0.30378777  0.19290057  0.92738662  1
  O  O130  1  0.19621223  0.80709943  0.42738662  1
  O  O131  1  0.69621223  0.69290057  0.57261338  1
  O  O132  1  0.92738662  0.19621223  0.69290057  1
  O  O133  1  0.07261338  0.69621223  0.80709943  1
  O  O134  1  0.57261338  0.80378777  0.19290057  1
  O  O135  1  0.42738662  0.30378777  0.30709943  1
  O  O136  1  0.69290057  0.92738662  0.19621223  1
  O  O137  1  0.80709943  0.07261338  0.69621223  1
  O  O138  1  0.19290057  0.57261338  0.80378777  1
  O  O139  1  0.30709943  0.42738662  0.30378777  1
  O  O140  1  0.19621223  0.69290057  0.92738662  1
  O  O141  1  0.69621223  0.80709943  0.07261338  1
  O  O142  1  0.80378777  0.19290057  0.57261338  1
  O  O143  1  0.30378777  0.30709943  0.42738662  1
  O  O144  1  0.21887899  0.35579243  0.05351964  1
  O  O145  1  0.78112101  0.85579243  0.44648036  1
  O  O146  1  0.28112101  0.64420757  0.55351964  1
  O  O147  1  0.71887899  0.14420757  0.94648036  1
  O  O148  1  0.05351964  0.21887899  0.35579243  1
  O  O149  1  0.44648036  0.78112101  0.85579243  1
  O  O150  1  0.55351964  0.28112101  0.64420757  1
  O  O151  1  0.94648036  0.71887899  0.14420757  1
  O  O152  1  0.35579243  0.05351964  0.21887899  1
  O  O153  1  0.85579243  0.44648036  0.78112101  1
  O  O154  1  0.64420757  0.55351964  0.28112101  1
  O  O155  1  0.14420757  0.94648036  0.71887899  1
  O  O156  1  0.78112101  0.64420757  0.94648036  1
  O  O157  1  0.21887899  0.14420757  0.55351964  1
  O  O158  1  0.71887899  0.35579243  0.44648036  1
  O  O159  1  0.28112101  0.85579243  0.05351964  1
  O  O160  1  0.94648036  0.78112101  0.64420757  1
  O  O161  1  0.55351964  0.21887899  0.14420757  1
  O  O162  1  0.44648036  0.71887899  0.35579243  1
  O  O163  1  0.05351964  0.28112101  0.85579243  1
  O  O164  1  0.64420757  0.94648036  0.78112101  1
  O  O165  1  0.14420757  0.55351964  0.21887899  1
  O  O166  1  0.35579243  0.44648036  0.71887899  1
  O  O167  1  0.85579243  0.05351964  0.28112101  1
  O  O168  1  0.50264397  0.63393503  0.99105380  1
  O  O169  1  0.49735603  0.13393503  0.50894620  1
  O  O170  1  -0.00264397  0.36606497  0.49105380  1
  O  O171  1  0.00264397  0.86606497  0.00894620  1
  O  O172  1  0.99105380  0.50264397  0.63393503  1
  O  O173  1  0.50894620  0.49735603  0.13393503  1
  O  O174  1  0.49105380  -0.00264397  0.36606497  1
  O  O175  1  0.00894620  0.00264397  0.86606497  1
  O  O176  1  0.63393503  0.99105380  0.50264397  1
  O  O177  1  0.13393503  0.50894620  0.49735603  1
  O  O178  1  0.36606497  0.49105380  -0.00264397  1
  O  O179  1  0.86606497  0.00894620  0.00264397  1
  O  O180  1  0.49735603  0.36606497  0.00894620  1
  O  O181  1  0.50264397  0.86606497  0.49105380  1
  O  O182  1  0.00264397  0.63393503  0.50894620  1
  O  O183  1  -0.00264397  0.13393503  0.99105380  1
  O  O184  1  0.00894620  0.49735603  0.36606497  1
  O  O185  1  0.49105380  0.50264397  0.86606497  1
  O  O186  1  0.50894620  0.00264397  0.63393503  1
  O  O187  1  0.99105380  -0.00264397  0.13393503  1
  O  O188  1  0.36606497  0.00894620  0.49735603  1
  O  O189  1  0.86606497  0.49105380  0.50264397  1
  O  O190  1  0.63393503  0.50894620  0.00264397  1
  O  O191  1  0.13393503  0.99105380  -0.00264397  1
