# generated using pymatgen
data_Co3(P2O7)2
_symmetry_space_group_name_H-M   'P 1'
_cell_length_a   7.02048601
_cell_length_b   9.34056324
_cell_length_c   9.38052851
_cell_angle_alpha   75.15043000
_cell_angle_beta   94.74852011
_cell_angle_gamma   75.03705485
_symmetry_Int_Tables_number   1
_chemical_formula_structural   Co3(P2O7)2
_chemical_formula_sum   'Co6 P8 O28'
_cell_volume   567.07153986
_cell_formula_units_Z   2
loop_
 _symmetry_equiv_pos_site_id
 _symmetry_equiv_pos_as_xyz
  1  'x, y, z'
loop_
 _atom_site_type_symbol
 _atom_site_label
 _atom_site_symmetry_multiplicity
 _atom_site_fract_x
 _atom_site_fract_y
 _atom_site_fract_z
 _atom_site_occupancy
  Co  Co0  1  0.99999300  0.00000800  0.99999700  1
  Co  Co1  1  0.47447400  0.34302300  0.98128600  1
  Co  Co2  1  0.52553200  0.65697800  0.01871500  1
  Co  Co3  1  0.00000400  0.49999600  0.50000300  1
  Co  Co4  1  0.47426100  0.84312600  0.48155600  1
  Co  Co5  1  0.52573700  0.15687100  0.51844300  1
  P  P6  1  0.68821800  0.88526700  0.80199400  1
  P  P7  1  0.68783100  0.38529100  0.30201900  1
  P  P8  1  0.31217200  0.61470800  0.69798300  1
  P  P9  1  0.31177900  0.11473300  0.19800600  1
  P  P10  1  0.69320200  0.36146400  0.71323400  1
  P  P11  1  0.69284000  0.86158900  0.21336100  1
  P  P12  1  0.30715700  0.13841700  0.78663900  1
  P  P13  1  0.30680000  0.63853400  0.28676500  1
  O  O14  1  0.85657700  0.43126900  0.66640000  1
  O  O15  1  0.85589600  0.93160300  0.16664600  1
  O  O16  1  0.14409600  0.06840700  0.83335200  1
  O  O17  1  0.14342700  0.56872600  0.33360300  1
  O  O18  1  0.70276500  0.31039500  0.88693700  1
  O  O19  1  0.70246400  0.81037300  0.38702500  1
  O  O20  1  0.29753200  0.18963100  0.61297400  1
  O  O21  1  0.29723700  0.68959600  0.11306300  1
  O  O22  1  0.48363800  0.49727800  0.64589900  1
  O  O23  1  0.48262500  0.99678000  0.14594500  1
  O  O24  1  0.51736900  0.00322000  0.85405300  1
  O  O25  1  0.51636500  0.50272200  0.35410200  1
  O  O26  1  0.63837600  0.93426000  0.62685200  1
  O  O27  1  0.63820300  0.43430300  0.12685500  1
  O  O28  1  0.36180500  0.56569800  0.87314600  1
  O  O29  1  0.36162100  0.06573800  0.37314800  1
  O  O30  1  0.65425300  0.72431700  0.86106500  1
  O  O31  1  0.65458400  0.22406000  0.36089800  1
  O  O32  1  0.34541200  0.77594000  0.63910000  1
  O  O33  1  0.34575300  0.27568000  0.13893600  1
  O  O34  1  0.67902900  0.72699600  0.15350500  1
  O  O35  1  0.67895800  0.22703800  0.65342200  1
  O  O36  1  0.32104300  0.77296400  0.34657300  1
  O  O37  1  0.32097300  0.27300600  0.84649500  1
  O  O38  1  0.11426900  0.60612200  0.63472700  1
  O  O39  1  0.11316700  0.10686400  0.13498700  1
  O  O40  1  0.88682900  0.89314100  0.86501400  1
  O  O41  1  0.88573300  0.39387200  0.36527900  1
