# generated using pymatgen
data_K2P3H5O11
_symmetry_space_group_name_H-M   'P 1'
_cell_length_a   16.25093801
_cell_length_b   16.25093801
_cell_length_c   9.37350331
_cell_angle_alpha   80.13306229
_cell_angle_beta   80.13306229
_cell_angle_gamma   26.65366464
_symmetry_Int_Tables_number   1
_chemical_formula_structural   K2P3H5O11
_chemical_formula_sum   'K8 P12 H20 O44'
_cell_volume   1093.13478821
_cell_formula_units_Z   4
loop_
 _symmetry_equiv_pos_site_id
 _symmetry_equiv_pos_as_xyz
  1  'x, y, z'
loop_
 _atom_site_type_symbol
 _atom_site_label
 _atom_site_symmetry_multiplicity
 _atom_site_fract_x
 _atom_site_fract_y
 _atom_site_fract_z
 _atom_site_occupancy
  K  K0  1  0.85381100  0.78964500  0.87852200  1
  K  K1  1  0.21035500  0.14618900  0.62147800  1
  K  K2  1  0.14618900  0.21035500  0.12147800  1
  K  K3  1  0.78964500  0.85381100  0.37852200  1
  K  K4  1  0.49936200  0.50063800  0.25000000  1
  K  K5  1  0.50063800  0.49936200  0.75000000  1
  K  K6  1  0.00000000  0.00000000  0.00000000  1
  K  K7  1  0.00000000  0.00000000  0.50000000  1
  P  P8  1  0.67999900  0.77205500  0.20305900  1
  P  P9  1  0.22794500  0.32000100  0.29694100  1
  P  P10  1  0.32000100  0.22794500  0.79694100  1
  P  P11  1  0.77205500  0.67999900  0.70305900  1
  P  P12  1  0.21884600  0.59182300  0.05668500  1
  P  P13  1  0.40817700  0.78115400  0.44331500  1
  P  P14  1  0.78115400  0.40817700  0.94331500  1
  P  P15  1  0.59182300  0.21884600  0.55668500  1
  P  P16  1  0.62229600  0.20447900  0.05242900  1
  P  P17  1  0.79552100  0.37770400  0.44757100  1
  P  P18  1  0.37770400  0.79552100  0.94757100  1
  P  P19  1  0.20447900  0.62229600  0.55242900  1
  H  H20  1  0.47463200  0.07440900  0.14572400  1
  H  H21  1  0.92559100  0.52536800  0.35427600  1
  H  H22  1  0.52536800  0.92559100  0.85427600  1
  H  H23  1  0.07440900  0.47463200  0.64572400  1
  H  H24  1  0.22625100  0.34255700  0.00020800  1
  H  H25  1  0.65744300  0.77374900  0.49979200  1
  H  H26  1  0.77374900  0.65744300  0.99979200  1
  H  H27  1  0.34255700  0.22625100  0.50020800  1
  H  H28  1  0.42684900  0.89890200  0.33072400  1
  H  H29  1  0.10109800  0.57315100  0.16927600  1
  H  H30  1  0.57315100  0.10109800  0.66927600  1
  H  H31  1  0.89890200  0.42684900  0.83072400  1
  H  H32  1  0.13360600  0.68381900  0.32691800  1
  H  H33  1  0.31618100  0.86639400  0.17308200  1
  H  H34  1  0.86639400  0.31618100  0.67308200  1
  H  H35  1  0.68381900  0.13360600  0.82691800  1
  H  H36  1  0.86319100  0.31773100  0.21317700  1
  H  H37  1  0.68226900  0.13680900  0.28682300  1
  H  H38  1  0.13680900  0.68226900  0.78682300  1
  H  H39  1  0.31773100  0.86319100  0.71317700  1
  O  O40  1  0.49677600  0.88959600  0.21870200  1
  O  O41  1  0.11040400  0.50322400  0.28129800  1
  O  O42  1  0.50322400  0.11040400  0.78129800  1
  O  O43  1  0.88959600  0.49677600  0.71870200  1
  O  O44  1  0.65640100  0.88686100  0.14647600  1
  O  O45  1  0.11313900  0.34359900  0.35352400  1
  O  O46  1  0.34359900  0.11313900  0.85352400  1
  O  O47  1  0.88686100  0.65640100  0.64647600  1
  O  O48  1  0.33082200  0.22260600  0.14735100  1
  O  O49  1  0.77739400  0.66917800  0.35264900  1
  O  O50  1  0.66917800  0.77739400  0.85264900  1
  O  O51  1  0.22260600  0.33082200  0.64735100  1
  O  O52  1  0.82270600  0.60540800  0.10068600  1
  O  O53  1  0.39459200  0.17729400  0.39931400  1
  O  O54  1  0.17729400  0.39459200  0.89931400  1
  O  O55  1  0.60540800  0.82270600  0.60068600  1
  O  O56  1  0.07534100  0.64752900  0.07966700  1
  O  O57  1  0.35247100  0.92465900  0.42033300  1
  O  O58  1  0.92465900  0.35247100  0.92033300  1
  O  O59  1  0.64752900  0.07534100  0.57966700  1
  O  O60  1  0.21623300  0.64424300  0.18013800  1
  O  O61  1  0.35575700  0.78376700  0.31986200  1
  O  O62  1  0.78376700  0.35575700  0.81986200  1
  O  O63  1  0.64424300  0.21623300  0.68013800  1
  O  O64  1  0.20147400  0.66092500  0.90738000  1
  O  O65  1  0.33907500  0.79852600  0.59262000  1
  O  O66  1  0.79852600  0.33907500  0.09262000  1
  O  O67  1  0.66092500  0.20147400  0.40738000  1
  O  O68  1  0.41007400  0.36725200  0.05890600  1
  O  O69  1  0.63274800  0.58992600  0.44109400  1
  O  O70  1  0.58992600  0.63274800  0.94109400  1
  O  O71  1  0.36725200  0.41007400  0.55890600  1
  O  O72  1  0.64670400  0.27588000  0.02561800  1
  O  O73  1  0.72412000  0.35329600  0.47438200  1
  O  O74  1  0.35329600  0.72412000  0.97438200  1
  O  O75  1  0.27588000  0.64670400  0.52561800  1
  O  O76  1  0.71508200  0.07706500  0.93250100  1
  O  O77  1  0.92293500  0.28491800  0.56749900  1
  O  O78  1  0.28491800  0.92293500  0.06749900  1
  O  O79  1  0.07706500  0.71508200  0.43250100  1
  O  O80  1  0.70393900  0.08610400  0.19678600  1
  O  O81  1  0.91389600  0.29606100  0.30321400  1
  O  O82  1  0.29606100  0.91389600  0.80321400  1
  O  O83  1  0.08610400  0.70393900  0.69678600  1
