# generated using pymatgen
data_Yb6Cl13
_symmetry_space_group_name_H-M   'P 1'
_cell_length_a   6.59277700
_cell_length_b   6.87991029
_cell_length_c   20.91472152
_cell_angle_alpha   97.82065760
_cell_angle_beta   98.80617868
_cell_angle_gamma   89.96489755
_symmetry_Int_Tables_number   1
_chemical_formula_structural   Yb6Cl13
_chemical_formula_sum   'Yb12 Cl26'
_cell_volume   928.54367647
_cell_formula_units_Z   2
loop_
 _symmetry_equiv_pos_site_id
 _symmetry_equiv_pos_as_xyz
  1  'x, y, z'
loop_
 _atom_site_type_symbol
 _atom_site_label
 _atom_site_symmetry_multiplicity
 _atom_site_fract_x
 _atom_site_fract_y
 _atom_site_fract_z
 _atom_site_occupancy
  Yb  Yb0  1  0.65941600  0.34779600  0.25857500  1
  Yb  Yb1  1  0.34058400  0.65220400  0.74142500  1
  Yb  Yb2  1  0.81825800  0.49309200  0.58111400  1
  Yb  Yb3  1  0.18174200  0.50690800  0.41888600  1
  Yb  Yb4  1  0.89636600  0.15246200  0.74374700  1
  Yb  Yb5  1  0.10363400  0.84753800  0.25625300  1
  Yb  Yb6  1  0.98016000  0.62432500  0.90685700  1
  Yb  Yb7  1  0.01984000  0.37567500  0.09314300  1
  Yb  Yb8  1  0.57550000  0.87887600  0.09350800  1
  Yb  Yb9  1  0.42450000  0.12112400  0.90649200  1
  Yb  Yb10  1  0.73872300  0.00980300  0.41989400  1
  Yb  Yb11  1  0.26127700  0.99019700  0.58010600  1
  Cl  Cl12  1  0.73920500  0.11414600  0.01267300  1
  Cl  Cl13  1  0.26079500  0.88585400  0.98732700  1
  Cl  Cl14  1  0.38799100  0.21577200  0.14263700  1
  Cl  Cl15  1  0.61200900  0.78422800  0.85736300  1
  Cl  Cl16  1  0.89271200  0.10299000  0.17569000  1
  Cl  Cl17  1  0.10728800  0.89701000  0.82431000  1
  Cl  Cl18  1  0.48941300  0.01713100  0.29180400  1
  Cl  Cl19  1  0.51058700  0.98286900  0.70819600  1
  Cl  Cl20  1  0.98129900  0.17740200  0.33893700  1
  Cl  Cl21  1  0.01870100  0.82259800  0.66106300  1
  Cl  Cl22  1  0.57427700  0.37460200  0.43019000  1
  Cl  Cl23  1  0.42572300  0.62539800  0.56981000  1
  Cl  Cl24  1  0.05822500  0.25104500  0.49989800  1
  Cl  Cl25  1  0.94177500  0.74895500  0.50010200  1
  Cl  Cl26  1  0.63533400  0.13045800  0.56447800  1
  Cl  Cl27  1  0.36466600  0.86954200  0.43552200  1
  Cl  Cl28  1  0.13343300  0.31955800  0.66072000  1
  Cl  Cl29  1  0.86656700  0.68044200  0.33928000  1
  Cl  Cl30  1  0.69336400  0.48101700  0.70906400  1
  Cl  Cl31  1  0.30663600  0.51898300  0.29093600  1
  Cl  Cl32  1  0.21371800  0.39791400  0.82377900  1
  Cl  Cl33  1  0.78628200  0.60208600  0.17622100  1
  Cl  Cl34  1  0.74358900  0.28650800  0.85930100  1
  Cl  Cl35  1  0.25641100  0.71349200  0.14069900  1
  Cl  Cl36  1  0.22527200  0.38463600  0.98647400  1
  Cl  Cl37  1  0.77472800  0.61536400  0.01352600  1
