# generated using pymatgen
data_TaBe2Os
_symmetry_space_group_name_H-M   'P 1'
_cell_length_a   10.14986275
_cell_length_b   10.14986275
_cell_length_c   10.14986275
_cell_angle_alpha   125.93061880
_cell_angle_beta   117.63180757
_cell_angle_gamma   87.09999111
_symmetry_Int_Tables_number   1
_chemical_formula_structural   TaBe2Os
_chemical_formula_sum   'Ta1 Be2 Os1'
_cell_volume   713.44173921
_cell_formula_units_Z   1
loop_
 _symmetry_equiv_pos_site_id
 _symmetry_equiv_pos_as_xyz
  1  'x, y, z'
loop_
 _atom_site_type_symbol
 _atom_site_label
 _atom_site_symmetry_multiplicity
 _atom_site_fract_x
 _atom_site_fract_y
 _atom_site_fract_z
 _atom_site_occupancy
  Ta  Ta0  1  0.00000000  0.00000000  0.00000000  1
  Be  Be1  1  0.00000000  0.26882500  0.26882500  1
  Be  Be2  1  0.00000000  0.73117500  0.73117500  1
  Os  Os3  1  0.00000000  0.50000000  0.50000000  1
