# generated using pymatgen
data_CsTl2Bi
_symmetry_space_group_name_H-M   'P 1'
_cell_length_a   14.25740746
_cell_length_b   14.25740746
_cell_length_c   14.25740746
_cell_angle_alpha   122.08245302
_cell_angle_beta   118.72062163
_cell_angle_gamma   89.33086828
_symmetry_Int_Tables_number   1
_chemical_formula_structural   CsTl2Bi
_chemical_formula_sum   'Cs1 Tl2 Bi1'
_cell_volume   2034.49346625
_cell_formula_units_Z   1
loop_
 _symmetry_equiv_pos_site_id
 _symmetry_equiv_pos_as_xyz
  1  'x, y, z'
loop_
 _atom_site_type_symbol
 _atom_site_label
 _atom_site_symmetry_multiplicity
 _atom_site_fract_x
 _atom_site_fract_y
 _atom_site_fract_z
 _atom_site_occupancy
  Cs  Cs0  1  0.00000000  0.00000000  0.00000000  1
  Tl  Tl1  1  0.00000000  0.29554600  0.29554600  1
  Tl  Tl2  1  0.00000000  0.70445400  0.70445400  1
  Bi  Bi3  1  0.00000000  0.50000000  0.50000000  1
