# generated using pymatgen
data_CuAgO2
_symmetry_space_group_name_H-M   'P 1'
_cell_length_a   3.57763875
_cell_length_b   3.57763875
_cell_length_c   6.02654365
_cell_angle_alpha   68.79279138
_cell_angle_beta   68.79279138
_cell_angle_gamma   46.61217424
_symmetry_Int_Tables_number   1
_chemical_formula_structural   CuAgO2
_chemical_formula_sum   'Cu1 Ag1 O2'
_cell_volume   51.52530957
_cell_formula_units_Z   1
loop_
 _symmetry_equiv_pos_site_id
 _symmetry_equiv_pos_as_xyz
  1  'x, y, z'
loop_
 _atom_site_type_symbol
 _atom_site_label
 _atom_site_symmetry_multiplicity
 _atom_site_fract_x
 _atom_site_fract_y
 _atom_site_fract_z
 _atom_site_occupancy
  Cu  Cu0  1  0.50000000  0.50000000  0.50000000  1
  Ag  Ag1  1  0.00000000  0.00000000  0.00000000  1
  O  O2  1  0.12455100  0.12455100  0.28377200  1
  O  O3  1  0.87544900  0.87544900  0.71622800  1
