# generated using pymatgen
data_PH11C(NO2)2
_symmetry_space_group_name_H-M   'P 1'
_cell_length_a   8.23006000
_cell_length_b   8.09323500
_cell_length_c   10.36836382
_cell_angle_alpha   87.75053673
_cell_angle_beta   90.00000000
_cell_angle_gamma   90.00000000
_symmetry_Int_Tables_number   1
_chemical_formula_structural   PH11C(NO2)2
_chemical_formula_sum   'P4 H44 C4 N8 O16'
_cell_volume   690.08181923
_cell_formula_units_Z   4
loop_
 _symmetry_equiv_pos_site_id
 _symmetry_equiv_pos_as_xyz
  1  'x, y, z'
loop_
 _atom_site_type_symbol
 _atom_site_label
 _atom_site_symmetry_multiplicity
 _atom_site_fract_x
 _atom_site_fract_y
 _atom_site_fract_z
 _atom_site_occupancy
  P  P0  1  0.57218800  0.10105500  0.25737000  1
  P  P1  1  0.07218800  0.39894500  0.74263000  1
  P  P2  1  0.42781200  0.89894500  0.74263000  1
  P  P3  1  0.92781200  0.60105500  0.25737000  1
  H  H4  1  0.67135700  0.84214500  0.30780200  1
  H  H5  1  0.17135700  0.65785500  0.69219800  1
  H  H6  1  0.32864300  0.15785500  0.69219800  1
  H  H7  1  0.82864300  0.34214500  0.30780200  1
  H  H8  1  0.79610700  0.46698700  0.02603800  1
  H  H9  1  0.29610700  0.03301300  0.97396200  1
  H  H10  1  0.20389300  0.53301300  0.97396200  1
  H  H11  1  0.70389300  0.96698700  0.02603800  1
  H  H12  1  0.18639000  0.22669000  0.97624300  1
  H  H13  1  0.68639000  0.27331000  0.02375700  1
  H  H14  1  0.81361000  0.77331000  0.02375700  1
  H  H15  1  0.31361000  0.72669000  0.97624300  1
  H  H16  1  0.29895800  0.14785500  0.11905500  1
  H  H17  1  0.79895800  0.35214500  0.88094500  1
  H  H18  1  0.70104200  0.85214500  0.88094500  1
  H  H19  1  0.20104200  0.64785500  0.11905500  1
  H  H20  1  0.24977900  0.88322000  0.50848900  1
  H  H21  1  0.74977900  0.61678000  0.49151100  1
  H  H22  1  0.75022100  0.11678000  0.49151100  1
  H  H23  1  0.25022100  0.38322000  0.50848900  1
  H  H24  1  0.22058500  0.49275700  0.36526500  1
  H  H25  1  0.72058500  0.00724300  0.63473500  1
  H  H26  1  0.77941500  0.50724300  0.63473500  1
  H  H27  1  0.27941500  0.99275700  0.36526500  1
  H  H28  1  0.15891300  0.82062700  0.36836300  1
  H  H29  1  0.65891300  0.67937300  0.63163700  1
  H  H30  1  0.84108700  0.17937300  0.63163700  1
  H  H31  1  0.34108700  0.32062700  0.36836300  1
  H  H32  1  0.52477800  0.53958400  0.13537100  1
  H  H33  1  0.02477800  0.96041600  0.86462900  1
  H  H34  1  0.47522200  0.46041600  0.86462900  1
  H  H35  1  0.97522200  0.03958400  0.13537100  1
  H  H36  1  0.47933700  0.45917100  0.14104000  1
  H  H37  1  0.97933700  0.04082900  0.85896000  1
  H  H38  1  0.52066300  0.54082900  0.85896000  1
  H  H39  1  0.02066300  0.95917100  0.14104000  1
  H  H40  1  0.51587800  0.54545800  0.35479200  1
  H  H41  1  0.01587800  0.95454200  0.64520800  1
  H  H42  1  0.48412200  0.45454200  0.64520800  1
  H  H43  1  0.98412200  0.04545800  0.35479200  1
  H  H44  1  0.59992300  0.34449600  0.53164500  1
  H  H45  1  0.09992300  0.15550400  0.46835500  1
  H  H46  1  0.40007700  0.65550400  0.46835500  1
  H  H47  1  0.90007700  0.84449600  0.53164500  1
  C  C48  1  0.05302200  0.03405400  0.44496800  1
  C  C49  1  0.55302200  0.46594600  0.55503200  1
  C  C50  1  0.94697800  0.96594600  0.55503200  1
  C  C51  1  0.44697800  0.53405400  0.44496800  1
  N  N52  1  0.74744800  0.86762700  0.97349400  1
  N  N53  1  0.24744800  0.63237300  0.02650600  1
  N  N54  1  0.25255200  0.13237300  0.02650600  1
  N  N55  1  0.75255200  0.36762700  0.97349400  1
  N  N56  1  0.30564800  0.42439100  0.42077000  1
  N  N57  1  0.80564800  0.07560900  0.57923000  1
  N  N58  1  0.69435200  0.57560900  0.57923000  1
  N  N59  1  0.19435200  0.92439100  0.42077000  1
  O  O60  1  0.93187300  0.40932800  0.30270700  1
  O  O61  1  0.43187300  0.09067200  0.69729300  1
  O  O62  1  0.06812700  0.59067200  0.69729300  1
  O  O63  1  0.56812700  0.90932800  0.30270700  1
  O  O64  1  0.39320400  0.15474500  0.27644700  1
  O  O65  1  0.89320400  0.34525500  0.72355300  1
  O  O66  1  0.60679600  0.84525500  0.72355300  1
  O  O67  1  0.10679600  0.65474500  0.27644700  1
  O  O68  1  0.88027600  0.61730100  0.11286300  1
  O  O69  1  0.38027600  0.88269900  0.88713700  1
  O  O70  1  0.11972400  0.38269900  0.88713700  1
  O  O71  1  0.61972400  0.11730100  0.11286300  1
  O  O72  1  0.69185900  0.19474300  0.34173800  1
  O  O73  1  0.19185900  0.30525700  0.65826200  1
  O  O74  1  0.30814100  0.80525700  0.65826200  1
  O  O75  1  0.80814100  0.69474300  0.34173800  1
