# generated using pymatgen
data_Sr2Zn(HO)6
_symmetry_space_group_name_H-M   'P 1'
_cell_length_a   6.82261400
_cell_length_b   6.34177300
_cell_length_c   11.17646096
_cell_angle_alpha   59.55012969
_cell_angle_beta   90.00000000
_cell_angle_gamma   90.00000000
_symmetry_Int_Tables_number   1
_chemical_formula_structural   Sr2Zn(HO)6
_chemical_formula_sum   'Sr4 Zn2 H12 O12'
_cell_volume   416.87877794
_cell_formula_units_Z   2
loop_
 _symmetry_equiv_pos_site_id
 _symmetry_equiv_pos_as_xyz
  1  'x, y, z'
loop_
 _atom_site_type_symbol
 _atom_site_label
 _atom_site_symmetry_multiplicity
 _atom_site_fract_x
 _atom_site_fract_y
 _atom_site_fract_z
 _atom_site_occupancy
  Sr  Sr0  1  0.57542600  0.17155200  0.65074100  1
  Sr  Sr1  1  0.92457400  0.17155200  0.15074100  1
  Sr  Sr2  1  0.42457400  0.82844800  0.34925900  1
  Sr  Sr3  1  0.07542600  0.82844800  0.84925900  1
  Zn  Zn4  1  0.50000000  0.50000000  0.00000000  1
  Zn  Zn5  1  0.00000000  0.50000000  0.50000000  1
  H  H6  1  0.67729200  0.82126500  0.58112400  1
  H  H7  1  0.82270800  0.82126500  0.08112400  1
  H  H8  1  0.32270800  0.17873500  0.41887600  1
  H  H9  1  0.17729200  0.17873500  0.91887600  1
  H  H10  1  0.73911900  0.91253600  0.52064200  1
  H  H11  1  0.76088100  0.91253600  0.02064200  1
  H  H12  1  0.26088100  0.08746400  0.47935800  1
  H  H13  1  0.23911900  0.08746400  0.97935800  1
  H  H14  1  0.22197800  0.51887200  0.15385800  1
  H  H15  1  0.27802200  0.51887200  0.65385800  1
  H  H16  1  0.77802200  0.48112800  0.84614200  1
  H  H17  1  0.72197800  0.48112800  0.34614200  1
  O  O18  1  0.61444500  0.21656200  0.25126900  1
  O  O19  1  0.88555500  0.21656200  0.75126900  1
  O  O20  1  0.38555500  0.78343800  0.74873100  1
  O  O21  1  0.11444500  0.78343800  0.24873100  1
  O  O22  1  0.70213100  0.52874200  0.41605000  1
  O  O23  1  0.79786900  0.52874200  0.91605000  1
  O  O24  1  0.29786900  0.47125800  0.58395000  1
  O  O25  1  0.20213100  0.47125800  0.08395000  1
  O  O26  1  0.06375200  0.84052100  0.36366300  1
  O  O27  1  0.43624800  0.84052100  0.86366300  1
  O  O28  1  0.93624800  0.15947900  0.63633700  1
  O  O29  1  0.56375200  0.15947900  0.13633700  1
