# generated using pymatgen
data_Sc2GaRh
_symmetry_space_group_name_H-M   'P 1'
_cell_length_a   10.86358306
_cell_length_b   10.86358306
_cell_length_c   10.86358306
_cell_angle_alpha   124.97995427
_cell_angle_beta   118.52672946
_cell_angle_gamma   87.08476487
_symmetry_Int_Tables_number   1
_chemical_formula_structural   Sc2GaRh
_chemical_formula_sum   'Sc2 Ga1 Rh1'
_cell_volume   877.58156419
_cell_formula_units_Z   1
loop_
 _symmetry_equiv_pos_site_id
 _symmetry_equiv_pos_as_xyz
  1  'x, y, z'
loop_
 _atom_site_type_symbol
 _atom_site_label
 _atom_site_symmetry_multiplicity
 _atom_site_fract_x
 _atom_site_fract_y
 _atom_site_fract_z
 _atom_site_occupancy
  Sc  Sc0  1  0.00000000  0.27300200  0.27300200  1
  Sc  Sc1  1  0.00000000  0.72699800  0.72699800  1
  Ga  Ga2  1  0.00000000  0.00000000  0.00000000  1
  Rh  Rh3  1  0.00000000  0.50000000  0.50000000  1
