# generated using pymatgen
data_CuH18C4N10(ClO)2
_symmetry_space_group_name_H-M   'P 1'
_cell_length_a   6.91004700
_cell_length_b   9.83286881
_cell_length_c   12.58558365
_cell_angle_alpha   105.82821226
_cell_angle_beta   104.77554925
_cell_angle_gamma   101.69848932
_symmetry_Int_Tables_number   1
_chemical_formula_structural   CuH18C4N10(ClO)2
_chemical_formula_sum   'Cu2 H36 C8 N20 Cl4 O4'
_cell_volume   760.65791368
_cell_formula_units_Z   2
loop_
 _symmetry_equiv_pos_site_id
 _symmetry_equiv_pos_as_xyz
  1  'x, y, z'
loop_
 _atom_site_type_symbol
 _atom_site_label
 _atom_site_symmetry_multiplicity
 _atom_site_fract_x
 _atom_site_fract_y
 _atom_site_fract_z
 _atom_site_occupancy
  Cu  Cu0  1  0.29542500  0.05274500  0.06002800  1
  Cu  Cu1  1  0.70457500  0.94725500  0.93997200  1
  H  H2  1  0.94096300  0.54336900  0.11975700  1
  H  H3  1  0.05903700  0.45663100  0.88024300  1
  H  H4  1  0.77981600  0.53807700  0.18854500  1
  H  H5  1  0.22018400  0.46192300  0.81145500  1
  H  H6  1  0.24813100  0.64239600  0.34971500  1
  H  H7  1  0.75186900  0.35760400  0.65028500  1
  H  H8  1  0.89708700  0.31942700  0.57217100  1
  H  H9  1  0.10291300  0.68057300  0.42782900  1
  H  H10  1  0.23599800  0.25036600  0.96256100  1
  H  H11  1  0.76400200  0.74963400  0.03743900  1
  H  H12  1  0.01328300  0.87963600  0.68092000  1
  H  H13  1  0.98671700  0.12036400  0.31908000  1
  H  H14  1  0.11651000  0.25537900  0.78458100  1
  H  H15  1  0.88349000  0.74462100  0.21541900  1
  H  H16  1  0.04054300  0.09771600  0.66300800  1
  H  H17  1  0.95945700  0.90228400  0.33699200  1
  H  H18  1  0.97674500  0.65562500  0.66532400  1
  H  H19  1  0.02325500  0.34437500  0.33467600  1
  H  H20  1  0.06455600  0.59768500  0.78143000  1
  H  H21  1  0.93544400  0.40231500  0.21857000  1
  H  H22  1  0.23391600  0.76891700  0.96072900  1
  H  H23  1  0.76608400  0.23108300  0.03927100  1
  H  H24  1  0.35697200  0.33648300  0.15780900  1
  H  H25  1  0.64302800  0.66351700  0.84219100  1
  H  H26  1  0.51746700  0.50809600  0.33552400  1
  H  H27  1  0.48253300  0.49190400  0.66447600  1
  H  H28  1  0.63870500  0.45315500  0.45170800  1
  H  H29  1  0.36129500  0.54684500  0.54829200  1
  H  H30  1  0.58727100  0.22766800  0.43746400  1
  H  H31  1  0.41272900  0.77233200  0.56253600  1
  H  H32  1  0.66075100  0.01563300  0.44290800  1
  H  H33  1  0.33924900  0.98436700  0.55709200  1
  H  H34  1  0.51750500  0.85287100  0.32947200  1
  H  H35  1  0.48249500  0.14712900  0.67052800  1
  H  H36  1  0.37458500  0.85745200  0.15692000  1
  H  H37  1  0.62541500  0.14254800  0.84308000  1
  C  C38  1  0.12521200  0.07164300  0.82526600  1
  C  C39  1  0.87478800  0.92835700  0.17473400  1
  C  C40  1  0.12190800  0.82058600  0.82475400  1
  C  C41  1  0.87809200  0.17941400  0.17524600  1
  C  C42  1  0.47456200  0.28585300  0.29411100  1
  C  C43  1  0.52543800  0.71414700  0.70588900  1
  C  C44  1  0.47682700  0.03554000  0.29381100  1
  C  C45  1  0.52317300  0.96446000  0.70618900  1
  N  N46  1  0.21242600  0.13857000  0.93863000  1
  N  N47  1  0.78757400  0.86143000  0.06137000  1
  N  N48  1  0.06736000  0.14355800  0.75039600  1
  N  N49  1  0.93264000  0.85644200  0.24960400  1
  N  N50  1  0.07806800  0.92133900  0.77220200  1
  N  N51  1  0.92193200  0.07866100  0.22779800  1
  N  N52  1  0.07170700  0.68141900  0.74846400  1
  N  N53  1  0.92829300  0.31858100  0.25153600  1
  N  N54  1  0.20943100  0.85767500  0.93796100  1
  N  N55  1  0.79056900  0.14232500  0.06203900  1
  N  N56  1  0.37392400  0.24674800  0.18164900  1
  N  N57  1  0.62607600  0.75325200  0.81835100  1
  N  N58  1  0.54784000  0.42718700  0.36727300  1
  N  N59  1  0.45216000  0.57281300  0.63272700  1
  N  N60  1  0.51118000  0.18398000  0.34740300  1
  N  N61  1  0.48882000  0.81602000  0.65259700  1
  N  N62  1  0.53749600  0.96251900  0.36763900  1
  N  N63  1  0.46250400  0.03748100  0.63236100  1
  N  N64  1  0.38681200  0.96805600  0.18063300  1
  N  N65  1  0.61318800  0.03194400  0.81936700  1
  Cl  Cl66  1  0.90184600  0.78860200  0.49737700  1
  Cl  Cl67  1  0.09815400  0.21139800  0.50262300  1
  Cl  Cl68  1  0.70091200  0.39841400  0.81030600  1
  Cl  Cl69  1  0.29908800  0.60158600  0.18969400  1
  O  O70  1  0.78970400  0.51663700  0.11015200  1
  O  O71  1  0.21029600  0.48336300  0.88984800  1
  O  O72  1  0.77330000  0.35535100  0.57454600  1
  O  O73  1  0.22670000  0.64464900  0.42545400  1
