# generated using pymatgen
data_CrH10C2(NO4)2
_symmetry_space_group_name_H-M   'P 1'
_cell_length_a   19.62317400
_cell_length_b   6.83347300
_cell_length_c   8.22659424
_cell_angle_alpha   73.10536453
_cell_angle_beta   90.00000000
_cell_angle_gamma   90.00000000
_symmetry_Int_Tables_number   1
_chemical_formula_structural   CrH10C2(NO4)2
_chemical_formula_sum   'Cr4 H40 C8 N8 O32'
_cell_volume   1055.52980128
_cell_formula_units_Z   4
loop_
 _symmetry_equiv_pos_site_id
 _symmetry_equiv_pos_as_xyz
  1  'x, y, z'
loop_
 _atom_site_type_symbol
 _atom_site_label
 _atom_site_symmetry_multiplicity
 _atom_site_fract_x
 _atom_site_fract_y
 _atom_site_fract_z
 _atom_site_occupancy
  Cr  Cr0  1  0.51552700  0.16068900  0.56570300  1
  Cr  Cr1  1  0.01552700  0.83931100  0.93429700  1
  Cr  Cr2  1  0.48447300  0.83931100  0.43429700  1
  Cr  Cr3  1  0.98447300  0.16068900  0.06570300  1
  H  H4  1  0.58476700  0.57198100  0.58149600  1
  H  H5  1  0.08476700  0.42801900  0.91850400  1
  H  H6  1  0.41523300  0.42801900  0.41850400  1
  H  H7  1  0.91523300  0.57198100  0.08149500  1
  H  H8  1  0.56704200  0.32701500  0.85200200  1
  H  H9  1  0.06704200  0.67298500  0.64799800  1
  H  H10  1  0.43295800  0.67298500  0.14799800  1
  H  H11  1  0.93295800  0.32701500  0.35200200  1
  H  H12  1  0.77434300  0.20722000  0.67701200  1
  H  H13  1  0.27434300  0.79278000  0.82298800  1
  H  H14  1  0.22565700  0.79278000  0.32298800  1
  H  H15  1  0.72565700  0.20722000  0.17701200  1
  H  H16  1  0.65761300  0.38684900  0.34974800  1
  H  H17  1  0.15761300  0.61315100  0.15025200  1
  H  H18  1  0.34238700  0.61315100  0.65025200  1
  H  H19  1  0.84238700  0.38684900  0.84974800  1
  H  H20  1  0.72407100  0.46569800  0.52464400  1
  H  H21  1  0.22407100  0.53430200  0.97535600  1
  H  H22  1  0.27592900  0.53430200  0.47535600  1
  H  H23  1  0.77592900  0.46569800  0.02464400  1
  H  H24  1  0.77944200  0.55485500  0.37064100  1
  H  H25  1  0.27944200  0.44514500  0.12935900  1
  H  H26  1  0.22055800  0.44514500  0.62935900  1
  H  H27  1  0.72055800  0.55485500  0.87064100  1
  H  H28  1  0.86011100  0.80784500  0.56929800  1
  H  H29  1  0.36011100  0.19215500  0.93070200  1
  H  H30  1  0.13988900  0.19215500  0.43070200  1
  H  H31  1  0.63988900  0.80784500  0.06929800  1
  H  H32  1  0.88407700  0.71810300  0.58417600  1
  H  H33  1  0.38407700  0.28189700  0.91582400  1
  H  H34  1  0.11592300  0.28189700  0.41582400  1
  H  H35  1  0.61592300  0.71810300  0.08417600  1
  H  H36  1  0.88733200  0.22064300  0.24448700  1
  H  H37  1  0.38733200  0.77935700  0.25551300  1
  H  H38  1  0.11266800  0.77935700  0.75551300  1
  H  H39  1  0.61266800  0.22064300  0.74448700  1
  H  H40  1  0.93433200  0.97827800  0.64715900  1
  H  H41  1  0.43433200  0.02172200  0.85284100  1
  H  H42  1  0.06566800  0.02172200  0.35284100  1
  H  H43  1  0.56566800  0.97827800  0.14715900  1
  C  C44  1  0.44430400  0.75043800  0.80656400  1
  C  C45  1  0.94430400  0.24956200  0.69343600  1
  C  C46  1  0.55569600  0.24956200  0.19343600  1
  C  C47  1  0.05569600  0.75043800  0.30656400  1
  C  C48  1  0.62938000  0.82778500  0.59977900  1
  C  C49  1  0.12938000  0.17221500  0.90022100  1
  C  C50  1  0.37062000  0.17221500  0.40022100  1
  C  C51  1  0.87062000  0.82778500  0.09977900  1
  N  N52  1  0.75028800  0.43016000  0.42955600  1
  N  N53  1  0.25028800  0.56984000  0.07044400  1
  N  N54  1  0.24971200  0.56984000  0.57044400  1
  N  N55  1  0.74971200  0.43016000  0.92955600  1
  N  N56  1  0.79353100  0.39501800  0.80462300  1
  N  N57  1  0.29353100  0.60498200  0.69537700  1
  N  N58  1  0.20646900  0.60498200  0.19537700  1
  N  N59  1  0.70646900  0.39501800  0.30462300  1
  O  O60  1  0.46176900  0.96302700  0.77898700  1
  O  O61  1  0.96176900  0.03697300  0.72101300  1
  O  O62  1  0.53823100  0.03697300  0.22101300  1
  O  O63  1  0.03823100  0.96302700  0.27898700  1
  O  O64  1  0.45069600  0.69175800  0.67456900  1
  O  O65  1  0.95069600  0.30824200  0.82543100  1
  O  O66  1  0.54930400  0.30824200  0.32543100  1
  O  O67  1  0.04930400  0.69175800  0.17456900  1
  O  O68  1  0.42720300  0.65167000  0.95142300  1
  O  O69  1  0.92720300  0.34833000  0.54857700  1
  O  O70  1  0.57279700  0.34833000  0.04857700  1
  O  O71  1  0.07279700  0.65167000  0.45142300  1
  O  O72  1  0.60463900  0.99335400  0.61809700  1
  O  O73  1  0.10463900  0.00664600  0.88190300  1
  O  O74  1  0.39536100  0.00664600  0.38190300  1
  O  O75  1  0.89536100  0.99335400  0.11809700  1
  O  O76  1  0.58033400  0.71978900  0.51879000  1
  O  O77  1  0.08033400  0.28021100  0.98121000  1
  O  O78  1  0.41966600  0.28021100  0.48121000  1
  O  O79  1  0.91966600  0.71978900  0.01879000  1
  O  O80  1  0.68401300  0.74443200  0.63862100  1
  O  O81  1  0.18401300  0.25556800  0.86137900  1
  O  O82  1  0.31598700  0.25556800  0.36137900  1
  O  O83  1  0.81598700  0.74443200  0.13862100  1
  O  O84  1  0.57397700  0.31477300  0.73427500  1
  O  O85  1  0.07397700  0.68522700  0.76572500  1
  O  O86  1  0.42602300  0.68522700  0.26572500  1
  O  O87  1  0.92602300  0.31477300  0.23427500  1
  O  O88  1  0.78372900  0.18194000  0.79902200  1
  O  O89  1  0.28372900  0.81806000  0.70097800  1
  O  O90  1  0.21627100  0.81806000  0.20097800  1
  O  O91  1  0.71627100  0.18194000  0.29902200  1
