# generated using pymatgen
data_MnP(HO)7
_symmetry_space_group_name_H-M   'P 1'
_cell_length_a   10.00700600
_cell_length_b   10.87815200
_cell_length_c   13.52462700
_cell_angle_alpha   90.00000000
_cell_angle_beta   90.00000000
_cell_angle_gamma   90.00000000
_symmetry_Int_Tables_number   1
_chemical_formula_structural   MnP(HO)7
_chemical_formula_sum   'Mn8 P8 H56 O56'
_cell_volume   1472.26022587
_cell_formula_units_Z   8
loop_
 _symmetry_equiv_pos_site_id
 _symmetry_equiv_pos_as_xyz
  1  'x, y, z'
loop_
 _atom_site_type_symbol
 _atom_site_label
 _atom_site_symmetry_multiplicity
 _atom_site_fract_x
 _atom_site_fract_y
 _atom_site_fract_z
 _atom_site_occupancy
  Mn  Mn0  1  0.62599300  0.77595800  0.80893400  1
  Mn  Mn1  1  0.37400700  0.72404200  0.30893400  1
  Mn  Mn2  1  0.87400700  0.27595800  0.19106600  1
  Mn  Mn3  1  0.12599300  0.22404200  0.69106600  1
  Mn  Mn4  1  0.37400700  0.22404200  0.19106600  1
  Mn  Mn5  1  0.62599300  0.27595800  0.69106600  1
  Mn  Mn6  1  0.12599300  0.72404200  0.80893400  1
  Mn  Mn7  1  0.87400700  0.77595800  0.30893400  1
  P  P8  1  0.63465000  0.89508000  0.41816000  1
  P  P9  1  0.36535000  0.60492000  0.91816000  1
  P  P10  1  0.86535000  0.39508000  0.58184000  1
  P  P11  1  0.13465000  0.10492000  0.08184000  1
  P  P12  1  0.36535000  0.10492000  0.58184000  1
  P  P13  1  0.63465000  0.39508000  0.08184000  1
  P  P14  1  0.13465000  0.60492000  0.41816000  1
  P  P15  1  0.86535000  0.89508000  0.91816000  1
  H  H16  1  0.30606900  0.62731700  0.73138900  1
  H  H17  1  0.69393100  0.87268300  0.23138900  1
  H  H18  1  0.19393100  0.12731700  0.26861100  1
  H  H19  1  0.80606900  0.37268300  0.76861100  1
  H  H20  1  0.69393100  0.37268300  0.26861100  1
  H  H21  1  0.30606900  0.12731700  0.76861100  1
  H  H22  1  0.80606900  0.87268300  0.73138900  1
  H  H23  1  0.19393100  0.62731700  0.23138900  1
  H  H24  1  0.46722500  0.80413000  0.12574600  1
  H  H25  1  0.53277500  0.69587000  0.62574600  1
  H  H26  1  0.03277500  0.30413000  0.87425400  1
  H  H27  1  0.96722500  0.19587000  0.37425400  1
  H  H28  1  0.53277500  0.19587000  0.87425400  1
  H  H29  1  0.46722500  0.30413000  0.37425400  1
  H  H30  1  0.96722500  0.69587000  0.12574600  1
  H  H31  1  0.03277500  0.80413000  0.62574600  1
  H  H32  1  0.67244700  0.52152500  0.80511700  1
  H  H33  1  0.32755300  0.97847500  0.30511700  1
  H  H34  1  0.82755300  0.02152500  0.19488300  1
  H  H35  1  0.17244700  0.47847500  0.69488300  1
  H  H36  1  0.32755300  0.47847500  0.19488300  1
  H  H37  1  0.67244700  0.02152500  0.69488300  1
  H  H38  1  0.17244700  0.97847500  0.80511700  1
  H  H39  1  0.82755300  0.52152500  0.30511700  1
  H  H40  1  0.74733600  0.56961400  0.57061200  1
  H  H41  1  0.25266400  0.93038600  0.07061200  1
  H  H42  1  0.75266400  0.06961400  0.42938800  1
  H  H43  1  0.24733600  0.43038600  0.92938800  1
  H  H44  1  0.25266400  0.43038600  0.42938800  1
  H  H45  1  0.74733600  0.06961400  0.92938800  1
  H  H46  1  0.24733600  0.93038600  0.57061200  1
  H  H47  1  0.75266400  0.56961400  0.07061200  1
  H  H48  1  0.30572200  0.90084400  0.82427900  1
  H  H49  1  0.69427800  0.59915600  0.32427900  1
  H  H50  1  0.19427800  0.40084400  0.17572100  1
  H  H51  1  0.80572200  0.09915600  0.67572100  1
  H  H52  1  0.69427800  0.09915600  0.17572100  1
  H  H53  1  0.30572200  0.40084400  0.67572100  1
  H  H54  1  0.80572200  0.59915600  0.82427900  1
  H  H55  1  0.19427800  0.90084400  0.32427900  1
  H  H56  1  0.51881700  0.14273600  0.83994800  1
  H  H57  1  0.48118300  0.35726400  0.33994800  1
  H  H58  1  0.98118300  0.64273700  0.16005200  1
  H  H59  1  0.01881700  0.85726300  0.66005200  1
  H  H60  1  0.48118300  0.85726300  0.16005200  1
  H  H61  1  0.51881700  0.64273700  0.66005200  1
  H  H62  1  0.01881700  0.35726400  0.83994800  1
  H  H63  1  0.98118300  0.14273600  0.33994800  1
  H  H64  1  0.55241900  0.10777000  0.49482800  1
  H  H65  1  0.44758100  0.39223000  0.99482800  1
  H  H66  1  0.94758100  0.60777000  0.50517200  1
  H  H67  1  0.05241900  0.89223000  0.00517200  1
  H  H68  1  0.44758100  0.89223000  0.50517200  1
  H  H69  1  0.55241900  0.60777000  0.00517200  1
  H  H70  1  0.05241900  0.39223000  0.49482800  1
  H  H71  1  0.94758100  0.10777000  0.99482800  1
  O  O72  1  0.74979300  0.80299700  0.41878900  1
  O  O73  1  0.25020700  0.69700300  0.91878900  1
  O  O74  1  0.75020700  0.30299700  0.58121100  1
  O  O75  1  0.24979300  0.19700300  0.08121100  1
  O  O76  1  0.25020700  0.19700300  0.58121100  1
  O  O77  1  0.74979300  0.30299700  0.08121100  1
  O  O78  1  0.24979300  0.69700300  0.41878900  1
  O  O79  1  0.75020700  0.80299700  0.91878900  1
  O  O80  1  0.53502900  0.84876500  0.50059700  1
  O  O81  1  0.46497100  0.65123500  0.00059700  1
  O  O82  1  0.96497100  0.34876500  0.49940300  1
  O  O83  1  0.03502900  0.15123500  0.99940300  1
  O  O84  1  0.46497100  0.15123500  0.49940300  1
  O  O85  1  0.53502900  0.34876500  0.99940300  1
  O  O86  1  0.03502900  0.65123500  0.50059700  1
  O  O87  1  0.96497100  0.84876500  0.00059700  1
  O  O88  1  0.71745000  0.84559300  0.70569300  1
  O  O89  1  0.28255000  0.65440700  0.20569300  1
  O  O90  1  0.78255000  0.34559300  0.29430700  1
  O  O91  1  0.21745000  0.15440700  0.79430700  1
  O  O92  1  0.28255000  0.15440700  0.29430700  1
  O  O93  1  0.71745000  0.34559300  0.79430700  1
  O  O94  1  0.21745000  0.65440700  0.70569300  1
  O  O95  1  0.78255000  0.84559300  0.20569300  1
  O  O96  1  0.68800400  0.02318200  0.46900900  1
  O  O97  1  0.31199600  0.47681800  0.96900900  1
  O  O98  1  0.81199600  0.52318200  0.53099100  1
  O  O99  1  0.18800400  0.97681800  0.03099100  1
  O  O100  1  0.31199600  0.97681800  0.53099100  1
  O  O101  1  0.68800400  0.52318200  0.03099100  1
  O  O102  1  0.18800400  0.47681800  0.46900900  1
  O  O103  1  0.81199600  0.02318200  0.96900900  1
  O  O104  1  0.43200400  0.57979900  0.82020400  1
  O  O105  1  0.56799600  0.92020100  0.32020400  1
  O  O106  1  0.06799600  0.07979900  0.17979600  1
  O  O107  1  0.93200400  0.42020100  0.67979600  1
  O  O108  1  0.56799600  0.42020100  0.17979600  1
  O  O109  1  0.43200400  0.07979900  0.67979600  1
  O  O110  1  0.93200400  0.92020100  0.82020400  1
  O  O111  1  0.06799600  0.57979900  0.32020400  1
  O  O112  1  0.71506700  0.60334600  0.79715200  1
  O  O113  1  0.28493300  0.89665400  0.29715200  1
  O  O114  1  0.78493300  0.10334600  0.20284800  1
  O  O115  1  0.21506700  0.39665400  0.70284800  1
  O  O116  1  0.28493300  0.39665400  0.20284800  1
  O  O117  1  0.71506700  0.10334600  0.70284800  1
  O  O118  1  0.21506700  0.89665400  0.79715200  1
  O  O119  1  0.78493300  0.60334600  0.29715200  1
  O  O120  1  0.49889400  0.86254600  0.84454200  1
  O  O121  1  0.50110600  0.63745400  0.34454200  1
  O  O122  1  0.00110600  0.36254600  0.15545800  1
  O  O123  1  0.99889400  0.13745400  0.65545800  1
  O  O124  1  0.50110600  0.13745400  0.15545800  1
  O  O125  1  0.49889400  0.36254600  0.65545800  1
  O  O126  1  0.99889400  0.63745400  0.84454200  1
  O  O127  1  0.00110600  0.86254600  0.34454200  1
