# generated using pymatgen
data_HfCdPd2
_symmetry_space_group_name_H-M   'P 1'
_cell_length_a   10.88882650
_cell_length_b   10.88882650
_cell_length_c   10.88882650
_cell_angle_alpha   124.60944185
_cell_angle_beta   120.34577372
_cell_angle_gamma   85.80238893
_symmetry_Int_Tables_number   1
_chemical_formula_structural   HfCdPd2
_chemical_formula_sum   'Hf1 Cd1 Pd2'
_cell_volume   874.49513551
_cell_formula_units_Z   1
loop_
 _symmetry_equiv_pos_site_id
 _symmetry_equiv_pos_as_xyz
  1  'x, y, z'
loop_
 _atom_site_type_symbol
 _atom_site_label
 _atom_site_symmetry_multiplicity
 _atom_site_fract_x
 _atom_site_fract_y
 _atom_site_fract_z
 _atom_site_occupancy
  Hf  Hf0  1  0.00000000  0.50000000  0.50000000  1
  Cd  Cd1  1  0.00000000  0.00000000  0.00000000  1
  Pd  Pd2  1  0.00000000  0.27055900  0.27055900  1
  Pd  Pd3  1  0.00000000  0.72944100  0.72944100  1
