# generated using pymatgen
data_MoH2N2Cl5O
_symmetry_space_group_name_H-M   'P 1'
_cell_length_a   7.03698200
_cell_length_b   9.97038800
_cell_length_c   13.80194300
_cell_angle_alpha   90.00000000
_cell_angle_beta   90.00000000
_cell_angle_gamma   90.00000000
_symmetry_Int_Tables_number   1
_chemical_formula_structural   MoH2N2Cl5O
_chemical_formula_sum   'Mo4 H8 N8 Cl20 O4'
_cell_volume   968.36420795
_cell_formula_units_Z   4
loop_
 _symmetry_equiv_pos_site_id
 _symmetry_equiv_pos_as_xyz
  1  'x, y, z'
loop_
 _atom_site_type_symbol
 _atom_site_label
 _atom_site_symmetry_multiplicity
 _atom_site_fract_x
 _atom_site_fract_y
 _atom_site_fract_z
 _atom_site_occupancy
  Mo  Mo0  1  0.30726600  0.25000000  0.61604400  1
  Mo  Mo1  1  0.19273400  0.25000000  0.11604400  1
  Mo  Mo2  1  0.69273400  0.75000000  0.38395600  1
  Mo  Mo3  1  0.80726600  0.75000000  0.88395600  1
  H  H4  1  0.53266200  0.16866700  0.45519400  1
  H  H5  1  0.96733800  0.33133300  0.95519400  1
  H  H6  1  0.46733800  0.66866700  0.54480600  1
  H  H7  1  0.03266200  0.83133300  0.04480600  1
  H  H8  1  0.46733800  0.83133300  0.54480600  1
  H  H9  1  0.03266200  0.66866700  0.04480600  1
  H  H10  1  0.53266200  0.33133300  0.45519400  1
  H  H11  1  0.96733800  0.16866700  0.95519400  1
  N  N12  1  0.34530900  0.00011800  0.85599500  1
  N  N13  1  0.15469100  0.49988200  0.35599500  1
  N  N14  1  0.65469100  0.50011800  0.14400500  1
  N  N15  1  0.84530900  0.99988200  0.64400500  1
  N  N16  1  0.65469100  0.99988200  0.14400500  1
  N  N17  1  0.84530900  0.50011800  0.64400500  1
  N  N18  1  0.34530900  0.49988200  0.85599500  1
  N  N19  1  0.15469100  0.00011800  0.35599500  1
  Cl  Cl20  1  0.31768300  0.48864200  0.60672700  1
  Cl  Cl21  1  0.18231700  0.01135800  0.10672700  1
  Cl  Cl22  1  0.68231700  0.98864200  0.39327300  1
  Cl  Cl23  1  0.81768300  0.51135800  0.89327300  1
  Cl  Cl24  1  0.68231700  0.51135800  0.39327300  1
  Cl  Cl25  1  0.81768300  0.98864200  0.89327300  1
  Cl  Cl26  1  0.31768300  0.01135800  0.60672700  1
  Cl  Cl27  1  0.18231700  0.48864200  0.10672700  1
  Cl  Cl28  1  0.05768600  0.25000000  0.50685400  1
  Cl  Cl29  1  0.44231400  0.25000000  0.00685400  1
  Cl  Cl30  1  0.94231400  0.75000000  0.49314600  1
  Cl  Cl31  1  0.55768600  0.75000000  0.99314600  1
  Cl  Cl32  1  0.56991500  0.25000000  0.71542900  1
  Cl  Cl33  1  0.93008500  0.25000000  0.21542900  1
  Cl  Cl34  1  0.43008500  0.75000000  0.28457100  1
  Cl  Cl35  1  0.06991500  0.75000000  0.78457100  1
  Cl  Cl36  1  0.10269200  0.25000000  0.74753800  1
  Cl  Cl37  1  0.39730800  0.25000000  0.24753800  1
  Cl  Cl38  1  0.89730800  0.75000000  0.25246200  1
  Cl  Cl39  1  0.60269200  0.75000000  0.75246200  1
  O  O40  1  0.50362100  0.25000000  0.49272600  1
  O  O41  1  0.99637900  0.25000000  0.99272600  1
  O  O42  1  0.49637900  0.75000000  0.50727400  1
  O  O43  1  0.00362100  0.75000000  0.00727400  1
