# generated using pymatgen
data_SmH12(NO5)3
_symmetry_space_group_name_H-M   'P 1'
_cell_length_a   7.18383000
_cell_length_b   9.94094133
_cell_length_c   11.95611891
_cell_angle_alpha   105.89065467
_cell_angle_beta   97.27276869
_cell_angle_gamma   110.13724716
_symmetry_Int_Tables_number   1
_chemical_formula_structural   SmH12(NO5)3
_chemical_formula_sum   'Sm2 H24 N6 O30'
_cell_volume   747.59000095
_cell_formula_units_Z   2
loop_
 _symmetry_equiv_pos_site_id
 _symmetry_equiv_pos_as_xyz
  1  'x, y, z'
loop_
 _atom_site_type_symbol
 _atom_site_label
 _atom_site_symmetry_multiplicity
 _atom_site_fract_x
 _atom_site_fract_y
 _atom_site_fract_z
 _atom_site_occupancy
  Sm  Sm0  1  0.88510400  0.62400800  0.78585300  1
  Sm  Sm1  1  0.11489600  0.37599200  0.21414700  1
  H  H2  1  0.72081300  0.60823800  0.99369600  1
  H  H3  1  0.27918700  0.39176200  0.00630400  1
  H  H4  1  0.76303000  0.45947800  0.98242200  1
  H  H5  1  0.23697000  0.54052200  0.01757800  1
  H  H6  1  0.82880800  0.21803400  0.52553900  1
  H  H7  1  0.17119200  0.78196600  0.47446100  1
  H  H8  1  0.65889000  0.55837200  0.55408800  1
  H  H9  1  0.34111000  0.44162800  0.44591200  1
  H  H10  1  0.72334900  0.89211100  0.77346300  1
  H  H11  1  0.27665100  0.10788900  0.22653700  1
  H  H12  1  0.56558000  0.70938500  0.83718400  1
  H  H13  1  0.43442000  0.29061500  0.16281600  1
  H  H14  1  0.20605300  0.15116100  0.93252300  1
  H  H15  1  0.79394700  0.84883900  0.06747700  1
  H  H16  1  0.44963200  0.34981900  0.57392700  1
  H  H17  1  0.55036800  0.65018100  0.42607300  1
  H  H18  1  0.44972700  0.15376800  0.90379000  1
  H  H19  1  0.55027300  0.84623200  0.09621000  1
  H  H20  1  0.22484800  0.16901900  0.80430800  1
  H  H21  1  0.77515200  0.83098100  0.19569200  1
  H  H22  1  0.41117900  0.14882900  0.34894000  1
  H  H23  1  0.58882100  0.85117100  0.65106000  1
  H  H24  1  0.29566900  0.17462500  0.50833200  1
  H  H25  1  0.70433100  0.82537500  0.49166800  1
  N  N26  1  0.15394600  0.80342200  0.66660400  1
  N  N27  1  0.84605400  0.19657800  0.33339600  1
  N  N28  1  0.27275300  0.82206000  0.00814100  1
  N  N29  1  0.72724700  0.17794000  0.99185900  1
  N  N30  1  0.96275800  0.27914800  0.69759500  1
  N  N31  1  0.03724200  0.72085200  0.30240500  1
  O  O32  1  0.75678000  0.53092700  0.94073800  1
  O  O33  1  0.24322000  0.46907300  0.05926200  1
  O  O34  1  0.69945700  0.93825000  0.71197700  1
  O  O35  1  0.30054300  0.06175000  0.28802300  1
  O  O36  1  0.71378200  0.76217000  0.86537200  1
  O  O37  1  0.28621800  0.23783000  0.13462800  1
  O  O38  1  0.65948900  0.51637800  0.61891100  1
  O  O39  1  0.34051100  0.48362200  0.38108900  1
  O  O40  1  0.30046700  0.20197800  0.88931200  1
  O  O41  1  0.69953300  0.79802200  0.11068800  1
  O  O42  1  0.30249500  0.27687600  0.54651500  1
  O  O43  1  0.69750500  0.72312400  0.45348500  1
  O  O44  1  0.13212500  0.66573300  0.64305900  1
  O  O45  1  0.86787500  0.33426700  0.35694100  1
  O  O46  1  0.09813500  0.86320300  0.75859100  1
  O  O47  1  0.90186500  0.13679700  0.24140900  1
  O  O48  1  0.22375600  0.88063700  0.60238600  1
  O  O49  1  0.77624400  0.11936300  0.39761400  1
  O  O50  1  0.24651300  0.68813900  0.94503600  1
  O  O51  1  0.75348700  0.31186100  0.05496400  1
  O  O52  1  0.14404100  0.87538300  0.99447000  1
  O  O53  1  0.85595900  0.12461700  0.00553000  1
  O  O54  1  0.44393600  0.90728000  0.09045900  1
  O  O55  1  0.55606400  0.09272000  0.90954100  1
  O  O56  1  0.00027200  0.37982000  0.79766600  1
  O  O57  1  0.99972800  0.62018000  0.20233400  1
  O  O58  1  0.84519800  0.29604200  0.60927000  1
  O  O59  1  0.15480200  0.70395800  0.39073000  1
  O  O60  1  0.02158900  0.17603900  0.67721700  1
  O  O61  1  0.97841100  0.82396100  0.32278300  1
