# generated using pymatgen
data_H7C3N3O5
_symmetry_space_group_name_H-M   'P 1'
_cell_length_a   7.17913623
_cell_length_b   7.17913623
_cell_length_c   8.90995510
_cell_angle_alpha   67.48391165
_cell_angle_beta   67.48391165
_cell_angle_gamma   56.45123792
_symmetry_Int_Tables_number   1
_chemical_formula_structural   H7C3N3O5
_chemical_formula_sum   'H14 C6 N6 O10'
_cell_volume   344.68279203
_cell_formula_units_Z   2
loop_
 _symmetry_equiv_pos_site_id
 _symmetry_equiv_pos_as_xyz
  1  'x, y, z'
loop_
 _atom_site_type_symbol
 _atom_site_label
 _atom_site_symmetry_multiplicity
 _atom_site_fract_x
 _atom_site_fract_y
 _atom_site_fract_z
 _atom_site_occupancy
  H  H0  1  0.94263200  0.05736800  0.75000000  1
  H  H1  1  0.05736800  0.94263200  0.25000000  1
  H  H2  1  0.59813400  0.65193500  0.50843700  1
  H  H3  1  0.34806500  0.40186600  0.99156300  1
  H  H4  1  0.40186600  0.34806500  0.49156300  1
  H  H5  1  0.65193500  0.59813400  0.00843700  1
  H  H6  1  0.61532900  0.01430300  0.08988500  1
  H  H7  1  0.98569700  0.38467100  0.41011500  1
  H  H8  1  0.38467100  0.98569700  0.91011500  1
  H  H9  1  0.01430300  0.61532900  0.58988500  1
  H  H10  1  0.40717600  0.06998500  0.24698100  1
  H  H11  1  0.93001500  0.59282400  0.25301900  1
  H  H12  1  0.59282400  0.93001500  0.75301900  1
  H  H13  1  0.06998500  0.40717600  0.74698100  1
  C  C14  1  0.26163800  0.88476300  0.60449900  1
  C  C15  1  0.11523700  0.73836200  0.89550100  1
  C  C16  1  0.73836200  0.11523700  0.39550100  1
  C  C17  1  0.88476300  0.26163800  0.10449900  1
  C  C18  1  0.49701200  0.50298800  0.75000000  1
  C  C19  1  0.50298800  0.49701200  0.25000000  1
  N  N20  1  0.09431900  0.90568100  0.75000000  1
  N  N21  1  0.90568100  0.09431900  0.25000000  1
  N  N22  1  0.46037300  0.68025100  0.61136400  1
  N  N23  1  0.31974900  0.53962700  0.88863600  1
  N  N24  1  0.53962700  0.31974900  0.38863600  1
  N  N25  1  0.68025100  0.46037300  0.11136400  1
  O  O26  1  0.23352500  0.04108300  0.47688900  1
  O  O27  1  0.95891700  0.76647500  0.02311100  1
  O  O28  1  0.76647500  0.95891700  0.52311100  1
  O  O29  1  0.04108300  0.23352500  0.97688900  1
  O  O30  1  0.67887100  0.32112900  0.75000000  1
  O  O31  1  0.32112900  0.67887100  0.25000000  1
  O  O32  1  0.47110000  0.13785300  0.13517600  1
  O  O33  1  0.86214700  0.52890000  0.36482400  1
  O  O34  1  0.52890000  0.86214700  0.86482400  1
  O  O35  1  0.13785300  0.47110000  0.63517600  1
