# generated using pymatgen
data_VH24C4N4Cl7
_symmetry_space_group_name_H-M   'P 1'
_cell_length_a   7.38958200
_cell_length_b   16.15321600
_cell_length_c   20.04851779
_cell_angle_alpha   51.97757300
_cell_angle_beta   90.00000000
_cell_angle_gamma   90.00000000
_symmetry_Int_Tables_number   1
_chemical_formula_structural   VH24C4N4Cl7
_chemical_formula_sum   'V4 H96 C16 N16 Cl28'
_cell_volume   1885.21297548
_cell_formula_units_Z   4
loop_
 _symmetry_equiv_pos_site_id
 _symmetry_equiv_pos_as_xyz
  1  'x, y, z'
loop_
 _atom_site_type_symbol
 _atom_site_label
 _atom_site_symmetry_multiplicity
 _atom_site_fract_x
 _atom_site_fract_y
 _atom_site_fract_z
 _atom_site_occupancy
  V  V0  1  0.00000000  0.00000000  0.00000000  1
  V  V1  1  0.00000000  0.00000000  0.50000000  1
  V  V2  1  0.00000000  0.50000000  0.00000000  1
  V  V3  1  0.00000000  0.50000000  0.50000000  1
  H  H4  1  0.43305300  0.96823800  0.15521600  1
  H  H5  1  0.56694700  0.03176200  0.84478400  1
  H  H6  1  0.43305300  0.03176200  0.34478400  1
  H  H7  1  0.56694700  0.96823800  0.65521600  1
  H  H8  1  0.43412900  0.94290700  0.08548400  1
  H  H9  1  0.56587100  0.05709300  0.91451600  1
  H  H10  1  0.43412900  0.05709300  0.41451600  1
  H  H11  1  0.56587100  0.94290700  0.58548400  1
  H  H12  1  0.62678600  0.95941800  0.11981100  1
  H  H13  1  0.37321400  0.04058200  0.88018900  1
  H  H14  1  0.62678600  0.04058200  0.38018900  1
  H  H15  1  0.37321400  0.95941800  0.61981100  1
  H  H16  1  0.13327500  0.78969800  0.88221600  1
  H  H17  1  0.86672500  0.21030200  0.11778400  1
  H  H18  1  0.13327500  0.21030200  0.61778400  1
  H  H19  1  0.86672500  0.78969800  0.38221600  1
  H  H20  1  0.05629100  0.80367200  0.95310100  1
  H  H21  1  0.94370900  0.19632800  0.04689900  1
  H  H22  1  0.05629100  0.19632800  0.54689900  1
  H  H23  1  0.94370900  0.80367200  0.45310100  1
  H  H24  1  0.13797500  0.90800800  0.85975600  1
  H  H25  1  0.86202500  0.09199200  0.14024400  1
  H  H26  1  0.13797500  0.09199200  0.64024400  1
  H  H27  1  0.86202500  0.90800800  0.35975600  1
  H  H28  1  0.44228800  0.52756600  0.11861300  1
  H  H29  1  0.55771200  0.47243400  0.88138700  1
  H  H30  1  0.44228800  0.47243400  0.38138700  1
  H  H31  1  0.55771200  0.52756600  0.61861300  1
  H  H32  1  0.47620800  0.55818200  0.02342600  1
  H  H33  1  0.52379200  0.44181800  0.97657400  1
  H  H34  1  0.47620800  0.44181800  0.47657400  1
  H  H35  1  0.52379200  0.55818200  0.52342600  1
  H  H36  1  0.64999900  0.55437700  0.07930200  1
  H  H37  1  0.35000100  0.44562300  0.92069800  1
  H  H38  1  0.64999900  0.44562300  0.42069800  1
  H  H39  1  0.35000100  0.55437700  0.57930200  1
  H  H40  1  0.86691700  0.40197700  0.21961600  1
  H  H41  1  0.13308300  0.59802300  0.78038400  1
  H  H42  1  0.86691700  0.59802300  0.28038400  1
  H  H43  1  0.13308300  0.40197700  0.71961600  1
  H  H44  1  0.84220300  0.31621300  0.32389000  1
  H  H45  1  0.15779700  0.68378700  0.67611000  1
  H  H46  1  0.84220300  0.68378700  0.17611000  1
  H  H47  1  0.15779700  0.31621300  0.82389000  1
  H  H48  1  0.92761500  0.27558200  0.27169300  1
  H  H49  1  0.07238500  0.72441800  0.72830700  1
  H  H50  1  0.92761500  0.72441800  0.22830700  1
  H  H51  1  0.07238500  0.27558200  0.77169300  1
  H  H52  1  0.40239100  0.77400200  0.19748000  1
  H  H53  1  0.59760900  0.22599800  0.80252000  1
  H  H54  1  0.40239100  0.22599800  0.30252000  1
  H  H55  1  0.59760900  0.77400200  0.69748000  1
  H  H56  1  0.47085100  0.80005800  0.26887400  1
  H  H57  1  0.52914900  0.19994200  0.73112600  1
  H  H58  1  0.47085100  0.19994200  0.23112600  1
  H  H59  1  0.52914900  0.80005800  0.76887400  1
  H  H60  1  0.63731000  0.78321900  0.21361900  1
  H  H61  1  0.36269000  0.21678100  0.78638100  1
  H  H62  1  0.63731000  0.21678100  0.28638100  1
  H  H63  1  0.36269000  0.78321900  0.71361900  1
  H  H64  1  0.78586600  0.80187000  0.90145200  1
  H  H65  1  0.21413400  0.19813000  0.09854800  1
  H  H66  1  0.78586600  0.19813000  0.59854800  1
  H  H67  1  0.21413400  0.80187000  0.40145200  1
  H  H68  1  0.83745700  0.93922900  0.82842900  1
  H  H69  1  0.16254300  0.06077100  0.17157100  1
  H  H70  1  0.83745700  0.06077100  0.67157100  1
  H  H71  1  0.16254300  0.93922900  0.32842900  1
  H  H72  1  0.88222500  0.85369300  0.80083000  1
  H  H73  1  0.11777500  0.14630700  0.19917000  1
  H  H74  1  0.88222500  0.14630700  0.69917000  1
  H  H75  1  0.11777500  0.85369300  0.30083000  1
  H  H76  1  0.48162000  0.69740100  0.07258200  1
  H  H77  1  0.51838000  0.30259900  0.92741800  1
  H  H78  1  0.48162000  0.30259900  0.42741800  1
  H  H79  1  0.51838000  0.69740100  0.57258200  1
  H  H80  1  0.60084300  0.73227800  0.98097200  1
  H  H81  1  0.39915700  0.26772200  0.01902800  1
  H  H82  1  0.60084300  0.26772200  0.51902800  1
  H  H83  1  0.39915700  0.73227800  0.48097200  1
  H  H84  1  0.36105300  0.71313000  0.98725100  1
  H  H85  1  0.63894700  0.28687000  0.01274900  1
  H  H86  1  0.36105300  0.28687000  0.51274900  1
  H  H87  1  0.63894700  0.71313000  0.48725100  1
  H  H88  1  0.16434000  0.42821800  0.22438100  1
  H  H89  1  0.83566000  0.57178200  0.77561900  1
  H  H90  1  0.16434000  0.57178200  0.27561900  1
  H  H91  1  0.83566000  0.42821800  0.72438100  1
  H  H92  1  0.19606500  0.29209500  0.31297000  1
  H  H93  1  0.80393500  0.70790500  0.68703000  1
  H  H94  1  0.19606500  0.70790500  0.18703000  1
  H  H95  1  0.80393500  0.29209500  0.81297000  1
  H  H96  1  0.10675300  0.37997700  0.33045500  1
  H  H97  1  0.89324700  0.62002300  0.66954500  1
  H  H98  1  0.10675300  0.62002300  0.16954500  1
  H  H99  1  0.89324700  0.37997700  0.83045500  1
  C  C100  1  0.50205200  0.81268700  0.20999700  1
  C  C101  1  0.49794800  0.18731300  0.79000300  1
  C  C102  1  0.50205200  0.18731300  0.29000300  1
  C  C103  1  0.49794800  0.81268700  0.70999700  1
  C  C104  1  0.87774300  0.86058000  0.85186400  1
  C  C105  1  0.12225700  0.13942000  0.14813600  1
  C  C106  1  0.87774300  0.13942000  0.64813600  1
  C  C107  1  0.12225700  0.86058000  0.35186400  1
  C  C108  1  0.48711700  0.68797600  0.02317900  1
  C  C109  1  0.51288300  0.31202400  0.97682100  1
  C  C110  1  0.48711700  0.31202400  0.47682100  1
  C  C111  1  0.51288300  0.68797600  0.52317900  1
  C  C112  1  0.11294200  0.36183100  0.28621100  1
  C  C113  1  0.88705800  0.63816900  0.71378900  1
  C  C114  1  0.11294200  0.63816900  0.21378900  1
  C  C115  1  0.88705800  0.36183100  0.78621100  1
  N  N116  1  0.49877900  0.92753600  0.13811600  1
  N  N117  1  0.50122100  0.07246400  0.86188400  1
  N  N118  1  0.49877900  0.07246400  0.36188400  1
  N  N119  1  0.50122100  0.92753600  0.63811600  1
  N  N120  1  0.06293700  0.83928900  0.88905500  1
  N  N121  1  0.93706300  0.16071100  0.11094500  1
  N  N122  1  0.06293700  0.16071100  0.61094500  1
  N  N123  1  0.93706300  0.83928900  0.38905500  1
  N  N124  1  0.51505100  0.57512600  0.06327000  1
  N  N125  1  0.48494900  0.42487400  0.93673000  1
  N  N126  1  0.51505100  0.42487400  0.43673000  1
  N  N127  1  0.48494900  0.57512600  0.56327000  1
  N  N128  1  0.92572900  0.33764400  0.27427400  1
  N  N129  1  0.07427100  0.66235600  0.72572600  1
  N  N130  1  0.92572900  0.66235600  0.22572600  1
  N  N131  1  0.07427100  0.33764400  0.77427400  1
  Cl  Cl132  1  0.78027700  0.87343200  0.02606000  1
  Cl  Cl133  1  0.21972300  0.12656800  0.97394000  1
  Cl  Cl134  1  0.78027700  0.12656800  0.47394000  1
  Cl  Cl135  1  0.21972300  0.87343200  0.52606000  1
  Cl  Cl136  1  0.98942200  0.08725100  0.84919100  1
  Cl  Cl137  1  0.01057800  0.91274900  0.15080900  1
  Cl  Cl138  1  0.98942200  0.91274900  0.65080900  1
  Cl  Cl139  1  0.01057800  0.08725100  0.34919100  1
  Cl  Cl140  1  0.24133600  0.88897900  0.01572500  1
  Cl  Cl141  1  0.75866400  0.11102100  0.98427500  1
  Cl  Cl142  1  0.24133600  0.11102100  0.48427500  1
  Cl  Cl143  1  0.75866400  0.88897900  0.51572500  1
  Cl  Cl144  1  0.01966200  0.41240500  0.93645900  1
  Cl  Cl145  1  0.98033800  0.58759500  0.06354100  1
  Cl  Cl146  1  0.01966200  0.58759500  0.56354100  1
  Cl  Cl147  1  0.98033800  0.41240500  0.43645900  1
  Cl  Cl148  1  0.78110200  0.36955900  0.10147900  1
  Cl  Cl149  1  0.21889800  0.63044100  0.89852100  1
  Cl  Cl150  1  0.78110200  0.63044100  0.39852100  1
  Cl  Cl151  1  0.21889800  0.36955900  0.60147900  1
  Cl  Cl152  1  0.75921700  0.60670000  0.90615000  1
  Cl  Cl153  1  0.24078300  0.39330000  0.09385000  1
  Cl  Cl154  1  0.75921700  0.39330000  0.59385000  1
  Cl  Cl155  1  0.24078300  0.60670000  0.40615000  1
  Cl  Cl156  1  0.61343500  0.50000000  0.25000000  1
  Cl  Cl157  1  0.38656500  0.50000000  0.75000000  1
  Cl  Cl158  1  0.61983300  0.00000000  0.25000000  1
  Cl  Cl159  1  0.38016700  0.00000000  0.75000000  1
