# generated using pymatgen
data_Sc2GePd
_symmetry_space_group_name_H-M   'P 1'
_cell_length_a   10.95937120
_cell_length_b   10.95937120
_cell_length_c   10.95937120
_cell_angle_alpha   125.73525787
_cell_angle_beta   118.28446669
_cell_angle_gamma   86.68127372
_symmetry_Int_Tables_number   1
_chemical_formula_structural   Sc2GePd
_chemical_formula_sum   'Sc2 Ge1 Pd1'
_cell_volume   895.72063836
_cell_formula_units_Z   1
loop_
 _symmetry_equiv_pos_site_id
 _symmetry_equiv_pos_as_xyz
  1  'x, y, z'
loop_
 _atom_site_type_symbol
 _atom_site_label
 _atom_site_symmetry_multiplicity
 _atom_site_fract_x
 _atom_site_fract_y
 _atom_site_fract_z
 _atom_site_occupancy
  Sc  Sc0  1  0.00000000  0.24937600  0.24937600  1
  Sc  Sc1  1  0.00000000  0.75062400  0.75062400  1
  Ge  Ge2  1  0.00000000  0.00000000  0.00000000  1
  Pd  Pd3  1  0.00000000  0.50000000  0.50000000  1
