# generated using pymatgen
data_CaAl2Si2(H2O5)2
_symmetry_space_group_name_H-M   'P 1'
_cell_length_a   5.33934769
_cell_length_b   5.33934769
_cell_length_c   13.26602900
_cell_angle_alpha   90.00000000
_cell_angle_beta   90.00000000
_cell_angle_gamma   112.93084297
_symmetry_Int_Tables_number   1
_chemical_formula_structural   CaAl2Si2(H2O5)2
_chemical_formula_sum   'Ca2 Al4 Si4 H8 O20'
_cell_volume   348.30969860
_cell_formula_units_Z   2
loop_
 _symmetry_equiv_pos_site_id
 _symmetry_equiv_pos_as_xyz
  1  'x, y, z'
loop_
 _atom_site_type_symbol
 _atom_site_label
 _atom_site_symmetry_multiplicity
 _atom_site_fract_x
 _atom_site_fract_y
 _atom_site_fract_z
 _atom_site_occupancy
  Ca  Ca0  1  0.66417700  0.33582300  0.25000000  1
  Ca  Ca1  1  0.33582300  0.66417700  0.75000000  1
  Al  Al2  1  0.50000000  0.00000000  0.50000000  1
  Al  Al3  1  0.00000000  0.50000000  0.50000000  1
  Al  Al4  1  0.50000000  0.00000000  0.00000000  1
  Al  Al5  1  0.00000000  0.50000000  0.00000000  1
  Si  Si6  1  0.01803700  0.98196300  0.36739100  1
  Si  Si7  1  0.98196300  0.01803700  0.63260900  1
  Si  Si8  1  0.01803700  0.98196300  0.13260900  1
  Si  Si9  1  0.98196300  0.01803700  0.86739100  1
  H  H10  1  0.33742600  0.66257400  0.31208500  1
  H  H11  1  0.66257400  0.33742600  0.68791500  1
  H  H12  1  0.33742600  0.66257400  0.18791500  1
  H  H13  1  0.66257400  0.33742600  0.81208500  1
  H  H14  1  0.46503100  0.53496900  0.43658700  1
  H  H15  1  0.53496900  0.46503100  0.56341300  1
  H  H16  1  0.46503100  0.53496900  0.06341300  1
  H  H17  1  0.53496900  0.46503100  0.93658700  1
  O  O18  1  0.95108700  0.04891300  0.25000000  1
  O  O19  1  0.04891300  0.95108700  0.75000000  1
  O  O20  1  0.34758300  0.11063600  0.38477200  1
  O  O21  1  0.11063600  0.34758300  0.61522800  1
  O  O22  1  0.34758300  0.11063600  0.11522800  1
  O  O23  1  0.11063600  0.34758300  0.88477200  1
  O  O24  1  0.65241700  0.88936400  0.61522800  1
  O  O25  1  0.88936400  0.65241700  0.38477200  1
  O  O26  1  0.65241700  0.88936400  0.88477200  1
  O  O27  1  0.88936400  0.65241700  0.11522800  1
  O  O28  1  0.86051400  0.13948600  0.43476000  1
  O  O29  1  0.13948600  0.86051400  0.56524000  1
  O  O30  1  0.86051400  0.13948600  0.06524000  1
  O  O31  1  0.13948600  0.86051400  0.93476000  1
  O  O32  1  0.35657600  0.64342400  0.44793100  1
  O  O33  1  0.64342400  0.35657600  0.55206900  1
  O  O34  1  0.35657600  0.64342400  0.05206900  1
  O  O35  1  0.64342400  0.35657600  0.94793100  1
  O  O36  1  0.39802100  0.60197900  0.25000000  1
  O  O37  1  0.60197900  0.39802100  0.75000000  1
