# generated using pymatgen
data_Sr20P12Br(O16F)3
_symmetry_space_group_name_H-M   'P 1'
_cell_length_a   9.90943796
_cell_length_b   9.90943796
_cell_length_c   29.41626800
_cell_angle_alpha   90.00000000
_cell_angle_beta   90.00000000
_cell_angle_gamma   119.99999974
_symmetry_Int_Tables_number   1
_chemical_formula_structural   Sr20P12Br(O16F)3
_chemical_formula_sum   'Sr40 P24 Br2 O96 F6'
_cell_volume   2501.59069328
_cell_formula_units_Z   2
loop_
 _symmetry_equiv_pos_site_id
 _symmetry_equiv_pos_as_xyz
  1  'x, y, z'
loop_
 _atom_site_type_symbol
 _atom_site_label
 _atom_site_symmetry_multiplicity
 _atom_site_fract_x
 _atom_site_fract_y
 _atom_site_fract_z
 _atom_site_occupancy
  Sr  Sr0  1  0.25980400  0.98814800  0.06261200  1
  Sr  Sr1  1  0.24297900  0.99176500  0.56164400  1
  Sr  Sr2  1  0.23864600  0.99302000  0.31342100  1
  Sr  Sr3  1  0.24322000  0.99174500  0.81169300  1
  Sr  Sr4  1  0.01185200  0.27165600  0.06261200  1
  Sr  Sr5  1  0.00698000  0.24562500  0.31342100  1
  Sr  Sr6  1  0.00823500  0.25121400  0.56164400  1
  Sr  Sr7  1  0.00825500  0.25147500  0.81169300  1
  Sr  Sr8  1  0.33333300  0.66666700  0.12643300  1
  Sr  Sr9  1  0.33333300  0.66666700  0.37517000  1
  Sr  Sr10  1  0.33333300  0.66666700  0.25085000  1
  Sr  Sr11  1  0.33333300  0.66666700  0.62474400  1
  Sr  Sr12  1  0.33333300  0.66666700  0.49931200  1
  Sr  Sr13  1  0.33333300  0.66666700  0.87472200  1
  Sr  Sr14  1  0.33333300  0.66666700  0.74913600  1
  Sr  Sr15  1  0.33333300  0.66666700  0.99942600  1
  Sr  Sr16  1  0.26649700  0.25461500  0.18723200  1
  Sr  Sr17  1  0.24977800  0.24163500  0.43647000  1
  Sr  Sr18  1  0.25146500  0.24321800  0.68668800  1
  Sr  Sr19  1  0.25105200  0.24289500  0.93705500  1
  Sr  Sr20  1  0.72834400  0.74019600  0.06261200  1
  Sr  Sr21  1  0.74852500  0.75678000  0.81169300  1
  Sr  Sr22  1  0.75437500  0.76135400  0.31342100  1
  Sr  Sr23  1  0.74878600  0.75702100  0.56164400  1
  Sr  Sr24  1  0.66666700  0.33333300  0.99769700  1
  Sr  Sr25  1  0.66666700  0.33333300  0.12446600  1
  Sr  Sr26  1  0.66666700  0.33333300  0.25196000  1
  Sr  Sr27  1  0.66666700  0.33333300  0.50002100  1
  Sr  Sr28  1  0.66666700  0.33333300  0.37532000  1
  Sr  Sr29  1  0.66666700  0.33333300  0.87372100  1
  Sr  Sr30  1  0.66666700  0.33333300  0.74964900  1
  Sr  Sr31  1  0.66666700  0.33333300  0.62415700  1
  Sr  Sr32  1  0.98811800  0.73350300  0.18723200  1
  Sr  Sr33  1  0.99185800  0.75022200  0.43647000  1
  Sr  Sr34  1  0.99175300  0.74853500  0.68668800  1
  Sr  Sr35  1  0.99184400  0.74894800  0.93705500  1
  Sr  Sr36  1  0.74538500  0.01188200  0.18723200  1
  Sr  Sr37  1  0.75836500  0.00814200  0.43647000  1
  Sr  Sr38  1  0.75678200  0.00824700  0.68668800  1
  Sr  Sr39  1  0.75710500  0.00815600  0.93705500  1
  P  P40  1  0.03537800  0.40620200  0.18764100  1
  P  P41  1  0.02965300  0.39857000  0.43779400  1
  P  P42  1  0.02934200  0.39777700  0.68760600  1
  P  P43  1  0.02962400  0.39754900  0.93744700  1
  P  P44  1  0.37082400  0.96462200  0.18764100  1
  P  P45  1  0.36891700  0.97034700  0.43779400  1
  P  P46  1  0.36843500  0.97065800  0.68760600  1
  P  P47  1  0.36792500  0.97037600  0.93744700  1
  P  P48  1  0.39827800  0.36544000  0.06174900  1
  P  P49  1  0.40441000  0.37330900  0.31295700  1
  P  P50  1  0.39771000  0.36841100  0.56256500  1
  P  P51  1  0.39771300  0.36841600  0.81263700  1
  P  P52  1  0.59379800  0.62917600  0.18764100  1
  P  P53  1  0.60143000  0.63108300  0.43779400  1
  P  P54  1  0.60222300  0.63156500  0.68760600  1
  P  P55  1  0.60245100  0.63207500  0.93744700  1
  P  P56  1  0.63456000  0.03283800  0.06174900  1
  P  P57  1  0.62669100  0.03110200  0.31295700  1
  P  P58  1  0.63158900  0.02930000  0.56256500  1
  P  P59  1  0.63158400  0.02929700  0.81263700  1
  P  P60  1  0.96716200  0.60172200  0.06174900  1
  P  P61  1  0.96889800  0.59559000  0.31295700  1
  P  P62  1  0.97070000  0.60229000  0.56256500  1
  P  P63  1  0.97070300  0.60228700  0.81263700  1
  Br  Br64  1  0.00000000  0.00000000  0.11118000  1
  Br  Br65  1  0.00000000  0.00000000  0.23692400  1
  O  O66  1  0.26499500  0.91307600  0.14464300  1
  O  O67  1  0.26814900  0.91027900  0.23081900  1
  O  O68  1  0.26221600  0.91891700  0.39499800  1
  O  O69  1  0.26153300  0.91964700  0.64488200  1
  O  O70  1  0.26211800  0.91823400  0.73053800  1
  O  O71  1  0.26226300  0.91760600  0.48058700  1
  O  O72  1  0.26111300  0.91890800  0.89472300  1
  O  O73  1  0.26142100  0.91754700  0.98032600  1
  O  O74  1  0.14714600  0.66790400  0.06279500  1
  O  O75  1  0.14942500  0.66879800  0.31287800  1
  O  O76  1  0.15084700  0.67082400  0.56281800  1
  O  O77  1  0.15085300  0.67074700  0.81285700  1
  O  O78  1  0.12324000  0.58829300  0.18653700  1
  O  O79  1  0.11710500  0.58063900  0.43761500  1
  O  O80  1  0.11731800  0.57991900  0.68749600  1
  O  O81  1  0.11665400  0.57962800  0.93764200  1
  O  O82  1  0.08692400  0.35191900  0.14464300  1
  O  O83  1  0.08108300  0.34329900  0.39499800  1
  O  O84  1  0.08972100  0.35787100  0.23081900  1
  O  O85  1  0.08035300  0.34188600  0.64488200  1
  O  O86  1  0.08239400  0.34465700  0.48058700  1
  O  O87  1  0.08109200  0.34220500  0.89472300  1
  O  O88  1  0.08176600  0.34388400  0.73053800  1
  O  O89  1  0.08245300  0.34387400  0.98032600  1
  O  O90  1  0.46353400  0.88289500  0.43761500  1
  O  O91  1  0.46505300  0.87676000  0.18653700  1
  O  O92  1  0.46297300  0.88334600  0.93764200  1
  O  O93  1  0.46260100  0.88268200  0.68749600  1
  O  O94  1  0.33209600  0.47924300  0.06279500  1
  O  O95  1  0.33120200  0.48062700  0.31287800  1
  O  O96  1  0.32917600  0.48002300  0.56281800  1
  O  O97  1  0.32925300  0.48010600  0.81285700  1
  O  O98  1  0.52075700  0.85285400  0.06279500  1
  O  O99  1  0.51937300  0.85057500  0.31287800  1
  O  O100  1  0.51989400  0.84914700  0.81285700  1
  O  O101  1  0.51997700  0.84915300  0.56281800  1
  O  O102  1  0.41170700  0.53494700  0.18653700  1
  O  O103  1  0.41936100  0.53646600  0.43761500  1
  O  O104  1  0.42008100  0.53739900  0.68749600  1
  O  O105  1  0.42037200  0.53702700  0.93764200  1
  O  O106  1  0.36587900  0.27079500  0.10645100  1
  O  O107  1  0.32534200  0.24976300  0.02135100  1
  O  O108  1  0.34751600  0.26432800  0.35517100  1
  O  O109  1  0.35742600  0.27036600  0.26931900  1
  O  O110  1  0.34192500  0.26163700  0.51981600  1
  O  O111  1  0.34382700  0.26203000  0.60548800  1
  O  O112  1  0.34192300  0.26167500  0.76986500  1
  O  O113  1  0.34383700  0.26204200  0.85554500  1
  O  O114  1  0.64808100  0.73500500  0.14464300  1
  O  O115  1  0.64212900  0.73185100  0.23081900  1
  O  O116  1  0.65670100  0.73778400  0.39499800  1
  O  O117  1  0.65534300  0.73773700  0.48058700  1
  O  O118  1  0.65811400  0.73846700  0.64488200  1
  O  O119  1  0.65611600  0.73788200  0.73053800  1
  O  O120  1  0.65779500  0.73888700  0.89472300  1
  O  O121  1  0.65612600  0.73857900  0.98032600  1
  O  O122  1  0.57938000  0.45896700  0.05635500  1
  O  O123  1  0.58621400  0.46964400  0.31420900  1
  O  O124  1  0.57989700  0.46262800  0.56248400  1
  O  O125  1  0.57988500  0.46259600  0.81247300  1
  O  O126  1  0.48280200  0.14500600  0.18727700  1
  O  O127  1  0.47980200  0.15059900  0.43800300  1
  O  O128  1  0.48003200  0.15082100  0.68780600  1
  O  O129  1  0.47876000  0.15059200  0.93739800  1
  O  O130  1  0.66220400  0.51719800  0.18727700  1
  O  O131  1  0.67079700  0.52019800  0.43800300  1
  O  O132  1  0.67079000  0.51996800  0.68780600  1
  O  O133  1  0.67183200  0.52124000  0.93739800  1
  O  O134  1  0.54103300  0.12041300  0.05635500  1
  O  O135  1  0.53035600  0.11656900  0.31420900  1
  O  O136  1  0.53740400  0.11728900  0.81247300  1
  O  O137  1  0.53737200  0.11726900  0.56248400  1
  O  O138  1  0.92442100  0.67465800  0.02135100  1
  O  O139  1  0.91294000  0.64257400  0.26931900  1
  O  O140  1  0.90491700  0.63412100  0.10645100  1
  O  O141  1  0.91975200  0.65807700  0.76986500  1
  O  O142  1  0.91681200  0.65248400  0.35517100  1
  O  O143  1  0.91971200  0.65807500  0.51981600  1
  O  O144  1  0.91820200  0.65617300  0.60548800  1
  O  O145  1  0.91820600  0.65616300  0.85554500  1
  O  O146  1  0.87958700  0.42062000  0.05635500  1
  O  O147  1  0.88343100  0.41378600  0.31420900  1
  O  O148  1  0.88273100  0.42010300  0.56248400  1
  O  O149  1  0.88271100  0.42011500  0.81247300  1
  O  O150  1  0.85499400  0.33779600  0.18727700  1
  O  O151  1  0.84940100  0.32920300  0.43800300  1
  O  O152  1  0.84940800  0.32816800  0.93739800  1
  O  O153  1  0.84917900  0.32921000  0.68780600  1
  O  O154  1  0.75023700  0.07557900  0.02135100  1
  O  O155  1  0.72920500  0.09508300  0.10645100  1
  O  O156  1  0.72963400  0.08706000  0.26931900  1
  O  O157  1  0.73836300  0.08028800  0.51981600  1
  O  O158  1  0.73567200  0.08318800  0.35517100  1
  O  O159  1  0.73797000  0.08179800  0.60548800  1
  O  O160  1  0.73832500  0.08024800  0.76986500  1
  O  O161  1  0.73795800  0.08179400  0.85554500  1
  F  F162  1  0.00000000  0.00000000  0.44244600  1
  F  F163  1  0.00000000  0.00000000  0.33778500  1
  F  F164  1  0.00000000  0.00000000  0.56347700  1
  F  F165  1  0.00000000  0.00000000  0.68826400  1
  F  F166  1  0.00000000  0.00000000  0.81336100  1
  F  F167  1  0.00000000  0.00000000  0.93964600  1
