# generated using pymatgen
data_LaP3(HO)6
_symmetry_space_group_name_H-M   'P 1'
_cell_length_a   6.93676100
_cell_length_b   7.29946632
_cell_length_c   8.80591805
_cell_angle_alpha   83.50921341
_cell_angle_beta   76.64062343
_cell_angle_gamma   76.55338109
_symmetry_Int_Tables_number   1
_chemical_formula_structural   LaP3(HO)6
_chemical_formula_sum   'La2 P6 H12 O12'
_cell_volume   421.09698525
_cell_formula_units_Z   2
loop_
 _symmetry_equiv_pos_site_id
 _symmetry_equiv_pos_as_xyz
  1  'x, y, z'
loop_
 _atom_site_type_symbol
 _atom_site_label
 _atom_site_symmetry_multiplicity
 _atom_site_fract_x
 _atom_site_fract_y
 _atom_site_fract_z
 _atom_site_occupancy
  La  La0  1  0.73433200  0.41186800  0.64157000  1
  La  La1  1  0.26566800  0.58813200  0.35843000  1
  P  P2  1  0.89192100  0.87029400  0.67963400  1
  P  P3  1  0.10807900  0.12970600  0.32036600  1
  P  P4  1  0.27091600  0.23116900  0.69510500  1
  P  P5  1  0.72908400  0.76883100  0.30489500  1
  P  P6  1  0.35858000  0.70473700  0.92684200  1
  P  P7  1  0.64142000  0.29526300  0.07315800  1
  H  H8  1  0.77542400  0.83038800  0.83172100  1
  H  H9  1  0.22457600  0.16961200  0.16827900  1
  H  H10  1  0.02020500  0.03882300  0.97456300  1
  H  H11  1  0.97979500  0.96117700  0.02543700  1
  H  H12  1  0.32307600  0.07171700  0.60396900  1
  H  H13  1  0.67692400  0.92828300  0.39603100  1
  H  H14  1  0.36147600  0.16778400  0.82581100  1
  H  H15  1  0.63852400  0.83221600  0.17418900  1
  H  H16  1  0.25244800  0.89118600  0.91461300  1
  H  H17  1  0.74755200  0.10881400  0.08538700  1
  H  H18  1  0.21221200  0.59444300  0.93407400  1
  H  H19  1  0.78778800  0.40555700  0.06592600  1
  O  O20  1  0.92802400  0.69269900  0.58687100  1
  O  O21  1  0.07197600  0.30730100  0.41312900  1
  O  O22  1  0.78135200  0.06044600  0.61643200  1
  O  O23  1  0.21864800  0.93955400  0.38356800  1
  O  O24  1  0.38107700  0.38394900  0.60137900  1
  O  O25  1  0.61892300  0.61605100  0.39862100  1
  O  O26  1  0.04177700  0.29022300  0.75232900  1
  O  O27  1  0.95822300  0.70977700  0.24767100  1
  O  O28  1  0.51860500  0.67846300  0.77560500  1
  O  O29  1  0.48139500  0.32153700  0.22439500  1
  O  O30  1  0.42242400  0.67750200  0.08430300  1
  O  O31  1  0.57757600  0.32249800  0.91569700  1
