# generated using pymatgen
data_SrLaMnSbO6
_symmetry_space_group_name_H-M   'P 1'
_cell_length_a   8.14722751
_cell_length_b   8.19226888
_cell_length_c   8.19045558
_cell_angle_alpha   88.71323130
_cell_angle_beta   90.03084715
_cell_angle_gamma   89.96942574
_symmetry_Int_Tables_number   1
_chemical_formula_structural   SrLaMnSbO6
_chemical_formula_sum   'Sr4 La4 Mn4 Sb4 O24'
_cell_volume   546.52802883
_cell_formula_units_Z   4
loop_
 _symmetry_equiv_pos_site_id
 _symmetry_equiv_pos_as_xyz
  1  'x, y, z'
loop_
 _atom_site_type_symbol
 _atom_site_label
 _atom_site_symmetry_multiplicity
 _atom_site_fract_x
 _atom_site_fract_y
 _atom_site_fract_z
 _atom_site_occupancy
  Sr  Sr0  1  0.24931700  0.02356800  0.01464900  1
  Sr  Sr1  1  0.24931700  0.52356700  0.51464700  1
  Sr  Sr2  1  0.74931700  0.48534600  0.97642400  1
  Sr  Sr3  1  0.74931800  0.98534700  0.47642200  1
  La  La4  1  0.24756400  0.51885500  0.03231600  1
  La  La5  1  0.24756400  0.01885500  0.53231200  1
  La  La6  1  0.74757100  0.96769800  0.98116700  1
  La  La7  1  0.74757400  0.46770200  0.48116200  1
  Mn  Mn8  1  0.49953800  0.24644100  0.24768900  1
  Mn  Mn9  1  0.99953200  0.75231900  0.25355400  1
  Mn  Mn10  1  0.49954000  0.74644000  0.74768800  1
  Mn  Mn11  1  0.99953200  0.25232000  0.75355400  1
  Sb  Sb12  1  0.49986100  0.25115900  0.75163900  1
  Sb  Sb13  1  0.49986200  0.75115900  0.25163900  1
  Sb  Sb14  1  0.99986000  0.74836500  0.74883700  1
  Sb  Sb15  1  0.99986000  0.24836500  0.24883700  1
  O  O16  1  0.76003600  0.30510500  0.22748800  1
  O  O17  1  0.76003700  0.80510600  0.72748800  1
  O  O18  1  0.26004200  0.77250800  0.19489400  1
  O  O19  1  0.26004400  0.27250800  0.69489300  1
  O  O20  1  0.04832200  0.48791800  0.28340000  1
  O  O21  1  0.04832300  0.98791700  0.78340100  1
  O  O22  1  0.54828300  0.71660600  0.01204800  1
  O  O23  1  0.54828300  0.21660700  0.51204800  1
  O  O24  1  0.45960200  0.50983200  0.28619000  1
  O  O25  1  0.45960200  0.00983300  0.78619000  1
  O  O26  1  0.95962400  0.71382800  0.99021100  1
  O  O27  1  0.95962300  0.21382800  0.49021100  1
  O  O28  1  0.04783100  0.29628900  0.01044800  1
  O  O29  1  0.04782900  0.79628900  0.51044800  1
  O  O30  1  0.54785800  0.48953000  0.70368500  1
  O  O31  1  0.54785800  0.98953200  0.20368400  1
  O  O32  1  0.44922000  0.30019800  0.98741300  1
  O  O33  1  0.44922000  0.80019900  0.48741400  1
  O  O34  1  0.94919000  0.51260900  0.69976700  1
  O  O35  1  0.94919100  0.01260700  0.19976800  1
  O  O36  1  0.73870600  0.21392500  0.81210600  1
  O  O37  1  0.73870700  0.71392600  0.31210500  1
  O  O38  1  0.23872200  0.68789600  0.78608200  1
  O  O39  1  0.23872200  0.18789700  0.28608100  1
