# generated using pymatgen
data_CsVH12(C2O7)2
_symmetry_space_group_name_H-M   'P 1'
_cell_length_a   5.97821500
_cell_length_b   5.98003471
_cell_length_c   10.33815775
_cell_angle_alpha   81.31327005
_cell_angle_beta   81.34574893
_cell_angle_gamma   78.10759022
_symmetry_Int_Tables_number   1
_chemical_formula_structural   CsVH12(C2O7)2
_chemical_formula_sum   'Cs1 V1 H12 C4 O14'
_cell_volume   354.77555048
_cell_formula_units_Z   1
loop_
 _symmetry_equiv_pos_site_id
 _symmetry_equiv_pos_as_xyz
  1  'x, y, z'
loop_
 _atom_site_type_symbol
 _atom_site_label
 _atom_site_symmetry_multiplicity
 _atom_site_fract_x
 _atom_site_fract_y
 _atom_site_fract_z
 _atom_site_occupancy
  Cs  Cs0  1  0.99484200  0.00593800  0.00032000  1
  V  V1  1  0.49975500  0.49777200  0.50110700  1
  H  H2  1  0.70734500  0.70290400  0.64861900  1
  H  H3  1  0.29498700  0.28836300  0.35137500  1
  H  H4  1  0.79251700  0.78853300  0.48401900  1
  H  H5  1  0.20743700  0.20323700  0.51398700  1
  H  H6  1  0.83813800  0.62513900  0.83460800  1
  H  H7  1  0.62525200  0.83702700  0.83276700  1
  H  H8  1  0.16494600  0.37830500  0.16391100  1
  H  H9  1  0.37713900  0.16546100  0.16159700  1
  H  H10  1  0.09531200  0.88738400  0.34919100  1
  H  H11  1  0.88176400  0.09707600  0.34848100  1
  H  H12  1  0.90070800  0.11374400  0.65336700  1
  H  H13  1  0.11305100  0.90181700  0.65581500  1
  C  C14  1  0.73694800  0.52987000  0.23877600  1
  C  C15  1  0.52846400  0.73440200  0.23898200  1
  C  C16  1  0.26230400  0.46641400  0.76421800  1
  C  C17  1  0.46955600  0.26138800  0.76418300  1
  O  O18  1  0.69422800  0.69736400  0.55078200  1
  O  O19  1  0.30466900  0.29688600  0.44871600  1
  O  O20  1  0.74700400  0.39615100  0.34983700  1
  O  O21  1  0.39495300  0.74436300  0.35016700  1
  O  O22  1  0.25009800  0.59810900  0.65258300  1
  O  O23  1  0.60446300  0.25438100  0.65351500  1
  O  O24  1  0.87745500  0.50404500  0.13787000  1
  O  O25  1  0.50307500  0.87445100  0.13778800  1
  O  O26  1  0.12365500  0.49265100  0.86586500  1
  O  O27  1  0.49571000  0.11960900  0.86458000  1
  O  O28  1  0.68829900  0.68592900  0.80000100  1
  O  O29  1  0.31685500  0.31550600  0.19580200  1
  O  O30  1  0.92595200  0.92771500  0.35041600  1
  O  O31  1  0.07036000  0.07122100  0.65248700  1
