# generated using pymatgen
data_Mo3H9Br3(ClO)4
_symmetry_space_group_name_H-M   'P 1'
_cell_length_a   10.25244400
_cell_length_b   9.87623600
_cell_length_c   18.23086609
_cell_angle_alpha   79.36590615
_cell_angle_beta   90.00000000
_cell_angle_gamma   90.00000000
_symmetry_Int_Tables_number   1
_chemical_formula_structural   Mo3H9Br3(ClO)4
_chemical_formula_sum   'Mo12 H36 Br12 Cl16 O16'
_cell_volume   1814.27316543
_cell_formula_units_Z   4
loop_
 _symmetry_equiv_pos_site_id
 _symmetry_equiv_pos_as_xyz
  1  'x, y, z'
loop_
 _atom_site_type_symbol
 _atom_site_label
 _atom_site_symmetry_multiplicity
 _atom_site_fract_x
 _atom_site_fract_y
 _atom_site_fract_z
 _atom_site_occupancy
  Mo  Mo0  1  0.79044600  0.89188000  0.49702500  1
  Mo  Mo1  1  0.29044600  0.10812000  0.00297500  1
  Mo  Mo2  1  0.20955400  0.10812000  0.50297500  1
  Mo  Mo3  1  0.70955400  0.89188000  0.99702500  1
  Mo  Mo4  1  0.10658900  0.78942300  0.50159000  1
  Mo  Mo5  1  0.60658900  0.21057700  0.99841000  1
  Mo  Mo6  1  0.89341100  0.21057700  0.49841000  1
  Mo  Mo7  1  0.39341100  0.78942300  0.00159000  1
  Mo  Mo8  1  0.00352800  0.04664900  0.36218000  1
  Mo  Mo9  1  0.50352800  0.95335100  0.13782000  1
  Mo  Mo10  1  0.99647200  0.95335100  0.63782000  1
  Mo  Mo11  1  0.49647200  0.04664900  0.86218000  1
  H  H12  1  0.75404400  0.36593900  0.64519500  1
  H  H13  1  0.25404400  0.63406100  0.85480500  1
  H  H14  1  0.24595600  0.63406100  0.35480500  1
  H  H15  1  0.74595600  0.36593900  0.14519500  1
  H  H16  1  0.32234700  0.73450600  0.29161700  1
  H  H17  1  0.82234700  0.26549400  0.20838300  1
  H  H18  1  0.67765300  0.26549400  0.70838300  1
  H  H19  1  0.17765300  0.73450600  0.79161700  1
  H  H20  1  0.16452200  0.39033600  0.75529900  1
  H  H21  1  0.66452200  0.60966400  0.74470100  1
  H  H22  1  0.83547800  0.60966400  0.24470100  1
  H  H23  1  0.33547800  0.39033600  0.25529900  1
  H  H24  1  0.29177000  0.45498900  0.69638300  1
  H  H25  1  0.79177000  0.54501100  0.80361700  1
  H  H26  1  0.70823000  0.54501100  0.30361700  1
  H  H27  1  0.20823000  0.45498900  0.19638300  1
  H  H28  1  0.72707900  0.44710200  0.74014300  1
  H  H29  1  0.22707900  0.55289800  0.75985700  1
  H  H30  1  0.27292100  0.55289800  0.25985700  1
  H  H31  1  0.77292100  0.44710200  0.24014300  1
  H  H32  1  0.92894100  0.74949200  0.14573600  1
  H  H33  1  0.42894100  0.25050800  0.35426400  1
  H  H34  1  0.07105900  0.25050800  0.85426400  1
  H  H35  1  0.57105900  0.74949200  0.64573600  1
  H  H36  1  0.95170900  0.81135500  0.21832500  1
  H  H37  1  0.45170900  0.18864500  0.28167500  1
  H  H38  1  0.04829100  0.18864500  0.78167500  1
  H  H39  1  0.54829100  0.81135500  0.71832500  1
  H  H40  1  0.58625100  0.64416500  0.37674400  1
  H  H41  1  0.08625100  0.35583500  0.12325600  1
  H  H42  1  0.41374900  0.35583500  0.62325600  1
  H  H43  1  0.91374900  0.64416500  0.87674400  1
  H  H44  1  0.58029200  0.48428800  0.39576200  1
  H  H45  1  0.08029200  0.51571200  0.10423800  1
  H  H46  1  0.41970800  0.51571200  0.60423800  1
  H  H47  1  0.91970800  0.48428800  0.89576200  1
  Br  Br48  1  0.56153400  0.76540000  0.50622500  1
  Br  Br49  1  0.06153400  0.23460000  0.99377500  1
  Br  Br50  1  0.43846600  0.23460000  0.49377500  1
  Br  Br51  1  0.93846600  0.76540000  0.00622500  1
  Br  Br52  1  0.22812300  0.56371100  0.48296200  1
  Br  Br53  1  0.72812300  0.43628900  0.01703800  1
  Br  Br54  1  0.77187700  0.43628900  0.51703800  1
  Br  Br55  1  0.27187700  0.56371100  0.98296200  1
  Br  Br56  1  0.00892600  0.08490000  0.21836800  1
  Br  Br57  1  0.50892600  0.91510000  0.28163200  1
  Br  Br58  1  0.99107400  0.91510000  0.78163200  1
  Br  Br59  1  0.49107400  0.08490000  0.71836800  1
  Cl  Cl60  1  0.92412300  0.78245700  0.40084700  1
  Cl  Cl61  1  0.42412300  0.21754300  0.09915300  1
  Cl  Cl62  1  0.07587700  0.21754300  0.59915300  1
  Cl  Cl63  1  0.57587700  0.78245700  0.90084700  1
  Cl  Cl64  1  0.75090300  0.11697300  0.40168700  1
  Cl  Cl65  1  0.25090300  0.88302700  0.09831300  1
  Cl  Cl66  1  0.24909700  0.88302700  0.59831300  1
  Cl  Cl67  1  0.74909700  0.11697300  0.90168700  1
  Cl  Cl68  1  0.91999800  0.71775700  0.59706400  1
  Cl  Cl69  1  0.41999800  0.28224300  0.90293600  1
  Cl  Cl70  1  0.08000200  0.28224300  0.40293600  1
  Cl  Cl71  1  0.58000200  0.71775700  0.09706400  1
  Cl  Cl72  1  0.74732300  0.05145200  0.59125600  1
  Cl  Cl73  1  0.24732300  0.94854800  0.90874400  1
  Cl  Cl74  1  0.25267700  0.94854800  0.40874400  1
  Cl  Cl75  1  0.75267700  0.05145200  0.09125600  1
  O  O76  1  0.74647800  0.33565400  0.69986500  1
  O  O77  1  0.24647800  0.66434600  0.80013500  1
  O  O78  1  0.25352200  0.66434600  0.30013500  1
  O  O79  1  0.75352200  0.33565400  0.19986500  1
  O  O80  1  0.71219900  0.52485600  0.77273000  1
  O  O81  1  0.21219900  0.47514400  0.72727000  1
  O  O82  1  0.28780100  0.47514400  0.22727000  1
  O  O83  1  0.78780100  0.52485600  0.27273000  1
  O  O84  1  0.57923100  0.73015900  0.70016100  1
  O  O85  1  0.07923100  0.26984100  0.79983900  1
  O  O86  1  0.42076900  0.26984100  0.29983900  1
  O  O87  1  0.92076900  0.73015900  0.20016100  1
  O  O88  1  0.91080200  0.56192900  0.85378000  1
  O  O89  1  0.41080200  0.43807100  0.64622000  1
  O  O90  1  0.08919800  0.43807100  0.14622000  1
  O  O91  1  0.58919800  0.56192900  0.35378000  1
