# generated using pymatgen
data_KCrH24(SO10)2
_symmetry_space_group_name_H-M   'P 1'
_cell_length_a   12.13922600
_cell_length_b   12.13922600
_cell_length_c   12.13922600
_cell_angle_alpha   90.00000000
_cell_angle_beta   90.00000000
_cell_angle_gamma   90.00000000
_symmetry_Int_Tables_number   1
_chemical_formula_structural   KCrH24(SO10)2
_chemical_formula_sum   'K4 Cr4 H96 S8 O80'
_cell_volume   1788.84615039
_cell_formula_units_Z   4
loop_
 _symmetry_equiv_pos_site_id
 _symmetry_equiv_pos_as_xyz
  1  'x, y, z'
loop_
 _atom_site_type_symbol
 _atom_site_label
 _atom_site_symmetry_multiplicity
 _atom_site_fract_x
 _atom_site_fract_y
 _atom_site_fract_z
 _atom_site_occupancy
  K  K0  1  0.00000000  0.00000000  0.50000000  1
  K  K1  1  0.00000000  0.50000000  0.00000000  1
  K  K2  1  0.50000000  0.00000000  0.00000000  1
  K  K3  1  0.50000000  0.50000000  0.50000000  1
  Cr  Cr4  1  0.50000000  0.50000000  0.00000000  1
  Cr  Cr5  1  0.50000000  0.00000000  0.50000000  1
  Cr  Cr6  1  0.00000000  0.50000000  0.50000000  1
  Cr  Cr7  1  0.00000000  0.00000000  0.00000000  1
  H  H8  1  0.55787000  0.70141300  0.01600100  1
  H  H9  1  0.44213000  0.20141300  0.48399900  1
  H  H10  1  0.94213000  0.29858700  0.51600100  1
  H  H11  1  0.05787000  0.79858700  0.98399900  1
  H  H12  1  0.01600100  0.55787000  0.70141300  1
  H  H13  1  0.48399900  0.44213000  0.20141300  1
  H  H14  1  0.51600100  0.94213000  0.29858700  1
  H  H15  1  0.98399900  0.05787000  0.79858700  1
  H  H16  1  0.70141300  0.01600100  0.55787000  1
  H  H17  1  0.20141300  0.48399900  0.44213000  1
  H  H18  1  0.29858700  0.51600100  0.94213000  1
  H  H19  1  0.79858700  0.98399900  0.05787000  1
  H  H20  1  0.44213000  0.29858700  0.98399900  1
  H  H21  1  0.55787000  0.79858700  0.51600100  1
  H  H22  1  0.05787000  0.70141300  0.48399900  1
  H  H23  1  0.94213000  0.20141300  0.01600100  1
  H  H24  1  0.98399900  0.44213000  0.29858700  1
  H  H25  1  0.51600100  0.55787000  0.79858700  1
  H  H26  1  0.48399900  0.05787000  0.70141300  1
  H  H27  1  0.01600100  0.94213000  0.20141300  1
  H  H28  1  0.29858700  0.98399900  0.44213000  1
  H  H29  1  0.79858700  0.51600100  0.55787000  1
  H  H30  1  0.70141300  0.48399900  0.05787000  1
  H  H31  1  0.20141300  0.01600100  0.94213000  1
  H  H32  1  0.42532500  0.71253400  0.01479300  1
  H  H33  1  0.57467500  0.21253400  0.48520700  1
  H  H34  1  0.07467500  0.28746600  0.51479300  1
  H  H35  1  0.92532500  0.78746600  0.98520700  1
  H  H36  1  0.01479300  0.42532500  0.71253400  1
  H  H37  1  0.48520700  0.57467500  0.21253400  1
  H  H38  1  0.51479300  0.07467500  0.28746600  1
  H  H39  1  0.98520700  0.92532500  0.78746600  1
  H  H40  1  0.71253400  0.01479300  0.42532500  1
  H  H41  1  0.21253400  0.48520700  0.57467500  1
  H  H42  1  0.28746600  0.51479300  0.07467500  1
  H  H43  1  0.78746600  0.98520700  0.92532500  1
  H  H44  1  0.57467500  0.28746600  0.98520700  1
  H  H45  1  0.42532500  0.78746600  0.51479300  1
  H  H46  1  0.92532500  0.71253400  0.48520700  1
  H  H47  1  0.07467500  0.21253400  0.01479300  1
  H  H48  1  0.98520700  0.57467500  0.28746600  1
  H  H49  1  0.51479300  0.42532500  0.78746600  1
  H  H50  1  0.48520700  0.92532500  0.71253400  1
  H  H51  1  0.01479300  0.07467500  0.21253400  1
  H  H52  1  0.28746600  0.98520700  0.57467500  1
  H  H53  1  0.78746600  0.51479300  0.42532500  1
  H  H54  1  0.71253400  0.48520700  0.92532500  1
  H  H55  1  0.21253400  0.01479300  0.07467500  1
  H  H56  1  0.20484400  0.62452100  0.18585000  1
  H  H57  1  0.79515600  0.12452100  0.31415000  1
  H  H58  1  0.29515600  0.37547900  0.68585000  1
  H  H59  1  0.70484400  0.87547900  0.81415000  1
  H  H60  1  0.18585000  0.20484400  0.62452100  1
  H  H61  1  0.31415000  0.79515600  0.12452100  1
  H  H62  1  0.68585000  0.29515600  0.37547900  1
  H  H63  1  0.81415000  0.70484400  0.87547900  1
  H  H64  1  0.62452100  0.18585000  0.20484400  1
  H  H65  1  0.12452100  0.31415000  0.79515600  1
  H  H66  1  0.37547900  0.68585000  0.29515600  1
  H  H67  1  0.87547900  0.81415000  0.70484400  1
  H  H68  1  0.79515600  0.37547900  0.81415000  1
  H  H69  1  0.20484400  0.87547900  0.68585000  1
  H  H70  1  0.70484400  0.62452100  0.31415000  1
  H  H71  1  0.29515600  0.12452100  0.18585000  1
  H  H72  1  0.81415000  0.79515600  0.37547900  1
  H  H73  1  0.68585000  0.20484400  0.87547900  1
  H  H74  1  0.31415000  0.70484400  0.62452100  1
  H  H75  1  0.18585000  0.29515600  0.12452100  1
  H  H76  1  0.37547900  0.81415000  0.79515600  1
  H  H77  1  0.87547900  0.68585000  0.20484400  1
  H  H78  1  0.62452100  0.31415000  0.70484400  1
  H  H79  1  0.12452100  0.18585000  0.29515600  1
  H  H80  1  0.20100400  0.50033800  0.21826200  1
  H  H81  1  0.79899600  0.00033800  0.28173800  1
  H  H82  1  0.29899600  0.49966200  0.71826200  1
  H  H83  1  0.70100400  0.99966200  0.78173800  1
  H  H84  1  0.21826200  0.20100400  0.50033800  1
  H  H85  1  0.28173800  0.79899600  0.00033800  1
  H  H86  1  0.71826200  0.29899600  0.49966200  1
  H  H87  1  0.78173800  0.70100400  0.99966200  1
  H  H88  1  0.50033800  0.21826200  0.20100400  1
  H  H89  1  0.00033800  0.28173800  0.79899600  1
  H  H90  1  0.49966200  0.71826200  0.29899600  1
  H  H91  1  0.99966200  0.78173800  0.70100400  1
  H  H92  1  0.79899600  0.49966200  0.78173800  1
  H  H93  1  0.20100400  0.99966200  0.71826200  1
  H  H94  1  0.70100400  0.50033800  0.28173800  1
  H  H95  1  0.29899600  0.00033800  0.21826200  1
  H  H96  1  0.78173800  0.79899600  0.49966200  1
  H  H97  1  0.71826200  0.20100400  0.99966200  1
  H  H98  1  0.28173800  0.70100400  0.50033800  1
  H  H99  1  0.21826200  0.29899600  0.00033800  1
  H  H100  1  0.49966200  0.78173800  0.79899600  1
  H  H101  1  0.99966200  0.71826200  0.20100400  1
  H  H102  1  0.50033800  0.28173800  0.70100400  1
  H  H103  1  0.00033800  0.21826200  0.29899600  1
  S  S104  1  0.18039300  0.81960700  0.31960700  1
  S  S105  1  0.81960700  0.31960700  0.18039300  1
  S  S106  1  0.31960700  0.18039300  0.81960700  1
  S  S107  1  0.68039300  0.68039300  0.68039300  1
  S  S108  1  0.81960700  0.18039300  0.68039300  1
  S  S109  1  0.18039300  0.68039300  0.81960700  1
  S  S110  1  0.68039300  0.81960700  0.18039300  1
  S  S111  1  0.31960700  0.31960700  0.31960700  1
  O  O112  1  0.25199000  0.74801000  0.24801000  1
  O  O113  1  0.74801000  0.24801000  0.25199000  1
  O  O114  1  0.24801000  0.25199000  0.74801000  1
  O  O115  1  0.75199000  0.75199000  0.75199000  1
  O  O116  1  0.74801000  0.25199000  0.75199000  1
  O  O117  1  0.25199000  0.75199000  0.74801000  1
  O  O118  1  0.75199000  0.74801000  0.25199000  1
  O  O119  1  0.24801000  0.24801000  0.24801000  1
  O  O120  1  0.07004200  0.83190500  0.26699600  1
  O  O121  1  0.92995800  0.33190500  0.23300400  1
  O  O122  1  0.42995800  0.16809500  0.76699600  1
  O  O123  1  0.57004200  0.66809500  0.73300400  1
  O  O124  1  0.26699600  0.07004200  0.83190500  1
  O  O125  1  0.23300400  0.92995800  0.33190500  1
  O  O126  1  0.76699600  0.42995800  0.16809500  1
  O  O127  1  0.73300400  0.57004200  0.66809500  1
  O  O128  1  0.83190500  0.26699600  0.07004200  1
  O  O129  1  0.33190500  0.23300400  0.92995800  1
  O  O130  1  0.16809500  0.76699600  0.42995800  1
  O  O131  1  0.66809500  0.73300400  0.57004200  1
  O  O132  1  0.92995800  0.16809500  0.73300400  1
  O  O133  1  0.07004200  0.66809500  0.76699600  1
  O  O134  1  0.57004200  0.83190500  0.23300400  1
  O  O135  1  0.42995800  0.33190500  0.26699600  1
  O  O136  1  0.73300400  0.92995800  0.16809500  1
  O  O137  1  0.76699600  0.07004200  0.66809500  1
  O  O138  1  0.23300400  0.57004200  0.83190500  1
  O  O139  1  0.26699600  0.42995800  0.33190500  1
  O  O140  1  0.16809500  0.73300400  0.92995800  1
  O  O141  1  0.66809500  0.76699600  0.07004200  1
  O  O142  1  0.83190500  0.23300400  0.57004200  1
  O  O143  1  0.33190500  0.26699600  0.42995800  1
  O  O144  1  0.33554100  0.48823800  0.01030800  1
  O  O145  1  0.66445900  0.98823800  0.48969200  1
  O  O146  1  0.16445900  0.51176200  0.51030800  1
  O  O147  1  0.83554100  0.01176200  0.98969200  1
  O  O148  1  0.01030800  0.33554100  0.48823800  1
  O  O149  1  0.48969200  0.66445900  0.98823800  1
  O  O150  1  0.51030800  0.16445900  0.51176200  1
  O  O151  1  0.98969200  0.83554100  0.01176200  1
  O  O152  1  0.48823800  0.01030800  0.33554100  1
  O  O153  1  0.98823800  0.48969200  0.66445900  1
  O  O154  1  0.51176200  0.51030800  0.16445900  1
  O  O155  1  0.01176200  0.98969200  0.83554100  1
  O  O156  1  0.66445900  0.51176200  0.98969200  1
  O  O157  1  0.33554100  0.01176200  0.51030800  1
  O  O158  1  0.83554100  0.48823800  0.48969200  1
  O  O159  1  0.16445900  0.98823800  0.01030800  1
  O  O160  1  0.98969200  0.66445900  0.51176200  1
  O  O161  1  0.51030800  0.33554100  0.01176200  1
  O  O162  1  0.48969200  0.83554100  0.48823800  1
  O  O163  1  0.01030800  0.16445900  0.98823800  1
  O  O164  1  0.51176200  0.98969200  0.66445900  1
  O  O165  1  0.01176200  0.51030800  0.33554100  1
  O  O166  1  0.48823800  0.48969200  0.83554100  1
  O  O167  1  0.98823800  0.01030800  0.16445900  1
  O  O168  1  0.19159300  0.54999400  0.15429800  1
  O  O169  1  0.80840700  0.04999400  0.34570200  1
  O  O170  1  0.30840700  0.45000600  0.65429800  1
  O  O171  1  0.69159300  0.95000600  0.84570200  1
  O  O172  1  0.15429800  0.19159300  0.54999400  1
  O  O173  1  0.34570200  0.80840700  0.04999400  1
  O  O174  1  0.65429800  0.30840700  0.45000600  1
  O  O175  1  0.84570200  0.69159300  0.95000600  1
  O  O176  1  0.54999400  0.15429800  0.19159300  1
  O  O177  1  0.04999400  0.34570200  0.80840700  1
  O  O178  1  0.45000600  0.65429800  0.30840700  1
  O  O179  1  0.95000600  0.84570200  0.69159300  1
  O  O180  1  0.80840700  0.45000600  0.84570200  1
  O  O181  1  0.19159300  0.95000600  0.65429800  1
  O  O182  1  0.69159300  0.54999400  0.34570200  1
  O  O183  1  0.30840700  0.04999400  0.15429800  1
  O  O184  1  0.84570200  0.80840700  0.45000600  1
  O  O185  1  0.65429800  0.19159300  0.95000600  1
  O  O186  1  0.34570200  0.69159300  0.54999400  1
  O  O187  1  0.15429800  0.30840700  0.04999400  1
  O  O188  1  0.45000600  0.84570200  0.80840700  1
  O  O189  1  0.95000600  0.65429800  0.19159300  1
  O  O190  1  0.54999400  0.34570200  0.69159300  1
  O  O191  1  0.04999400  0.15429800  0.30840700  1
