# generated using pymatgen
data_Be2CrIr
_symmetry_space_group_name_H-M   'P 1'
_cell_length_a   9.20971000
_cell_length_b   9.20971000
_cell_length_c   9.20971000
_cell_angle_alpha   121.15098204
_cell_angle_beta   119.59959448
_cell_angle_gamma   89.35651205
_symmetry_Int_Tables_number   1
_chemical_formula_structural   Be2CrIr
_chemical_formula_sum   'Be2 Cr1 Ir1'
_cell_volume   549.06242590
_cell_formula_units_Z   1
loop_
 _symmetry_equiv_pos_site_id
 _symmetry_equiv_pos_as_xyz
  1  'x, y, z'
loop_
 _atom_site_type_symbol
 _atom_site_label
 _atom_site_symmetry_multiplicity
 _atom_site_fract_x
 _atom_site_fract_y
 _atom_site_fract_z
 _atom_site_occupancy
  Be  Be0  1  0.00000000  0.26866400  0.26866400  1
  Be  Be1  1  0.00000000  0.73133600  0.73133600  1
  Cr  Cr2  1  0.00000000  0.00000000  0.00000000  1
  Ir  Ir3  1  0.00000000  0.50000000  0.50000000  1
