# generated using pymatgen
data_MnH16C4N(OF2)2
_symmetry_space_group_name_H-M   'P 1'
_cell_length_a   8.60223877
_cell_length_b   8.60223877
_cell_length_c   10.87107522
_cell_angle_alpha   82.56723685
_cell_angle_beta   82.56723685
_cell_angle_gamma   38.07429802
_symmetry_Int_Tables_number   1
_chemical_formula_structural   MnH16C4N(OF2)2
_chemical_formula_sum   'Mn2 H32 C8 N2 O4 F8'
_cell_volume   491.41931057
_cell_formula_units_Z   2
loop_
 _symmetry_equiv_pos_site_id
 _symmetry_equiv_pos_as_xyz
  1  'x, y, z'
loop_
 _atom_site_type_symbol
 _atom_site_label
 _atom_site_symmetry_multiplicity
 _atom_site_fract_x
 _atom_site_fract_y
 _atom_site_fract_z
 _atom_site_occupancy
  Mn  Mn0  1  0.00000000  0.50000000  0.50000000  1
  Mn  Mn1  1  0.50000000  0.00000000  0.00000000  1
  H  H2  1  0.25682100  0.21048700  0.27497900  1
  H  H3  1  0.78951300  0.74317900  0.22502100  1
  H  H4  1  0.74317900  0.78951300  0.72502100  1
  H  H5  1  0.21048700  0.25682100  0.77497900  1
  H  H6  1  0.41176000  0.01681400  0.38776700  1
  H  H7  1  0.98318600  0.58824000  0.11223300  1
  H  H8  1  0.58824000  0.98318600  0.61223300  1
  H  H9  1  0.01681400  0.41176000  0.88776700  1
  H  H10  1  0.79048100  0.39528400  0.09482900  1
  H  H11  1  0.60471600  0.20951900  0.40517100  1
  H  H12  1  0.20951900  0.60471600  0.90517100  1
  H  H13  1  0.39528400  0.79048100  0.59482900  1
  H  H14  1  0.00155100  0.19687000  0.21973500  1
  H  H15  1  0.80313000  0.99844900  0.28026500  1
  H  H16  1  0.99844900  0.80313000  0.78026500  1
  H  H17  1  0.19687000  0.00155100  0.71973500  1
  H  H18  1  0.96060200  0.07906800  0.12228800  1
  H  H19  1  0.92093200  0.03939800  0.37771200  1
  H  H20  1  0.03939800  0.92093200  0.87771200  1
  H  H21  1  0.07906800  0.96060200  0.62228800  1
  H  H22  1  0.47052900  0.70719700  0.25798400  1
  H  H23  1  0.29280300  0.52947100  0.24201600  1
  H  H24  1  0.52947100  0.29280300  0.74201600  1
  H  H25  1  0.70719700  0.47052900  0.75798400  1
  H  H26  1  0.39744200  0.61420400  0.38657700  1
  H  H27  1  0.38579600  0.60255800  0.11342300  1
  H  H28  1  0.60255800  0.38579600  0.61342300  1
  H  H29  1  0.61420400  0.39744200  0.88657700  1
  H  H30  1  0.69575700  0.48154700  0.37584600  1
  H  H31  1  0.51845300  0.30424300  0.12415400  1
  H  H32  1  0.30424300  0.51845300  0.62415400  1
  H  H33  1  0.48154700  0.69575700  0.87584600  1
  C  C34  1  0.86738300  0.24709600  0.16487600  1
  C  C35  1  0.75290400  0.13261700  0.33512400  1
  C  C36  1  0.13261700  0.75290400  0.83512400  1
  C  C37  1  0.24709600  0.86738300  0.66487600  1
  C  C38  1  0.54688500  0.55307400  0.32357900  1
  C  C39  1  0.44692600  0.45311500  0.17642100  1
  C  C40  1  0.45311500  0.44692600  0.67642100  1
  C  C41  1  0.55307400  0.54688500  0.82357900  1
  N  N42  1  0.65415600  0.34584400  0.25000000  1
  N  N43  1  0.34584400  0.65415600  0.75000000  1
  O  O44  1  0.23878600  0.18244900  0.36455300  1
  O  O45  1  0.81755100  0.76121400  0.13544700  1
  O  O46  1  0.76121400  0.81755100  0.63544700  1
  O  O47  1  0.18244900  0.23878600  0.86455300  1
  F  F48  1  0.14952600  0.57445000  0.43948000  1
  F  F49  1  0.42555000  0.85047400  0.06052000  1
  F  F50  1  0.85047400  0.42555000  0.56052000  1
  F  F51  1  0.57444900  0.14952600  0.93948000  1
  F  F52  1  0.74012600  0.74096800  0.38081500  1
  F  F53  1  0.25903200  0.25987400  0.11918500  1
  F  F54  1  0.25987400  0.25903200  0.61918500  1
  F  F55  1  0.74096800  0.74012600  0.88081500  1
