# generated using pymatgen
data_ZrH27C8N2Cl5O2
_symmetry_space_group_name_H-M   'P 1'
_cell_length_a   7.31682700
_cell_length_b   14.71384100
_cell_length_c   19.74957400
_cell_angle_alpha   90.00000000
_cell_angle_beta   90.00000000
_cell_angle_gamma   90.00000000
_symmetry_Int_Tables_number   1
_chemical_formula_structural   ZrH27C8N2Cl5O2
_chemical_formula_sum   'Zr4 H108 C32 N8 Cl20 O8'
_cell_volume   2126.21206220
_cell_formula_units_Z   4
loop_
 _symmetry_equiv_pos_site_id
 _symmetry_equiv_pos_as_xyz
  1  'x, y, z'
loop_
 _atom_site_type_symbol
 _atom_site_label
 _atom_site_symmetry_multiplicity
 _atom_site_fract_x
 _atom_site_fract_y
 _atom_site_fract_z
 _atom_site_occupancy
  Zr  Zr0  1  0.72435400  0.02576300  0.35178200  1
  Zr  Zr1  1  0.77564600  0.97423700  0.85178200  1
  Zr  Zr2  1  0.22435400  0.47423700  0.64821800  1
  Zr  Zr3  1  0.27564600  0.52576300  0.14821800  1
  H  H4  1  0.94256900  0.96980300  0.46897500  1
  H  H5  1  0.55743100  0.03019700  0.96897500  1
  H  H6  1  0.44256900  0.53019700  0.53102500  1
  H  H7  1  0.05743100  0.46980300  0.03102500  1
  H  H8  1  0.79140200  0.13493000  0.10182200  1
  H  H9  1  0.70859800  0.86507000  0.60182200  1
  H  H10  1  0.29140200  0.36507000  0.89817800  1
  H  H11  1  0.20859800  0.63493000  0.39817800  1
  H  H12  1  0.44243900  0.43468700  0.40461800  1
  H  H13  1  0.05756100  0.56531300  0.90461800  1
  H  H14  1  0.94243900  0.06531300  0.59538200  1
  H  H15  1  0.55756100  0.93468700  0.09538200  1
  H  H16  1  0.06680700  0.07089000  0.13868000  1
  H  H17  1  0.43319300  0.92911000  0.63868000  1
  H  H18  1  0.56680700  0.42911000  0.86132000  1
  H  H19  1  0.93319300  0.57089000  0.36132000  1
  H  H20  1  0.19296200  0.16734200  0.10769300  1
  H  H21  1  0.30703800  0.83265800  0.60769300  1
  H  H22  1  0.69296200  0.33265800  0.89230700  1
  H  H23  1  0.80703800  0.66734200  0.39230700  1
  H  H24  1  0.07806200  0.09252500  0.04958500  1
  H  H25  1  0.42193800  0.90747500  0.54958500  1
  H  H26  1  0.57806200  0.40747500  0.95041500  1
  H  H27  1  0.92193800  0.59252500  0.45041500  1
  H  H28  1  0.94717200  0.18612000  0.21137200  1
  H  H29  1  0.55282800  0.81388000  0.71137200  1
  H  H30  1  0.44717200  0.31388000  0.78862800  1
  H  H31  1  0.05282800  0.68612000  0.28862800  1
  H  H32  1  0.75162800  0.24767000  0.18062600  1
  H  H33  1  0.74837200  0.75233000  0.68062600  1
  H  H34  1  0.25162800  0.25233000  0.81937400  1
  H  H35  1  0.24837200  0.74767000  0.31937400  1
  H  H36  1  0.97902900  0.29166100  0.16725300  1
  H  H37  1  0.52097100  0.70833900  0.66725300  1
  H  H38  1  0.47902900  0.20833900  0.83274700  1
  H  H39  1  0.02097100  0.79166100  0.33274700  1
  H  H40  1  0.75442800  0.28061800  0.05242700  1
  H  H41  1  0.74557200  0.71938200  0.55242700  1
  H  H42  1  0.25442800  0.21938200  0.94757300  1
  H  H43  1  0.24557200  0.78061800  0.44757300  1
  H  H44  1  0.88277500  0.20411600  0.99918800  1
  H  H45  1  0.61722500  0.79588400  0.49918800  1
  H  H46  1  0.38277500  0.29588400  0.00081200  1
  H  H47  1  0.11722500  0.70411600  0.50081200  1
  H  H48  1  0.99809900  0.29146800  0.04659500  1
  H  H49  1  0.50190100  0.70853200  0.54659500  1
  H  H50  1  0.49809900  0.20853200  0.95340500  1
  H  H51  1  0.00190100  0.79146800  0.45340500  1
  H  H52  1  0.18872300  0.94477300  0.36158300  1
  H  H53  1  0.31127700  0.05522700  0.86158300  1
  H  H54  1  0.68872300  0.55522700  0.63841700  1
  H  H55  1  0.81127700  0.44477300  0.13841700  1
  H  H56  1  0.23297000  0.96017200  0.45025300  1
  H  H57  1  0.26703000  0.03982800  0.95025300  1
  H  H58  1  0.73297000  0.53982800  0.54974700  1
  H  H59  1  0.76703000  0.46017200  0.04974700  1
  H  H60  1  0.19771900  0.05657800  0.39672600  1
  H  H61  1  0.30228100  0.94342200  0.89672600  1
  H  H62  1  0.69771900  0.44342200  0.60327400  1
  H  H63  1  0.80228100  0.55657800  0.10327400  1
  H  H64  1  0.25219900  0.07641000  0.27236900  1
  H  H65  1  0.24780100  0.92359000  0.77236900  1
  H  H66  1  0.75219900  0.42359000  0.72763100  1
  H  H67  1  0.74780100  0.57641000  0.22763100  1
  H  H68  1  0.41325200  0.09639700  0.20494200  1
  H  H69  1  0.08674800  0.90360300  0.70494200  1
  H  H70  1  0.91325200  0.40360300  0.79505800  1
  H  H71  1  0.58674800  0.59639700  0.29505800  1
  H  H72  1  0.37282100  0.18202900  0.26745300  1
  H  H73  1  0.12717900  0.81797100  0.76745300  1
  H  H74  1  0.87282100  0.31797100  0.73254700  1
  H  H75  1  0.62717900  0.68202900  0.23254700  1
  H  H76  1  0.22423700  0.33997500  0.34447600  1
  H  H77  1  0.27576300  0.66002500  0.84447600  1
  H  H78  1  0.72423700  0.16002500  0.65552400  1
  H  H79  1  0.77576300  0.83997500  0.15552400  1
  H  H80  1  0.22686400  0.31922600  0.43402800  1
  H  H81  1  0.27313600  0.68077400  0.93402800  1
  H  H82  1  0.72686400  0.18077400  0.56597200  1
  H  H83  1  0.77313600  0.81922600  0.06597200  1
  H  H84  1  0.33974900  0.24160900  0.37761800  1
  H  H85  1  0.16025100  0.75839100  0.87761800  1
  H  H86  1  0.83974900  0.25839100  0.62238200  1
  H  H87  1  0.66025100  0.74160900  0.12238200  1
  H  H88  1  0.69283200  0.41855200  0.33422200  1
  H  H89  1  0.80716800  0.58144800  0.83422200  1
  H  H90  1  0.19283200  0.08144800  0.66577800  1
  H  H91  1  0.30716800  0.91855200  0.16577800  1
  H  H92  1  0.48958300  0.39007500  0.28778200  1
  H  H93  1  0.01041700  0.60992500  0.78778200  1
  H  H94  1  0.98958300  0.10992500  0.71221800  1
  H  H95  1  0.51041700  0.89007500  0.21221800  1
  H  H96  1  0.63924900  0.30137500  0.31881200  1
  H  H97  1  0.86075100  0.69862500  0.81881200  1
  H  H98  1  0.13924900  0.19862500  0.68118800  1
  H  H99  1  0.36075100  0.80137500  0.18118800  1
  H  H100  1  0.72214400  0.36767000  0.45029100  1
  H  H101  1  0.77785600  0.63233000  0.95029100  1
  H  H102  1  0.22214400  0.13233000  0.54970900  1
  H  H103  1  0.27785600  0.86767000  0.04970900  1
  H  H104  1  0.60913900  0.25920700  0.44556200  1
  H  H105  1  0.89086100  0.74079300  0.94556200  1
  H  H106  1  0.10913900  0.24079300  0.55443800  1
  H  H107  1  0.39086100  0.75920700  0.05443800  1
  H  H108  1  0.51693800  0.34782400  0.49840300  1
  H  H109  1  0.98306200  0.65217600  0.99840300  1
  H  H110  1  0.01693800  0.15217600  0.50159700  1
  H  H111  1  0.48306200  0.84782400  0.00159700  1
  C  C112  1  0.07305300  0.12390500  0.09977200  1
  C  C113  1  0.42694700  0.87609500  0.59977200  1
  C  C114  1  0.57305300  0.37609500  0.90022800  1
  C  C115  1  0.92694700  0.62390500  0.40022800  1
  C  C116  1  0.89484900  0.23002800  0.17093300  1
  C  C117  1  0.60515100  0.76997200  0.67093300  1
  C  C118  1  0.39484900  0.26997200  0.82906700  1
  C  C119  1  0.10515100  0.73002800  0.32906700  1
  C  C120  1  0.88347900  0.24359900  0.04638100  1
  C  C121  1  0.61652100  0.75640100  0.54638100  1
  C  C122  1  0.38347900  0.25640100  0.95361900  1
  C  C123  1  0.11652100  0.74359900  0.45361900  1
  C  C124  1  0.15771200  0.98588000  0.40635900  1
  C  C125  1  0.34228800  0.01412000  0.90635900  1
  C  C126  1  0.65771200  0.51412000  0.59364100  1
  C  C127  1  0.84228800  0.48588000  0.09364100  1
  C  C128  1  0.38373000  0.10809400  0.25891500  1
  C  C129  1  0.11627000  0.89190600  0.75891500  1
  C  C130  1  0.88373000  0.39190600  0.74108500  1
  C  C131  1  0.61627000  0.60809400  0.24108500  1
  C  C132  1  0.30422700  0.31296200  0.38680800  1
  C  C133  1  0.19577300  0.68703800  0.88680800  1
  C  C134  1  0.80422700  0.18703800  0.61319200  1
  C  C135  1  0.69577300  0.81296200  0.11319200  1
  C  C136  1  0.58178200  0.36906600  0.32864000  1
  C  C137  1  0.91821800  0.63093400  0.82864000  1
  C  C138  1  0.08178200  0.13093400  0.67136000  1
  C  C139  1  0.41821800  0.86906600  0.17136000  1
  C  C140  1  0.58961500  0.33290700  0.45114600  1
  C  C141  1  0.91038500  0.66709300  0.95114600  1
  C  C142  1  0.08961500  0.16709300  0.54885400  1
  C  C143  1  0.41038500  0.83290700  0.04885400  1
  N  N144  1  0.90395300  0.18006300  0.10491800  1
  N  N145  1  0.59604700  0.81993700  0.60491800  1
  N  N146  1  0.40395300  0.31993700  0.89508200  1
  N  N147  1  0.09604700  0.68006300  0.39508200  1
  N  N148  1  0.47666600  0.36620200  0.39328500  1
  N  N149  1  0.02333400  0.63379800  0.89328500  1
  N  N150  1  0.97666600  0.13379800  0.60671500  1
  N  N151  1  0.52333400  0.86620200  0.10671500  1
  Cl  Cl152  1  0.89996800  0.17347400  0.35168100  1
  Cl  Cl153  1  0.60003200  0.82652600  0.85168100  1
  Cl  Cl154  1  0.39996800  0.32652600  0.64831900  1
  Cl  Cl155  1  0.10003200  0.67347400  0.14831900  1
  Cl  Cl156  1  0.60056100  0.86610300  0.36705800  1
  Cl  Cl157  1  0.89943900  0.13389700  0.86705800  1
  Cl  Cl158  1  0.10056100  0.63389700  0.63294200  1
  Cl  Cl159  1  0.39943900  0.36610300  0.13294200  1
  Cl  Cl160  1  0.91106000  0.96761600  0.25389500  1
  Cl  Cl161  1  0.58894000  0.03238400  0.75389500  1
  Cl  Cl162  1  0.41106000  0.53238400  0.74610500  1
  Cl  Cl163  1  0.08894000  0.46761600  0.24610500  1
  Cl  Cl164  1  0.59357500  0.06658500  0.46565000  1
  Cl  Cl165  1  0.90642500  0.93341500  0.96565000  1
  Cl  Cl166  1  0.09357500  0.43341500  0.53435000  1
  Cl  Cl167  1  0.40642500  0.56658500  0.03435000  1
  Cl  Cl168  1  0.94857500  0.93226200  0.57234700  1
  Cl  Cl169  1  0.55142500  0.06773800  0.07234700  1
  Cl  Cl170  1  0.44857500  0.56773800  0.42765300  1
  Cl  Cl171  1  0.05142500  0.43226200  0.92765300  1
  O  O172  1  0.52515300  0.07137700  0.29824700  1
  O  O173  1  0.97484700  0.92862300  0.79824700  1
  O  O174  1  0.02515300  0.42862300  0.70175300  1
  O  O175  1  0.47484700  0.57137700  0.20175300  1
  O  O176  1  0.96390500  0.98055200  0.41975600  1
  O  O177  1  0.53609500  0.01944800  0.91975600  1
  O  O178  1  0.46390500  0.51944800  0.58024400  1
  O  O179  1  0.03609500  0.48055200  0.08024400  1
