# generated using pymatgen
data_ZnH16C3N8O7
_symmetry_space_group_name_H-M   'P 1'
_cell_length_a   8.21034901
_cell_length_b   8.21034901
_cell_length_c   10.52835642
_cell_angle_alpha   67.70202015
_cell_angle_beta   67.70202015
_cell_angle_gamma   83.08920301
_symmetry_Int_Tables_number   1
_chemical_formula_structural   ZnH16C3N8O7
_chemical_formula_sum   'Zn2 H32 C6 N16 O14'
_cell_volume   607.31094323
_cell_formula_units_Z   2
loop_
 _symmetry_equiv_pos_site_id
 _symmetry_equiv_pos_as_xyz
  1  'x, y, z'
loop_
 _atom_site_type_symbol
 _atom_site_label
 _atom_site_symmetry_multiplicity
 _atom_site_fract_x
 _atom_site_fract_y
 _atom_site_fract_z
 _atom_site_occupancy
  Zn  Zn0  1  0.92524300  0.08362500  0.00418300  1
  Zn  Zn1  1  0.08362500  0.92524300  0.50418300  1
  H  H2  1  0.61712800  0.98399900  0.00313900  1
  H  H3  1  0.98399900  0.61712800  0.50313900  1
  H  H4  1  0.76906500  0.90217200  0.89137900  1
  H  H5  1  0.90217200  0.76906500  0.39137900  1
  H  H6  1  0.64427400  0.65494700  0.10695500  1
  H  H7  1  0.65494700  0.64427400  0.60695500  1
  H  H8  1  0.14504000  0.86313000  0.88996200  1
  H  H9  1  0.86313000  0.14504000  0.38996200  1
  H  H10  1  0.16504900  0.05310600  0.74592400  1
  H  H11  1  0.05310600  0.16504900  0.24592400  1
  H  H12  1  0.41525200  0.97450800  0.84121500  1
  H  H13  1  0.97450800  0.41525200  0.34121500  1
  H  H14  1  0.03262600  0.40595300  0.78334000  1
  H  H15  1  0.40595300  0.03262600  0.28334000  1
  H  H16  1  0.86054300  0.33492700  0.76590500  1
  H  H17  1  0.33492700  0.86054300  0.26590500  1
  H  H18  1  0.75458400  0.55743600  0.86318700  1
  H  H19  1  0.55743600  0.75458400  0.36318700  1
  H  H20  1  0.06368600  0.51101300  0.01778600  1
  H  H21  1  0.51101300  0.06368600  0.51778600  1
  H  H22  1  0.18350500  0.60749900  0.83871600  1
  H  H23  1  0.60750000  0.18350500  0.33871600  1
  H  H24  1  0.31284000  0.55712600  0.06758800  1
  H  H25  1  0.55712600  0.31284000  0.56758800  1
  H  H26  1  0.42797200  0.62503100  0.88649500  1
  H  H27  1  0.62503100  0.42797200  0.38649500  1
  H  H28  1  0.34950100  0.40775600  0.98275400  1
  H  H29  1  0.40775600  0.34950100  0.48275400  1
  H  H30  1  0.12989400  0.75773600  0.18536800  1
  H  H31  1  0.75773600  0.12989400  0.68536800  1
  H  H32  1  0.21662200  0.61242600  0.28708700  1
  H  H33  1  0.61242600  0.21662200  0.78708700  1
  C  C34  1  0.81204300  0.71603200  0.19006400  1
  C  C35  1  0.71603200  0.81204300  0.69006400  1
  C  C36  1  0.28704600  0.12991600  0.96396100  1
  C  C37  1  0.12991600  0.28704600  0.46396100  1
  C  C38  1  0.68498000  0.35699300  0.06691400  1
  C  C39  1  0.35699300  0.68498000  0.56691400  1
  N  N40  1  0.73569600  0.92178200  0.98923100  1
  N  N41  1  0.92178200  0.73569600  0.48923100  1
  N  N42  1  0.71024000  0.75692500  0.10613000  1
  N  N43  1  0.75692500  0.71024000  0.60613000  1
  N  N44  1  0.15413600  0.99904500  0.85432800  1
  N  N45  1  0.99904500  0.15413600  0.35432800  1
  N  N46  1  0.30555900  0.04855900  0.86632800  1
  N  N47  1  0.04855900  0.30555900  0.36632800  1
  N  N48  1  0.91075900  0.34351300  0.84002800  1
  N  N49  1  0.34351300  0.91075900  0.34002800  1
  N  N50  1  0.79809500  0.44314700  0.92223400  1
  N  N51  1  0.44314700  0.79809500  0.42223400  1
  N  N52  1  0.32224700  0.53877100  0.97286800  1
  N  N53  1  0.53877100  0.32224700  0.47286800  1
  N  N54  1  0.16351200  0.60139600  0.94314600  1
  N  N55  1  0.60139600  0.16351200  0.44314600  1
  O  O56  1  0.91005800  0.83657000  0.17805100  1
  O  O57  1  0.83657000  0.91005800  0.67805100  1
  O  O58  1  0.79892600  0.55801200  0.28187700  1
  O  O59  1  0.55801200  0.79892600  0.78187700  1
  O  O60  1  0.13281300  0.17044300  0.03684500  1
  O  O61  1  0.17044300  0.13281300  0.53684500  1
  O  O62  1  0.42828300  0.16819200  0.97226500  1
  O  O63  1  0.16819200  0.42828300  0.47226500  1
  O  O64  1  0.71391600  0.19427600  0.13192300  1
  O  O65  1  0.19427600  0.71391600  0.63192300  1
  O  O66  1  0.56700400  0.44827700  0.12522400  1
  O  O67  1  0.44827700  0.56700400  0.62522400  1
  O  O68  1  0.24513800  0.71132800  0.19071000  1
  O  O69  1  0.71132800  0.24513800  0.69071000  1
