# generated using pymatgen
data_NiPH4ClO3
_symmetry_space_group_name_H-M   'P 1'
_cell_length_a   7.34602800
_cell_length_b   9.54351000
_cell_length_c   13.28189900
_cell_angle_alpha   90.00000000
_cell_angle_beta   90.00000000
_cell_angle_gamma   90.00000000
_symmetry_Int_Tables_number   1
_chemical_formula_structural   NiPH4ClO3
_chemical_formula_sum   'Ni8 P8 H32 Cl8 O24'
_cell_volume   931.15265447
_cell_formula_units_Z   8
loop_
 _symmetry_equiv_pos_site_id
 _symmetry_equiv_pos_as_xyz
  1  'x, y, z'
loop_
 _atom_site_type_symbol
 _atom_site_label
 _atom_site_symmetry_multiplicity
 _atom_site_fract_x
 _atom_site_fract_y
 _atom_site_fract_z
 _atom_site_occupancy
  Ni  Ni0  1  0.62109600  0.35647100  0.50361700  1
  Ni  Ni1  1  0.12109600  0.64352900  0.99638300  1
  Ni  Ni2  1  0.37890400  0.14352900  0.00361700  1
  Ni  Ni3  1  0.87890400  0.85647100  0.49638300  1
  Ni  Ni4  1  0.37890400  0.64352900  0.49638300  1
  Ni  Ni5  1  0.87890400  0.35647100  0.00361700  1
  Ni  Ni6  1  0.62109600  0.85647100  0.99638300  1
  Ni  Ni7  1  0.12109600  0.14352900  0.50361700  1
  P  P8  1  0.72224100  0.11025000  0.15266300  1
  P  P9  1  0.22224100  0.88975000  0.34733700  1
  P  P10  1  0.27775900  0.38975000  0.65266300  1
  P  P11  1  0.77775900  0.61025000  0.84733700  1
  P  P12  1  0.27775900  0.88975000  0.84733700  1
  P  P13  1  0.77775900  0.11025000  0.65266300  1
  P  P14  1  0.72224100  0.61025000  0.34733700  1
  P  P15  1  0.22224100  0.38975000  0.15266300  1
  H  H16  1  0.79853500  0.00951300  0.21752400  1
  H  H17  1  0.29853500  0.99048700  0.28247600  1
  H  H18  1  0.20146500  0.49048700  0.71752400  1
  H  H19  1  0.70146500  0.50951300  0.78247600  1
  H  H20  1  0.20146500  0.99048700  0.78247600  1
  H  H21  1  0.70146500  0.00951300  0.71752400  1
  H  H22  1  0.79853500  0.50951300  0.28247600  1
  H  H23  1  0.29853500  0.49048700  0.21752400  1
  H  H24  1  0.62717700  0.20581700  0.21441700  1
  H  H25  1  0.12717700  0.79418300  0.28558300  1
  H  H26  1  0.37282300  0.29418300  0.71441700  1
  H  H27  1  0.87282300  0.70581700  0.78558300  1
  H  H28  1  0.37282300  0.79418300  0.78558300  1
  H  H29  1  0.87282300  0.20581700  0.71441700  1
  H  H30  1  0.62717700  0.70581700  0.28558300  1
  H  H31  1  0.12717700  0.29418300  0.21441700  1
  H  H32  1  0.06896100  0.07558800  0.09328300  1
  H  H33  1  0.56896100  0.92441200  0.40671700  1
  H  H34  1  0.93103900  0.42441200  0.59328300  1
  H  H35  1  0.43103900  0.57558800  0.90671700  1
  H  H36  1  0.93103900  0.92441200  0.90671700  1
  H  H37  1  0.43103900  0.07558800  0.59328300  1
  H  H38  1  0.06896100  0.57558800  0.40671700  1
  H  H39  1  0.56896100  0.42441200  0.09328300  1
  H  H40  1  0.20192800  0.94042800  0.08929800  1
  H  H41  1  0.70192800  0.05957200  0.41070200  1
  H  H42  1  0.79807200  0.55957200  0.58929800  1
  H  H43  1  0.29807200  0.44042800  0.91070200  1
  H  H44  1  0.79807200  0.05957200  0.91070200  1
  H  H45  1  0.29807200  0.94042800  0.58929800  1
  H  H46  1  0.20192800  0.44042800  0.41070200  1
  H  H47  1  0.70192800  0.55957200  0.08929800  1
  Cl  Cl48  1  0.37387700  0.23658100  0.40142700  1
  Cl  Cl49  1  0.87387700  0.76341900  0.09857300  1
  Cl  Cl50  1  0.62612300  0.26341900  0.90142700  1
  Cl  Cl51  1  0.12612300  0.73658100  0.59857300  1
  Cl  Cl52  1  0.62612300  0.76341900  0.59857300  1
  Cl  Cl53  1  0.12612300  0.23658100  0.90142700  1
  Cl  Cl54  1  0.37387700  0.73658100  0.09857300  1
  Cl  Cl55  1  0.87387700  0.26341900  0.40142700  1
  O  O56  1  0.57988500  0.03610900  0.08574400  1
  O  O57  1  0.07988500  0.96389100  0.41425600  1
  O  O58  1  0.42011500  0.46389100  0.58574400  1
  O  O59  1  0.92011500  0.53610900  0.91425600  1
  O  O60  1  0.42011500  0.96389100  0.91425600  1
  O  O61  1  0.92011500  0.03610900  0.58574400  1
  O  O62  1  0.57988500  0.53610900  0.41425600  1
  O  O63  1  0.07988500  0.46389100  0.08574400  1
  O  O64  1  0.19724800  0.04241500  0.09858000  1
  O  O65  1  0.69724800  0.95758500  0.40142000  1
  O  O66  1  0.80275200  0.45758500  0.59858000  1
  O  O67  1  0.30275200  0.54241500  0.90142000  1
  O  O68  1  0.80275200  0.95758500  0.90142000  1
  O  O69  1  0.30275200  0.04241500  0.59858000  1
  O  O70  1  0.19724800  0.54241500  0.40142000  1
  O  O71  1  0.69724800  0.45758500  0.09858000  1
  O  O72  1  0.87856300  0.18219700  0.09629800  1
  O  O73  1  0.37856300  0.81780300  0.40370200  1
  O  O74  1  0.12143700  0.31780300  0.59629800  1
  O  O75  1  0.62143700  0.68219700  0.90370200  1
  O  O76  1  0.12143700  0.81780300  0.90370200  1
  O  O77  1  0.62143700  0.18219700  0.59629800  1
  O  O78  1  0.87856300  0.68219700  0.40370200  1
  O  O79  1  0.37856300  0.31780300  0.09629800  1
