# generated using pymatgen
data_MnP2H4O5
_symmetry_space_group_name_H-M   'P 1'
_cell_length_a   7.37685700
_cell_length_b   8.08154900
_cell_length_c   10.07717987
_cell_angle_alpha   75.54100177
_cell_angle_beta   90.00000000
_cell_angle_gamma   90.00000000
_symmetry_Int_Tables_number   1
_chemical_formula_structural   MnP2H4O5
_chemical_formula_sum   'Mn4 P8 H16 O20'
_cell_volume   581.73719635
_cell_formula_units_Z   4
loop_
 _symmetry_equiv_pos_site_id
 _symmetry_equiv_pos_as_xyz
  1  'x, y, z'
loop_
 _atom_site_type_symbol
 _atom_site_label
 _atom_site_symmetry_multiplicity
 _atom_site_fract_x
 _atom_site_fract_y
 _atom_site_fract_z
 _atom_site_occupancy
  Mn  Mn0  1  0.53232500  0.79438500  0.59437200  1
  Mn  Mn1  1  0.03232500  0.20561500  0.90562800  1
  Mn  Mn2  1  0.46767500  0.20561500  0.40562800  1
  Mn  Mn3  1  0.96767500  0.79438500  0.09437200  1
  P  P4  1  0.67314000  0.96310300  0.84083200  1
  P  P5  1  0.17314000  0.03689700  0.65916800  1
  P  P6  1  0.32686000  0.03689700  0.15916800  1
  P  P7  1  0.82686000  0.96310300  0.34083200  1
  P  P8  1  0.88886400  0.53666400  0.69435500  1
  P  P9  1  0.38886400  0.46333600  0.80564500  1
  P  P10  1  0.11113600  0.46333600  0.30564500  1
  P  P11  1  0.61113600  0.53666400  0.19435500  1
  H  H12  1  0.54733700  0.85543800  0.92755000  1
  H  H13  1  0.04733700  0.14456200  0.57245000  1
  H  H14  1  0.45266300  0.14456200  0.07245000  1
  H  H15  1  0.95266300  0.85543800  0.42755000  1
  H  H16  1  0.59641600  0.12839700  0.80920000  1
  H  H17  1  0.09641600  0.87160300  0.69080000  1
  H  H18  1  0.40358400  0.87160300  0.19080000  1
  H  H19  1  0.90358400  0.12839700  0.30920000  1
  H  H20  1  0.05087600  0.60808800  0.62674100  1
  H  H21  1  0.55087600  0.39191200  0.87325900  1
  H  H22  1  0.94912400  0.39191200  0.37325900  1
  H  H23  1  0.44912400  0.60808800  0.12674100  1
  H  H24  1  0.88409800  0.59696300  0.81535900  1
  H  H25  1  0.38409800  0.40303700  0.68464100  1
  H  H26  1  0.11590200  0.40303700  0.18464100  1
  H  H27  1  0.61590200  0.59696300  0.31535900  1
  O  O28  1  0.84911500  0.97241400  0.92216000  1
  O  O29  1  0.34911500  0.02758600  0.57784000  1
  O  O30  1  0.15088500  0.02758600  0.07784000  1
  O  O31  1  0.65088500  0.97241400  0.42216000  1
  O  O32  1  0.69784100  0.90213700  0.71016300  1
  O  O33  1  0.19784100  0.09786300  0.78983700  1
  O  O34  1  0.30215900  0.09786300  0.28983700  1
  O  O35  1  0.80215900  0.90213700  0.21016300  1
  O  O36  1  0.72924200  0.60676800  0.59997500  1
  O  O37  1  0.22924200  0.39323200  0.90002500  1
  O  O38  1  0.27075800  0.39323200  0.40002500  1
  O  O39  1  0.77075800  0.60676800  0.09997500  1
  O  O40  1  0.90745600  0.34126200  0.73318500  1
  O  O41  1  0.40745600  0.65873800  0.76681500  1
  O  O42  1  0.09254400  0.65873800  0.26681500  1
  O  O43  1  0.59254400  0.34126200  0.23318500  1
  O  O44  1  0.38185700  0.71936900  0.48813000  1
  O  O45  1  0.88185700  0.28063100  0.01187000  1
  O  O46  1  0.61814300  0.28063100  0.51187000  1
  O  O47  1  0.11814300  0.71936900  0.98813000  1
