# generated using pymatgen
data_K4Ti3Mn(PO4)6
_symmetry_space_group_name_H-M   'P 1'
_cell_length_a   10.02292900
_cell_length_b   10.05369500
_cell_length_c   10.05663861
_cell_angle_alpha   89.96755952
_cell_angle_beta   90.00000000
_cell_angle_gamma   90.00000000
_symmetry_Int_Tables_number   1
_chemical_formula_structural   K4Ti3Mn(PO4)6
_chemical_formula_sum   'K8 Ti6 Mn2 P12 O48'
_cell_volume   1013.38187899
_cell_formula_units_Z   2
loop_
 _symmetry_equiv_pos_site_id
 _symmetry_equiv_pos_as_xyz
  1  'x, y, z'
loop_
 _atom_site_type_symbol
 _atom_site_label
 _atom_site_symmetry_multiplicity
 _atom_site_fract_x
 _atom_site_fract_y
 _atom_site_fract_z
 _atom_site_occupancy
  K  K0  1  0.06394200  0.19033100  0.06254700  1
  K  K1  1  0.79696200  0.05197500  0.71146800  1
  K  K2  1  0.29696200  0.94802500  0.28853200  1
  K  K3  1  0.56394200  0.80966900  0.93745300  1
  K  K4  1  0.93215500  0.67784700  0.43072600  1
  K  K5  1  0.20340600  0.54185000  0.80613700  1
  K  K6  1  0.70340600  0.45815000  0.19386300  1
  K  K7  1  0.43215500  0.32215300  0.56927400  1
  Ti  Ti8  1  0.41524900  0.16683300  0.91272000  1
  Ti  Ti9  1  0.63980100  0.10847800  0.35716900  1
  Ti  Ti10  1  0.13980100  0.89152200  0.64283100  1
  Ti  Ti11  1  0.91524900  0.83316700  0.08728000  1
  Ti  Ti12  1  0.58815800  0.65992300  0.58782200  1
  Ti  Ti13  1  0.08815800  0.34007700  0.41217800  1
  Mn  Mn14  1  0.35507800  0.60502600  0.14619800  1
  Mn  Mn15  1  0.85507800  0.39497400  0.85380200  1
  P  P16  1  0.13246900  0.20851400  0.72330600  1
  P  P17  1  0.72386700  0.11612800  0.04329300  1
  P  P18  1  0.95897400  0.02472000  0.37268300  1
  P  P19  1  0.45897400  0.97528000  0.62731700  1
  P  P20  1  0.22386700  0.88387200  0.95670700  1
  P  P21  1  0.63246900  0.79148600  0.27669400  1
  P  P22  1  0.87701300  0.71080300  0.77044600  1
  P  P23  1  0.26974400  0.62791100  0.46267500  1
  P  P24  1  0.03992300  0.52061400  0.12690000  1
  P  P25  1  0.53992300  0.47938600  0.87310000  1
  P  P26  1  0.76974400  0.37208900  0.53732500  1
  P  P27  1  0.37701300  0.28919700  0.22955400  1
  O  O28  1  0.35657000  0.24593900  0.08219000  1
  O  O29  1  0.79853400  0.21421400  0.95703600  1
  O  O30  1  0.27032700  0.22611000  0.79286000  1
  O  O31  1  0.47187900  0.18617000  0.29930800  1
  O  O32  1  0.72489000  0.16277500  0.19182800  1
  O  O33  1  0.00512900  0.17027200  0.35231800  1
  O  O34  1  0.57610500  0.09668600  0.99862900  1
  O  O35  1  0.08864700  0.05971700  0.72485900  1
  O  O36  1  0.47947500  0.05102400  0.75983100  1
  O  O37  1  0.54750800  0.04825900  0.52329800  1
  O  O38  1  0.81172500  0.02203500  0.42044900  1
  O  O39  1  0.29448700  0.02112300  0.96914600  1
  O  O40  1  0.79448700  0.97887700  0.03085400  1
  O  O41  1  0.31172500  0.97796500  0.57955100  1
  O  O42  1  0.04750800  0.95174100  0.47670200  1
  O  O43  1  0.97947500  0.94897600  0.24016900  1
  O  O44  1  0.58864700  0.94028300  0.27514100  1
  O  O45  1  0.07610500  0.90331400  0.00137100  1
  O  O46  1  0.50512900  0.82972800  0.64768200  1
  O  O47  1  0.22489000  0.83722500  0.80817200  1
  O  O48  1  0.97187900  0.81383000  0.70069200  1
  O  O49  1  0.77032700  0.77389000  0.20714000  1
  O  O50  1  0.29853400  0.78578600  0.04296400  1
  O  O51  1  0.85657000  0.75406100  0.91781000  1
  O  O52  1  0.65047200  0.74714900  0.42372800  1
  O  O53  1  0.19854600  0.72515300  0.56204200  1
  O  O54  1  0.74108600  0.72693800  0.69635900  1
  O  O55  1  0.53196800  0.70884300  0.20072900  1
  O  O56  1  0.25678900  0.68317400  0.32288600  1
  O  O57  1  0.99929700  0.67128000  0.14590200  1
  O  O58  1  0.41773700  0.60892100  0.50563500  1
  O  O59  1  0.93499600  0.57213600  0.75692800  1
  O  O60  1  0.53026300  0.54574900  0.73047800  1
  O  O61  1  0.43794800  0.55151600  0.95770800  1
  O  O62  1  0.18098300  0.50917000  0.07331900  1
  O  O63  1  0.69789900  0.50847600  0.51731300  1
  O  O64  1  0.19789900  0.49152400  0.48268700  1
  O  O65  1  0.68098300  0.49083000  0.92668100  1
  O  O66  1  0.93794800  0.44848400  0.04229200  1
  O  O67  1  0.03026300  0.45425100  0.26952200  1
  O  O68  1  0.43499600  0.42786400  0.24307200  1
  O  O69  1  0.91773700  0.39107900  0.49436500  1
  O  O70  1  0.49929700  0.32872000  0.85409800  1
  O  O71  1  0.75678900  0.31682600  0.67711400  1
  O  O72  1  0.03196800  0.29115700  0.79927100  1
  O  O73  1  0.24108600  0.27306200  0.30364100  1
  O  O74  1  0.69854600  0.27484700  0.43795800  1
  O  O75  1  0.15047200  0.25285100  0.57627200  1
