# generated using pymatgen
data_K4NbFe3(PO4)6
_symmetry_space_group_name_H-M   'P 1'
_cell_length_a   10.06044800
_cell_length_b   10.06015600
_cell_length_c   10.06192933
_cell_angle_alpha   89.60980554
_cell_angle_beta   90.00000000
_cell_angle_gamma   90.00000000
_symmetry_Int_Tables_number   1
_chemical_formula_structural   K4NbFe3(PO4)6
_chemical_formula_sum   'K8 Nb2 Fe6 P12 O48'
_cell_volume   1018.34099529
_cell_formula_units_Z   2
loop_
 _symmetry_equiv_pos_site_id
 _symmetry_equiv_pos_as_xyz
  1  'x, y, z'
loop_
 _atom_site_type_symbol
 _atom_site_label
 _atom_site_symmetry_multiplicity
 _atom_site_fract_x
 _atom_site_fract_y
 _atom_site_fract_z
 _atom_site_occupancy
  K  K0  1  0.93399200  0.18608900  0.93004000  1
  K  K1  1  0.20569000  0.04353400  0.29676400  1
  K  K2  1  0.70569000  0.95646600  0.70323600  1
  K  K3  1  0.43399200  0.81391100  0.06996000  1
  K  K4  1  0.06761400  0.67948500  0.56384000  1
  K  K5  1  0.79398600  0.54477000  0.20879900  1
  K  K6  1  0.29398600  0.45523000  0.79120100  1
  K  K7  1  0.56761400  0.32051500  0.43616000  1
  Nb  Nb8  1  0.58695800  0.16677100  0.08835400  1
  Nb  Nb9  1  0.08695800  0.83322900  0.91164600  1
  Fe  Fe10  1  0.35538600  0.10760100  0.64058500  1
  Fe  Fe11  1  0.85538600  0.89239900  0.35941500  1
  Fe  Fe12  1  0.41498500  0.66122600  0.41630200  1
  Fe  Fe13  1  0.64441300  0.60487100  0.85188000  1
  Fe  Fe14  1  0.14441300  0.39512900  0.14812000  1
  Fe  Fe15  1  0.91498500  0.33877400  0.58369800  1
  P  P16  1  0.87865800  0.20748800  0.27439000  1
  P  P17  1  0.26982300  0.12772600  0.95694200  1
  P  P18  1  0.04193600  0.02463600  0.62225000  1
  P  P19  1  0.54193600  0.97536400  0.37775000  1
  P  P20  1  0.76982300  0.87227400  0.04305800  1
  P  P21  1  0.37865800  0.79251200  0.72561000  1
  P  P22  1  0.12547200  0.70766100  0.23310500  1
  P  P23  1  0.72826700  0.62395200  0.54137000  1
  P  P24  1  0.95705600  0.51614900  0.87526400  1
  P  P25  1  0.45705600  0.48385100  0.12473600  1
  P  P26  1  0.22826700  0.37604800  0.45863000  1
  P  P27  1  0.62547200  0.29233900  0.76689500  1
  O  O28  1  0.64539500  0.24810100  0.91840700  1
  O  O29  1  0.20218800  0.22523100  0.04977100  1
  O  O30  1  0.74249800  0.22564400  0.19270100  1
  O  O31  1  0.52196300  0.20074600  0.70421900  1
  O  O32  1  0.26461800  0.17221200  0.81175300  1
  O  O33  1  0.99731600  0.16634900  0.65257900  1
  O  O34  1  0.41700200  0.10129500  0.00215700  1
  O  O35  1  0.92171300  0.06133100  0.26382600  1
  O  O36  1  0.52413900  0.05708400  0.24150500  1
  O  O37  1  0.45165600  0.04922300  0.47503900  1
  O  O38  1  0.18796900  0.01373700  0.57872300  1
  O  O39  1  0.69568300  0.00872900  0.02232800  1
  O  O40  1  0.19568300  0.99127100  0.97767200  1
  O  O41  1  0.68796900  0.98626300  0.42127700  1
  O  O42  1  0.95165600  0.95077700  0.52496100  1
  O  O43  1  0.02413900  0.94291600  0.75849500  1
  O  O44  1  0.42171300  0.93866900  0.73617400  1
  O  O45  1  0.91700200  0.89870500  0.99784300  1
  O  O46  1  0.49731600  0.83365100  0.34742100  1
  O  O47  1  0.76461800  0.82778800  0.18824700  1
  O  O48  1  0.02196300  0.79925400  0.29578100  1
  O  O49  1  0.24249800  0.77435600  0.80729900  1
  O  O50  1  0.70218800  0.77476900  0.95022900  1
  O  O51  1  0.14539500  0.75189900  0.08159300  1
  O  O52  1  0.34722700  0.74836100  0.58406200  1
  O  O53  1  0.79819800  0.72847300  0.45231500  1
  O  O54  1  0.25907000  0.73067600  0.30239100  1
  O  O55  1  0.47516300  0.70135000  0.80045500  1
  O  O56  1  0.73488200  0.67198800  0.68789700  1
  O  O57  1  0.00071700  0.66792800  0.85431000  1
  O  O58  1  0.58293100  0.60058700  0.49867300  1
  O  O59  1  0.07746300  0.56281800  0.23404600  1
  O  O60  1  0.48077100  0.55278400  0.25796100  1
  O  O61  1  0.54945900  0.54676300  0.02153000  1
  O  O62  1  0.81209700  0.51576600  0.92310900  1
  O  O63  1  0.30564300  0.50736800  0.47941400  1
  O  O64  1  0.80564300  0.49263200  0.52058600  1
  O  O65  1  0.31209700  0.48423400  0.07689100  1
  O  O66  1  0.04945900  0.45323700  0.97847000  1
  O  O67  1  0.98077100  0.44721600  0.74203900  1
  O  O68  1  0.57746300  0.43718200  0.76595400  1
  O  O69  1  0.08293100  0.39941300  0.50132700  1
  O  O70  1  0.50071700  0.33207200  0.14569000  1
  O  O71  1  0.23488200  0.32801200  0.31210300  1
  O  O72  1  0.97516300  0.29865000  0.19954500  1
  O  O73  1  0.75907000  0.26932400  0.69760900  1
  O  O74  1  0.29819800  0.27152700  0.54768500  1
  O  O75  1  0.84722700  0.25163900  0.41593800  1
