# generated using pymatgen
data_Ca3YMn3B4O15
_symmetry_space_group_name_H-M   'P 1'
_cell_length_a   6.03610600
_cell_length_b   10.64387300
_cell_length_c   10.65023362
_cell_angle_alpha   60.32643339
_cell_angle_beta   90.00000000
_cell_angle_gamma   90.00000000
_symmetry_Int_Tables_number   1
_chemical_formula_structural   Ca3YMn3B4O15
_chemical_formula_sum   'Ca6 Y2 Mn6 B8 O30'
_cell_volume   594.51864728
_cell_formula_units_Z   2
loop_
 _symmetry_equiv_pos_site_id
 _symmetry_equiv_pos_as_xyz
  1  'x, y, z'
loop_
 _atom_site_type_symbol
 _atom_site_label
 _atom_site_symmetry_multiplicity
 _atom_site_fract_x
 _atom_site_fract_y
 _atom_site_fract_z
 _atom_site_occupancy
  Ca  Ca0  1  0.50000000  0.84879200  0.26360700  1
  Ca  Ca1  1  0.00000000  0.68692500  0.13759000  1
  Ca  Ca2  1  0.50000000  0.26286000  0.89018100  1
  Ca  Ca3  1  0.00000000  0.17827700  0.68649400  1
  Ca  Ca4  1  0.00000000  0.33331800  0.33203900  1
  Ca  Ca5  1  0.00000000  0.13491800  0.17522100  1
  Y  Y6  1  0.50000000  0.89436700  0.84832500  1
  Y  Y7  1  0.50000000  0.66488300  0.66698600  1
  Mn  Mn8  1  0.25086900  0.00021600  0.49789100  1
  Mn  Mn9  1  0.25235300  0.49856900  0.50125500  1
  Mn  Mn10  1  0.74764700  0.49856900  0.50125500  1
  Mn  Mn11  1  0.25201700  0.50286000  0.99970500  1
  Mn  Mn12  1  0.74798300  0.50286000  0.99970500  1
  Mn  Mn13  1  0.74913100  0.00021600  0.49789100  1
  B  B14  1  0.00000000  0.78550800  0.76984800  1
  B  B15  1  0.25759900  0.99780500  0.99774900  1
  B  B16  1  0.74240100  0.99780500  0.99774900  1
  B  B17  1  0.00000000  0.76574200  0.45315500  1
  B  B18  1  0.00000000  0.45259400  0.78204000  1
  B  B19  1  0.50000000  0.54768200  0.22073300  1
  B  B20  1  0.50000000  0.23128200  0.55051800  1
  B  B21  1  0.50000000  0.22072600  0.23158800  1
  O  O22  1  0.20552800  0.83292700  0.69922100  1
  O  O23  1  0.79447200  0.83292700  0.69922100  1
  O  O24  1  0.50000000  0.89868200  0.47628900  1
  O  O25  1  0.00000000  0.68920600  0.91512500  1
  O  O26  1  0.00000000  0.91262800  0.39997700  1
  O  O27  1  0.50000000  0.63288500  0.89987700  1
  O  O28  1  0.20443500  0.69423900  0.47975400  1
  O  O29  1  0.79556500  0.69423900  0.47975400  1
  O  O30  1  0.20491400  0.48090800  0.82614100  1
  O  O31  1  0.79508600  0.48090800  0.82614100  1
  O  O32  1  0.27576800  0.84950400  0.05519500  1
  O  O33  1  0.72423200  0.84950400  0.05519500  1
  O  O34  1  0.50000000  0.47359600  0.62616300  1
  O  O35  1  0.50000000  0.59647800  0.31966900  1
  O  O36  1  0.00000000  0.39641600  0.69081400  1
  O  O37  1  0.00000000  0.52296700  0.38406700  1
  O  O38  1  0.70139800  0.52239700  0.17321600  1
  O  O39  1  0.29860200  0.52239700  0.17321600  1
  O  O40  1  0.70084700  0.30347800  0.52298000  1
  O  O41  1  0.29915300  0.30347800  0.52298000  1
  O  O42  1  0.27426600  0.07919100  0.84874900  1
  O  O43  1  0.72573400  0.07919100  0.84874900  1
  O  O44  1  0.00000000  0.38425600  0.09115700  1
  O  O45  1  0.50000000  0.08139500  0.60460900  1
  O  O46  1  0.50000000  0.32010400  0.08458700  1
  O  O47  1  0.00000000  0.09442700  0.52162100  1
  O  O48  1  0.70085900  0.17239200  0.30444000  1
  O  O49  1  0.29914100  0.17239200  0.30444000  1
  O  O50  1  0.26695500  0.06005900  0.08256300  1
  O  O51  1  0.73304500  0.06005900  0.08256300  1
