# generated using pymatgen
data_Mn3Mo2H34C22N16O5
_symmetry_space_group_name_H-M   'P 1'
_cell_length_a   14.57980738
_cell_length_b   14.57980738
_cell_length_c   13.66970215
_cell_angle_alpha   66.45112444
_cell_angle_beta   113.54887556
_cell_angle_gamma   128.69119629
_symmetry_Int_Tables_number   1
_chemical_formula_structural   Mn3Mo2H34C22N16O5
_chemical_formula_sum   'Mn6 Mo4 H68 C44 N32 O10'
_cell_volume   2033.09438655
_cell_formula_units_Z   2
loop_
 _symmetry_equiv_pos_site_id
 _symmetry_equiv_pos_as_xyz
  1  'x, y, z'
loop_
 _atom_site_type_symbol
 _atom_site_label
 _atom_site_symmetry_multiplicity
 _atom_site_fract_x
 _atom_site_fract_y
 _atom_site_fract_z
 _atom_site_occupancy
  Mn  Mn0  1  0.06720102  0.06720102  0.25000000  1
  Mn  Mn1  1  0.93279898  0.93279898  0.75000000  1
  Mn  Mn2  1  0.30402198  0.72877009  0.53957388  1
  Mn  Mn3  1  0.72877009  0.30402198  0.96042612  1
  Mn  Mn4  1  0.69597802  0.27122991  0.46042612  1
  Mn  Mn5  1  0.27122991  0.69597802  0.03957388  1
  Mo  Mo6  1  0.05312985  0.33851752  0.82628895  1
  Mo  Mo7  1  0.33851752  0.05312985  0.67371105  1
  Mo  Mo8  1  0.94687015  0.66148248  0.17371105  1
  Mo  Mo9  1  0.66148248  0.94687015  0.32628895  1
  H  H10  1  0.25569781  0.32021588  0.23157765  1
  H  H11  1  0.32021588  0.25569781  0.26842235  1
  H  H12  1  0.74430219  0.67978412  0.76842235  1
  H  H13  1  0.67978412  0.74430219  0.73157765  1
  H  H14  1  0.46167497  0.64984372  0.64211778  1
  H  H15  1  0.64984372  0.46167497  0.85788222  1
  H  H16  1  0.53832503  0.35015628  0.35788222  1
  H  H17  1  0.35015628  0.53832503  0.14211778  1
  H  H18  1  0.37655468  0.58891651  0.72198585  1
  H  H19  1  0.58891651  0.37655468  0.77801415  1
  H  H20  1  0.62344532  0.41108349  0.27801415  1
  H  H21  1  0.41108349  0.62344532  0.22198585  1
  H  H22  1  0.62809803  0.54576633  0.96672860  1
  H  H23  1  0.54576633  0.62809803  0.53327140  1
  H  H24  1  0.37190197  0.45423367  0.03327140  1
  H  H25  1  0.45423367  0.37190197  0.46672860  1
  H  H26  1  0.51171350  0.49243108  0.87727839  1
  H  H27  1  0.49243108  0.51171350  0.62272161  1
  H  H28  1  0.48828650  0.50756892  0.12272161  1
  H  H29  1  0.50756892  0.48828650  0.37727839  1
  H  H30  1  0.53289759  0.17015735  0.11012559  1
  H  H31  1  0.17015735  0.53289759  0.38987441  1
  H  H32  1  0.46710241  0.82984265  0.88987441  1
  H  H33  1  0.82984265  0.46710241  0.61012559  1
  H  H34  1  0.47741019  0.25760929  0.00709130  1
  H  H35  1  0.25760929  0.47741019  0.49290870  1
  H  H36  1  0.52258981  0.74239071  0.99290870  1
  H  H37  1  0.74239071  0.52258981  0.50709130  1
  H  H38  1  0.49881573  0.24771479  0.14867399  1
  H  H39  1  0.24771479  0.49881573  0.35132601  1
  H  H40  1  0.50118427  0.75228521  0.85132601  1
  H  H41  1  0.75228521  0.50118427  0.64867399  1
  H  H42  1  0.37758010  0.00286721  0.02402080  1
  H  H43  1  0.00286721  0.37758010  0.47597920  1
  H  H44  1  0.62241990  0.99713279  0.97597920  1
  H  H45  1  0.99713279  0.62241990  0.52402080  1
  H  H46  1  0.22274635  0.93539802  0.01740063  1
  H  H47  1  0.93539802  0.22274635  0.48259937  1
  H  H48  1  0.77725365  0.06460198  0.98259937  1
  H  H49  1  0.06460198  0.77725365  0.51740063  1
  H  H50  1  0.30197405  0.07285532  0.92528699  1
  H  H51  1  0.07285532  0.30197405  0.57471301  1
  H  H52  1  0.69802595  0.92714468  0.07471301  1
  H  H53  1  0.92714468  0.69802595  0.42528699  1
  H  H54  1  0.29012325  0.18609422  0.10890883  1
  H  H55  1  0.18609422  0.29012325  0.39109117  1
  H  H56  1  0.70987675  0.81390578  0.89109117  1
  H  H57  1  0.81390578  0.70987675  0.60890883  1
  H  H58  1  0.25926745  0.17818322  0.97168791  1
  H  H59  1  0.17818322  0.25926745  0.52831209  1
  H  H60  1  0.74073255  0.82181678  0.02831209  1
  H  H61  1  0.82181678  0.74073255  0.47168791  1
  H  H62  1  0.17017719  0.04821764  0.06437056  1
  H  H63  1  0.04821764  0.17017719  0.43562944  1
  H  H64  1  0.82982281  0.95178236  0.93562944  1
  H  H65  1  0.95178236  0.82982281  0.56437056  1
  H  H66  1  0.39653012  0.97929871  0.22250493  1
  H  H67  1  0.97929871  0.39653012  0.27749507  1
  H  H68  1  0.60346988  0.02070129  0.77749507  1
  H  H69  1  0.02070129  0.60346988  0.72250493  1
  H  H70  1  0.36636934  0.06093871  0.26024431  1
  H  H71  1  0.06093871  0.36636934  0.23975569  1
  H  H72  1  0.63363066  0.93906129  0.73975569  1
  H  H73  1  0.93906129  0.63363066  0.76024431  1
  H  H74  1  0.24519604  0.93338831  0.20063817  1
  H  H75  1  0.93338831  0.24519604  0.29936183  1
  H  H76  1  0.75480396  0.06661169  0.79936183  1
  H  H77  1  0.06661169  0.75480396  0.70063817  1
  C  C78  1  0.04767709  0.22424479  0.99220999  1
  C  C79  1  0.22424479  0.04767709  0.50779001  1
  C  C80  1  0.95232291  0.77575521  0.00779001  1
  C  C81  1  0.77575521  0.95232291  0.49220999  1
  C  C82  1  0.11988172  0.48365769  0.68892410  1
  C  C83  1  0.48365769  0.11988172  0.81107590  1
  C  C84  1  0.88011828  0.51634231  0.31107590  1
  C  C85  1  0.51634231  0.88011828  0.18892410  1
  C  C86  1  0.82071762  0.99281086  0.29381630  1
  C  C87  1  0.99281086  0.82071762  0.20618370  1
  C  C88  1  0.17928238  0.00718914  0.70618370  1
  C  C89  1  0.00718914  0.17928238  0.79381630  1
  C  C90  1  0.90511610  0.29367259  0.68957940  1
  C  C91  1  0.29367259  0.90511610  0.81042060  1
  C  C92  1  0.09488390  0.70632741  0.31042060  1
  C  C93  1  0.70632741  0.09488390  0.18957940  1
  C  C94  1  0.92254619  0.33784709  0.86414883  1
  C  C95  1  0.33784709  0.92254619  0.63585117  1
  C  C96  1  0.07745381  0.66215291  0.13585117  1
  C  C97  1  0.66215291  0.07745381  0.36414883  1
  C  C98  1  0.15686975  0.49041666  0.90656519  1
  C  C99  1  0.49041666  0.15686975  0.59343481  1
  C  C100  1  0.84313025  0.50958334  0.09343481  1
  C  C101  1  0.50958334  0.84313025  0.40656519  1
  C  C102  1  0.23914090  0.38619592  0.85157342  1
  C  C103  1  0.38619592  0.23914090  0.64842658  1
  C  C104  1  0.76085910  0.61380408  0.14842658  1
  C  C105  1  0.61380408  0.76085910  0.35157342  1
  C  C106  1  0.47259900  0.19923375  0.08844874  1
  C  C107  1  0.19923375  0.47259900  0.41155126  1
  C  C108  1  0.52740100  0.80076625  0.91155126  1
  C  C109  1  0.80076625  0.52740100  0.58844874  1
  C  C110  1  0.30963718  0.02039062  0.00821319  1
  C  C111  1  0.02039062  0.30963718  0.49178681  1
  C  C112  1  0.69036282  0.97960938  0.99178681  1
  C  C113  1  0.97960938  0.69036282  0.50821319  1
  C  C114  1  0.26035605  0.12815561  0.05627255  1
  C  C115  1  0.12815561  0.26035605  0.44372745  1
  C  C116  1  0.73964395  0.87184439  0.94372745  1
  C  C117  1  0.87184439  0.73964395  0.55627255  1
  C  C118  1  0.33808643  0.01046205  0.20099538  1
  C  C119  1  0.01046205  0.33808643  0.29900462  1
  C  C120  1  0.66191357  0.98953795  0.79900462  1
  C  C121  1  0.98953795  0.66191357  0.70099538  1
  N  N122  1  0.04260478  0.16093571  0.07913900  1
  N  N123  1  0.16093571  0.04260478  0.42086100  1
  N  N124  1  0.95739522  0.83906429  0.92086100  1
  N  N125  1  0.83906429  0.95739522  0.57913900  1
  N  N126  1  0.16578235  0.56448342  0.61847986  1
  N  N127  1  0.56448342  0.16578235  0.88152014  1
  N  N128  1  0.83421765  0.43551658  0.38152014  1
  N  N129  1  0.43551658  0.83421765  0.11847986  1
  N  N130  1  0.91241553  0.02278257  0.28304386  1
  N  N131  1  0.02278257  0.91241553  0.21695614  1
  N  N132  1  0.08758447  0.97721743  0.71695614  1
  N  N133  1  0.97721743  0.08758447  0.78304386  1
  N  N134  1  0.82521127  0.27037408  0.61314184  1
  N  N135  1  0.27037408  0.82521127  0.88685816  1
  N  N136  1  0.17478873  0.72962592  0.38685816  1
  N  N137  1  0.72962592  0.17478873  0.11314184  1
  N  N138  1  0.85542500  0.33752905  0.89139432  1
  N  N139  1  0.33752905  0.85542500  0.60860568  1
  N  N140  1  0.14457500  0.66247095  0.10860568  1
  N  N141  1  0.66247095  0.14457500  0.39139432  1
  N  N142  1  0.20938409  0.56896290  0.95196186  1
  N  N143  1  0.56896290  0.20938409  0.54803814  1
  N  N144  1  0.79061591  0.43103710  0.04803814  1
  N  N145  1  0.43103710  0.79061591  0.45196186  1
  N  N146  1  0.34088274  0.42304801  0.86485288  1
  N  N147  1  0.42304801  0.34088274  0.63514712  1
  N  N148  1  0.65911726  0.57695199  0.13514712  1
  N  N149  1  0.57695199  0.65911726  0.36485288  1
  N  N150  1  0.34564988  0.09018534  0.08856721  1
  N  N151  1  0.09018534  0.34564988  0.41143279  1
  N  N152  1  0.65435012  0.90981466  0.91143279  1
  N  N153  1  0.90981466  0.65435012  0.58856721  1
  O  O154  1  0.24103174  0.24103174  0.25000000  1
  O  O155  1  0.75896826  0.75896826  0.75000000  1
  O  O156  1  0.42474110  0.66599786  0.67531885  1
  O  O157  1  0.66599786  0.42474110  0.82468115  1
  O  O158  1  0.57525890  0.33400214  0.32468115  1
  O  O159  1  0.33400214  0.57525890  0.17531885  1
  O  O160  1  0.59918745  0.52913201  0.89381209  1
  O  O161  1  0.52913201  0.59918745  0.60618791  1
  O  O162  1  0.40081255  0.47086799  0.10618791  1
  O  O163  1  0.47086799  0.40081255  0.39381209  1
