# generated using pymatgen
data_CsFeH24(SO10)2
_symmetry_space_group_name_H-M   'P 1'
_cell_length_a   12.45183400
_cell_length_b   12.45183400
_cell_length_c   12.45183400
_cell_angle_alpha   90.00000000
_cell_angle_beta   90.00000000
_cell_angle_gamma   90.00000000
_symmetry_Int_Tables_number   1
_chemical_formula_structural   CsFeH24(SO10)2
_chemical_formula_sum   'Cs4 Fe4 H96 S8 O80'
_cell_volume   1930.63407439
_cell_formula_units_Z   4
loop_
 _symmetry_equiv_pos_site_id
 _symmetry_equiv_pos_as_xyz
  1  'x, y, z'
loop_
 _atom_site_type_symbol
 _atom_site_label
 _atom_site_symmetry_multiplicity
 _atom_site_fract_x
 _atom_site_fract_y
 _atom_site_fract_z
 _atom_site_occupancy
  Cs  Cs0  1  0.00000000  0.00000000  0.50000000  1
  Cs  Cs1  1  0.00000000  0.50000000  0.00000000  1
  Cs  Cs2  1  0.50000000  0.00000000  0.00000000  1
  Cs  Cs3  1  0.50000000  0.50000000  0.50000000  1
  Fe  Fe4  1  0.50000000  0.50000000  0.00000000  1
  Fe  Fe5  1  0.50000000  0.00000000  0.50000000  1
  Fe  Fe6  1  0.00000000  0.50000000  0.50000000  1
  Fe  Fe7  1  0.00000000  0.00000000  0.00000000  1
  H  H8  1  0.22190700  0.50937100  0.23018600  1
  H  H9  1  0.77809300  0.00937100  0.26981400  1
  H  H10  1  0.27809300  0.49062900  0.73018600  1
  H  H11  1  0.72190700  0.99062900  0.76981400  1
  H  H12  1  0.23018600  0.22190700  0.50937100  1
  H  H13  1  0.26981400  0.77809300  0.00937100  1
  H  H14  1  0.73018600  0.27809300  0.49062900  1
  H  H15  1  0.76981400  0.72190700  0.99062900  1
  H  H16  1  0.50937100  0.23018600  0.22190700  1
  H  H17  1  0.00937100  0.26981400  0.77809300  1
  H  H18  1  0.49062900  0.73018600  0.27809300  1
  H  H19  1  0.99062900  0.76981400  0.72190700  1
  H  H20  1  0.77809300  0.49062900  0.76981400  1
  H  H21  1  0.22190700  0.99062900  0.73018600  1
  H  H22  1  0.72190700  0.50937100  0.26981400  1
  H  H23  1  0.27809300  0.00937100  0.23018600  1
  H  H24  1  0.76981400  0.77809300  0.49062900  1
  H  H25  1  0.73018600  0.22190700  0.99062900  1
  H  H26  1  0.26981400  0.72190700  0.50937100  1
  H  H27  1  0.23018600  0.27809300  0.00937100  1
  H  H28  1  0.49062900  0.76981400  0.77809300  1
  H  H29  1  0.99062900  0.73018600  0.22190700  1
  H  H30  1  0.50937100  0.26981400  0.72190700  1
  H  H31  1  0.00937100  0.23018600  0.27809300  1
  H  H32  1  0.18191300  0.62803400  0.22103500  1
  H  H33  1  0.81808700  0.12803400  0.27896500  1
  H  H34  1  0.31808700  0.37196600  0.72103500  1
  H  H35  1  0.68191300  0.87196600  0.77896500  1
  H  H36  1  0.22103500  0.18191300  0.62803400  1
  H  H37  1  0.27896500  0.81808700  0.12803400  1
  H  H38  1  0.72103500  0.31808700  0.37196600  1
  H  H39  1  0.77896500  0.68191300  0.87196600  1
  H  H40  1  0.62803400  0.22103500  0.18191300  1
  H  H41  1  0.12803400  0.27896500  0.81808700  1
  H  H42  1  0.37196600  0.72103500  0.31808700  1
  H  H43  1  0.87196600  0.77896500  0.68191300  1
  H  H44  1  0.81808700  0.37196600  0.77896500  1
  H  H45  1  0.18191300  0.87196600  0.72103500  1
  H  H46  1  0.68191300  0.62803400  0.27896500  1
  H  H47  1  0.31808700  0.12803400  0.22103500  1
  H  H48  1  0.77896500  0.81808700  0.37196600  1
  H  H49  1  0.72103500  0.18191300  0.87196600  1
  H  H50  1  0.27896500  0.68191300  0.62803400  1
  H  H51  1  0.22103500  0.31808700  0.12803400  1
  H  H52  1  0.37196600  0.77896500  0.81808700  1
  H  H53  1  0.87196600  0.72103500  0.18191300  1
  H  H54  1  0.62803400  0.27896500  0.68191300  1
  H  H55  1  0.12803400  0.22103500  0.31808700  1
  H  H56  1  0.47750500  0.71053200  0.93498000  1
  H  H57  1  0.52249500  0.21053200  0.56502000  1
  H  H58  1  0.02249500  0.28946800  0.43498000  1
  H  H59  1  0.97750500  0.78946800  0.06502000  1
  H  H60  1  0.93498000  0.47750500  0.71053200  1
  H  H61  1  0.56502000  0.52249500  0.21053200  1
  H  H62  1  0.43498000  0.02249500  0.28946800  1
  H  H63  1  0.06502000  0.97750500  0.78946800  1
  H  H64  1  0.71053200  0.93498000  0.47750500  1
  H  H65  1  0.21053200  0.56502000  0.52249500  1
  H  H66  1  0.28946800  0.43498000  0.02249500  1
  H  H67  1  0.78946800  0.06502000  0.97750500  1
  H  H68  1  0.52249500  0.28946800  0.06502000  1
  H  H69  1  0.47750500  0.78946800  0.43498000  1
  H  H70  1  0.97750500  0.71053200  0.56502000  1
  H  H71  1  0.02249500  0.21053200  0.93498000  1
  H  H72  1  0.06502000  0.52249500  0.28946800  1
  H  H73  1  0.43498000  0.47750500  0.78946800  1
  H  H74  1  0.56502000  0.97750500  0.71053200  1
  H  H75  1  0.93498000  0.02249500  0.21053200  1
  H  H76  1  0.28946800  0.06502000  0.52249500  1
  H  H77  1  0.78946800  0.43498000  0.47750500  1
  H  H78  1  0.71053200  0.56502000  0.97750500  1
  H  H79  1  0.21053200  0.93498000  0.02249500  1
  H  H80  1  0.52292800  0.70627000  0.06068900  1
  H  H81  1  0.47707200  0.20627000  0.43931100  1
  H  H82  1  0.97707200  0.29373000  0.56068900  1
  H  H83  1  0.02292800  0.79373000  0.93931100  1
  H  H84  1  0.06068900  0.52292800  0.70627000  1
  H  H85  1  0.43931100  0.47707200  0.20627000  1
  H  H86  1  0.56068900  0.97707200  0.29373000  1
  H  H87  1  0.93931100  0.02292800  0.79373000  1
  H  H88  1  0.70627000  0.06068900  0.52292800  1
  H  H89  1  0.20627000  0.43931100  0.47707200  1
  H  H90  1  0.29373000  0.56068900  0.97707200  1
  H  H91  1  0.79373000  0.93931100  0.02292800  1
  H  H92  1  0.47707200  0.29373000  0.93931100  1
  H  H93  1  0.52292800  0.79373000  0.56068900  1
  H  H94  1  0.02292800  0.70627000  0.43931100  1
  H  H95  1  0.97707200  0.20627000  0.06068900  1
  H  H96  1  0.93931100  0.47707200  0.29373000  1
  H  H97  1  0.56068900  0.52292800  0.79373000  1
  H  H98  1  0.43931100  0.02292800  0.70627000  1
  H  H99  1  0.06068900  0.97707200  0.20627000  1
  H  H100  1  0.29373000  0.93931100  0.47707200  1
  H  H101  1  0.79373000  0.56068900  0.52292800  1
  H  H102  1  0.70627000  0.43931100  0.02292800  1
  H  H103  1  0.20627000  0.06068900  0.97707200  1
  S  S104  1  0.17212100  0.82787900  0.32787900  1
  S  S105  1  0.82787900  0.32787900  0.17212100  1
  S  S106  1  0.32787900  0.17212100  0.82787900  1
  S  S107  1  0.67212100  0.67212100  0.67212100  1
  S  S108  1  0.82787900  0.17212100  0.67212100  1
  S  S109  1  0.17212100  0.67212100  0.82787900  1
  S  S110  1  0.67212100  0.82787900  0.17212100  1
  S  S111  1  0.32787900  0.32787900  0.32787900  1
  O  O112  1  0.24175000  0.75825000  0.25825000  1
  O  O113  1  0.75825000  0.25825000  0.24175000  1
  O  O114  1  0.25825000  0.24175000  0.75825000  1
  O  O115  1  0.74175000  0.74175000  0.74175000  1
  O  O116  1  0.75825000  0.24175000  0.74175000  1
  O  O117  1  0.24175000  0.74175000  0.75825000  1
  O  O118  1  0.74175000  0.75825000  0.24175000  1
  O  O119  1  0.25825000  0.25825000  0.25825000  1
  O  O120  1  0.06210800  0.78061100  0.33536000  1
  O  O121  1  0.93789200  0.28061100  0.16464000  1
  O  O122  1  0.43789200  0.21938900  0.83536000  1
  O  O123  1  0.56210800  0.71938900  0.66464000  1
  O  O124  1  0.33536000  0.06210800  0.78061100  1
  O  O125  1  0.16464000  0.93789200  0.28061100  1
  O  O126  1  0.83536000  0.43789200  0.21938900  1
  O  O127  1  0.66464000  0.56210800  0.71938900  1
  O  O128  1  0.78061100  0.33536000  0.06210800  1
  O  O129  1  0.28061100  0.16464000  0.93789200  1
  O  O130  1  0.21938900  0.83536000  0.43789200  1
  O  O131  1  0.71938900  0.66464000  0.56210800  1
  O  O132  1  0.93789200  0.21938900  0.66464000  1
  O  O133  1  0.06210800  0.71938900  0.83536000  1
  O  O134  1  0.56210800  0.78061100  0.16464000  1
  O  O135  1  0.43789200  0.28061100  0.33536000  1
  O  O136  1  0.66464000  0.93789200  0.21938900  1
  O  O137  1  0.83536000  0.06210800  0.71938900  1
  O  O138  1  0.16464000  0.56210800  0.78061100  1
  O  O139  1  0.33536000  0.43789200  0.28061100  1
  O  O140  1  0.21938900  0.66464000  0.93789200  1
  O  O141  1  0.71938900  0.83536000  0.06210800  1
  O  O142  1  0.78061100  0.16464000  0.56210800  1
  O  O143  1  0.28061100  0.33536000  0.43789200  1
  O  O144  1  0.15850400  0.55306900  0.20922600  1
  O  O145  1  0.84149600  0.05306900  0.29077400  1
  O  O146  1  0.34149600  0.44693100  0.70922600  1
  O  O147  1  0.65850400  0.94693100  0.79077400  1
  O  O148  1  0.20922600  0.15850400  0.55306900  1
  O  O149  1  0.29077400  0.84149600  0.05306900  1
  O  O150  1  0.70922600  0.34149600  0.44693100  1
  O  O151  1  0.79077400  0.65850400  0.94693100  1
  O  O152  1  0.55306900  0.20922600  0.15850400  1
  O  O153  1  0.05306900  0.29077400  0.84149600  1
  O  O154  1  0.44693100  0.70922600  0.34149600  1
  O  O155  1  0.94693100  0.79077400  0.65850400  1
  O  O156  1  0.84149600  0.44693100  0.79077400  1
  O  O157  1  0.15850400  0.94693100  0.70922600  1
  O  O158  1  0.65850400  0.55306900  0.29077400  1
  O  O159  1  0.34149600  0.05306900  0.20922600  1
  O  O160  1  0.79077400  0.84149600  0.44693100  1
  O  O161  1  0.70922600  0.15850400  0.94693100  1
  O  O162  1  0.29077400  0.65850400  0.55306900  1
  O  O163  1  0.20922600  0.34149600  0.05306900  1
  O  O164  1  0.44693100  0.79077400  0.84149600  1
  O  O165  1  0.94693100  0.70922600  0.15850400  1
  O  O166  1  0.55306900  0.29077400  0.65850400  1
  O  O167  1  0.05306900  0.20922600  0.34149600  1
  O  O168  1  0.50018000  0.66221300  0.99743800  1
  O  O169  1  0.49982000  0.16221300  0.50256200  1
  O  O170  1  0.99982000  0.33778700  0.49743800  1
  O  O171  1  0.00018000  0.83778700  0.00256200  1
  O  O172  1  0.99743800  0.50018000  0.66221300  1
  O  O173  1  0.50256200  0.49982000  0.16221300  1
  O  O174  1  0.49743800  0.99982000  0.33778700  1
  O  O175  1  0.00256200  0.00018000  0.83778700  1
  O  O176  1  0.66221300  0.99743800  0.50018000  1
  O  O177  1  0.16221300  0.50256200  0.49982000  1
  O  O178  1  0.33778700  0.49743800  0.99982000  1
  O  O179  1  0.83778700  0.00256200  0.00018000  1
  O  O180  1  0.49982000  0.33778700  0.00256200  1
  O  O181  1  0.50018000  0.83778700  0.49743800  1
  O  O182  1  0.00018000  0.66221300  0.50256200  1
  O  O183  1  0.99982000  0.16221300  0.99743800  1
  O  O184  1  0.00256200  0.49982000  0.33778700  1
  O  O185  1  0.49743800  0.50018000  0.83778700  1
  O  O186  1  0.50256200  0.00018000  0.66221300  1
  O  O187  1  0.99743800  0.99982000  0.16221300  1
  O  O188  1  0.33778700  0.00256200  0.49982000  1
  O  O189  1  0.83778700  0.49743800  0.50018000  1
  O  O190  1  0.66221300  0.50256200  0.00018000  1
  O  O191  1  0.16221300  0.99743800  0.99982000  1
