# generated using pymatgen
data_MnPH2(CO)4
_symmetry_space_group_name_H-M   'P 1'
_cell_length_a   9.83644300
_cell_length_b   9.12172900
_cell_length_c   13.02297287
_cell_angle_alpha   67.62150826
_cell_angle_beta   90.00000000
_cell_angle_gamma   90.00000000
_symmetry_Int_Tables_number   1
_chemical_formula_structural   MnPH2(CO)4
_chemical_formula_sum   'Mn6 P6 H12 C24 O24'
_cell_volume   1080.49081894
_cell_formula_units_Z   6
loop_
 _symmetry_equiv_pos_site_id
 _symmetry_equiv_pos_as_xyz
  1  'x, y, z'
loop_
 _atom_site_type_symbol
 _atom_site_label
 _atom_site_symmetry_multiplicity
 _atom_site_fract_x
 _atom_site_fract_y
 _atom_site_fract_z
 _atom_site_occupancy
  Mn  Mn0  1  0.78134200  0.74704700  0.63033500  1
  Mn  Mn1  1  0.21865800  0.25295300  0.36966500  1
  Mn  Mn2  1  0.78134200  0.25295300  0.86966500  1
  Mn  Mn3  1  0.21865800  0.74704700  0.13033500  1
  Mn  Mn4  1  0.39947500  0.50000000  0.75000000  1
  Mn  Mn5  1  0.60052500  0.50000000  0.25000000  1
  P  P6  1  0.87984300  0.50000000  0.75000000  1
  P  P7  1  0.12015700  0.50000000  0.25000000  1
  P  P8  1  0.57713900  0.61096700  0.61644300  1
  P  P9  1  0.42286100  0.38903300  0.38355700  1
  P  P10  1  0.57713900  0.38903300  0.88355700  1
  P  P11  1  0.42286100  0.61096700  0.11644300  1
  H  H12  1  0.97769100  0.54154100  0.81453800  1
  H  H13  1  0.02230900  0.45845900  0.18546200  1
  H  H14  1  0.97769100  0.45845900  0.68546200  1
  H  H15  1  0.02230900  0.54154100  0.31453800  1
  H  H16  1  0.51532300  0.71204000  0.51576000  1
  H  H17  1  0.48467700  0.28796000  0.48424000  1
  H  H18  1  0.51532300  0.28796000  0.98424000  1
  H  H19  1  0.48467700  0.71204000  0.01576000  1
  H  H20  1  0.61554800  0.49238500  0.57594500  1
  H  H21  1  0.38445200  0.50761500  0.42405500  1
  H  H22  1  0.61554800  0.50761500  0.92405500  1
  H  H23  1  0.38445200  0.49238500  0.07594500  1
  C  C24  1  0.84811200  0.70435300  0.51132900  1
  C  C25  1  0.15188800  0.29564700  0.48867100  1
  C  C26  1  0.84811200  0.29564700  0.98867100  1
  C  C27  1  0.15188800  0.70435300  0.01132900  1
  C  C28  1  0.94032800  0.84528500  0.63767800  1
  C  C29  1  0.05967200  0.15471500  0.36232200  1
  C  C30  1  0.94032800  0.15471500  0.86232200  1
  C  C31  1  0.05967200  0.84528500  0.13767800  1
  C  C32  1  0.70106300  0.92874400  0.53557400  1
  C  C33  1  0.29893700  0.07125600  0.46442600  1
  C  C34  1  0.70106300  0.07125600  0.96442600  1
  C  C35  1  0.29893700  0.92874400  0.03557400  1
  C  C36  1  0.72527900  0.78315300  0.75453900  1
  C  C37  1  0.27472100  0.21684700  0.24546100  1
  C  C38  1  0.72527900  0.21684700  0.74546100  1
  C  C39  1  0.27472100  0.78315300  0.25453900  1
  C  C40  1  0.40049600  0.68630300  0.77643700  1
  C  C41  1  0.59950400  0.31369700  0.22356300  1
  C  C42  1  0.40049600  0.31369700  0.72356300  1
  C  C43  1  0.59950400  0.68630300  0.27643700  1
  C  C44  1  0.27394800  0.41399000  0.85967800  1
  C  C45  1  0.72605200  0.58601000  0.14032200  1
  C  C46  1  0.27394800  0.58601000  0.64032200  1
  C  C47  1  0.72605200  0.41399000  0.35967800  1
  O  O48  1  0.89272000  0.68220100  0.43623000  1
  O  O49  1  0.10728000  0.31779900  0.56377000  1
  O  O50  1  0.89272000  0.31779900  0.06377000  1
  O  O51  1  0.10728000  0.68220100  0.93623000  1
  O  O52  1  0.04010700  0.91021300  0.64279600  1
  O  O53  1  0.95989300  0.08978700  0.35720400  1
  O  O54  1  0.04010700  0.08978700  0.85720400  1
  O  O55  1  0.95989300  0.91021300  0.14279600  1
  O  O56  1  0.65068700  0.04311600  0.47362400  1
  O  O57  1  0.34931300  0.95688400  0.52637600  1
  O  O58  1  0.65068700  0.95688400  0.02637600  1
  O  O59  1  0.34931300  0.04311600  0.97362400  1
  O  O60  1  0.69970200  0.81404200  0.83085400  1
  O  O61  1  0.30029800  0.18595800  0.16914600  1
  O  O62  1  0.69970200  0.18595800  0.66914600  1
  O  O63  1  0.30029800  0.81404200  0.33085400  1
  O  O64  1  0.39480100  0.80221300  0.79285400  1
  O  O65  1  0.60519900  0.19778700  0.20714600  1
  O  O66  1  0.39480100  0.19778700  0.70714600  1
  O  O67  1  0.60519900  0.80221300  0.29285400  1
  O  O68  1  0.19375600  0.36012700  0.92932300  1
  O  O69  1  0.80624400  0.63987300  0.07067700  1
  O  O70  1  0.19375600  0.63987300  0.57067700  1
  O  O71  1  0.80624400  0.36012700  0.42932300  1
