# generated using pymatgen
data_ZnCrH28C6N12Cl5O8
_symmetry_space_group_name_H-M   'P 1'
_cell_length_a   10.73767200
_cell_length_b   11.00702572
_cell_length_c   13.41016768
_cell_angle_alpha   101.52490200
_cell_angle_beta   101.63142465
_cell_angle_gamma   108.61111492
_symmetry_Int_Tables_number   1
_chemical_formula_structural   ZnCrH28C6N12Cl5O8
_chemical_formula_sum   'Zn2 Cr2 H56 C12 N24 Cl10 O16'
_cell_volume   1410.39691810
_cell_formula_units_Z   2
loop_
 _symmetry_equiv_pos_site_id
 _symmetry_equiv_pos_as_xyz
  1  'x, y, z'
loop_
 _atom_site_type_symbol
 _atom_site_label
 _atom_site_symmetry_multiplicity
 _atom_site_fract_x
 _atom_site_fract_y
 _atom_site_fract_z
 _atom_site_occupancy
  Zn  Zn0  1  0.40652400  0.69814200  0.66957800  1
  Zn  Zn1  1  0.59347600  0.30185800  0.33042200  1
  Cr  Cr2  1  0.96005900  0.95729800  0.23790300  1
  Cr  Cr3  1  0.03994100  0.04270200  0.76209700  1
  H  H4  1  0.86948100  0.29086100  0.16416000  1
  H  H5  1  0.13051900  0.70913900  0.83584000  1
  H  H6  1  0.02254000  0.39319600  0.14566800  1
  H  H7  1  0.97746000  0.60680400  0.85433200  1
  H  H8  1  0.21747800  0.32353400  0.18210300  1
  H  H9  1  0.78252200  0.67646600  0.81789700  1
  H  H10  1  0.17908400  0.15698000  0.18680800  1
  H  H11  1  0.82091600  0.84302000  0.81319200  1
  H  H12  1  0.52362400  0.83365100  0.34992100  1
  H  H13  1  0.47637600  0.16634900  0.65007900  1
  H  H14  1  0.61959200  0.00228000  0.36602300  1
  H  H15  1  0.38040800  0.99772000  0.63397700  1
  H  H16  1  0.75649700  0.71359500  0.25023200  1
  H  H17  1  0.24350300  0.28640500  0.74976800  1
  H  H18  1  0.59828700  0.66770100  0.27547300  1
  H  H19  1  0.40171300  0.33229900  0.72452700  1
  H  H20  1  0.67195500  0.61708100  0.95767700  1
  H  H21  1  0.32804500  0.38291900  0.04232300  1
  H  H22  1  0.54940800  0.68362900  0.91489700  1
  H  H23  1  0.45059200  0.31637100  0.08510300  1
  H  H24  1  0.73088100  0.00133400  0.10364200  1
  H  H25  1  0.26911900  0.99866600  0.89635800  1
  H  H26  1  0.58263900  0.90199200  0.99807800  1
  H  H27  1  0.41736100  0.09800800  0.00192200  1
  H  H28  1  0.95838000  0.72609500  0.08168400  1
  H  H29  1  0.04162000  0.27390500  0.91831600  1
  H  H30  1  0.08943400  0.66201000  0.07550500  1
  H  H31  1  0.91056600  0.33799000  0.92449500  1
  H  H32  1  0.31595500  0.81615200  0.12474000  1
  H  H33  1  0.68404500  0.18384800  0.87526000  1
  H  H34  1  0.35299100  0.97782100  0.20209600  1
  H  H35  1  0.64700900  0.02217900  0.79790400  1
  H  H36  1  0.09304500  0.60655700  0.37622800  1
  H  H37  1  0.90695500  0.39344300  0.62377200  1
  H  H38  1  0.93785600  0.57539200  0.27965500  1
  H  H39  1  0.06214400  0.42460800  0.72034500  1
  H  H40  1  0.27080400  0.82399100  0.40281800  1
  H  H41  1  0.72919600  0.17600900  0.59718200  1
  H  H42  1  0.21455000  0.95587700  0.39292900  1
  H  H43  1  0.78545000  0.04412300  0.60707100  1
  H  H44  1  0.32979100  0.25971500  0.45634000  1
  H  H45  1  0.67020900  0.74028500  0.54366000  1
  H  H46  1  0.27400500  0.38128200  0.51803200  1
  H  H47  1  0.72599500  0.61871800  0.48196800  1
  H  H48  1  0.03009300  0.33249300  0.46837400  1
  H  H49  1  0.96990700  0.66750700  0.53162600  1
  H  H50  1  0.92085000  0.16795900  0.39446400  1
  H  H51  1  0.07915000  0.83204100  0.60553600  1
  H  H52  1  0.37724300  0.62504200  0.37411100  1
  H  H53  1  0.62275700  0.37495800  0.62588900  1
  H  H54  1  0.31382900  0.63183000  0.26106900  1
  H  H55  1  0.68617100  0.36817000  0.73893100  1
  H  H56  1  0.73019700  0.40729900  0.15324100  1
  H  H57  1  0.26980300  0.59270100  0.84675900  1
  H  H58  1  0.77689800  0.49495100  0.07913000  1
  H  H59  1  0.22310200  0.50504900  0.92087000  1
  C  C60  1  0.01778300  0.21546200  0.17599600  1
  C  C61  1  0.98221700  0.78453800  0.82400400  1
  C  C62  1  0.70240700  0.87043100  0.30558000  1
  C  C63  1  0.29759300  0.12956900  0.69442000  1
  C  C64  1  0.71291900  0.80881700  0.04332200  1
  C  C65  1  0.28708100  0.19118300  0.95667800  1
  C  C66  1  0.15065800  0.86548100  0.13699400  1
  C  C67  1  0.84934200  0.13451900  0.86300600  1
  C  C68  1  0.06442100  0.76994500  0.33766300  1
  C  C69  1  0.93557900  0.23005500  0.66233700  1
  C  C70  1  0.12369500  0.20175200  0.42297300  1
  C  C71  1  0.87630500  0.79824800  0.57702700  1
  N  N72  1  0.97000600  0.31288500  0.16773000  1
  N  N73  1  0.02999400  0.68711500  0.83227000  1
  N  N74  1  0.14850800  0.23469400  0.18105100  1
  N  N75  1  0.85149200  0.76530600  0.81894900  1
  N  N76  1  0.61024300  0.90516300  0.34613200  1
  N  N77  1  0.38975700  0.09483700  0.65386800  1
  N  N78  1  0.67882200  0.74053300  0.26655700  1
  N  N79  1  0.32117800  0.25946700  0.73344300  1
  N  N80  1  0.63560800  0.69253000  0.96856900  1
  N  N81  1  0.36439200  0.30747000  0.03143100  1
  N  N82  1  0.66809800  0.91001000  0.05231500  1
  N  N83  1  0.33190200  0.08999000  0.94768500  1
  N  N84  1  0.05922800  0.74187100  0.08915300  1
  N  N85  1  0.94077200  0.25812900  0.91084700  1
  N  N86  1  0.28502700  0.89333500  0.14517300  1
  N  N87  1  0.71497300  0.10666500  0.85482700  1
  N  N88  1  0.03103600  0.63975000  0.33059900  1
  N  N89  1  0.96896400  0.36025000  0.66940100  1
  N  N90  1  0.19249000  0.85771800  0.38907300  1
  N  N91  1  0.80751000  0.14228200  0.61092700  1
  N  N92  1  0.25267100  0.28615500  0.47480800  1
  N  N93  1  0.74732900  0.71384500  0.52519200  1
  N  N94  1  0.01726700  0.23777500  0.43022800  1
  N  N95  1  0.98273300  0.76222500  0.56977200  1
  Cl  Cl96  1  0.78339600  0.46879500  0.90788900  1
  Cl  Cl97  1  0.21660400  0.53120500  0.09211100  1
  Cl  Cl98  1  0.19294600  0.57752800  0.55450100  1
  Cl  Cl99  1  0.80705400  0.42247200  0.44549900  1
  Cl  Cl100  1  0.51648200  0.55421100  0.69122200  1
  Cl  Cl101  1  0.48351800  0.44578900  0.30877800  1
  Cl  Cl102  1  0.52396700  0.85924600  0.60288000  1
  Cl  Cl103  1  0.47603300  0.14075400  0.39712000  1
  Cl  Cl104  1  0.38991600  0.80441900  0.83367200  1
  Cl  Cl105  1  0.61008400  0.19558100  0.16632800  1
  O  O106  1  0.93346500  0.10425200  0.18000400  1
  O  O107  1  0.06653500  0.89574800  0.81999600  1
  O  O108  1  0.81035600  0.96476300  0.30406200  1
  O  O109  1  0.18964400  0.03523700  0.69593800  1
  O  O110  1  0.82619900  0.81765400  0.10457200  1
  O  O111  1  0.17380100  0.18234600  0.89542800  1
  O  O112  1  0.11521100  0.96298100  0.17335600  1
  O  O113  1  0.88478900  0.03701900  0.82664400  1
  O  O114  1  0.96861000  0.80595300  0.29472000  1
  O  O115  1  0.03139000  0.19404700  0.70528000  1
  O  O116  1  0.10614900  0.08437900  0.36752800  1
  O  O117  1  0.89385100  0.91562100  0.63247200  1
  O  O118  1  0.35568200  0.68624300  0.33633300  1
  O  O119  1  0.64431800  0.31375700  0.66366700  1
  O  O120  1  0.78566200  0.49792200  0.15431900  1
  O  O121  1  0.21433800  0.50207800  0.84568100  1
