# generated using pymatgen
data_CoH9(NO)6
_symmetry_space_group_name_H-M   'P 1'
_cell_length_a   6.91452700
_cell_length_b   10.27361400
_cell_length_c   11.75148100
_cell_angle_alpha   90.00000000
_cell_angle_beta   90.00000000
_cell_angle_gamma   90.00000000
_symmetry_Int_Tables_number   1
_chemical_formula_structural   CoH9(NO)6
_chemical_formula_sum   'Co4 H36 N24 O24'
_cell_volume   834.79208740
_cell_formula_units_Z   4
loop_
 _symmetry_equiv_pos_site_id
 _symmetry_equiv_pos_as_xyz
  1  'x, y, z'
loop_
 _atom_site_type_symbol
 _atom_site_label
 _atom_site_symmetry_multiplicity
 _atom_site_fract_x
 _atom_site_fract_y
 _atom_site_fract_z
 _atom_site_occupancy
  Co  Co0  1  0.24125300  0.68307100  0.74218900  1
  Co  Co1  1  0.74125300  0.81692900  0.25781100  1
  Co  Co2  1  0.75874700  0.18307100  0.75781100  1
  Co  Co3  1  0.25874700  0.31692900  0.24218900  1
  H  H4  1  0.31682400  0.85199900  0.58554500  1
  H  H5  1  0.81682400  0.64800100  0.41445500  1
  H  H6  1  0.68317600  0.35199900  0.91445500  1
  H  H7  1  0.18317600  0.14800100  0.08554500  1
  H  H8  1  0.36354100  0.91428800  0.71112300  1
  H  H9  1  0.86354100  0.58571200  0.28887700  1
  H  H10  1  0.63645900  0.41428800  0.78887700  1
  H  H11  1  0.13645900  0.08571200  0.21112300  1
  H  H12  1  0.13850000  0.90548400  0.66631000  1
  H  H13  1  0.63850000  0.59451600  0.33369000  1
  H  H14  1  0.86150000  0.40548400  0.83369000  1
  H  H15  1  0.36150000  0.09451600  0.16631000  1
  H  H16  1  0.92610400  0.78932500  0.80993500  1
  H  H17  1  0.42610400  0.71067500  0.19006500  1
  H  H18  1  0.07389600  0.28932500  0.69006500  1
  H  H19  1  0.57389600  0.21067500  0.30993500  1
  H  H20  1  0.11361300  0.84010100  0.88739000  1
  H  H21  1  0.61361300  0.65989900  0.11261000  1
  H  H22  1  0.88638700  0.34010100  0.61261000  1
  H  H23  1  0.38638700  0.15989900  0.38739000  1
  H  H24  1  0.01745000  0.69466100  0.91143800  1
  H  H25  1  0.51745000  0.80533900  0.08856200  1
  H  H26  1  0.98255000  0.19466100  0.58856200  1
  H  H27  1  0.48255000  0.30533900  0.41143800  1
  H  H28  1  0.54348300  0.68164200  0.62004900  1
  H  H29  1  0.04348300  0.81835800  0.37995100  1
  H  H30  1  0.45651700  0.18164200  0.87995100  1
  H  H31  1  0.95651700  0.31835800  0.12004900  1
  H  H32  1  0.49638200  0.53196900  0.66415800  1
  H  H33  1  0.99638200  0.96803100  0.33584200  1
  H  H34  1  0.50361800  0.03196900  0.83584200  1
  H  H35  1  0.00361800  0.46803100  0.16415800  1
  H  H36  1  0.37628500  0.59423900  0.55646300  1
  H  H37  1  0.87628500  0.90576100  0.44353700  1
  H  H38  1  0.62371500  0.09423900  0.94353700  1
  H  H39  1  0.12371500  0.40576100  0.05646300  1
  N  N40  1  0.21246100  0.51325100  0.81368700  1
  N  N41  1  0.71246100  0.98674900  0.18631300  1
  N  N42  1  0.78753900  0.01325100  0.68631300  1
  N  N43  1  0.28753900  0.48674900  0.31368700  1
  N  N44  1  0.03572600  0.63911300  0.63375900  1
  N  N45  1  0.53572600  0.86088700  0.36624100  1
  N  N46  1  0.96427400  0.13911300  0.86624100  1
  N  N47  1  0.46427400  0.36088700  0.13375900  1
  N  N48  1  0.44580100  0.72283500  0.85170100  1
  N  N49  1  0.94580100  0.77716500  0.14829900  1
  N  N50  1  0.55419900  0.22283500  0.64829900  1
  N  N51  1  0.05419900  0.27716500  0.35170100  1
  N  N52  1  0.26767600  0.85664000  0.66812900  1
  N  N53  1  0.76767600  0.64336000  0.33187100  1
  N  N54  1  0.73232400  0.35664000  0.83187100  1
  N  N55  1  0.23232400  0.14336000  0.16812900  1
  N  N56  1  0.05188300  0.76069500  0.84862400  1
  N  N57  1  0.55188300  0.73930500  0.15137600  1
  N  N58  1  0.94811700  0.26069500  0.65137600  1
  N  N59  1  0.44811700  0.23930500  0.34862400  1
  N  N60  1  0.43512500  0.61611200  0.63443100  1
  N  N61  1  0.93512500  0.88388800  0.36556900  1
  N  N62  1  0.56487500  0.11611200  0.86556900  1
  N  N63  1  0.06487500  0.38388800  0.13443100  1
  O  O64  1  0.28782400  0.41461800  0.76977400  1
  O  O65  1  0.78782400  0.08538200  0.23022600  1
  O  O66  1  0.71217600  0.91461800  0.73022600  1
  O  O67  1  0.21217600  0.58538200  0.26977400  1
  O  O68  1  0.11212900  0.50192100  0.90169000  1
  O  O69  1  0.61212900  0.99807900  0.09831000  1
  O  O70  1  0.88787100  0.00192100  0.59831000  1
  O  O71  1  0.38787100  0.49807900  0.40169000  1
  O  O72  1  0.04936800  0.68081000  0.53388400  1
  O  O73  1  0.54936800  0.81919000  0.46611600  1
  O  O74  1  0.95063200  0.18081000  0.96611600  1
  O  O75  1  0.45063200  0.31919000  0.03388400  1
  O  O76  1  0.89467500  0.57065400  0.66236500  1
  O  O77  1  0.39467500  0.92934600  0.33763500  1
  O  O78  1  0.10532500  0.07065400  0.83763500  1
  O  O79  1  0.60532500  0.42934600  0.16236500  1
  O  O80  1  0.43449800  0.82632400  0.90745500  1
  O  O81  1  0.93449800  0.67367600  0.09254500  1
  O  O82  1  0.56550200  0.32632400  0.59254500  1
  O  O83  1  0.06550200  0.17367600  0.40745500  1
  O  O84  1  0.58240200  0.64554400  0.86675500  1
  O  O85  1  0.08240200  0.85445600  0.13324500  1
  O  O86  1  0.41759800  0.14554400  0.63324500  1
  O  O87  1  0.91759800  0.35445600  0.36675500  1
