# generated using pymatgen
data_CoP2H24C8S4NClO4
_symmetry_space_group_name_H-M   'P 1'
_cell_length_a   7.33007100
_cell_length_b   8.78068857
_cell_length_c   16.83196852
_cell_angle_alpha   95.16916988
_cell_angle_beta   95.48097741
_cell_angle_gamma   89.90306806
_symmetry_Int_Tables_number   1
_chemical_formula_structural   CoP2H24C8S4NClO4
_chemical_formula_sum   'Co2 P4 H48 C16 S8 N2 Cl2 O8'
_cell_volume   1073.99206852
_cell_formula_units_Z   2
loop_
 _symmetry_equiv_pos_site_id
 _symmetry_equiv_pos_as_xyz
  1  'x, y, z'
loop_
 _atom_site_type_symbol
 _atom_site_label
 _atom_site_symmetry_multiplicity
 _atom_site_fract_x
 _atom_site_fract_y
 _atom_site_fract_z
 _atom_site_occupancy
  Co  Co0  1  0.24951900  0.82248000  0.75547600  1
  Co  Co1  1  0.75048100  0.17752000  0.24452400  1
  P  P2  1  0.18147400  0.67207200  0.90312100  1
  P  P3  1  0.81852600  0.32792800  0.09687900  1
  P  P4  1  0.26920200  0.77015900  0.57424700  1
  P  P5  1  0.73079800  0.22984100  0.42575300  1
  H  H6  1  0.33073100  0.94928200  0.95643100  1
  H  H7  1  0.66926900  0.05071800  0.04356900  1
  H  H8  1  0.38143800  0.91851400  0.06033100  1
  H  H9  1  0.61856200  0.08148600  0.93966900  1
  H  H10  1  0.15453200  0.97267900  0.02409700  1
  H  H11  1  0.84546800  0.02732100  0.97590300  1
  H  H12  1  0.37157700  0.39004200  0.93336200  1
  H  H13  1  0.62842300  0.60995800  0.06663800  1
  H  H14  1  0.27702900  0.45135500  0.02604300  1
  H  H15  1  0.72297100  0.54864500  0.97395700  1
  H  H16  1  0.17505900  0.29422300  0.96179900  1
  H  H17  1  0.82494100  0.70577700  0.03820100  1
  H  H18  1  0.13577500  0.45368600  0.55496500  1
  H  H19  1  0.86422500  0.54631400  0.44503500  1
  H  H20  1  0.38281900  0.45690100  0.56554700  1
  H  H21  1  0.61718100  0.54309900  0.43445300  1
  H  H22  1  0.26044900  0.40089500  0.46974300  1
  H  H23  1  0.73955100  0.59910500  0.53025700  1
  H  H24  1  0.26530800  0.12543500  0.49068700  1
  H  H25  1  0.73469200  0.87456500  0.50931300  1
  H  H26  1  0.15078700  0.08993700  0.57735700  1
  H  H27  1  0.84921300  0.91006300  0.42264300  1
  H  H28  1  0.39709200  0.08006100  0.58151500  1
  H  H29  1  0.60290800  0.91993900  0.41848500  1
  H  H30  1  0.50498900  0.70407600  0.28740200  1
  H  H31  1  0.49501100  0.29592400  0.71259800  1
  H  H32  1  0.38708300  0.52370500  0.28485900  1
  H  H33  1  0.61291700  0.47629500  0.71514100  1
  H  H34  1  0.37970700  0.66184400  0.37023900  1
  H  H35  1  0.62029300  0.33815600  0.62976100  1
  H  H36  1  0.05191800  0.65569900  0.35534200  1
  H  H37  1  0.94808200  0.34430100  0.64465800  1
  H  H38  1  0.92727500  0.69340400  0.26150000  1
  H  H39  1  0.07272500  0.30659600  0.73850000  1
  H  H40  1  0.05187400  0.51710200  0.26971300  1
  H  H41  1  0.94812600  0.48289800  0.73028700  1
  H  H42  1  0.33554300  0.93722500  0.27632300  1
  H  H43  1  0.66445700  0.06277500  0.72367700  1
  H  H44  1  0.21130700  0.89566700  0.35901900  1
  H  H45  1  0.78869300  0.10433300  0.64098100  1
  H  H46  1  0.08726300  0.93151900  0.26526800  1
  H  H47  1  0.91273700  0.06848100  0.73473200  1
  H  H48  1  0.34512900  0.74639300  0.16206600  1
  H  H49  1  0.65487100  0.25360700  0.83793400  1
  H  H50  1  0.09804400  0.75296800  0.15040300  1
  H  H51  1  0.90195600  0.24703200  0.84959700  1
  H  H52  1  0.21153400  0.57293200  0.15800300  1
  H  H53  1  0.78846600  0.42706800  0.84199700  1
  C  C54  1  0.27651400  0.90727300  0.00913400  1
  C  C55  1  0.72348600  0.09272700  0.99086600  1
  C  C56  1  0.24545900  0.40462000  0.96358700  1
  C  C57  1  0.75454100  0.59538000  0.03641300  1
  C  C58  1  0.25937600  0.47583000  0.52542600  1
  C  C59  1  0.74062400  0.52417000  0.47457400  1
  C  C60  1  0.26795100  0.05955200  0.54313700  1
  C  C61  1  0.73204900  0.94044800  0.45686300  1
  C  C62  1  0.38501600  0.64590300  0.30517700  1
  C  C63  1  0.61498400  0.35409700  0.69482300  1
  C  C64  1  0.04852900  0.63952600  0.28991700  1
  C  C65  1  0.95147100  0.36047400  0.71008300  1
  C  C66  1  0.21232800  0.88324800  0.29355500  1
  C  C67  1  0.78767200  0.11675200  0.70644500  1
  C  C68  1  0.21810700  0.69555000  0.17722600  1
  C  C69  1  0.78189300  0.30445000  0.82277400  1
  S  S70  1  0.40865000  0.66843700  0.84317100  1
  S  S71  1  0.59135000  0.33156300  0.15682900  1
  S  S72  1  0.97901200  0.77477500  0.84346400  1
  S  S73  1  0.02098800  0.22522500  0.15653600  1
  S  S74  1  0.05083000  0.77055800  0.63880400  1
  S  S75  1  0.94917000  0.22944200  0.36119600  1
  S  S76  1  0.49744900  0.77721100  0.64700700  1
  S  S77  1  0.50255100  0.22278900  0.35299300  1
  N  N78  1  0.21607700  0.71558500  0.26653800  1
  N  N79  1  0.78392300  0.28441500  0.73346200  1
  Cl  Cl80  1  0.30435600  0.07700200  0.79054200  1
  Cl  Cl81  1  0.69564400  0.92299800  0.20945800  1
  O  O82  1  0.22852100  0.74620000  0.99438500  1
  O  O83  1  0.77147900  0.25380000  0.00561500  1
  O  O84  1  0.11958700  0.50416900  0.92087400  1
  O  O85  1  0.88041300  0.49583100  0.07912600  1
  O  O86  1  0.25743000  0.63125300  0.50324500  1
  O  O87  1  0.74257000  0.36874700  0.49675500  1
  O  O88  1  0.25456500  0.90045700  0.51180900  1
  O  O89  1  0.74543500  0.09954300  0.48819100  1
