# generated using pymatgen
data_CoH16RuN10ClO10
_symmetry_space_group_name_H-M   'P 1'
_cell_length_a   17.96547400
_cell_length_b   6.19367700
_cell_length_c   14.71900845
_cell_angle_alpha   85.31650795
_cell_angle_beta   90.00000000
_cell_angle_gamma   90.00000000
_symmetry_Int_Tables_number   1
_chemical_formula_structural   CoH16RuN10ClO10
_chemical_formula_sum   'Co4 H64 Ru4 N40 Cl4 O40'
_cell_volume   1632.34980654
_cell_formula_units_Z   4
loop_
 _symmetry_equiv_pos_site_id
 _symmetry_equiv_pos_as_xyz
  1  'x, y, z'
loop_
 _atom_site_type_symbol
 _atom_site_label
 _atom_site_symmetry_multiplicity
 _atom_site_fract_x
 _atom_site_fract_y
 _atom_site_fract_z
 _atom_site_occupancy
  Co  Co0  1  0.50238400  0.35478400  0.23129700  1
  Co  Co1  1  0.00238400  0.64521600  0.26870300  1
  Co  Co2  1  0.49761600  0.64521600  0.76870300  1
  Co  Co3  1  0.99761600  0.35478400  0.73129700  1
  H  H4  1  0.70872800  0.57996200  0.61691500  1
  H  H5  1  0.20872800  0.42003800  0.88308500  1
  H  H6  1  0.29127200  0.42003800  0.38308500  1
  H  H7  1  0.79127200  0.57996200  0.11691500  1
  H  H8  1  0.55264500  0.12282800  0.10486900  1
  H  H9  1  0.05264500  0.87717200  0.39513100  1
  H  H10  1  0.44735500  0.87717200  0.89513100  1
  H  H11  1  0.94735500  0.12282800  0.60486900  1
  H  H12  1  0.56421300  0.38257800  0.07503500  1
  H  H13  1  0.06421300  0.61742200  0.42496500  1
  H  H14  1  0.43578700  0.61742200  0.92496500  1
  H  H15  1  0.93578700  0.38257800  0.57503500  1
  H  H16  1  0.48088400  0.27039500  0.06799800  1
  H  H17  1  0.98088400  0.72960500  0.43200200  1
  H  H18  1  0.51911600  0.72960500  0.93200200  1
  H  H19  1  0.01911600  0.27039500  0.56799800  1
  H  H20  1  0.37000700  0.23234400  0.27597400  1
  H  H21  1  0.87000700  0.76765600  0.22402600  1
  H  H22  1  0.62999300  0.76765600  0.72402600  1
  H  H23  1  0.12999300  0.23234400  0.77597400  1
  H  H24  1  0.37504000  0.34569500  0.17023200  1
  H  H25  1  0.87504000  0.65430500  0.32976800  1
  H  H26  1  0.62496000  0.65430500  0.82976800  1
  H  H27  1  0.12496000  0.34569500  0.67023200  1
  H  H28  1  0.40009200  0.08974400  0.19243200  1
  H  H29  1  0.90009200  0.91025600  0.30756800  1
  H  H30  1  0.59990800  0.91025600  0.80756800  1
  H  H31  1  0.09990800  0.08974400  0.69243200  1
  H  H32  1  0.64217100  0.36199400  0.22824600  1
  H  H33  1  0.14217100  0.63800600  0.27175400  1
  H  H34  1  0.35782900  0.63800600  0.77175400  1
  H  H35  1  0.85782900  0.36199400  0.72824600  1
  H  H36  1  0.60757600  0.60158500  0.19574900  1
  H  H37  1  0.10757600  0.39841500  0.30425100  1
  H  H38  1  0.39242400  0.39841500  0.80425100  1
  H  H39  1  0.89242400  0.60158500  0.69574900  1
  H  H40  1  0.61493000  0.52655200  0.30560700  1
  H  H41  1  0.11493000  0.47344800  0.19439300  1
  H  H42  1  0.38507000  0.47344800  0.69439300  1
  H  H43  1  0.88507000  0.52655200  0.80560700  1
  H  H44  1  0.51091400  0.94696800  0.25591200  1
  H  H45  1  0.01091400  0.05303200  0.24408800  1
  H  H46  1  0.48908600  0.05303200  0.74408800  1
  H  H47  1  0.98908600  0.94696800  0.75591200  1
  H  H48  1  0.52447800  0.05195400  0.35317300  1
  H  H49  1  0.02447800  0.94804600  0.14682700  1
  H  H50  1  0.47552200  0.94804600  0.64682700  1
  H  H51  1  0.97552200  0.05195400  0.85317300  1
  H  H52  1  0.59289700  0.04897000  0.27674600  1
  H  H53  1  0.09289700  0.95103000  0.22325400  1
  H  H54  1  0.40710300  0.95103000  0.72325400  1
  H  H55  1  0.90710300  0.04897000  0.77674600  1
  H  H56  1  0.42499800  0.37041700  0.37447300  1
  H  H57  1  0.92499800  0.62958300  0.12552700  1
  H  H58  1  0.57500200  0.62958300  0.62552700  1
  H  H59  1  0.07500200  0.37041700  0.87447300  1
  H  H60  1  0.51404100  0.39730000  0.40222300  1
  H  H61  1  0.01404100  0.60270000  0.09777700  1
  H  H62  1  0.48595900  0.60270000  0.59777700  1
  H  H63  1  0.98595900  0.39730000  0.90222300  1
  H  H64  1  0.46693400  0.60497900  0.35271000  1
  H  H65  1  0.96693400  0.39502100  0.14729000  1
  H  H66  1  0.53306600  0.39502100  0.64729000  1
  H  H67  1  0.03306600  0.60497900  0.85271000  1
  Ru  Ru68  1  0.72692800  0.93842600  0.52852800  1
  Ru  Ru69  1  0.22692800  0.06157400  0.97147200  1
  Ru  Ru70  1  0.27307200  0.06157400  0.47147200  1
  Ru  Ru71  1  0.77307200  0.93842600  0.02852800  1
  N  N72  1  0.76388300  0.14017500  0.44881000  1
  N  N73  1  0.26388300  0.85982500  0.05119000  1
  N  N74  1  0.23611700  0.85982500  0.55119000  1
  N  N75  1  0.73611700  0.14017500  0.94881000  1
  N  N76  1  0.68238500  0.76684800  0.42158600  1
  N  N77  1  0.18238500  0.23315200  0.07841400  1
  N  N78  1  0.31761500  0.23315200  0.57841400  1
  N  N79  1  0.81761500  0.76684800  0.92158600  1
  N  N80  1  0.62451100  0.10627300  0.53380400  1
  N  N81  1  0.12451100  0.89372700  0.96619600  1
  N  N82  1  0.37548900  0.89372700  0.46619600  1
  N  N83  1  0.87548900  0.10627300  0.03380400  1
  N  N84  1  0.76998000  0.07872200  0.64667400  1
  N  N85  1  0.26998000  0.92127800  0.85332600  1
  N  N86  1  0.23002000  0.92127800  0.35332600  1
  N  N87  1  0.73002000  0.07872200  0.14667400  1
  N  N88  1  0.82638800  0.75217300  0.52335900  1
  N  N89  1  0.32638800  0.24782700  0.97664100  1
  N  N90  1  0.17361200  0.24782700  0.47664100  1
  N  N91  1  0.67361200  0.75217300  0.02335900  1
  N  N92  1  0.52825000  0.27197500  0.10717400  1
  N  N93  1  0.02825000  0.72802500  0.39282600  1
  N  N94  1  0.47175000  0.72802500  0.89282600  1
  N  N95  1  0.97175000  0.27197500  0.60717400  1
  N  N96  1  0.40131300  0.24003000  0.21660800  1
  N  N97  1  0.90131300  0.75997000  0.28339200  1
  N  N98  1  0.59868700  0.75997000  0.78339200  1
  N  N99  1  0.09868700  0.24003000  0.71660800  1
  N  N100  1  0.60234400  0.47222100  0.24310300  1
  N  N101  1  0.10234400  0.52777900  0.25689700  1
  N  N102  1  0.39765600  0.52777900  0.75689700  1
  N  N103  1  0.89765600  0.47222100  0.74310300  1
  N  N104  1  0.53676200  0.07252600  0.28523400  1
  N  N105  1  0.03676200  0.92747400  0.21476600  1
  N  N106  1  0.46323800  0.92747400  0.71476600  1
  N  N107  1  0.96323800  0.07252600  0.78523400  1
  N  N108  1  0.47488400  0.44087900  0.35319700  1
  N  N109  1  0.97488400  0.55912100  0.14680300  1
  N  N110  1  0.52511600  0.55912100  0.64680300  1
  N  N111  1  0.02511600  0.44087900  0.85319700  1
  Cl  Cl112  1  0.46469800  0.68586500  0.16374500  1
  Cl  Cl113  1  0.96469800  0.31413500  0.33625500  1
  Cl  Cl114  1  0.53530200  0.31413500  0.83625500  1
  Cl  Cl115  1  0.03530200  0.68586500  0.66374500  1
  O  O116  1  0.72475400  0.71164300  0.36069700  1
  O  O117  1  0.22475400  0.28835700  0.13930300  1
  O  O118  1  0.27524600  0.28835700  0.63930300  1
  O  O119  1  0.77524600  0.71164300  0.86069700  1
  O  O120  1  0.61439500  0.72357400  0.42024300  1
  O  O121  1  0.11439500  0.27642600  0.07975700  1
  O  O122  1  0.38560500  0.27642600  0.57975700  1
  O  O123  1  0.88560500  0.72357400  0.92024300  1
  O  O124  1  0.60519900  0.22816000  0.46582400  1
  O  O125  1  0.10519900  0.77184000  0.03417600  1
  O  O126  1  0.39480100  0.77184000  0.53417600  1
  O  O127  1  0.89480100  0.22816000  0.96582400  1
  O  O128  1  0.58342900  0.08045800  0.60208700  1
  O  O129  1  0.08342900  0.91954200  0.89791300  1
  O  O130  1  0.41657100  0.91954200  0.39791300  1
  O  O131  1  0.91657100  0.08045800  0.10208700  1
  O  O132  1  0.73747700  0.22805700  0.68153400  1
  O  O133  1  0.23747700  0.77194300  0.81846600  1
  O  O134  1  0.26252300  0.77194300  0.31846600  1
  O  O135  1  0.76252300  0.22805700  0.18153400  1
  O  O136  1  0.83020100  0.00476700  0.67998600  1
  O  O137  1  0.33020100  0.99523300  0.82001400  1
  O  O138  1  0.16979900  0.99523300  0.32001400  1
  O  O139  1  0.66979900  0.00476700  0.17998600  1
  O  O140  1  0.82736000  0.55633300  0.55228300  1
  O  O141  1  0.32736000  0.44366700  0.94771700  1
  O  O142  1  0.17264000  0.44366700  0.44771700  1
  O  O143  1  0.67264000  0.55633300  0.05228300  1
  O  O144  1  0.88408300  0.83993700  0.48972500  1
  O  O145  1  0.38408300  0.16006300  0.01027500  1
  O  O146  1  0.11591700  0.16006300  0.51027500  1
  O  O147  1  0.61591700  0.83993700  0.98972500  1
  O  O148  1  0.78717400  0.26617400  0.39272100  1
  O  O149  1  0.28717400  0.73382600  0.10727900  1
  O  O150  1  0.21282600  0.73382600  0.60727900  1
  O  O151  1  0.71282600  0.26617400  0.89272100  1
  O  O152  1  0.68107300  0.71640900  0.61581000  1
  O  O153  1  0.18107300  0.28359100  0.88419000  1
  O  O154  1  0.31892700  0.28359100  0.38419000  1
  O  O155  1  0.81892700  0.71640900  0.11581000  1
