# generated using pymatgen
data_Na2NiH6C4N4O3
_symmetry_space_group_name_H-M   'P 1'
_cell_length_a   7.29887600
_cell_length_b   8.86728994
_cell_length_c   15.15036254
_cell_angle_alpha   89.32423102
_cell_angle_beta   87.40411777
_cell_angle_gamma   83.64063158
_symmetry_Int_Tables_number   1
_chemical_formula_structural   Na2NiH6C4N4O3
_chemical_formula_sum   'Na8 Ni4 H24 C16 N16 O12'
_cell_volume   973.49408769
_cell_formula_units_Z   4
loop_
 _symmetry_equiv_pos_site_id
 _symmetry_equiv_pos_as_xyz
  1  'x, y, z'
loop_
 _atom_site_type_symbol
 _atom_site_label
 _atom_site_symmetry_multiplicity
 _atom_site_fract_x
 _atom_site_fract_y
 _atom_site_fract_z
 _atom_site_occupancy
  Na  Na0  1  0.81346700  0.92425400  0.31108800  1
  Na  Na1  1  0.18653300  0.07574600  0.68891200  1
  Na  Na2  1  0.73971800  0.56801800  0.19281400  1
  Na  Na3  1  0.26028200  0.43198200  0.80718600  1
  Na  Na4  1  0.95350900  0.75794000  0.75677700  1
  Na  Na5  1  0.04649100  0.24206000  0.24322300  1
  Na  Na6  1  0.50000000  0.00000000  0.50000000  1
  Na  Na7  1  0.50000000  0.50000000  0.00000000  1
  Ni  Ni8  1  0.75026700  0.48839500  0.51713100  1
  Ni  Ni9  1  0.24973300  0.51160500  0.48286900  1
  Ni  Ni10  1  0.74571700  0.01217300  0.98682700  1
  Ni  Ni11  1  0.25428300  0.98782700  0.01317300  1
  H  H12  1  0.43020800  0.39884600  0.18735600  1
  H  H13  1  0.56979200  0.60115400  0.81264400  1
  H  H14  1  0.59134500  0.28719200  0.14823900  1
  H  H15  1  0.40865500  0.71280800  0.85176100  1
  H  H16  1  0.95876100  0.36290100  0.06577000  1
  H  H17  1  0.04123900  0.63709900  0.93423000  1
  H  H18  1  0.08317600  0.47797700  0.09898600  1
  H  H19  1  0.91682400  0.52202300  0.90101400  1
  H  H20  1  0.46912200  0.10750800  0.30903400  1
  H  H21  1  0.53087800  0.89249200  0.69096600  1
  H  H22  1  0.59914100  0.21042400  0.35204200  1
  H  H23  1  0.40085900  0.78957600  0.64795800  1
  H  H24  1  0.13695900  0.00607600  0.38459000  1
  H  H25  1  0.86304100  0.99392400  0.61541000  1
  H  H26  1  0.99939000  0.13390400  0.42339300  1
  H  H27  1  0.00061000  0.86609600  0.57660700  1
  H  H28  1  0.07527100  0.63844800  0.27209300  1
  H  H29  1  0.92472900  0.36155200  0.72790700  1
  H  H30  1  0.06182000  0.73045600  0.18569100  1
  H  H31  1  0.93818000  0.26954400  0.81430900  1
  H  H32  1  0.48475100  0.76930000  0.31772100  1
  H  H33  1  0.51524900  0.23070000  0.68227900  1
  H  H34  1  0.48785400  0.85040600  0.22766000  1
  H  H35  1  0.51214600  0.14959400  0.77234000  1
  C  C36  1  0.77068600  0.68686700  0.48267400  1
  C  C37  1  0.22931400  0.31313300  0.51732600  1
  C  C38  1  0.73915200  0.54290900  0.63511700  1
  C  C39  1  0.26084800  0.45709100  0.36488300  1
  C  C40  1  0.76747300  0.43356200  0.39939500  1
  C  C41  1  0.23252700  0.56643800  0.60060500  1
  C  C42  1  0.72320500  0.29030800  0.55039600  1
  C  C43  1  0.27679500  0.70969200  0.44960400  1
  C  C44  1  0.71270800  0.81663400  0.02321400  1
  C  C45  1  0.28729200  0.18336600  0.97678600  1
  C  C46  1  0.69157200  0.96625300  0.87221000  1
  C  C47  1  0.30842800  0.03374700  0.12779000  1
  C  C48  1  0.77670600  0.21102400  0.95516300  1
  C  C49  1  0.22329400  0.78897600  0.04483700  1
  C  C50  1  0.80285000  0.05330300  0.10114300  1
  C  C51  1  0.19715000  0.94669700  0.89885700  1
  N  N52  1  0.77748100  0.81277600  0.45907400  1
  N  N53  1  0.22251900  0.18722400  0.54092600  1
  N  N54  1  0.73678300  0.57337500  0.71050400  1
  N  N55  1  0.26321700  0.42662500  0.28949600  1
  N  N56  1  0.78342100  0.39789600  0.32477300  1
  N  N57  1  0.21657900  0.60210400  0.67522700  1
  N  N58  1  0.70297100  0.16543200  0.57242400  1
  N  N59  1  0.29702900  0.83456800  0.42757600  1
  N  N60  1  0.69046000  0.69408400  0.04837800  1
  N  N61  1  0.30954000  0.30591600  0.95162200  1
  N  N62  1  0.65956700  0.93608700  0.79950400  1
  N  N63  1  0.34043300  0.06391300  0.20049600  1
  N  N64  1  0.79661500  0.33809700  0.93781600  1
  N  N65  1  0.20338500  0.66190300  0.06218400  1
  N  N66  1  0.83870900  0.08081800  0.17358900  1
  N  N67  1  0.16129100  0.91918200  0.82641100  1
  O  O68  1  0.53559500  0.39215300  0.14385500  1
  O  O69  1  0.46440500  0.60784700  0.85614500  1
  O  O70  1  0.99443700  0.40817400  0.11996900  1
  O  O71  1  0.00556300  0.59182600  0.88003100  1
  O  O72  1  0.55726500  0.10949800  0.35628900  1
  O  O73  1  0.44273500  0.89050200  0.64371100  1
  O  O74  1  0.03210800  0.07944800  0.36841100  1
  O  O75  1  0.96789200  0.92055200  0.63158900  1
  O  O76  1  0.99219100  0.71307800  0.24095500  1
  O  O77  1  0.00780900  0.28692200  0.75904500  1
  O  O78  1  0.56228600  0.77670200  0.26371500  1
  O  O79  1  0.43771400  0.22329800  0.73628500  1
