# generated using pymatgen
data_VH12N3O5F2
_symmetry_space_group_name_H-M   'P 1'
_cell_length_a   6.93494200
_cell_length_b   8.43386600
_cell_length_c   13.40300500
_cell_angle_alpha   90.00000000
_cell_angle_beta   90.00000000
_cell_angle_gamma   90.00000000
_symmetry_Int_Tables_number   1
_chemical_formula_structural   VH12N3O5F2
_chemical_formula_sum   'V4 H48 N12 O20 F8'
_cell_volume   783.91993627
_cell_formula_units_Z   4
loop_
 _symmetry_equiv_pos_site_id
 _symmetry_equiv_pos_as_xyz
  1  'x, y, z'
loop_
 _atom_site_type_symbol
 _atom_site_label
 _atom_site_symmetry_multiplicity
 _atom_site_fract_x
 _atom_site_fract_y
 _atom_site_fract_z
 _atom_site_occupancy
  V  V0  1  0.83462800  0.50307400  0.39973600  1
  V  V1  1  0.66537200  0.49692600  0.89973600  1
  V  V2  1  0.33462800  0.99692600  0.60026400  1
  V  V3  1  0.16537200  0.00307400  0.10026400  1
  H  H4  1  0.80987500  0.78221800  0.17350700  1
  H  H5  1  0.69012500  0.21778200  0.67350700  1
  H  H6  1  0.30987500  0.71778200  0.82649300  1
  H  H7  1  0.19012500  0.28221800  0.32649300  1
  H  H8  1  0.64342200  0.64339500  0.21099900  1
  H  H9  1  0.85657800  0.35660500  0.71099900  1
  H  H10  1  0.14342200  0.85660500  0.78900100  1
  H  H11  1  0.35657800  0.14339500  0.28900100  1
  H  H12  1  0.65097000  0.70451100  0.09082900  1
  H  H13  1  0.84903000  0.29548900  0.59082900  1
  H  H14  1  0.15097000  0.79548900  0.90917100  1
  H  H15  1  0.34903000  0.20451100  0.40917100  1
  H  H16  1  0.56966000  0.83164300  0.18001600  1
  H  H17  1  0.93034000  0.16835700  0.68001600  1
  H  H18  1  0.06966000  0.66835700  0.81998400  1
  H  H19  1  0.43034000  0.33164300  0.31998400  1
  H  H20  1  0.99810600  0.07706300  0.46337100  1
  H  H21  1  0.50189400  0.92293700  0.96337100  1
  H  H22  1  0.49810600  0.42293700  0.53662900  1
  H  H23  1  0.00189400  0.57706300  0.03662900  1
  H  H24  1  0.93118800  0.05140900  0.34218000  1
  H  H25  1  0.56881200  0.94859100  0.84218000  1
  H  H26  1  0.43118800  0.44859100  0.65782000  1
  H  H27  1  0.06881200  0.55140900  0.15782000  1
  H  H28  1  0.84071700  0.92873200  0.42848700  1
  H  H29  1  0.65928300  0.07126800  0.92848700  1
  H  H30  1  0.34071700  0.57126800  0.57151300  1
  H  H31  1  0.15928300  0.42873200  0.07151300  1
  H  H32  1  0.77303400  0.12368600  0.42908500  1
  H  H33  1  0.72696600  0.87631400  0.92908500  1
  H  H34  1  0.27303400  0.37631400  0.57091500  1
  H  H35  1  0.22696600  0.62368600  0.07091500  1
  H  H36  1  0.76026100  0.29868400  0.07686000  1
  H  H37  1  0.73973900  0.70131600  0.57686000  1
  H  H38  1  0.26026100  0.20131600  0.92314000  1
  H  H39  1  0.23973900  0.79868400  0.42314000  1
  H  H40  1  0.66980300  0.32892000  0.19515900  1
  H  H41  1  0.83019700  0.67108000  0.69515900  1
  H  H42  1  0.16980300  0.17108000  0.80484100  1
  H  H43  1  0.33019700  0.82892000  0.30484100  1
  H  H44  1  0.56513400  0.19601800  0.11400800  1
  H  H45  1  0.93486600  0.80398200  0.61400800  1
  H  H46  1  0.06513400  0.30398200  0.88599200  1
  H  H47  1  0.43486600  0.69601800  0.38599200  1
  H  H48  1  0.78571600  0.15736500  0.16493700  1
  H  H49  1  0.71428400  0.84263500  0.66493700  1
  H  H50  1  0.28571600  0.34263500  0.83506300  1
  H  H51  1  0.21428400  0.65736500  0.33506300  1
  N  N52  1  0.66813800  0.74055700  0.16367900  1
  N  N53  1  0.83186200  0.25944300  0.66367900  1
  N  N54  1  0.16813800  0.75944300  0.83632100  1
  N  N55  1  0.33186200  0.24055700  0.33632100  1
  N  N56  1  0.88534900  0.04502000  0.41636500  1
  N  N57  1  0.61465100  0.95498000  0.91636500  1
  N  N58  1  0.38534900  0.45498000  0.58363500  1
  N  N59  1  0.11465100  0.54502000  0.08363500  1
  N  N60  1  0.69497100  0.24525000  0.13897400  1
  N  N61  1  0.80502900  0.75475000  0.63897400  1
  N  N62  1  0.19497100  0.25475000  0.86102600  1
  N  N63  1  0.30502900  0.74525000  0.36102600  1
  O  O64  1  0.99382200  0.52288400  0.28314700  1
  O  O65  1  0.50617800  0.47711600  0.78314700  1
  O  O66  1  0.49382200  0.97711600  0.71685300  1
  O  O67  1  0.00617800  0.02288400  0.21685300  1
  O  O68  1  0.77351300  0.72317900  0.39022100  1
  O  O69  1  0.72648700  0.27682100  0.89022100  1
  O  O70  1  0.27351300  0.77682100  0.60977900  1
  O  O71  1  0.22648700  0.22317900  0.10977900  1
  O  O72  1  0.64147600  0.64341200  0.45880300  1
  O  O73  1  0.85852400  0.35658800  0.95880300  1
  O  O74  1  0.14147600  0.85658800  0.54119700  1
  O  O75  1  0.35852400  0.14341200  0.04119700  1
  O  O76  1  0.99629600  0.50304200  0.48899800  1
  O  O77  1  0.50370400  0.49695800  0.98899800  1
  O  O78  1  0.49629600  0.99695800  0.51100200  1
  O  O79  1  0.00370400  0.00304200  0.01100200  1
  O  O80  1  0.95424100  0.35593400  0.30664300  1
  O  O81  1  0.54575900  0.64406600  0.80664300  1
  O  O82  1  0.45424100  0.14406600  0.69335700  1
  O  O83  1  0.04575900  0.85593400  0.19335700  1
  F  F84  1  0.68179900  0.32798600  0.45856700  1
  F  F85  1  0.81820100  0.67201400  0.95856700  1
  F  F86  1  0.18179900  0.17201400  0.54143300  1
  F  F87  1  0.31820100  0.82798600  0.04143300  1
  F  F88  1  0.58721200  0.47635400  0.28054100  1
  F  F89  1  0.91278800  0.52364600  0.78054100  1
  F  F90  1  0.08721200  0.02364600  0.71945900  1
  F  F91  1  0.41278800  0.97635400  0.21945900  1
