# generated using pymatgen
data_Mn2CuH12(NO2)4
_symmetry_space_group_name_H-M   'P 1'
_cell_length_a   11.74932600
_cell_length_b   6.47161400
_cell_length_c   10.44462610
_cell_angle_alpha   87.61743518
_cell_angle_beta   90.00000000
_cell_angle_gamma   90.00000000
_symmetry_Int_Tables_number   1
_chemical_formula_structural   Mn2CuH12(NO2)4
_chemical_formula_sum   'Mn4 Cu2 H24 N8 O16'
_cell_volume   793.49256012
_cell_formula_units_Z   2
loop_
 _symmetry_equiv_pos_site_id
 _symmetry_equiv_pos_as_xyz
  1  'x, y, z'
loop_
 _atom_site_type_symbol
 _atom_site_label
 _atom_site_symmetry_multiplicity
 _atom_site_fract_x
 _atom_site_fract_y
 _atom_site_fract_z
 _atom_site_occupancy
  Mn  Mn0  1  0.25000000  0.30196500  0.67126800  1
  Mn  Mn1  1  0.75000000  0.69803500  0.32873200  1
  Mn  Mn2  1  0.25000000  0.39215300  0.02572200  1
  Mn  Mn3  1  0.75000000  0.60784700  0.97427800  1
  Cu  Cu4  1  0.25000000  0.24970300  0.29931700  1
  Cu  Cu5  1  0.75000000  0.75029700  0.70068300  1
  H  H6  1  0.92199700  0.34645900  0.30574100  1
  H  H7  1  0.42199700  0.65354100  0.69425900  1
  H  H8  1  0.07800300  0.65354100  0.69425900  1
  H  H9  1  0.57800300  0.34645900  0.30574100  1
  H  H10  1  0.68340300  0.05557000  0.55512400  1
  H  H11  1  0.18340300  0.94443000  0.44487600  1
  H  H12  1  0.31659700  0.94443000  0.44487600  1
  H  H13  1  0.81659700  0.05557000  0.55512400  1
  H  H14  1  0.05183400  0.25618000  0.75327300  1
  H  H15  1  0.55183400  0.74382000  0.24672700  1
  H  H16  1  0.94816600  0.74382000  0.24672700  1
  H  H17  1  0.44816600  0.25618000  0.75327300  1
  H  H18  1  0.18403900  0.78602600  0.92168100  1
  H  H19  1  0.68403900  0.21397400  0.07831900  1
  H  H20  1  0.81596100  0.21397400  0.07831900  1
  H  H21  1  0.31596100  0.78602600  0.92168100  1
  H  H22  1  0.28426500  0.02824000  0.64759700  1
  H  H23  1  0.78426500  0.97176000  0.35240300  1
  H  H24  1  0.71573500  0.97176000  0.35240300  1
  H  H25  1  0.21573500  0.02824000  0.64759700  1
  H  H26  1  0.04953500  0.20017200  0.29876100  1
  H  H27  1  0.54953500  0.79982800  0.70123900  1
  H  H28  1  0.95046500  0.79982800  0.70123900  1
  H  H29  1  0.45046500  0.20017200  0.29876100  1
  N  N30  1  0.86956700  0.69405200  0.21489000  1
  N  N31  1  0.36956700  0.30594800  0.78511000  1
  N  N32  1  0.13043300  0.30594800  0.78511000  1
  N  N33  1  0.63043300  0.69405200  0.21489000  1
  N  N34  1  0.53579400  0.20852000  0.32202400  1
  N  N35  1  0.03579400  0.79148000  0.67797600  1
  N  N36  1  0.46420600  0.79148000  0.67797600  1
  N  N37  1  0.96420600  0.20852000  0.32202400  1
  O  O38  1  0.07567600  0.92519000  0.59449800  1
  O  O39  1  0.57567600  0.07481000  0.40550200  1
  O  O40  1  0.92432400  0.07481000  0.40550200  1
  O  O41  1  0.42432400  0.92519000  0.59449800  1
  O  O42  1  0.75000000  0.01082600  0.60740400  1
  O  O43  1  0.25000000  0.98917400  0.39259600  1
  O  O44  1  0.75000000  0.54210300  0.45521400  1
  O  O45  1  0.25000000  0.45789700  0.54478600  1
  O  O46  1  0.88232200  0.61448200  0.10082500  1
  O  O47  1  0.38232200  0.38551800  0.89917500  1
  O  O48  1  0.11767800  0.38551800  0.89917500  1
  O  O49  1  0.61767800  0.61448200  0.10082500  1
  O  O50  1  0.25000000  0.47209000  0.19624900  1
  O  O51  1  0.75000000  0.52791000  0.80375100  1
  O  O52  1  0.25000000  0.85053900  0.88068300  1
  O  O53  1  0.75000000  0.14946100  0.11931700  1
