# generated using pymatgen
data_MgOs2W
_symmetry_space_group_name_H-M   'P 1'
_cell_length_a   10.66977970
_cell_length_b   10.66977970
_cell_length_c   10.66977970
_cell_angle_alpha   125.17215503
_cell_angle_beta   118.36301876
_cell_angle_gamma   87.07139919
_symmetry_Int_Tables_number   1
_chemical_formula_structural   MgOs2W
_chemical_formula_sum   'Mg1 Os2 W1'
_cell_volume   830.85051704
_cell_formula_units_Z   1
loop_
 _symmetry_equiv_pos_site_id
 _symmetry_equiv_pos_as_xyz
  1  'x, y, z'
loop_
 _atom_site_type_symbol
 _atom_site_label
 _atom_site_symmetry_multiplicity
 _atom_site_fract_x
 _atom_site_fract_y
 _atom_site_fract_z
 _atom_site_occupancy
  Mg  Mg0  1  0.00000000  0.00000000  0.00000000  1
  Os  Os1  1  0.00000000  0.27621700  0.27621700  1
  Os  Os2  1  0.00000000  0.72378300  0.72378300  1
  W  W3  1  0.00000000  0.50000000  0.50000000  1
