# generated using pymatgen
data_FeP3(H2O3)3
_symmetry_space_group_name_H-M   'P 1'
_cell_length_a   7.61364924
_cell_length_b   7.61364924
_cell_length_c   9.88071456
_cell_angle_alpha   75.68117731
_cell_angle_beta   75.68117731
_cell_angle_gamma   50.30726399
_symmetry_Int_Tables_number   1
_chemical_formula_structural   FeP3(H2O3)3
_chemical_formula_sum   'Fe2 P6 H12 O18'
_cell_volume   423.95915680
_cell_formula_units_Z   2
loop_
 _symmetry_equiv_pos_site_id
 _symmetry_equiv_pos_as_xyz
  1  'x, y, z'
loop_
 _atom_site_type_symbol
 _atom_site_label
 _atom_site_symmetry_multiplicity
 _atom_site_fract_x
 _atom_site_fract_y
 _atom_site_fract_z
 _atom_site_occupancy
  Fe  Fe0  1  0.29622400  0.09692200  0.35694100  1
  Fe  Fe1  1  0.09692200  0.29622400  0.85694100  1
  P  P2  1  0.61111500  0.78775600  0.93527100  1
  P  P3  1  0.78775600  0.61111500  0.43527100  1
  P  P4  1  0.13620800  0.95244100  0.68003100  1
  P  P5  1  0.95244100  0.13620800  0.18003100  1
  P  P6  1  0.38860500  0.32896700  0.55394300  1
  P  P7  1  0.32896700  0.38860500  0.05394300  1
  H  H8  1  0.72294300  0.84880700  0.98236100  1
  H  H9  1  0.84880700  0.72294300  0.48236100  1
  H  H10  1  0.34377800  0.79318800  0.73848200  1
  H  H11  1  0.79318800  0.34377800  0.23848200  1
  H  H12  1  0.60395800  0.21950300  0.59530500  1
  H  H13  1  0.21950300  0.60395800  0.09530500  1
  H  H14  1  0.40475500  0.80146300  0.13768900  1
  H  H15  1  0.80146300  0.40475500  0.63768900  1
  H  H16  1  0.72220000  0.04523400  0.22189300  1
  H  H17  1  0.04523400  0.72220000  0.72189300  1
  H  H18  1  0.67139600  0.29484700  0.95747200  1
  H  H19  1  0.29484700  0.67139600  0.45747200  1
  O  O20  1  0.41148100  0.00324100  0.85939800  1
  O  O21  1  0.00324100  0.41148100  0.35939800  1
  O  O22  1  0.59651000  0.78281900  0.34140600  1
  O  O23  1  0.78281900  0.59651000  0.84140600  1
  O  O24  1  0.52315000  0.68678500  0.06886100  1
  O  O25  1  0.68678500  0.52315000  0.56886100  1
  O  O26  1  0.17908900  0.94964600  0.51989400  1
  O  O27  1  0.94964600  0.17908900  0.01989400  1
  O  O28  1  0.18802300  0.01359100  0.22623300  1
  O  O29  1  0.01359100  0.18802300  0.72623300  1
  O  O30  1  0.87408100  0.98084100  0.24726500  1
  O  O31  1  0.98084100  0.87408100  0.74726500  1
  O  O32  1  0.43519800  0.20280800  0.18039200  1
  O  O33  1  0.20280800  0.43519800  0.68039200  1
  O  O34  1  0.52835900  0.34087800  0.93107600  1
  O  O35  1  0.34087800  0.52835900  0.43107600  1
  O  O36  1  0.41069000  0.15089800  0.49198400  1
  O  O37  1  0.15089800  0.41069000  0.99198400  1
