# generated using pymatgen
data_Zr2TcRu
_symmetry_space_group_name_H-M   'P 1'
_cell_length_a   10.71983587
_cell_length_b   10.71983587
_cell_length_c   10.71983587
_cell_angle_alpha   129.14079214
_cell_angle_beta   116.71671965
_cell_angle_gamma   85.36499832
_symmetry_Int_Tables_number   1
_chemical_formula_structural   Zr2TcRu
_chemical_formula_sum   'Zr2 Tc1 Ru1'
_cell_volume   815.98045128
_cell_formula_units_Z   1
loop_
 _symmetry_equiv_pos_site_id
 _symmetry_equiv_pos_as_xyz
  1  'x, y, z'
loop_
 _atom_site_type_symbol
 _atom_site_label
 _atom_site_symmetry_multiplicity
 _atom_site_fract_x
 _atom_site_fract_y
 _atom_site_fract_z
 _atom_site_occupancy
  Zr  Zr0  1  0.00000000  0.25144900  0.25144900  1
  Zr  Zr1  1  0.00000000  0.74855100  0.74855100  1
  Tc  Tc2  1  0.00000000  0.00000000  0.00000000  1
  Ru  Ru3  1  0.00000000  0.50000000  0.50000000  1
