# generated using pymatgen
data_Sr2Mg2V3O14
_symmetry_space_group_name_H-M   'P 1'
_cell_length_a   15.53508000
_cell_length_b   6.82042200
_cell_length_c   11.15334556
_cell_angle_alpha   82.37551258
_cell_angle_beta   90.00000000
_cell_angle_gamma   90.00000000
_symmetry_Int_Tables_number   1
_chemical_formula_structural   Sr2Mg2V3O14
_chemical_formula_sum   'Sr8 Mg8 V12 O56'
_cell_volume   1171.31362410
_cell_formula_units_Z   4
loop_
 _symmetry_equiv_pos_site_id
 _symmetry_equiv_pos_as_xyz
  1  'x, y, z'
loop_
 _atom_site_type_symbol
 _atom_site_label
 _atom_site_symmetry_multiplicity
 _atom_site_fract_x
 _atom_site_fract_y
 _atom_site_fract_z
 _atom_site_occupancy
  Sr  Sr0  1  0.85969600  0.35108400  0.01406900  1
  Sr  Sr1  1  0.35969600  0.64891600  0.48593100  1
  Sr  Sr2  1  0.14030400  0.64891600  0.98593100  1
  Sr  Sr3  1  0.64030400  0.35108400  0.51406900  1
  Sr  Sr4  1  0.00303500  0.93585400  0.27723100  1
  Sr  Sr5  1  0.50303500  0.06414600  0.22276900  1
  Sr  Sr6  1  0.99696500  0.06414600  0.72276900  1
  Sr  Sr7  1  0.49696500  0.93585400  0.77723100  1
  Mg  Mg8  1  0.67194700  0.63815400  0.92627500  1
  Mg  Mg9  1  0.17194700  0.36184600  0.57372500  1
  Mg  Mg10  1  0.32805300  0.36184600  0.07372500  1
  Mg  Mg11  1  0.82805300  0.63815400  0.42627500  1
  Mg  Mg12  1  0.72384400  0.00417200  0.27218900  1
  Mg  Mg13  1  0.22384400  0.99582800  0.22781100  1
  Mg  Mg14  1  0.27615600  0.99582800  0.72781100  1
  Mg  Mg15  1  0.77615600  0.00417200  0.77218900  1
  V  V16  1  0.70870400  0.52732200  0.18510400  1
  V  V17  1  0.20870400  0.47267800  0.31489600  1
  V  V18  1  0.29129600  0.47267800  0.81489600  1
  V  V19  1  0.79129600  0.52732200  0.68510400  1
  V  V20  1  0.48533100  0.43585900  0.79523000  1
  V  V21  1  0.98533100  0.56414100  0.70477000  1
  V  V22  1  0.51466900  0.56414100  0.20477000  1
  V  V23  1  0.01466900  0.43585900  0.29523000  1
  V  V24  1  0.63609300  0.12866400  0.97211000  1
  V  V25  1  0.13609300  0.87133600  0.52789000  1
  V  V26  1  0.36390700  0.87133600  0.02789000  1
  V  V27  1  0.86390700  0.12866400  0.47211000  1
  O  O28  1  0.90957700  0.40573800  0.79355700  1
  O  O29  1  0.40957700  0.59426200  0.70644300  1
  O  O30  1  0.09042300  0.59426200  0.20644300  1
  O  O31  1  0.59042300  0.40573800  0.29355700  1
  O  O32  1  0.75710000  0.29606000  0.20896500  1
  O  O33  1  0.25710000  0.70394000  0.29103500  1
  O  O34  1  0.24290000  0.70394000  0.79103500  1
  O  O35  1  0.74290000  0.29606000  0.70896500  1
  O  O36  1  0.76755500  0.62984900  0.06035300  1
  O  O37  1  0.26755500  0.37015100  0.43964700  1
  O  O38  1  0.23244500  0.37015100  0.93964700  1
  O  O39  1  0.73244500  0.62984900  0.56035300  1
  O  O40  1  0.73127000  0.68312200  0.29436700  1
  O  O41  1  0.23127000  0.31687800  0.20563300  1
  O  O42  1  0.26873000  0.31687800  0.70563300  1
  O  O43  1  0.76873000  0.68312200  0.79436700  1
  O  O44  1  0.60770400  0.60021700  0.09458800  1
  O  O45  1  0.10770400  0.39978300  0.40541200  1
  O  O46  1  0.39229600  0.39978300  0.90541200  1
  O  O47  1  0.89229600  0.60021700  0.59458800  1
  O  O48  1  0.56366100  0.60031200  0.82452800  1
  O  O49  1  0.06366100  0.39968800  0.67547200  1
  O  O50  1  0.43633900  0.39968800  0.17547200  1
  O  O51  1  0.93633900  0.60031200  0.32452800  1
  O  O52  1  0.53168000  0.20502700  0.93106600  1
  O  O53  1  0.03168000  0.79497300  0.56893400  1
  O  O54  1  0.46832000  0.79497300  0.06893400  1
  O  O55  1  0.96832000  0.20502700  0.43106600  1
  O  O56  1  0.98051200  0.29137600  0.18652000  1
  O  O57  1  0.48051200  0.70862400  0.31348000  1
  O  O58  1  0.01948800  0.70862400  0.81348000  1
  O  O59  1  0.51948800  0.29137600  0.68652000  1
  O  O60  1  0.66372400  0.94899200  0.87548400  1
  O  O61  1  0.16372400  0.05100800  0.62451600  1
  O  O62  1  0.33627600  0.05100800  0.12451600  1
  O  O63  1  0.83627600  0.94899200  0.37548400  1
  O  O64  1  0.64131200  0.02685600  0.12376700  1
  O  O65  1  0.14131200  0.97314400  0.37623300  1
  O  O66  1  0.35868800  0.97314400  0.87623300  1
  O  O67  1  0.85868800  0.02685600  0.62376700  1
  O  O68  1  0.70289600  0.32764300  0.95141300  1
  O  O69  1  0.20289600  0.67235700  0.54858700  1
  O  O70  1  0.29710400  0.67235700  0.04858700  1
  O  O71  1  0.79710400  0.32764300  0.45141300  1
  O  O72  1  0.87455800  0.07696300  0.88011800  1
  O  O73  1  0.37455800  0.92303700  0.61988200  1
  O  O74  1  0.12544200  0.92303700  0.11988200  1
  O  O75  1  0.62544200  0.07696300  0.38011800  1
  O  O76  1  0.86543400  0.92267000  0.09481900  1
  O  O77  1  0.36543400  0.07733000  0.40518100  1
  O  O78  1  0.13456600  0.07733000  0.90518100  1
  O  O79  1  0.63456600  0.92267000  0.59481900  1
  O  O80  1  0.92143600  0.81548000  0.05604200  1
  O  O81  1  0.42143600  0.18452000  0.44395800  1
  O  O82  1  0.07856400  0.18452000  0.94395800  1
  O  O83  1  0.57856400  0.81548000  0.55604200  1
