# generated using pymatgen
data_MoH12N3O3F5
_symmetry_space_group_name_H-M   'P 1'
_cell_length_a   6.86662500
_cell_length_b   16.24021000
_cell_length_c   16.72495600
_cell_angle_alpha   90.00000000
_cell_angle_beta   90.00000000
_cell_angle_gamma   90.00000000
_symmetry_Int_Tables_number   1
_chemical_formula_structural   MoH12N3O3F5
_chemical_formula_sum   'Mo8 H96 N24 O24 F40'
_cell_volume   1865.09069337
_cell_formula_units_Z   8
loop_
 _symmetry_equiv_pos_site_id
 _symmetry_equiv_pos_as_xyz
  1  'x, y, z'
loop_
 _atom_site_type_symbol
 _atom_site_label
 _atom_site_symmetry_multiplicity
 _atom_site_fract_x
 _atom_site_fract_y
 _atom_site_fract_z
 _atom_site_occupancy
  Mo  Mo0  1  0.30292700  0.08451300  0.62875400  1
  Mo  Mo1  1  0.69707300  0.41548700  0.12875400  1
  Mo  Mo2  1  0.19707300  0.58451300  0.37124600  1
  Mo  Mo3  1  0.80292700  0.91548700  0.87124600  1
  Mo  Mo4  1  0.69707300  0.91548700  0.37124600  1
  Mo  Mo5  1  0.30292700  0.58451300  0.87124600  1
  Mo  Mo6  1  0.80292700  0.41548700  0.62875400  1
  Mo  Mo7  1  0.19707300  0.08451300  0.12875400  1
  H  H8  1  0.22208400  0.31950900  0.80250900  1
  H  H9  1  0.77791600  0.18049100  0.30250900  1
  H  H10  1  0.27791600  0.81950900  0.19749100  1
  H  H11  1  0.72208400  0.68049100  0.69749100  1
  H  H12  1  0.77791600  0.68049100  0.19749100  1
  H  H13  1  0.22208400  0.81950900  0.69749100  1
  H  H14  1  0.72208400  0.18049100  0.80250900  1
  H  H15  1  0.27791600  0.31950900  0.30250900  1
  H  H16  1  0.29630000  0.27194700  0.71817200  1
  H  H17  1  0.70370000  0.22805300  0.21817200  1
  H  H18  1  0.20370000  0.77194700  0.28182800  1
  H  H19  1  0.79630000  0.72805300  0.78182800  1
  H  H20  1  0.70370000  0.72805300  0.28182800  1
  H  H21  1  0.29630000  0.77194700  0.78182800  1
  H  H22  1  0.79630000  0.22805300  0.71817200  1
  H  H23  1  0.20370000  0.27194700  0.21817200  1
  H  H24  1  0.42468600  0.26103700  0.80554500  1
  H  H25  1  0.57531400  0.23896300  0.30554500  1
  H  H26  1  0.07531400  0.76103700  0.19445500  1
  H  H27  1  0.92468600  0.73896300  0.69445500  1
  H  H28  1  0.57531400  0.73896300  0.19445500  1
  H  H29  1  0.42468600  0.76103700  0.69445500  1
  H  H30  1  0.92468600  0.23896300  0.80554500  1
  H  H31  1  0.07531400  0.26103700  0.30554500  1
  H  H32  1  0.42736700  0.35227300  0.75352000  1
  H  H33  1  0.57263300  0.14772700  0.25352000  1
  H  H34  1  0.07263300  0.85227300  0.24648000  1
  H  H35  1  0.92736700  0.64772700  0.74648000  1
  H  H36  1  0.57263300  0.64772700  0.24648000  1
  H  H37  1  0.42736700  0.85227300  0.74648000  1
  H  H38  1  0.92736700  0.14772700  0.75352000  1
  H  H39  1  0.07263300  0.35227300  0.25352000  1
  H  H40  1  0.24345200  0.04454900  0.82959800  1
  H  H41  1  0.75654800  0.45545100  0.32959800  1
  H  H42  1  0.25654800  0.54454900  0.17040200  1
  H  H43  1  0.74345200  0.95545100  0.67040200  1
  H  H44  1  0.75654800  0.95545100  0.17040200  1
  H  H45  1  0.24345200  0.54454900  0.67040200  1
  H  H46  1  0.74345200  0.45545100  0.82959800  1
  H  H47  1  0.25654800  0.04454900  0.32959800  1
  H  H48  1  0.19840100  0.07110900  0.92530000  1
  H  H49  1  0.80159900  0.42889100  0.42530000  1
  H  H50  1  0.30159900  0.57110900  0.07470000  1
  H  H51  1  0.69840100  0.92889100  0.57470000  1
  H  H52  1  0.80159900  0.92889100  0.07470000  1
  H  H53  1  0.19840100  0.57110900  0.57470000  1
  H  H54  1  0.69840100  0.42889100  0.92530000  1
  H  H55  1  0.30159900  0.07110900  0.42530000  1
  H  H56  1  0.39075200  0.11325000  0.87627900  1
  H  H57  1  0.60924800  0.38675000  0.37627900  1
  H  H58  1  0.10924800  0.61325000  0.12372100  1
  H  H59  1  0.89075200  0.88675000  0.62372100  1
  H  H60  1  0.60924800  0.88675000  0.12372100  1
  H  H61  1  0.39075200  0.61325000  0.62372100  1
  H  H62  1  0.89075200  0.38675000  0.87627900  1
  H  H63  1  0.10924800  0.11325000  0.37627900  1
  H  H64  1  0.39305300  0.01118100  0.90423000  1
  H  H65  1  0.60694700  0.48881900  0.40423000  1
  H  H66  1  0.10694700  0.51118100  0.09577000  1
  H  H67  1  0.89305300  0.98881900  0.59577000  1
  H  H68  1  0.60694700  0.98881900  0.09577000  1
  H  H69  1  0.39305300  0.51118100  0.59577000  1
  H  H70  1  0.89305300  0.48881900  0.90423000  1
  H  H71  1  0.10694700  0.01118100  0.40423000  1
  H  H72  1  0.16134800  0.34377600  0.49507100  1
  H  H73  1  0.83865200  0.15622400  0.99507100  1
  H  H74  1  0.33865200  0.84377600  0.50492900  1
  H  H75  1  0.66134800  0.65622400  0.00492900  1
  H  H76  1  0.83865200  0.65622400  0.50492900  1
  H  H77  1  0.16134800  0.84377600  0.00492900  1
  H  H78  1  0.66134800  0.15622400  0.49507100  1
  H  H79  1  0.33865200  0.34377600  0.99507100  1
  H  H80  1  0.26600200  0.26205100  0.53913100  1
  H  H81  1  0.73399800  0.23794900  0.03913100  1
  H  H82  1  0.23399800  0.76205100  0.46086900  1
  H  H83  1  0.76600200  0.73794900  0.96086900  1
  H  H84  1  0.73399800  0.73794900  0.46086900  1
  H  H85  1  0.26600200  0.76205100  0.96086900  1
  H  H86  1  0.76600200  0.23794900  0.53913100  1
  H  H87  1  0.23399800  0.26205100  0.03913100  1
  H  H88  1  0.38329400  0.35447400  0.53670000  1
  H  H89  1  0.61670600  0.14552600  0.03670000  1
  H  H90  1  0.11670600  0.85447400  0.46330000  1
  H  H91  1  0.88329400  0.64552600  0.96330000  1
  H  H92  1  0.61670600  0.64552600  0.46330000  1
  H  H93  1  0.38329400  0.85447400  0.96330000  1
  H  H94  1  0.88329400  0.14552600  0.53670000  1
  H  H95  1  0.11670600  0.35447400  0.03670000  1
  H  H96  1  0.36115600  0.29963800  0.45070700  1
  H  H97  1  0.63884400  0.20036200  0.95070700  1
  H  H98  1  0.13884400  0.79963800  0.54929300  1
  H  H99  1  0.86115600  0.70036200  0.04929300  1
  H  H100  1  0.63884400  0.70036200  0.54929300  1
  H  H101  1  0.36115600  0.79963800  0.04929300  1
  H  H102  1  0.86115600  0.20036200  0.45070700  1
  H  H103  1  0.13884400  0.29963800  0.95070700  1
  N  N104  1  0.34339700  0.30213600  0.76905600  1
  N  N105  1  0.65660300  0.19786400  0.26905600  1
  N  N106  1  0.15660300  0.80213600  0.23094400  1
  N  N107  1  0.84339700  0.69786400  0.73094400  1
  N  N108  1  0.65660300  0.69786400  0.23094400  1
  N  N109  1  0.34339700  0.80213600  0.73094400  1
  N  N110  1  0.84339700  0.19786400  0.76905600  1
  N  N111  1  0.15660300  0.30213600  0.26905600  1
  N  N112  1  0.30608400  0.05960000  0.88385400  1
  N  N113  1  0.69391600  0.44040000  0.38385400  1
  N  N114  1  0.19391600  0.55960000  0.11614600  1
  N  N115  1  0.80608400  0.94040000  0.61614600  1
  N  N116  1  0.69391600  0.94040000  0.11614600  1
  N  N117  1  0.30608400  0.55960000  0.61614600  1
  N  N118  1  0.80608400  0.44040000  0.88385400  1
  N  N119  1  0.19391600  0.05960000  0.38385400  1
  N  N120  1  0.29119500  0.31415400  0.50542400  1
  N  N121  1  0.70880500  0.18584600  0.00542400  1
  N  N122  1  0.20880500  0.81415400  0.49457600  1
  N  N123  1  0.79119500  0.68584600  0.99457600  1
  N  N124  1  0.70880500  0.68584600  0.49457600  1
  N  N125  1  0.29119500  0.81415400  0.99457600  1
  N  N126  1  0.79119500  0.18584600  0.50542400  1
  N  N127  1  0.20880500  0.31415400  0.00542400  1
  O  O128  1  0.28588500  0.96568900  0.64570800  1
  O  O129  1  0.71411500  0.53431100  0.14570800  1
  O  O130  1  0.21411500  0.46568900  0.35429200  1
  O  O131  1  0.78588500  0.03431100  0.85429200  1
  O  O132  1  0.71411500  0.03431100  0.35429200  1
  O  O133  1  0.28588500  0.46568900  0.85429200  1
  O  O134  1  0.78588500  0.53431100  0.64570800  1
  O  O135  1  0.21411500  0.96568900  0.14570800  1
  O  O136  1  0.37491300  0.98414600  0.56919000  1
  O  O137  1  0.62508700  0.51585400  0.06919000  1
  O  O138  1  0.12508700  0.48414600  0.43081000  1
  O  O139  1  0.87491300  0.01585400  0.93081000  1
  O  O140  1  0.62508700  0.01585400  0.43081000  1
  O  O141  1  0.37491300  0.48414600  0.93081000  1
  O  O142  1  0.87491300  0.51585400  0.56919000  1
  O  O143  1  0.12508700  0.98414600  0.06919000  1
  O  O144  1  0.52191600  0.10576900  0.67369200  1
  O  O145  1  0.47808400  0.39423100  0.17369200  1
  O  O146  1  0.97808400  0.60576900  0.32630800  1
  O  O147  1  0.02191600  0.89423100  0.82630800  1
  O  O148  1  0.47808400  0.89423100  0.32630800  1
  O  O149  1  0.52191600  0.60576900  0.82630800  1
  O  O150  1  0.02191600  0.39423100  0.67369200  1
  O  O151  1  0.97808400  0.10576900  0.17369200  1
  F  F152  1  0.02849000  0.07318200  0.57084900  1
  F  F153  1  0.97151000  0.42681800  0.07084900  1
  F  F154  1  0.47151000  0.57318200  0.42915100  1
  F  F155  1  0.52849000  0.92681800  0.92915100  1
  F  F156  1  0.97151000  0.92681800  0.42915100  1
  F  F157  1  0.02849000  0.57318200  0.92915100  1
  F  F158  1  0.52849000  0.42681800  0.57084900  1
  F  F159  1  0.47151000  0.07318200  0.07084900  1
  F  F160  1  0.20243800  0.20087900  0.64037500  1
  F  F161  1  0.79756200  0.29912100  0.14037500  1
  F  F162  1  0.29756200  0.70087900  0.35962500  1
  F  F163  1  0.70243800  0.79912100  0.85962500  1
  F  F164  1  0.79756200  0.79912100  0.35962500  1
  F  F165  1  0.20243800  0.70087900  0.85962500  1
  F  F166  1  0.70243800  0.29912100  0.64037500  1
  F  F167  1  0.29756200  0.20087900  0.14037500  1
  F  F168  1  0.14518700  0.07741800  0.72994400  1
  F  F169  1  0.85481300  0.42258200  0.22994400  1
  F  F170  1  0.35481300  0.57741800  0.27005600  1
  F  F171  1  0.64518700  0.92258200  0.77005600  1
  F  F172  1  0.85481300  0.92258200  0.27005600  1
  F  F173  1  0.14518700  0.57741800  0.77005600  1
  F  F174  1  0.64518700  0.42258200  0.72994400  1
  F  F175  1  0.35481300  0.07741800  0.22994400  1
  F  F176  1  0.38116500  0.13468800  0.52330200  1
  F  F177  1  0.61883500  0.36531200  0.02330200  1
  F  F178  1  0.11883500  0.63468800  0.47669800  1
  F  F179  1  0.88116500  0.86531200  0.97669800  1
  F  F180  1  0.61883500  0.86531200  0.47669800  1
  F  F181  1  0.38116500  0.63468800  0.97669800  1
  F  F182  1  0.88116500  0.36531200  0.52330200  1
  F  F183  1  0.11883500  0.13468800  0.02330200  1
  F  F184  1  0.01923400  0.29937500  0.86826800  1
  F  F185  1  0.98076600  0.20062500  0.36826800  1
  F  F186  1  0.48076600  0.79937500  0.13173200  1
  F  F187  1  0.51923400  0.70062500  0.63173200  1
  F  F188  1  0.98076600  0.70062500  0.13173200  1
  F  F189  1  0.01923400  0.79937500  0.63173200  1
  F  F190  1  0.51923400  0.20062500  0.86826800  1
  F  F191  1  0.48076600  0.29937500  0.36826800  1
