# generated using pymatgen
data_CoPH3O5
_symmetry_space_group_name_H-M   'P 1'
_cell_length_a   8.34860500
_cell_length_b   9.79151419
_cell_length_c   9.91867589
_cell_angle_alpha   109.30932175
_cell_angle_beta   101.97023339
_cell_angle_gamma   110.51553417
_symmetry_Int_Tables_number   1
_chemical_formula_structural   CoPH3O5
_chemical_formula_sum   'Co6 P6 H18 O30'
_cell_volume   667.00832379
_cell_formula_units_Z   6
loop_
 _symmetry_equiv_pos_site_id
 _symmetry_equiv_pos_as_xyz
  1  'x, y, z'
loop_
 _atom_site_type_symbol
 _atom_site_label
 _atom_site_symmetry_multiplicity
 _atom_site_fract_x
 _atom_site_fract_y
 _atom_site_fract_z
 _atom_site_occupancy
  Co  Co0  1  0.29962800  0.75266000  0.29952500  1
  Co  Co1  1  0.98779500  0.79307200  0.44731300  1
  Co  Co2  1  0.46720000  0.25689900  0.19310800  1
  Co  Co3  1  0.81518800  0.28445900  0.71006100  1
  Co  Co4  1  0.18990300  0.30111000  0.61181200  1
  Co  Co5  1  0.58671300  0.41955100  0.74437500  1
  P  P6  1  0.33110000  0.06274500  0.62134800  1
  P  P7  1  0.77187100  0.49037500  0.49471200  1
  P  P8  1  0.22110600  0.53200200  0.94528100  1
  P  P9  1  0.73472700  0.96378600  0.35570500  1
  P  P10  1  0.37908300  0.61570900  0.55111200  1
  P  P11  1  0.76933300  0.41549300  0.08089100  1
  H  H12  1  0.34448900  0.28538000  0.86312000  1
  H  H13  1  0.41389100  0.03594000  0.27619100  1
  H  H14  1  0.19218300  0.83913500  0.86544500  1
  H  H15  1  0.49778500  0.68590400  0.97817500  1
  H  H16  1  0.48398200  0.95688400  0.73325100  1
  H  H17  1  0.90872800  0.39279000  0.33855700  1
  H  H18  1  0.73978200  0.65717500  0.85472600  1
  H  H19  1  0.82102400  0.15788400  0.75766500  1
  H  H20  1  0.85669100  0.23136300  0.44559900  1
  H  H21  1  0.25459800  0.42355900  0.09707700  1
  H  H22  1  0.32682700  0.13592800  0.37655500  1
  H  H23  1  0.18477600  0.70964600  0.59203300  1
  H  H24  1  0.12909600  0.71653900  0.03667800  1
  H  H25  1  0.14555800  0.95688600  0.81405400  1
  H  H26  1  0.27774000  0.19111200  0.08689900  1
  H  H27  1  0.88988900  0.24590200  0.00719200  1
  H  H28  1  0.86682100  0.95830800  0.18974000  1
  H  H29  1  0.67283700  0.67105200  0.79997200  1
  O  O30  1  0.54379100  0.17604900  0.62645300  1
  O  O31  1  0.83999300  0.36033400  0.40118700  1
  O  O32  1  0.39788100  0.58492800  0.89361700  1
  O  O33  1  0.54917000  0.94683700  0.35462600  1
  O  O34  1  0.21444500  0.62612100  0.60653600  1
  O  O35  1  0.56510700  0.32533200  0.06300500  1
  O  O36  1  0.24213500  0.12258200  0.49515700  1
  O  O37  1  0.75870900  0.44474200  0.62763600  1
  O  O38  1  0.08144000  0.38864200  0.75953500  1
  O  O39  1  0.79561300  0.84696200  0.38871500  1
  O  O40  1  0.32751500  0.60241100  0.38408600  1
  O  O41  1  0.88192300  0.57077100  0.23084800  1
  O  O42  1  0.25657000  0.86638700  0.48272100  1
  O  O43  1  0.91665600  0.66509800  0.55334600  1
  O  O44  1  0.18352100  0.37449600  0.98644100  1
  O  O45  1  0.87893300  0.15047400  0.48321400  1
  O  O46  1  0.35997100  0.45065100  0.55505100  1
  O  O47  1  0.77109800  0.43126500  0.93090300  1
  O  O48  1  0.12634900  0.98816000  0.63839600  1
  O  O49  1  0.38477800  0.12784300  0.29264900  1
  O  O50  1  0.10645300  0.62999300  0.93108600  1
  O  O51  1  0.75362500  0.96272400  0.19779100  1
  O  O52  1  0.56089800  0.75901700  0.66182500  1
  O  O53  1  0.86330200  0.29878900  0.09621600  1
  O  O54  1  0.16927300  0.80972300  0.20173900  1
  O  O55  1  0.15918600  0.92778800  0.90057900  1
  O  O56  1  0.36296400  0.27174700  0.76549900  1
  O  O57  1  0.42891700  0.03071700  0.76578700  1
  O  O58  1  0.59288300  0.45595300  0.38253500  1
  O  O59  1  0.35321200  0.65500800  0.12999700  1
