# generated using pymatgen
data_K4MnH6(S2O9)2
_symmetry_space_group_name_H-M   'P 1'
_cell_length_a   7.60652700
_cell_length_b   10.92753800
_cell_length_c   21.19026200
_cell_angle_alpha   90.00000000
_cell_angle_beta   90.00000000
_cell_angle_gamma   90.00000000
_symmetry_Int_Tables_number   1
_chemical_formula_structural   K4MnH6(S2O9)2
_chemical_formula_sum   'K16 Mn4 H24 S16 O72'
_cell_volume   1761.34756369
_cell_formula_units_Z   4
loop_
 _symmetry_equiv_pos_site_id
 _symmetry_equiv_pos_as_xyz
  1  'x, y, z'
loop_
 _atom_site_type_symbol
 _atom_site_label
 _atom_site_symmetry_multiplicity
 _atom_site_fract_x
 _atom_site_fract_y
 _atom_site_fract_z
 _atom_site_occupancy
  K  K0  1  0.59722000  0.36129500  0.16639200  1
  K  K1  1  0.90278000  0.36129500  0.33360800  1
  K  K2  1  0.09722000  0.13870500  0.83360800  1
  K  K3  1  0.40278000  0.13870500  0.66639200  1
  K  K4  1  0.40278000  0.63870500  0.83360800  1
  K  K5  1  0.09722000  0.63870500  0.66639200  1
  K  K6  1  0.90278000  0.86129500  0.16639200  1
  K  K7  1  0.59722000  0.86129500  0.33360800  1
  K  K8  1  0.22511100  0.66131600  0.44413600  1
  K  K9  1  0.27488900  0.66131600  0.05586400  1
  K  K10  1  0.72511100  0.83868400  0.55586400  1
  K  K11  1  0.77488900  0.83868400  0.94413600  1
  K  K12  1  0.77488900  0.33868400  0.55586400  1
  K  K13  1  0.72511100  0.33868400  0.94413600  1
  K  K14  1  0.27488900  0.16131600  0.44413600  1
  K  K15  1  0.22511100  0.16131600  0.05586400  1
  Mn  Mn16  1  0.25000000  0.65678300  0.25000000  1
  Mn  Mn17  1  0.75000000  0.84321700  0.75000000  1
  Mn  Mn18  1  0.75000000  0.34321700  0.75000000  1
  Mn  Mn19  1  0.25000000  0.15678300  0.25000000  1
  H  H20  1  0.59862400  0.94759200  0.07201800  1
  H  H21  1  0.90137600  0.94759200  0.42798200  1
  H  H22  1  0.09862400  0.55240800  0.92798200  1
  H  H23  1  0.40137600  0.55240800  0.57201800  1
  H  H24  1  0.40137600  0.05240800  0.92798200  1
  H  H25  1  0.09862400  0.05240800  0.57201800  1
  H  H26  1  0.90137600  0.44759200  0.07201800  1
  H  H27  1  0.59862400  0.44759200  0.42798200  1
  H  H28  1  0.59086000  0.14949500  0.28706300  1
  H  H29  1  0.90914000  0.14949500  0.21293700  1
  H  H30  1  0.09086000  0.35050500  0.71293700  1
  H  H31  1  0.40914000  0.35050500  0.78706300  1
  H  H32  1  0.40914000  0.85050500  0.71293700  1
  H  H33  1  0.09086000  0.85050500  0.78706300  1
  H  H34  1  0.90914000  0.64949500  0.28706300  1
  H  H35  1  0.59086000  0.64949500  0.21293700  1
  H  H36  1  0.56220500  0.07652200  0.22252800  1
  H  H37  1  0.93779500  0.07652200  0.27747200  1
  H  H38  1  0.06220500  0.42347800  0.77747200  1
  H  H39  1  0.43779500  0.42347800  0.72252800  1
  H  H40  1  0.43779500  0.92347800  0.77747200  1
  H  H41  1  0.06220500  0.92347800  0.72252800  1
  H  H42  1  0.93779500  0.57652200  0.22252800  1
  H  H43  1  0.56220500  0.57652200  0.27747200  1
  S  S44  1  0.76211800  0.11321000  0.07209900  1
  S  S45  1  0.73788200  0.11321000  0.42790100  1
  S  S46  1  0.26211800  0.38679000  0.92790100  1
  S  S47  1  0.23788200  0.38679000  0.57209900  1
  S  S48  1  0.23788200  0.88679000  0.92790100  1
  S  S49  1  0.26211800  0.88679000  0.57209900  1
  S  S50  1  0.73788200  0.61321000  0.07209900  1
  S  S51  1  0.76211800  0.61321000  0.42790100  1
  S  S52  1  0.36924600  0.90766600  0.16167800  1
  S  S53  1  0.13075400  0.90766600  0.33832200  1
  S  S54  1  0.86924600  0.59233400  0.83832200  1
  S  S55  1  0.63075400  0.59233400  0.66167800  1
  S  S56  1  0.63075400  0.09233400  0.83832200  1
  S  S57  1  0.86924600  0.09233400  0.66167800  1
  S  S58  1  0.13075400  0.40766600  0.16167800  1
  S  S59  1  0.36924600  0.40766600  0.33832200  1
  O  O60  1  0.59292500  0.17664200  0.07618100  1
  O  O61  1  0.90707500  0.17664200  0.42381900  1
  O  O62  1  0.09292500  0.32335800  0.92381900  1
  O  O63  1  0.40707500  0.32335800  0.57618100  1
  O  O64  1  0.40707500  0.82335800  0.92381900  1
  O  O65  1  0.09292500  0.82335800  0.57618100  1
  O  O66  1  0.90707500  0.67664200  0.07618100  1
  O  O67  1  0.59292500  0.67664200  0.42381900  1
  O  O68  1  0.87570600  0.15476900  0.02082800  1
  O  O69  1  0.62429400  0.15476900  0.47917200  1
  O  O70  1  0.37570600  0.34523100  0.97917200  1
  O  O71  1  0.12429400  0.34523100  0.52082800  1
  O  O72  1  0.12429400  0.84523100  0.97917200  1
  O  O73  1  0.37570600  0.84523100  0.52082800  1
  O  O74  1  0.62429400  0.65476900  0.02082800  1
  O  O75  1  0.87570600  0.65476900  0.47917200  1
  O  O76  1  0.85570400  0.10954500  0.13330500  1
  O  O77  1  0.64429600  0.10954500  0.36669500  1
  O  O78  1  0.35570400  0.39045500  0.86669500  1
  O  O79  1  0.14429600  0.39045500  0.63330500  1
  O  O80  1  0.14429600  0.89045500  0.86669500  1
  O  O81  1  0.35570400  0.89045500  0.63330500  1
  O  O82  1  0.64429600  0.60954500  0.13330500  1
  O  O83  1  0.85570400  0.60954500  0.36669500  1
  O  O84  1  0.72099100  0.97249100  0.05541900  1
  O  O85  1  0.77900900  0.97249100  0.44458100  1
  O  O86  1  0.22099100  0.52750900  0.94458100  1
  O  O87  1  0.27900900  0.52750900  0.55541900  1
  O  O88  1  0.27900900  0.02750900  0.94458100  1
  O  O89  1  0.22099100  0.02750900  0.55541900  1
  O  O90  1  0.77900900  0.47249100  0.05541900  1
  O  O91  1  0.72099100  0.47249100  0.44458100  1
  O  O92  1  0.26806500  0.79276800  0.17566400  1
  O  O93  1  0.23193500  0.79276800  0.32433600  1
  O  O94  1  0.76806500  0.70723200  0.82433600  1
  O  O95  1  0.73193500  0.70723200  0.67566400  1
  O  O96  1  0.73193500  0.20723200  0.82433600  1
  O  O97  1  0.76806500  0.20723200  0.67566400  1
  O  O98  1  0.23193500  0.29276800  0.17566400  1
  O  O99  1  0.26806500  0.29276800  0.32433600  1
  O  O100  1  0.25167900  0.01441000  0.17581300  1
  O  O101  1  0.24832100  0.01441000  0.32418700  1
  O  O102  1  0.75167900  0.48559000  0.82418700  1
  O  O103  1  0.74832100  0.48559000  0.67581300  1
  O  O104  1  0.74832100  0.98559000  0.82418700  1
  O  O105  1  0.75167900  0.98559000  0.67581300  1
  O  O106  1  0.24832100  0.51441000  0.17581300  1
  O  O107  1  0.25167900  0.51441000  0.32418700  1
  O  O108  1  0.41178400  0.90695100  0.09303900  1
  O  O109  1  0.08821600  0.90695100  0.40696100  1
  O  O110  1  0.91178400  0.59304900  0.90696100  1
  O  O111  1  0.58821600  0.59304900  0.59303900  1
  O  O112  1  0.58821600  0.09304900  0.90696100  1
  O  O113  1  0.91178400  0.09304900  0.59303900  1
  O  O114  1  0.08821600  0.40695100  0.09303900  1
  O  O115  1  0.41178400  0.40695100  0.40696100  1
  O  O116  1  0.53290000  0.91528800  0.20006800  1
  O  O117  1  0.96710000  0.91528800  0.29993200  1
  O  O118  1  0.03290000  0.58471200  0.79993200  1
  O  O119  1  0.46710000  0.58471200  0.70006800  1
  O  O120  1  0.46710000  0.08471200  0.79993200  1
  O  O121  1  0.03290000  0.08471200  0.70006800  1
  O  O122  1  0.96710000  0.41528800  0.20006800  1
  O  O123  1  0.53290000  0.41528800  0.29993200  1
  O  O124  1  0.54135300  0.15607500  0.24390600  1
  O  O125  1  0.95864700  0.15607500  0.25609400  1
  O  O126  1  0.04135300  0.34392500  0.75609400  1
  O  O127  1  0.45864700  0.34392500  0.74390600  1
  O  O128  1  0.45864700  0.84392500  0.75609400  1
  O  O129  1  0.04135300  0.84392500  0.74390600  1
  O  O130  1  0.95864700  0.65607500  0.24390600  1
  O  O131  1  0.54135300  0.65607500  0.25609400  1
