# generated using pymatgen
data_CoHRu(CO)6
_symmetry_space_group_name_H-M   'P 1'
_cell_length_a   11.61091000
_cell_length_b   9.35032800
_cell_length_c   16.72791560
_cell_angle_alpha   88.46554377
_cell_angle_beta   90.00000000
_cell_angle_gamma   90.00000000
_symmetry_Int_Tables_number   1
_chemical_formula_structural   CoHRu(CO)6
_chemical_formula_sum   'Co8 H8 Ru8 C48 O48'
_cell_volume   1815.42857888
_cell_formula_units_Z   8
loop_
 _symmetry_equiv_pos_site_id
 _symmetry_equiv_pos_as_xyz
  1  'x, y, z'
loop_
 _atom_site_type_symbol
 _atom_site_label
 _atom_site_symmetry_multiplicity
 _atom_site_fract_x
 _atom_site_fract_y
 _atom_site_fract_z
 _atom_site_occupancy
  Co  Co0  1  0.72444100  0.69982800  0.75932800  1
  Co  Co1  1  0.22444100  0.30017200  0.74067200  1
  Co  Co2  1  0.27555900  0.30017200  0.24067200  1
  Co  Co3  1  0.77555900  0.69982800  0.25932800  1
  Co  Co4  1  0.61022700  0.76400300  0.88478600  1
  Co  Co5  1  0.11022700  0.23599700  0.61521400  1
  Co  Co6  1  0.38977300  0.23599700  0.11521400  1
  Co  Co7  1  0.88977300  0.76400300  0.38478600  1
  H  H8  1  0.85717600  0.64157400  0.92507600  1
  H  H9  1  0.35717600  0.35842600  0.57492400  1
  H  H10  1  0.14282400  0.35842600  0.07492400  1
  H  H11  1  0.64282400  0.64157400  0.42507600  1
  H  H12  1  0.62755500  0.61875700  0.82246700  1
  H  H13  1  0.12755500  0.38124300  0.67753300  1
  H  H14  1  0.37244500  0.38124300  0.17753300  1
  H  H15  1  0.87244500  0.61875700  0.32246700  1
  Ru  Ru16  1  0.83927900  0.81759700  0.88259600  1
  Ru  Ru17  1  0.33927900  0.18240300  0.61740400  1
  Ru  Ru18  1  0.16072100  0.18240300  0.11740400  1
  Ru  Ru19  1  0.66072100  0.81759700  0.38259600  1
  Ru  Ru20  1  0.74075100  0.52908700  0.88852500  1
  Ru  Ru21  1  0.24075100  0.47091300  0.61147500  1
  Ru  Ru22  1  0.25924900  0.47091300  0.11147500  1
  Ru  Ru23  1  0.75924900  0.52908700  0.38852500  1
  C  C24  1  0.83643000  0.01134200  0.84169400  1
  C  C25  1  0.33643000  0.98865800  0.65830600  1
  C  C26  1  0.16357000  0.98865800  0.15830600  1
  C  C27  1  0.66357000  0.01134200  0.34169400  1
  C  C28  1  0.99477200  0.78208400  0.85205300  1
  C  C29  1  0.49477200  0.21791600  0.64794700  1
  C  C30  1  0.00522800  0.21791600  0.14794700  1
  C  C31  1  0.50522800  0.78208400  0.35205300  1
  C  C32  1  0.87638700  0.87299100  0.98768000  1
  C  C33  1  0.37638700  0.12700900  0.51232000  1
  C  C34  1  0.12361300  0.12700900  0.01232000  1
  C  C35  1  0.62361300  0.87299100  0.48768000  1
  C  C36  1  0.83105200  0.53387500  0.77962500  1
  C  C37  1  0.33105200  0.46612500  0.72037500  1
  C  C38  1  0.16894800  0.46612500  0.22037500  1
  C  C39  1  0.66894800  0.53387500  0.27962500  1
  C  C40  1  0.64230900  0.61615400  0.97769500  1
  C  C41  1  0.14230900  0.38384600  0.52230500  1
  C  C42  1  0.35769100  0.38384600  0.02230500  1
  C  C43  1  0.85769100  0.61615400  0.47769500  1
  C  C44  1  0.61567600  0.85977800  0.78214800  1
  C  C45  1  0.11567600  0.14022200  0.71785200  1
  C  C46  1  0.38432400  0.14022200  0.21785200  1
  C  C47  1  0.88432400  0.85977800  0.28214800  1
  C  C48  1  0.83622200  0.40343800  0.94873200  1
  C  C49  1  0.33622200  0.59656200  0.55126800  1
  C  C50  1  0.16377800  0.59656200  0.05126800  1
  C  C51  1  0.66377800  0.40343800  0.44873200  1
  C  C52  1  0.64585900  0.37060500  0.86672300  1
  C  C53  1  0.14585900  0.62939500  0.63327700  1
  C  C54  1  0.35414100  0.62939500  0.13327700  1
  C  C55  1  0.85414100  0.37060500  0.36672300  1
  C  C56  1  0.65221600  0.62394600  0.67711500  1
  C  C57  1  0.15221600  0.37605400  0.82288500  1
  C  C58  1  0.34778400  0.37605400  0.32288500  1
  C  C59  1  0.84778400  0.62394600  0.17711500  1
  C  C60  1  0.82026700  0.81109100  0.70634600  1
  C  C61  1  0.32026700  0.18890900  0.79365400  1
  C  C62  1  0.17973300  0.18890900  0.29365400  1
  C  C63  1  0.67973300  0.81109100  0.20634600  1
  C  C64  1  0.45815700  0.74278700  0.89085300  1
  C  C65  1  0.95815700  0.25721300  0.60914700  1
  C  C66  1  0.54184300  0.25721300  0.10914700  1
  C  C67  1  0.04184300  0.74278700  0.39085300  1
  C  C68  1  0.63066800  0.91446500  0.94303200  1
  C  C69  1  0.13066800  0.08553500  0.55696800  1
  C  C70  1  0.36933200  0.08553500  0.05696800  1
  C  C71  1  0.86933200  0.91446500  0.44303200  1
  O  O72  1  0.83847300  0.12917100  0.81903800  1
  O  O73  1  0.33847300  0.87082900  0.68096200  1
  O  O74  1  0.16152700  0.87082900  0.18096200  1
  O  O75  1  0.66152700  0.12917100  0.31903800  1
  O  O76  1  0.08831900  0.75447800  0.83496400  1
  O  O77  1  0.58831900  0.24552200  0.66503600  1
  O  O78  1  0.91168100  0.24552200  0.16503600  1
  O  O79  1  0.41168100  0.75447800  0.33496400  1
  O  O80  1  0.89976700  0.90955700  0.05143600  1
  O  O81  1  0.39976700  0.09044300  0.44856400  1
  O  O82  1  0.10023300  0.09044300  0.94856400  1
  O  O83  1  0.60023300  0.90955700  0.55143600  1
  O  O84  1  0.90705200  0.47846600  0.74592500  1
  O  O85  1  0.40705200  0.52153400  0.75407500  1
  O  O86  1  0.09294800  0.52153400  0.25407500  1
  O  O87  1  0.59294800  0.47846600  0.24592500  1
  O  O88  1  0.61339800  0.60515500  0.04484200  1
  O  O89  1  0.11339800  0.39484500  0.45515800  1
  O  O90  1  0.38660200  0.39484500  0.95515800  1
  O  O91  1  0.88660200  0.60515500  0.54484200  1
  O  O92  1  0.57979500  0.96049300  0.74690800  1
  O  O93  1  0.07979500  0.03950700  0.75309200  1
  O  O94  1  0.42020500  0.03950700  0.25309200  1
  O  O95  1  0.92020500  0.96049300  0.24690800  1
  O  O96  1  0.89472900  0.32452900  0.98471700  1
  O  O97  1  0.39472900  0.67547100  0.51528300  1
  O  O98  1  0.10527100  0.67547100  0.01528300  1
  O  O99  1  0.60527100  0.32452900  0.48471700  1
  O  O100  1  0.59084600  0.27100300  0.85318700  1
  O  O101  1  0.09084600  0.72899700  0.64681300  1
  O  O102  1  0.40915400  0.72899700  0.14681300  1
  O  O103  1  0.90915400  0.27100300  0.35318700  1
  O  O104  1  0.60973600  0.57484000  0.62154800  1
  O  O105  1  0.10973600  0.42516000  0.87845200  1
  O  O106  1  0.39026400  0.42516000  0.37845200  1
  O  O107  1  0.89026400  0.57484000  0.12154800  1
  O  O108  1  0.87397400  0.88521900  0.66401800  1
  O  O109  1  0.37397400  0.11478100  0.83598200  1
  O  O110  1  0.12602600  0.11478100  0.33598200  1
  O  O111  1  0.62602600  0.88521900  0.16401800  1
  O  O112  1  0.35930200  0.73305600  0.89729700  1
  O  O113  1  0.85930200  0.26694400  0.60270300  1
  O  O114  1  0.64069800  0.26694400  0.10270300  1
  O  O115  1  0.14069800  0.73305600  0.39729700  1
  O  O116  1  0.62779000  0.01636300  0.98146200  1
  O  O117  1  0.12779000  0.98363700  0.51853800  1
  O  O118  1  0.37221000  0.98363700  0.01853800  1
  O  O119  1  0.87221000  0.01636300  0.48146200  1
