# generated using pymatgen
data_Mn2OF2
_symmetry_space_group_name_H-M   'P 1'
_cell_length_a   5.62067241
_cell_length_b   5.62067241
_cell_length_c   14.60975679
_cell_angle_alpha   89.81806709
_cell_angle_beta   89.81806709
_cell_angle_gamma   58.53809315
_symmetry_Int_Tables_number   1
_chemical_formula_structural   Mn2OF2
_chemical_formula_sum   'Mn12 O6 F12'
_cell_volume   393.69441415
_cell_formula_units_Z   6
loop_
 _symmetry_equiv_pos_site_id
 _symmetry_equiv_pos_as_xyz
  1  'x, y, z'
loop_
 _atom_site_type_symbol
 _atom_site_label
 _atom_site_symmetry_multiplicity
 _atom_site_fract_x
 _atom_site_fract_y
 _atom_site_fract_z
 _atom_site_occupancy
  Mn  Mn0  1  0.00946700  0.98166900  0.14413600  1
  Mn  Mn1  1  0.98166900  0.00946700  0.64413600  1
  Mn  Mn2  1  0.37694300  0.33558700  0.31022500  1
  Mn  Mn3  1  0.35732200  0.34672900  0.02281700  1
  Mn  Mn4  1  0.33558700  0.37694300  0.81022500  1
  Mn  Mn5  1  0.34672900  0.35732200  0.52281700  1
  Mn  Mn6  1  0.65327100  0.64267800  0.47718300  1
  Mn  Mn7  1  0.66441300  0.62305700  0.18977500  1
  Mn  Mn8  1  0.64267800  0.65327100  0.97718300  1
  Mn  Mn9  1  0.62305700  0.66441300  0.68977500  1
  Mn  Mn10  1  0.01833100  0.99053300  0.35586400  1
  Mn  Mn11  1  0.99053300  0.01833100  0.85586400  1
  O  O12  1  0.33165300  0.62580500  0.41355800  1
  O  O13  1  0.62580500  0.33165300  0.91355800  1
  O  O14  1  0.37419500  0.66834700  0.08644200  1
  O  O15  1  0.66834700  0.37419500  0.58644200  1
  O  O16  1  0.74832000  0.25168000  0.25000000  1
  O  O17  1  0.25168000  0.74832000  0.75000000  1
  F  F18  1  0.00474600  0.66381300  0.24499300  1
  F  F19  1  0.66381300  0.00474600  0.74499300  1
  F  F20  1  0.64671700  0.00678700  0.41988800  1
  F  F21  1  0.00678700  0.64671700  0.91988800  1
  F  F22  1  0.67468300  0.95207800  0.08196700  1
  F  F23  1  0.95207800  0.67468300  0.58196700  1
  F  F24  1  0.04792200  0.32531700  0.41803300  1
  F  F25  1  0.32531700  0.04792200  0.91803300  1
  F  F26  1  0.99321300  0.35328300  0.08011200  1
  F  F27  1  0.35328300  0.99321300  0.58011200  1
  F  F28  1  0.33618700  0.99525400  0.25500700  1
  F  F29  1  0.99525400  0.33618700  0.75500700  1
