# generated using pymatgen
data_La3ScO6
_symmetry_space_group_name_H-M   'P 1'
_cell_length_a   6.94881183
_cell_length_b   6.94881183
_cell_length_c   6.94881125
_cell_angle_alpha   92.29217516
_cell_angle_beta   92.29217516
_cell_angle_gamma   92.29216969
_symmetry_Int_Tables_number   1
_chemical_formula_structural   La3ScO6
_chemical_formula_sum   'La6 Sc2 O12'
_cell_volume   334.70263191
_cell_formula_units_Z   2
loop_
 _symmetry_equiv_pos_site_id
 _symmetry_equiv_pos_as_xyz
  1  'x, y, z'
loop_
 _atom_site_type_symbol
 _atom_site_label
 _atom_site_symmetry_multiplicity
 _atom_site_fract_x
 _atom_site_fract_y
 _atom_site_fract_z
 _atom_site_occupancy
  La  La0  1  0.43971000  0.74627000  0.93211400  1
  La  La1  1  0.25373000  0.06788600  0.56029000  1
  La  La2  1  0.06788600  0.56029000  0.25373000  1
  La  La3  1  0.93211400  0.43971000  0.74627000  1
  La  La4  1  0.74627000  0.93211400  0.43971000  1
  La  La5  1  0.56029000  0.25373000  0.06788600  1
  Sc  Sc6  1  0.00000000  0.00000000  0.00000000  1
  Sc  Sc7  1  0.50000000  0.50000000  0.50000000  1
  O  O8  1  0.07894100  0.70237300  0.93581800  1
  O  O9  1  0.29762700  0.06418200  0.92105900  1
  O  O10  1  0.20349000  0.41226500  0.53944800  1
  O  O11  1  0.06418200  0.92105900  0.29762700  1
  O  O12  1  0.58773500  0.46055200  0.79651000  1
  O  O13  1  0.46055200  0.79651000  0.58773500  1
  O  O14  1  0.53944800  0.20349000  0.41226500  1
  O  O15  1  0.41226500  0.53944800  0.20349000  1
  O  O16  1  0.93581800  0.07894100  0.70237300  1
  O  O17  1  0.79651000  0.58773500  0.46055200  1
  O  O18  1  0.70237300  0.93581800  0.07894100  1
  O  O19  1  0.92105900  0.29762700  0.06418200  1
