# generated using pymatgen
data_Ti3VCu2(PO4)6
_symmetry_space_group_name_H-M   'P 1'
_cell_length_a   8.60763119
_cell_length_b   8.60763119
_cell_length_c   8.60763068
_cell_angle_alpha   59.96833563
_cell_angle_beta   59.96833563
_cell_angle_gamma   59.96834188
_symmetry_Int_Tables_number   1
_chemical_formula_structural   Ti3VCu2(PO4)6
_chemical_formula_sum   'Ti3 V1 Cu2 P6 O24'
_cell_volume   450.63403502
_cell_formula_units_Z   1
loop_
 _symmetry_equiv_pos_site_id
 _symmetry_equiv_pos_as_xyz
  1  'x, y, z'
loop_
 _atom_site_type_symbol
 _atom_site_label
 _atom_site_symmetry_multiplicity
 _atom_site_fract_x
 _atom_site_fract_y
 _atom_site_fract_z
 _atom_site_occupancy
  Ti  Ti0  1  0.64193900  0.64193900  0.64193900  1
  Ti  Ti1  1  0.85810400  0.85810400  0.85810400  1
  Ti  Ti2  1  0.35808400  0.35808400  0.35808400  1
  V  V3  1  0.14239400  0.14239400  0.14239400  1
  Cu  Cu4  1  0.99922000  0.99922000  0.99922000  1
  Cu  Cu5  1  0.50003800  0.50003800  0.50003800  1
  P  P6  1  0.24974200  0.53809700  0.96113400  1
  P  P7  1  0.96113400  0.24974200  0.53809700  1
  P  P8  1  0.53809700  0.96113400  0.24974200  1
  P  P9  1  0.45912400  0.03976700  0.75193600  1
  P  P10  1  0.03976700  0.75193600  0.45912400  1
  P  P11  1  0.75193600  0.45912400  0.03976700  1
  O  O12  1  0.12596300  0.30287000  0.49972300  1
  O  O13  1  0.49972300  0.12596300  0.30287000  1
  O  O14  1  0.30287000  0.49972300  0.12596300  1
  O  O15  1  0.08334800  0.72922300  0.94261000  1
  O  O16  1  0.19694500  0.37614700  0.99606700  1
  O  O17  1  0.41701500  0.55775600  0.77077600  1
  O  O18  1  0.94261000  0.08334800  0.72922300  1
  O  O19  1  0.77077600  0.41701500  0.55775600  1
  O  O20  1  0.62542100  0.00043700  0.80332600  1
  O  O21  1  0.55775600  0.77077600  0.41701500  1
  O  O22  1  0.26898100  0.05827000  0.91835000  1
  O  O23  1  0.00043700  0.80332600  0.62542100  1
  O  O24  1  0.99606700  0.19694500  0.37614700  1
  O  O25  1  0.72922300  0.94261000  0.08334800  1
  O  O26  1  0.44119700  0.22965100  0.58448600  1
  O  O27  1  0.37614700  0.99606700  0.19694500  1
  O  O28  1  0.22965100  0.58448600  0.44119700  1
  O  O29  1  0.05827000  0.91835000  0.26898100  1
  O  O30  1  0.58448600  0.44119700  0.22965100  1
  O  O31  1  0.80332600  0.62542100  0.00043700  1
  O  O32  1  0.91835000  0.26898100  0.05827000  1
  O  O33  1  0.69892800  0.49852100  0.87438500  1
  O  O34  1  0.49852100  0.87438500  0.69892800  1
  O  O35  1  0.87438500  0.69892800  0.49852100  1
