# generated using pymatgen
data_FeCuPd2
_symmetry_space_group_name_H-M   'P 1'
_cell_length_a   10.60602815
_cell_length_b   10.60602815
_cell_length_c   10.60602815
_cell_angle_alpha   126.62654401
_cell_angle_beta   117.80152710
_cell_angle_gamma   86.38757442
_symmetry_Int_Tables_number   1
_chemical_formula_structural   FeCuPd2
_chemical_formula_sum   'Fe1 Cu1 Pd2'
_cell_volume   807.07674119
_cell_formula_units_Z   1
loop_
 _symmetry_equiv_pos_site_id
 _symmetry_equiv_pos_as_xyz
  1  'x, y, z'
loop_
 _atom_site_type_symbol
 _atom_site_label
 _atom_site_symmetry_multiplicity
 _atom_site_fract_x
 _atom_site_fract_y
 _atom_site_fract_z
 _atom_site_occupancy
  Fe  Fe0  1  0.00000000  0.00000000  0.00000000  1
  Cu  Cu1  1  0.00000000  0.50000000  0.50000000  1
  Pd  Pd2  1  0.00000000  0.23900100  0.23900100  1
  Pd  Pd3  1  0.00000000  0.76099900  0.76099900  1
