# generated using pymatgen
data_Y2HfO5
_symmetry_space_group_name_H-M   'P 1'
_cell_length_a   7.23389700
_cell_length_b   6.51167000
_cell_length_c   9.68786930
_cell_angle_alpha   75.26618401
_cell_angle_beta   90.00000000
_cell_angle_gamma   90.00000000
_symmetry_Int_Tables_number   1
_chemical_formula_structural   Y2HfO5
_chemical_formula_sum   'Y8 Hf4 O20'
_cell_volume   441.33905306
_cell_formula_units_Z   4
loop_
 _symmetry_equiv_pos_site_id
 _symmetry_equiv_pos_as_xyz
  1  'x, y, z'
loop_
 _atom_site_type_symbol
 _atom_site_label
 _atom_site_symmetry_multiplicity
 _atom_site_fract_x
 _atom_site_fract_y
 _atom_site_fract_z
 _atom_site_occupancy
  Y  Y0  1  0.63746300  0.02931200  0.14680500  1
  Y  Y1  1  0.86253700  0.52931200  0.14680500  1
  Y  Y2  1  0.62378700  0.23910400  0.46920100  1
  Y  Y3  1  0.12378700  0.26089600  0.53079900  1
  Y  Y4  1  0.87621300  0.73910400  0.46920100  1
  Y  Y5  1  0.37621300  0.76089600  0.53079900  1
  Y  Y6  1  0.13746300  0.47068800  0.85319500  1
  Y  Y7  1  0.36253700  0.97068800  0.85319500  1
  Hf  Hf8  1  0.11094000  0.06147300  0.18882200  1
  Hf  Hf9  1  0.38906000  0.56147300  0.18882200  1
  Hf  Hf10  1  0.61094000  0.43852700  0.81117800  1
  Hf  Hf11  1  0.88906000  0.93852700  0.81117800  1
  O  O12  1  0.32255500  0.88946500  0.15163700  1
  O  O13  1  0.89363100  0.22936900  0.06522100  1
  O  O14  1  0.17744500  0.38946500  0.15163700  1
  O  O15  1  0.59036800  0.33554600  0.22357600  1
  O  O16  1  0.60636900  0.72936900  0.06522100  1
  O  O17  1  0.90963200  0.83554600  0.22357600  1
  O  O18  1  0.88817000  0.42542900  0.39005400  1
  O  O19  1  0.36265800  0.49527200  0.39845600  1
  O  O20  1  0.61183000  0.92542900  0.39005400  1
  O  O21  1  0.13734200  0.99527200  0.39845600  1
  O  O22  1  0.86265800  0.00472800  0.60154400  1
  O  O23  1  0.38817000  0.07457100  0.60994600  1
  O  O24  1  0.63734200  0.50472800  0.60154400  1
  O  O25  1  0.11183000  0.57457100  0.60994600  1
  O  O26  1  0.09036800  0.16445400  0.77642400  1
  O  O27  1  0.39363100  0.27063100  0.93477900  1
  O  O28  1  0.40963200  0.66445400  0.77642400  1
  O  O29  1  0.82255500  0.61053500  0.84836300  1
  O  O30  1  0.10636900  0.77063100  0.93477900  1
  O  O31  1  0.67744500  0.11053500  0.84836300  1
