# generated using pymatgen
data_Sr2MgIn
_symmetry_space_group_name_H-M   'P 1'
_cell_length_a   13.03153925
_cell_length_b   13.03153925
_cell_length_c   13.03153925
_cell_angle_alpha   123.74381884
_cell_angle_beta   116.03680303
_cell_angle_gamma   90.31920149
_symmetry_Int_Tables_number   1
_chemical_formula_structural   Sr2MgIn
_chemical_formula_sum   'Sr2 Mg1 In1'
_cell_volume   1558.60412778
_cell_formula_units_Z   1
loop_
 _symmetry_equiv_pos_site_id
 _symmetry_equiv_pos_as_xyz
  1  'x, y, z'
loop_
 _atom_site_type_symbol
 _atom_site_label
 _atom_site_symmetry_multiplicity
 _atom_site_fract_x
 _atom_site_fract_y
 _atom_site_fract_z
 _atom_site_occupancy
  Sr  Sr0  1  0.73343700  0.00000000  0.73343700  1
  Sr  Sr1  1  0.26656300  0.00000000  0.26656300  1
  Mg  Mg2  1  0.00000000  0.00000000  0.00000000  1
  In  In3  1  0.50000000  0.00000000  0.50000000  1
