# generated using pymatgen
data_Fe2OF3
_symmetry_space_group_name_H-M   'P 1'
_cell_length_a   4.79496115
_cell_length_b   4.79496115
_cell_length_c   9.26327100
_cell_angle_alpha   90.00000000
_cell_angle_beta   90.00000000
_cell_angle_gamma   92.21876508
_symmetry_Int_Tables_number   1
_chemical_formula_structural   Fe2OF3
_chemical_formula_sum   'Fe6 O3 F9'
_cell_volume   212.81823520
_cell_formula_units_Z   3
loop_
 _symmetry_equiv_pos_site_id
 _symmetry_equiv_pos_as_xyz
  1  'x, y, z'
loop_
 _atom_site_type_symbol
 _atom_site_label
 _atom_site_symmetry_multiplicity
 _atom_site_fract_x
 _atom_site_fract_y
 _atom_site_fract_z
 _atom_site_occupancy
  Fe  Fe0  1  0.96839100  0.96839100  0.00000000  1
  Fe  Fe1  1  0.01953600  0.01953600  0.33296800  1
  Fe  Fe2  1  0.01953600  0.01953600  0.66703200  1
  Fe  Fe3  1  0.49960700  0.49960700  0.83269700  1
  Fe  Fe4  1  0.49960700  0.49960700  0.16730300  1
  Fe  Fe5  1  0.47148100  0.47148100  0.50000000  1
  O  O6  1  0.31740900  0.31740900  0.67117500  1
  O  O7  1  0.31740900  0.31740900  0.32882500  1
  O  O8  1  0.67420200  0.67420200  0.00000000  1
  F  F9  1  0.79354300  0.20537700  0.16852200  1
  F  F10  1  0.80274500  0.21237800  0.50000000  1
  F  F11  1  0.79354300  0.20537700  0.83147800  1
  F  F12  1  0.28732200  0.28732200  0.00000000  1
  F  F13  1  0.70627000  0.70627000  0.33620200  1
  F  F14  1  0.70627000  0.70627000  0.66379800  1
  F  F15  1  0.20537700  0.79354300  0.83147800  1
  F  F16  1  0.21237800  0.80274500  0.50000000  1
  F  F17  1  0.20537700  0.79354300  0.16852200  1
