# generated using pymatgen
data_V2NiP2H6O13
_symmetry_space_group_name_H-M   'P 1'
_cell_length_a   9.55650700
_cell_length_b   10.61960700
_cell_length_c   10.62382300
_cell_angle_alpha   90.00000000
_cell_angle_beta   90.00000000
_cell_angle_gamma   90.00000000
_symmetry_Int_Tables_number   1
_chemical_formula_structural   V2NiP2H6O13
_chemical_formula_sum   'V8 Ni4 P8 H24 O52'
_cell_volume   1078.17300479
_cell_formula_units_Z   4
loop_
 _symmetry_equiv_pos_site_id
 _symmetry_equiv_pos_as_xyz
  1  'x, y, z'
loop_
 _atom_site_type_symbol
 _atom_site_label
 _atom_site_symmetry_multiplicity
 _atom_site_fract_x
 _atom_site_fract_y
 _atom_site_fract_z
 _atom_site_occupancy
  V  V0  1  0.25000000  0.18602500  0.67614800  1
  V  V1  1  0.25000000  0.31397500  0.17614800  1
  V  V2  1  0.75000000  0.81397500  0.32385200  1
  V  V3  1  0.75000000  0.68602500  0.82385200  1
  V  V4  1  0.25000000  0.91183300  0.48554300  1
  V  V5  1  0.25000000  0.58816700  0.98554300  1
  V  V6  1  0.75000000  0.08816700  0.51445700  1
  V  V7  1  0.75000000  0.41183300  0.01445700  1
  Ni  Ni8  1  0.25000000  0.85727900  0.74365600  1
  Ni  Ni9  1  0.25000000  0.64272100  0.24365600  1
  Ni  Ni10  1  0.75000000  0.14272100  0.25634400  1
  Ni  Ni11  1  0.75000000  0.35727900  0.75634400  1
  P  P12  1  0.55616600  0.80872800  0.58618000  1
  P  P13  1  0.94383400  0.69127200  0.08618000  1
  P  P14  1  0.05616600  0.19127200  0.41382000  1
  P  P15  1  0.44383400  0.30872800  0.91382000  1
  P  P16  1  0.44383400  0.19127200  0.41382000  1
  P  P17  1  0.05616600  0.30872800  0.91382000  1
  P  P18  1  0.94383400  0.80872800  0.58618000  1
  P  P19  1  0.55616600  0.69127200  0.08618000  1
  H  H20  1  0.60447000  0.89870700  0.93137400  1
  H  H21  1  0.89553000  0.60129300  0.43137400  1
  H  H22  1  0.10447000  0.10129300  0.06862600  1
  H  H23  1  0.39553000  0.39870700  0.56862600  1
  H  H24  1  0.39553000  0.10129300  0.06862600  1
  H  H25  1  0.10447000  0.39870700  0.56862600  1
  H  H26  1  0.89553000  0.89870700  0.93137400  1
  H  H27  1  0.60447000  0.60129300  0.43137400  1
  H  H28  1  0.71057100  0.10128100  0.74011800  1
  H  H29  1  0.78942900  0.39871900  0.24011800  1
  H  H30  1  0.21057100  0.89871900  0.25988200  1
  H  H31  1  0.28942900  0.60128100  0.75988200  1
  H  H32  1  0.28942900  0.89871900  0.25988200  1
  H  H33  1  0.21057100  0.60128100  0.75988200  1
  H  H34  1  0.78942900  0.10128100  0.74011800  1
  H  H35  1  0.71057100  0.39871900  0.24011800  1
  H  H36  1  0.25000000  0.07400200  0.37729400  1
  H  H37  1  0.25000000  0.42599800  0.87729400  1
  H  H38  1  0.75000000  0.92599800  0.62270600  1
  H  H39  1  0.75000000  0.57400200  0.12270600  1
  H  H40  1  0.25000000  0.82931800  0.96827200  1
  H  H41  1  0.25000000  0.67068200  0.46827200  1
  H  H42  1  0.75000000  0.17068200  0.03172800  1
  H  H43  1  0.75000000  0.32931800  0.53172800  1
  O  O44  1  0.37409900  0.05538600  0.39733500  1
  O  O45  1  0.12590100  0.44461400  0.89733500  1
  O  O46  1  0.87409900  0.94461400  0.60266500  1
  O  O47  1  0.62590100  0.55538600  0.10266500  1
  O  O48  1  0.62590100  0.94461400  0.60266500  1
  O  O49  1  0.87409900  0.55538600  0.10266500  1
  O  O50  1  0.12590100  0.05538600  0.39733500  1
  O  O51  1  0.37409900  0.44461400  0.89733500  1
  O  O52  1  0.39464900  0.82223300  0.59904500  1
  O  O53  1  0.10535100  0.67776700  0.09904500  1
  O  O54  1  0.89464900  0.17776700  0.40095500  1
  O  O55  1  0.60535100  0.32223300  0.90095500  1
  O  O56  1  0.60535100  0.17776700  0.40095500  1
  O  O57  1  0.89464900  0.32223300  0.90095500  1
  O  O58  1  0.10535100  0.82223300  0.59904500  1
  O  O59  1  0.39464900  0.67776700  0.09904500  1
  O  O60  1  0.59661400  0.76012500  0.45463600  1
  O  O61  1  0.90338600  0.73987500  0.95463600  1
  O  O62  1  0.09661400  0.23987500  0.54536400  1
  O  O63  1  0.40338600  0.26012500  0.04536400  1
  O  O64  1  0.40338600  0.23987500  0.54536400  1
  O  O65  1  0.09661400  0.26012500  0.04536400  1
  O  O66  1  0.90338600  0.76012500  0.45463600  1
  O  O67  1  0.59661400  0.73987500  0.95463600  1
  O  O68  1  0.25000000  0.01468900  0.64741500  1
  O  O69  1  0.25000000  0.48531100  0.14741500  1
  O  O70  1  0.75000000  0.98531100  0.35258500  1
  O  O71  1  0.75000000  0.51468900  0.85258500  1
  O  O72  1  0.25000000  0.76674700  0.89946300  1
  O  O73  1  0.25000000  0.73325300  0.39946300  1
  O  O74  1  0.75000000  0.23325300  0.10053700  1
  O  O75  1  0.75000000  0.26674700  0.60053700  1
  O  O76  1  0.60521700  0.72569900  0.69370400  1
  O  O77  1  0.89478300  0.77430100  0.19370400  1
  O  O78  1  0.10521700  0.27430100  0.30629600  1
  O  O79  1  0.39478300  0.22569900  0.80629600  1
  O  O80  1  0.39478300  0.27430100  0.30629600  1
  O  O81  1  0.10521700  0.22569900  0.80629600  1
  O  O82  1  0.89478300  0.72569900  0.69370400  1
  O  O83  1  0.60521700  0.77430100  0.19370400  1
  O  O84  1  0.12536500  0.01371300  0.09854400  1
  O  O85  1  0.37463500  0.48628700  0.59854400  1
  O  O86  1  0.62536500  0.98628700  0.90145600  1
  O  O87  1  0.87463500  0.51371300  0.40145600  1
  O  O88  1  0.87463500  0.98628700  0.90145600  1
  O  O89  1  0.62536500  0.51371300  0.40145600  1
  O  O90  1  0.37463500  0.01371300  0.09854400  1
  O  O91  1  0.12536500  0.48628700  0.59854400  1
  O  O92  1  0.25000000  0.51550200  0.52672000  1
  O  O93  1  0.25000000  0.98449800  0.02672000  1
  O  O94  1  0.75000000  0.48449800  0.47328000  1
  O  O95  1  0.75000000  0.01550200  0.97328000  1
