# generated using pymatgen
data_SbO2F
_symmetry_space_group_name_H-M   'P 1'
_cell_length_a   5.10515950
_cell_length_b   5.10515950
_cell_length_c   5.55783135
_cell_angle_alpha   60.63550736
_cell_angle_beta   60.63550736
_cell_angle_gamma   61.70833419
_symmetry_Int_Tables_number   1
_chemical_formula_structural   SbO2F
_chemical_formula_sum   'Sb2 O4 F2'
_cell_volume   104.69313589
_cell_formula_units_Z   2
loop_
 _symmetry_equiv_pos_site_id
 _symmetry_equiv_pos_as_xyz
  1  'x, y, z'
loop_
 _atom_site_type_symbol
 _atom_site_label
 _atom_site_symmetry_multiplicity
 _atom_site_fract_x
 _atom_site_fract_y
 _atom_site_fract_z
 _atom_site_occupancy
  Sb  Sb0  1  0.31167400  0.74838400  0.14939800  1
  Sb  Sb1  1  0.74838400  0.31167400  0.64939800  1
  O  O2  1  0.90415700  0.67555900  0.41085900  1
  O  O3  1  0.53805300  0.38325500  0.40184600  1
  O  O4  1  0.67555900  0.90415700  0.91085900  1
  O  O5  1  0.38325500  0.53805300  0.90184600  1
  F  F6  1  0.15521600  0.04127200  0.40154500  1
  F  F7  1  0.04127200  0.15521600  0.90154500  1
