# generated using pymatgen
data_VO2F
_symmetry_space_group_name_H-M   'P 1'
_cell_length_a   5.32300700
_cell_length_b   5.74496200
_cell_length_c   7.10096303
_cell_angle_alpha   80.86685116
_cell_angle_beta   90.00000000
_cell_angle_gamma   90.00000000
_symmetry_Int_Tables_number   1
_chemical_formula_structural   VO2F
_chemical_formula_sum   'V4 O8 F4'
_cell_volume   214.39779980
_cell_formula_units_Z   4
loop_
 _symmetry_equiv_pos_site_id
 _symmetry_equiv_pos_as_xyz
  1  'x, y, z'
loop_
 _atom_site_type_symbol
 _atom_site_label
 _atom_site_symmetry_multiplicity
 _atom_site_fract_x
 _atom_site_fract_y
 _atom_site_fract_z
 _atom_site_occupancy
  V  V0  1  0.39590100  0.75380600  0.67692100  1
  V  V1  1  0.10409900  0.25380600  0.67692100  1
  V  V2  1  0.60409900  0.24619400  0.32307900  1
  V  V3  1  0.89590100  0.74619400  0.32307900  1
  O  O4  1  0.86305300  0.02774400  0.21900900  1
  O  O5  1  0.36305300  0.47225600  0.78099100  1
  O  O6  1  0.63694700  0.52774400  0.21900900  1
  O  O7  1  0.13694700  0.97225600  0.78099100  1
  O  O8  1  0.12075500  0.74244300  0.50184900  1
  O  O9  1  0.62075500  0.75755700  0.49815100  1
  O  O10  1  0.37924500  0.24244300  0.50184900  1
  O  O11  1  0.87924500  0.25755700  0.49815100  1
  F  F12  1  0.90961900  0.37922800  0.83841600  1
  F  F13  1  0.59038100  0.87922800  0.83841600  1
  F  F14  1  0.09038100  0.62077200  0.16158400  1
  F  F15  1  0.40961900  0.12077200  0.16158400  1
