# generated using pymatgen
data_TaAlRe2
_symmetry_space_group_name_H-M   'P 1'
_cell_length_a   10.97293900
_cell_length_b   10.97293900
_cell_length_c   10.97293900
_cell_angle_alpha   128.45794676
_cell_angle_beta   116.21160690
_cell_angle_gamma   86.35193875
_symmetry_Int_Tables_number   1
_chemical_formula_structural   TaAlRe2
_chemical_formula_sum   'Ta1 Al1 Re2'
_cell_volume   885.31468797
_cell_formula_units_Z   1
loop_
 _symmetry_equiv_pos_site_id
 _symmetry_equiv_pos_as_xyz
  1  'x, y, z'
loop_
 _atom_site_type_symbol
 _atom_site_label
 _atom_site_symmetry_multiplicity
 _atom_site_fract_x
 _atom_site_fract_y
 _atom_site_fract_z
 _atom_site_occupancy
  Ta  Ta0  1  0.00000000  0.50000000  0.50000000  1
  Al  Al1  1  0.00000000  0.00000000  0.00000000  1
  Re  Re2  1  0.00000000  0.26055300  0.26055300  1
  Re  Re3  1  0.00000000  0.73944700  0.73944700  1
