# generated using pymatgen
data_CeHfO4
_symmetry_space_group_name_H-M   'P 1'
_cell_length_a   6.57698744
_cell_length_b   6.57698744
_cell_length_c   5.24155039
_cell_angle_alpha   69.16979257
_cell_angle_beta   69.16979257
_cell_angle_gamma   114.09373310
_symmetry_Int_Tables_number   1
_chemical_formula_structural   CeHfO4
_chemical_formula_sum   'Ce2 Hf2 O8'
_cell_volume   156.62652553
_cell_formula_units_Z   2
loop_
 _symmetry_equiv_pos_site_id
 _symmetry_equiv_pos_as_xyz
  1  'x, y, z'
loop_
 _atom_site_type_symbol
 _atom_site_label
 _atom_site_symmetry_multiplicity
 _atom_site_fract_x
 _atom_site_fract_y
 _atom_site_fract_z
 _atom_site_occupancy
  Ce  Ce0  1  0.86405400  0.13594600  0.25000000  1
  Ce  Ce1  1  0.13594600  0.86405400  0.75000000  1
  Hf  Hf2  1  0.59638100  0.40361900  0.75000000  1
  Hf  Hf3  1  0.40361900  0.59638100  0.25000000  1
  O  O4  1  0.88477800  0.45083800  0.83659100  1
  O  O5  1  0.54916200  0.11522200  0.66340900  1
  O  O6  1  0.28326100  0.23330400  0.23329300  1
  O  O7  1  0.76669600  0.71673900  0.26670700  1
  O  O8  1  0.23330400  0.28326100  0.73329300  1
  O  O9  1  0.71673900  0.76669600  0.76670700  1
  O  O10  1  0.45083800  0.88477800  0.33659100  1
  O  O11  1  0.11522200  0.54916200  0.16340900  1
