# generated using pymatgen
data_La2SiO5
_symmetry_space_group_name_H-M   'P 1'
_cell_length_a   8.31592218
_cell_length_b   8.31592218
_cell_length_c   11.14509430
_cell_angle_alpha   61.56634144
_cell_angle_beta   61.56634144
_cell_angle_gamma   50.88137743
_symmetry_Int_Tables_number   1
_chemical_formula_structural   La2SiO5
_chemical_formula_sum   'La8 Si4 O20'
_cell_volume   508.09159333
_cell_formula_units_Z   4
loop_
 _symmetry_equiv_pos_site_id
 _symmetry_equiv_pos_as_xyz
  1  'x, y, z'
loop_
 _atom_site_type_symbol
 _atom_site_label
 _atom_site_symmetry_multiplicity
 _atom_site_fract_x
 _atom_site_fract_y
 _atom_site_fract_z
 _atom_site_occupancy
  La  La0  1  0.76353600  0.52923900  0.66481100  1
  La  La1  1  0.21448700  0.71077000  0.96545400  1
  La  La2  1  0.28923000  0.78551300  0.53454600  1
  La  La3  1  0.52923900  0.76353600  0.16481100  1
  La  La4  1  0.47076100  0.23646400  0.83518900  1
  La  La5  1  0.71077000  0.21448700  0.46545400  1
  La  La6  1  0.78551300  0.28923000  0.03454600  1
  La  La7  1  0.23646400  0.47076100  0.33518900  1
  Si  Si8  1  0.73290000  0.90783200  0.30694600  1
  Si  Si9  1  0.09216800  0.26710000  0.19305400  1
  Si  Si10  1  0.90783200  0.73290000  0.80694600  1
  Si  Si11  1  0.26710000  0.09216800  0.69305400  1
  O  O12  1  0.90326500  0.90533000  0.14844400  1
  O  O13  1  0.13338100  0.25988500  0.57043100  1
  O  O14  1  0.39628900  0.84257100  0.68316500  1
  O  O15  1  0.15137200  0.43454900  0.17195500  1
  O  O16  1  0.56545100  0.84862800  0.32804500  1
  O  O17  1  0.57428700  0.39525800  0.89367500  1
  O  O18  1  0.60474200  0.42571300  0.60632500  1
  O  O19  1  0.09467000  0.09673500  0.35155600  1
  O  O20  1  0.25988500  0.13338100  0.07043100  1
  O  O21  1  0.15742900  0.60371100  0.81683500  1
  O  O22  1  0.84257100  0.39628900  0.18316500  1
  O  O23  1  0.74011500  0.86661900  0.92956900  1
  O  O24  1  0.90533000  0.90326500  0.64844400  1
  O  O25  1  0.39525800  0.57428700  0.39367500  1
  O  O26  1  0.42571300  0.60474200  0.10632500  1
  O  O27  1  0.43454900  0.15137200  0.67195500  1
  O  O28  1  0.84862800  0.56545100  0.82804500  1
  O  O29  1  0.60371100  0.15742900  0.31683500  1
  O  O30  1  0.86661900  0.74011500  0.42956900  1
  O  O31  1  0.09673500  0.09467000  0.85155600  1
