# generated using pymatgen
data_Zr2CdTc
_symmetry_space_group_name_H-M   'P 1'
_cell_length_a   11.32171656
_cell_length_b   11.32171656
_cell_length_c   11.32171656
_cell_angle_alpha   123.22010590
_cell_angle_beta   115.72341050
_cell_angle_gamma   91.03802472
_symmetry_Int_Tables_number   1
_chemical_formula_structural   Zr2CdTc
_chemical_formula_sum   'Zr2 Cd1 Tc1'
_cell_volume   1028.76859061
_cell_formula_units_Z   1
loop_
 _symmetry_equiv_pos_site_id
 _symmetry_equiv_pos_as_xyz
  1  'x, y, z'
loop_
 _atom_site_type_symbol
 _atom_site_label
 _atom_site_symmetry_multiplicity
 _atom_site_fract_x
 _atom_site_fract_y
 _atom_site_fract_z
 _atom_site_occupancy
  Zr  Zr0  1  0.00000000  0.20862900  0.20862900  1
  Zr  Zr1  1  0.00000000  0.79137100  0.79137100  1
  Cd  Cd2  1  0.00000000  0.50000000  0.50000000  1
  Tc  Tc3  1  0.00000000  0.00000000  0.00000000  1
