# generated using pymatgen
data_Ba2Na2O3
_symmetry_space_group_name_H-M   'P 1'
_cell_length_a   6.03864800
_cell_length_b   5.92133300
_cell_length_c   8.13448693
_cell_angle_alpha   72.57741480
_cell_angle_beta   90.00000000
_cell_angle_gamma   90.00000000
_symmetry_Int_Tables_number   1
_chemical_formula_structural   Ba2Na2O3
_chemical_formula_sum   'Ba4 Na4 O6'
_cell_volume   277.51946333
_cell_formula_units_Z   2
loop_
 _symmetry_equiv_pos_site_id
 _symmetry_equiv_pos_as_xyz
  1  'x, y, z'
loop_
 _atom_site_type_symbol
 _atom_site_label
 _atom_site_symmetry_multiplicity
 _atom_site_fract_x
 _atom_site_fract_y
 _atom_site_fract_z
 _atom_site_occupancy
  Ba  Ba0  1  0.44616600  0.69431900  0.66789400  1
  Ba  Ba1  1  0.94616600  0.80568100  0.33210600  1
  Ba  Ba2  1  0.05383400  0.19431900  0.66789400  1
  Ba  Ba3  1  0.55383400  0.30568100  0.33210600  1
  Na  Na4  1  0.65113800  0.17975600  0.93789100  1
  Na  Na5  1  0.84886200  0.67975600  0.93789100  1
  Na  Na6  1  0.15113800  0.32024400  0.06210900  1
  Na  Na7  1  0.34886200  0.82024400  0.06210900  1
  O  O8  1  0.50000000  0.50000000  0.00000000  1
  O  O9  1  0.00000000  0.00000000  0.00000000  1
  O  O10  1  0.01545800  0.63714000  0.68440000  1
  O  O11  1  0.48454200  0.13714000  0.68440000  1
  O  O12  1  0.51545800  0.86286000  0.31560000  1
  O  O13  1  0.98454200  0.36286000  0.31560000  1
