# generated using pymatgen
data_Sr3Hf2O7
_symmetry_space_group_name_H-M   'P 1'
_cell_length_a   11.06580954
_cell_length_b   11.06580954
_cell_length_c   5.77096000
_cell_angle_alpha   90.00000000
_cell_angle_beta   90.00000000
_cell_angle_gamma   149.77173957
_symmetry_Int_Tables_number   1
_chemical_formula_structural   Sr3Hf2O7
_chemical_formula_sum   'Sr6 Hf4 O14'
_cell_volume   355.76850169
_cell_formula_units_Z   2
loop_
 _symmetry_equiv_pos_site_id
 _symmetry_equiv_pos_as_xyz
  1  'x, y, z'
loop_
 _atom_site_type_symbol
 _atom_site_label
 _atom_site_symmetry_multiplicity
 _atom_site_fract_x
 _atom_site_fract_y
 _atom_site_fract_z
 _atom_site_occupancy
  Sr  Sr0  1  0.18845700  0.81154300  0.50000000  1
  Sr  Sr1  1  0.81154300  0.18845700  0.50000000  1
  Sr  Sr2  1  0.68845700  0.31154300  0.00000000  1
  Sr  Sr3  1  0.00000000  0.00000000  0.50000000  1
  Sr  Sr4  1  0.50000000  0.50000000  0.00000000  1
  Sr  Sr5  1  0.31154300  0.68845700  0.00000000  1
  Hf  Hf6  1  0.09853700  0.90146300  0.00000000  1
  Hf  Hf7  1  0.59853700  0.40146300  0.50000000  1
  Hf  Hf8  1  0.90146300  0.09853700  0.00000000  1
  Hf  Hf9  1  0.40146300  0.59853700  0.50000000  1
  O  O10  1  0.19621000  0.80379000  0.00000000  1
  O  O11  1  0.60403800  0.79838600  0.20123800  1
  O  O12  1  0.29838600  0.10403800  0.70123800  1
  O  O13  1  0.70161400  0.89596200  0.70123800  1
  O  O14  1  0.39596200  0.20161400  0.20123800  1
  O  O15  1  0.00000000  0.00000000  0.00000000  1
  O  O16  1  0.69621000  0.30379000  0.50000000  1
  O  O17  1  0.80379000  0.19621000  0.00000000  1
  O  O18  1  0.10403800  0.29838600  0.29876200  1
  O  O19  1  0.79838600  0.60403800  0.79876200  1
  O  O20  1  0.89596200  0.70161400  0.29876200  1
  O  O21  1  0.20161400  0.39596200  0.79876200  1
  O  O22  1  0.50000000  0.50000000  0.50000000  1
  O  O23  1  0.30379000  0.69621000  0.50000000  1
