# generated using pymatgen
data_Li4Ti3(NiO4)3
_symmetry_space_group_name_H-M   'P 1'
_cell_length_a   5.32754818
_cell_length_b   7.73793978
_cell_length_c   5.63410639
_cell_angle_alpha   68.76729180
_cell_angle_beta   90.03121213
_cell_angle_gamma   96.48190241
_symmetry_Int_Tables_number   1
_chemical_formula_structural   Li4Ti3(NiO4)3
_chemical_formula_sum   'Li4 Ti3 Ni3 O12'
_cell_volume   214.90714827
_cell_formula_units_Z   1
loop_
 _symmetry_equiv_pos_site_id
 _symmetry_equiv_pos_as_xyz
  1  'x, y, z'
loop_
 _atom_site_type_symbol
 _atom_site_label
 _atom_site_symmetry_multiplicity
 _atom_site_fract_x
 _atom_site_fract_y
 _atom_site_fract_z
 _atom_site_occupancy
  Li  Li0  1  0.66950000  0.66495400  0.17201600  1
  Li  Li1  1  0.33563300  0.32856500  0.83440600  1
  Li  Li2  1  0.16652500  0.66733600  0.91661300  1
  Li  Li3  1  0.99556200  0.00614300  0.49520900  1
  Ti  Ti4  1  0.82081600  0.32380900  0.08676600  1
  Ti  Ti5  1  0.51295900  0.01054600  0.73846000  1
  Ti  Ti6  1  0.16508900  0.66477600  0.40999900  1
  Ni  Ni7  1  0.66717100  0.66712900  0.66492500  1
  Ni  Ni8  1  0.32931300  0.33254900  0.33528800  1
  Ni  Ni9  1  0.00283600  0.00014700  0.00244800  1
  O  O10  1  0.96940300  0.52189500  0.74443100  1
  O  O11  1  0.87833100  0.81325500  0.34753700  1
  O  O12  1  0.79526200  0.85133300  0.82575300  1
  O  O13  1  0.69540100  0.15284600  0.92226800  1
  O  O14  1  0.64646200  0.17688800  0.41053900  1
  O  O15  1  0.53852100  0.47968800  0.00790400  1
  O  O16  1  0.45369800  0.52251500  0.49052700  1
  O  O17  1  0.36596200  0.81337700  0.60215600  1
  O  O18  1  0.29951800  0.84221100  0.07734500  1
  O  O19  1  0.21615100  0.13981100  0.68115200  1
  O  O20  1  0.11874200  0.19340400  0.15244000  1
  O  O21  1  0.02381500  0.49349000  0.24848500  1
