# generated using pymatgen
data_BiOF
_symmetry_space_group_name_H-M   'P 1'
_cell_length_a   8.24013427
_cell_length_b   8.24013427
_cell_length_c   8.24013414
_cell_angle_alpha   27.95467126
_cell_angle_beta   27.95467126
_cell_angle_gamma   27.95467075
_symmetry_Int_Tables_number   1
_chemical_formula_structural   BiOF
_chemical_formula_sum   'Bi2 O2 F2'
_cell_volume   108.58757121
_cell_formula_units_Z   2
loop_
 _symmetry_equiv_pos_site_id
 _symmetry_equiv_pos_as_xyz
  1  'x, y, z'
loop_
 _atom_site_type_symbol
 _atom_site_label
 _atom_site_symmetry_multiplicity
 _atom_site_fract_x
 _atom_site_fract_y
 _atom_site_fract_z
 _atom_site_occupancy
  Bi  Bi0  1  0.60418400  0.60418400  0.60418400  1
  Bi  Bi1  1  0.39581600  0.39581600  0.39581600  1
  O  O2  1  0.30142400  0.30142400  0.30142400  1
  O  O3  1  0.69857600  0.69857600  0.69857600  1
  F  F4  1  0.10361700  0.10361700  0.10361700  1
  F  F5  1  0.89638300  0.89638300  0.89638300  1
