# generated using pymatgen
data_Li3V2(CO3)4
_symmetry_space_group_name_H-M   'P 1'
_cell_length_a   6.36346772
_cell_length_b   6.36309154
_cell_length_c   12.51910008
_cell_angle_alpha   105.26493678
_cell_angle_beta   105.27007579
_cell_angle_gamma   91.05666177
_symmetry_Int_Tables_number   1
_chemical_formula_structural   Li3V2(CO3)4
_chemical_formula_sum   'Li6 V4 C8 O24'
_cell_volume   469.66194991
_cell_formula_units_Z   2
loop_
 _symmetry_equiv_pos_site_id
 _symmetry_equiv_pos_as_xyz
  1  'x, y, z'
loop_
 _atom_site_type_symbol
 _atom_site_label
 _atom_site_symmetry_multiplicity
 _atom_site_fract_x
 _atom_site_fract_y
 _atom_site_fract_z
 _atom_site_occupancy
  Li  Li0  1  0.31602900  0.68335800  0.37479400  1
  Li  Li1  1  0.31742500  0.68308000  0.87523800  1
  Li  Li2  1  0.67906400  0.50541800  0.02668900  1
  Li  Li3  1  0.67955200  0.50565200  0.52593500  1
  Li  Li4  1  0.49433200  0.32028800  0.22410000  1
  Li  Li5  1  0.49446500  0.32109000  0.72335300  1
  V  V6  1  0.82940500  0.17076700  0.87498300  1
  V  V7  1  0.82967200  0.17032500  0.37497700  1
  V  V8  1  0.18885300  0.81090500  0.12489700  1
  V  V9  1  0.18901000  0.81120900  0.62514000  1
  C  C10  1  0.87540800  0.68174400  0.38552000  1
  C  C11  1  0.87566500  0.68150700  0.88537100  1
  C  C12  1  0.31824200  0.12456900  0.36447400  1
  C  C13  1  0.31856400  0.12440700  0.86461400  1
  C  C14  1  0.68241900  0.88153100  0.13439400  1
  C  C15  1  0.68252400  0.88162000  0.63462600  1
  C  C16  1  0.11844300  0.31734500  0.11539900  1
  C  C17  1  0.11839200  0.31763000  0.61558200  1
  O  O18  1  0.92115900  0.30966800  0.04611900  1
  O  O19  1  0.92141300  0.30982200  0.54618300  1
  O  O20  1  0.69019200  0.07847800  0.20374500  1
  O  O21  1  0.69031700  0.07901900  0.70386800  1
  O  O22  1  0.85466300  0.78933200  0.12304200  1
  O  O23  1  0.85461800  0.78931500  0.62344900  1
  O  O24  1  0.21069800  0.14527100  0.12654700  1
  O  O25  1  0.21057900  0.14537400  0.62698200  1
  O  O26  1  0.75688100  0.49154000  0.34925600  1
  O  O27  1  0.75636300  0.49170000  0.84887100  1
  O  O28  1  0.50837700  0.24313500  0.40064300  1
  O  O29  1  0.50839900  0.24371100  0.90110200  1
  O  O30  1  0.77733700  0.84931300  0.36733000  1
  O  O31  1  0.77850700  0.84994400  0.86775000  1
  O  O32  1  0.15068500  0.22262600  0.38266700  1
  O  O33  1  0.15016300  0.22164400  0.88221300  1
  O  O34  1  0.49456600  0.77258800  0.07524800  1
  O  O35  1  0.49465900  0.77289400  0.57557200  1
  O  O36  1  0.22703200  0.50524700  0.17454700  1
  O  O37  1  0.22736400  0.50548300  0.67469600  1
  O  O38  1  0.30579500  0.92172600  0.31011400  1
  O  O39  1  0.30711300  0.92158900  0.81049700  1
  O  O40  1  0.07824500  0.69420700  0.43992000  1
  O  O41  1  0.07842200  0.69291500  0.93955300  1
