data_image0
_chemical_formula_structural       Cs2Fe2S4
_chemical_formula_sum              "Cs2 Fe2 S4"
_cell_length_a       5.41378
_cell_length_b       7.09934
_cell_length_c       7.44586
_cell_angle_alpha    118.472
_cell_angle_beta     111.318
_cell_angle_gamma    90

_space_group_name_H-M_alt    "P 1"
_space_group_IT_number       1

loop_
  _space_group_symop_operation_xyz
  'x, y, z'

loop_
  _atom_site_type_symbol
  _atom_site_label
  _atom_site_symmetry_multiplicity
  _atom_site_fract_x
  _atom_site_fract_y
  _atom_site_fract_z
  _atom_site_occupancy
  Cs  Cs1       1.0  0.67200  0.67200  0.34500  1.0000
  Cs  Cs2       1.0  0.32800  0.32800  0.65500  1.0000
  Fe  Fe1       1.0  0.24700  0.00000  0.00000  1.0000
  Fe  Fe2       1.0  0.75300  0.00000  0.00000  1.0000
  S   S1        1.0  0.00000  0.24400  0.00000  1.0000
  S   S2        1.0  0.00000  0.75600  0.00000  1.0000
  S   S3        1.0  0.64300  0.14300  0.28500  1.0000
  S   S4        1.0  0.35700  0.85700  0.71500  1.0000
