# generated using pymatgen
data_V4O7F5
_symmetry_space_group_name_H-M   'P 1'
_cell_length_a   5.24002500
_cell_length_b   5.31602718
_cell_length_c   9.07751616
_cell_angle_alpha   73.82702091
_cell_angle_beta   74.34680058
_cell_angle_gamma   61.47359127
_symmetry_Int_Tables_number   1
_chemical_formula_structural   V4O7F5
_chemical_formula_sum   'V4 O7 F5'
_cell_volume   210.55126815
_cell_formula_units_Z   1
loop_
 _symmetry_equiv_pos_site_id
 _symmetry_equiv_pos_as_xyz
  1  'x, y, z'
loop_
 _atom_site_type_symbol
 _atom_site_label
 _atom_site_symmetry_multiplicity
 _atom_site_fract_x
 _atom_site_fract_y
 _atom_site_fract_z
 _atom_site_occupancy
  V  V0  1  0.21348500  0.28366100  0.22872500  1
  V  V1  1  0.05072700  0.01652000  0.98327800  1
  V  V2  1  0.45318300  0.50228600  0.49150600  1
  V  V3  1  0.74503400  0.71680400  0.74258100  1
  O  O4  1  0.11008900  0.64517500  0.59006800  1
  O  O5  1  0.09433100  0.07824600  0.16445200  1
  O  O6  1  0.60727900  0.57804900  0.65871100  1
  O  O7  1  0.40779500  0.38944100  0.34695700  1
  O  O8  1  0.41115800  0.83693200  0.91437600  1
  O  O9  1  0.95670700  0.35953600  0.88109000  1
  O  O10  1  0.05602500  0.60939100  0.12589200  1
  F  F11  1  0.47027800  0.84428700  0.37798400  1
  F  F12  1  0.57998300  0.15414800  0.09792700  1
  F  F13  1  0.56901300  0.12377800  0.62549400  1
  F  F14  1  0.91044500  0.90585500  0.84741300  1
  F  F15  1  0.92671700  0.31826700  0.41138700  1
