# generated using pymatgen
data_Co6OF11
_symmetry_space_group_name_H-M   'P 1'
_cell_length_a   5.70792483
_cell_length_b   5.70792483
_cell_length_c   7.40956522
_cell_angle_alpha   73.32992239
_cell_angle_beta   73.32992239
_cell_angle_gamma   72.99603528
_symmetry_Int_Tables_number   1
_chemical_formula_structural   Co6OF11
_chemical_formula_sum   'Co6 O1 F11'
_cell_volume   215.65481017
_cell_formula_units_Z   1
loop_
 _symmetry_equiv_pos_site_id
 _symmetry_equiv_pos_as_xyz
  1  'x, y, z'
loop_
 _atom_site_type_symbol
 _atom_site_label
 _atom_site_symmetry_multiplicity
 _atom_site_fract_x
 _atom_site_fract_y
 _atom_site_fract_z
 _atom_site_occupancy
  Co  Co0  1  0.33291700  0.33291700  0.16562200  1
  Co  Co1  1  0.34841000  0.34841000  0.66928700  1
  Co  Co2  1  0.66429100  0.66429100  0.34281000  1
  Co  Co3  1  0.65934300  0.65934300  0.82145600  1
  Co  Co4  1  0.00202300  0.00202300  0.50150100  1
  Co  Co5  1  0.99738600  0.99738600  0.99698600  1
  O  O6  1  0.55857100  0.55857100  0.63797000  1
  F  F7  1  0.64012800  0.02672400  0.66996100  1
  F  F8  1  0.96862600  0.36251200  0.33088000  1
  F  F9  1  0.42869400  0.42869400  0.37207900  1
  F  F10  1  0.11450400  0.11450400  0.69713400  1
  F  F11  1  0.76206600  0.76206600  0.03430700  1
  F  F12  1  0.23448300  0.23448300  0.96014700  1
  F  F13  1  0.89809000  0.89809000  0.29712400  1
  F  F14  1  0.02672400  0.64012800  0.66996100  1
  F  F15  1  0.36251200  0.96862600  0.33088000  1
  F  F16  1  0.69939700  0.30183400  0.00094800  1
  F  F17  1  0.30183400  0.69939700  0.00094800  1
