# generated using pymatgen
data_NbMoW2
_symmetry_space_group_name_H-M   'P 1'
_cell_length_a   11.71873729
_cell_length_b   11.71873729
_cell_length_c   11.71873729
_cell_angle_alpha   133.94525903
_cell_angle_beta   110.84155740
_cell_angle_gamma   87.14803085
_symmetry_Int_Tables_number   1
_chemical_formula_structural   NbMoW2
_chemical_formula_sum   'Nb1 Mo1 W2'
_cell_volume   1035.37687522
_cell_formula_units_Z   1
loop_
 _symmetry_equiv_pos_site_id
 _symmetry_equiv_pos_as_xyz
  1  'x, y, z'
loop_
 _atom_site_type_symbol
 _atom_site_label
 _atom_site_symmetry_multiplicity
 _atom_site_fract_x
 _atom_site_fract_y
 _atom_site_fract_z
 _atom_site_occupancy
  Nb  Nb0  1  0.00000000  0.00000000  0.00000000  1
  Mo  Mo1  1  0.00000000  0.50000000  0.50000000  1
  W  W2  1  0.00000000  0.25299300  0.25299300  1
  W  W3  1  0.00000000  0.74700700  0.74700700  1
