# generated using pymatgen
data_ZrScCu2
_symmetry_space_group_name_H-M   'P 1'
_cell_length_a   10.09315807
_cell_length_b   10.09315807
_cell_length_c   10.09315807
_cell_angle_alpha   124.34065784
_cell_angle_beta   120.46102179
_cell_angle_gamma   85.92488649
_symmetry_Int_Tables_number   1
_chemical_formula_structural   ZrScCu2
_chemical_formula_sum   'Zr1 Sc1 Cu2'
_cell_volume   697.64733080
_cell_formula_units_Z   1
loop_
 _symmetry_equiv_pos_site_id
 _symmetry_equiv_pos_as_xyz
  1  'x, y, z'
loop_
 _atom_site_type_symbol
 _atom_site_label
 _atom_site_symmetry_multiplicity
 _atom_site_fract_x
 _atom_site_fract_y
 _atom_site_fract_z
 _atom_site_occupancy
  Zr  Zr0  1  0.50000000  0.00000000  0.50000000  1
  Sc  Sc1  1  0.00000000  0.00000000  0.00000000  1
  Cu  Cu2  1  0.75335500  0.00000000  0.75335500  1
  Cu  Cu3  1  0.24664500  0.00000000  0.24664500  1
