# generated using pymatgen
data_MnHgPd2
_symmetry_space_group_name_H-M   'P 1'
_cell_length_a   10.91740470
_cell_length_b   10.91740470
_cell_length_c   10.91740470
_cell_angle_alpha   124.56557946
_cell_angle_beta   118.51755639
_cell_angle_gamma   87.43359939
_symmetry_Int_Tables_number   1
_chemical_formula_structural   MnHgPd2
_chemical_formula_sum   'Mn1 Hg1 Pd2'
_cell_volume   894.38994053
_cell_formula_units_Z   1
loop_
 _symmetry_equiv_pos_site_id
 _symmetry_equiv_pos_as_xyz
  1  'x, y, z'
loop_
 _atom_site_type_symbol
 _atom_site_label
 _atom_site_symmetry_multiplicity
 _atom_site_fract_x
 _atom_site_fract_y
 _atom_site_fract_z
 _atom_site_occupancy
  Mn  Mn0  1  0.00000000  0.00000000  0.00000000  1
  Hg  Hg1  1  0.00000000  0.50000000  0.50000000  1
  Pd  Pd2  1  0.00000000  0.23457700  0.23457700  1
  Pd  Pd3  1  0.00000000  0.76542300  0.76542300  1
