# generated using pymatgen
data_ZnCoO3
_symmetry_space_group_name_H-M   'P 1'
_cell_length_a   6.42081517
_cell_length_b   6.42081517
_cell_length_c   5.09103003
_cell_angle_alpha   84.76825136
_cell_angle_beta   84.76825136
_cell_angle_gamma   83.87081622
_symmetry_Int_Tables_number   1
_chemical_formula_structural   ZnCoO3
_chemical_formula_sum   'Zn4 Co4 O12'
_cell_volume   207.11374487
_cell_formula_units_Z   4
loop_
 _symmetry_equiv_pos_site_id
 _symmetry_equiv_pos_as_xyz
  1  'x, y, z'
loop_
 _atom_site_type_symbol
 _atom_site_label
 _atom_site_symmetry_multiplicity
 _atom_site_fract_x
 _atom_site_fract_y
 _atom_site_fract_z
 _atom_site_occupancy
  Zn  Zn0  1  0.78101200  0.58838100  0.19880200  1
  Zn  Zn1  1  0.58838100  0.78101200  0.69880200  1
  Zn  Zn2  1  0.41161900  0.21898800  0.30119800  1
  Zn  Zn3  1  0.21898800  0.41161900  0.80119800  1
  Co  Co4  1  0.91142900  0.08857100  0.25000000  1
  Co  Co5  1  0.74591900  0.25408100  0.75000000  1
  Co  Co6  1  0.25408100  0.74591900  0.25000000  1
  Co  Co7  1  0.08857100  0.91142900  0.75000000  1
  O  O8  1  0.98105700  0.81636400  0.10753600  1
  O  O9  1  0.87028800  0.33314400  0.40808500  1
  O  O10  1  0.81636400  0.98105700  0.60753600  1
  O  O11  1  0.73470800  0.51977800  0.84769400  1
  O  O12  1  0.51977800  0.73470800  0.34769400  1
  O  O13  1  0.66685600  0.12971200  0.09191500  1
  O  O14  1  0.33314400  0.87028800  0.90808500  1
  O  O15  1  0.48022200  0.26529200  0.65230600  1
  O  O16  1  0.26529200  0.48022200  0.15230600  1
  O  O17  1  0.18363600  0.01894300  0.39246400  1
  O  O18  1  0.12971200  0.66685600  0.59191500  1
  O  O19  1  0.01894300  0.18363600  0.89246400  1
