# generated using pymatgen
data_Ce5Gd2O13
_symmetry_space_group_name_H-M   'P 1'
_cell_length_a   3.84417329
_cell_length_b   3.84417329
_cell_length_c   22.41177955
_cell_angle_alpha   94.91986378
_cell_angle_beta   94.91986378
_cell_angle_gamma   60.00000000
_symmetry_Int_Tables_number   1
_chemical_formula_structural   Ce5Gd2O13
_chemical_formula_sum   'Ce5 Gd2 O13'
_cell_volume   285.41239740
_cell_formula_units_Z   1
loop_
 _symmetry_equiv_pos_site_id
 _symmetry_equiv_pos_as_xyz
  1  'x, y, z'
loop_
 _atom_site_type_symbol
 _atom_site_label
 _atom_site_symmetry_multiplicity
 _atom_site_fract_x
 _atom_site_fract_y
 _atom_site_fract_z
 _atom_site_occupancy
  Ce  Ce0  1  0.42822800  0.42822800  0.28468400  1
  Ce  Ce1  1  0.85652500  0.85652500  0.56957500  1
  Ce  Ce2  1  0.14228600  0.14228600  0.42685800  1
  Ce  Ce3  1  0.57078400  0.57078400  0.71235200  1
  Ce  Ce4  1  0.28476000  0.28476000  0.85427900  1
  Gd  Gd5  1  0.71639100  0.71639100  0.14917200  1
  Gd  Gd6  1  0.99888800  0.99888800  0.99666300  1
  O  O7  1  0.75070100  0.75070100  0.25210400  1
  O  O8  1  0.39345900  0.39345900  0.18037500  1
  O  O9  1  0.03102100  0.03102100  0.09306300  1
  O  O10  1  0.82170000  0.82170000  0.46509800  1
  O  O11  1  0.10757700  0.10757700  0.32273200  1
  O  O12  1  0.46456300  0.46456300  0.39368900  1
  O  O13  1  0.53597200  0.53597200  0.60791600  1
  O  O14  1  0.89307100  0.89307100  0.67921300  1
  O  O15  1  0.17880200  0.17880200  0.53640500  1
  O  O16  1  0.96364900  0.96364900  0.89094800  1
  O  O17  1  0.60707900  0.60707900  0.82123700  1
  O  O18  1  0.25025500  0.25025500  0.75076500  1
  O  O19  1  0.32572000  0.32572000  0.97716000  1
