# generated using pymatgen
data_MnZn2Co
_symmetry_space_group_name_H-M   'P 1'
_cell_length_a   9.86833740
_cell_length_b   9.86833740
_cell_length_c   9.86833740
_cell_angle_alpha   123.39421557
_cell_angle_beta   117.28799759
_cell_angle_gamma   89.49236141
_symmetry_Int_Tables_number   1
_chemical_formula_structural   MnZn2Co
_chemical_formula_sum   'Mn1 Zn2 Co1'
_cell_volume   673.58306380
_cell_formula_units_Z   1
loop_
 _symmetry_equiv_pos_site_id
 _symmetry_equiv_pos_as_xyz
  1  'x, y, z'
loop_
 _atom_site_type_symbol
 _atom_site_label
 _atom_site_symmetry_multiplicity
 _atom_site_fract_x
 _atom_site_fract_y
 _atom_site_fract_z
 _atom_site_occupancy
  Mn  Mn0  1  0.00000000  0.00000000  0.00000000  1
  Zn  Zn1  1  0.73723500  0.00000000  0.73723500  1
  Zn  Zn2  1  0.26276500  0.00000000  0.26276500  1
  Co  Co3  1  0.50000000  0.00000000  0.50000000  1
