# generated using pymatgen
data_CrH10S2(NO2)4
_symmetry_space_group_name_H-M   'P 1'
_cell_length_a   5.56835728
_cell_length_b   9.48403288
_cell_length_c   9.27348041
_cell_angle_alpha   103.68660985
_cell_angle_beta   105.10777534
_cell_angle_gamma   84.68051492
_symmetry_Int_Tables_number   1
_chemical_formula_structural   CrH10S2(NO2)4
_chemical_formula_sum   'Cr2 H20 S4 N8 O16'
_cell_volume   459.13304197
_cell_formula_units_Z   2
loop_
 _symmetry_equiv_pos_site_id
 _symmetry_equiv_pos_as_xyz
  1  'x, y, z'
loop_
 _atom_site_type_symbol
 _atom_site_label
 _atom_site_symmetry_multiplicity
 _atom_site_fract_x
 _atom_site_fract_y
 _atom_site_fract_z
 _atom_site_occupancy
  Cr  Cr0  1  0.00017800  0.49982100  0.49993700  1
  Cr  Cr1  1  0.00014900  0.00023800  0.00011600  1
  H  H2  1  0.91945700  0.21325200  0.48802000  1
  H  H3  1  0.91939500  0.71334700  0.98804200  1
  H  H4  1  0.08057900  0.78672500  0.51196500  1
  H  H5  1  0.08053100  0.28679500  0.01197500  1
  H  H6  1  0.25246800  0.19221500  0.36739400  1
  H  H7  1  0.25239500  0.69224800  0.86740500  1
  H  H8  1  0.74754900  0.80774400  0.63258300  1
  H  H9  1  0.74748600  0.30776300  0.13259400  1
  H  H10  1  0.44252300  0.25376100  0.54435200  1
  H  H11  1  0.44247000  0.75379500  0.04435400  1
  H  H12  1  0.55753200  0.74617700  0.45561700  1
  H  H13  1  0.55748000  0.24619600  0.95561500  1
  H  H14  1  0.11601500  0.27647000  0.65207200  1
  H  H15  1  0.11595100  0.77653900  0.15208700  1
  H  H16  1  0.88406900  0.72342000  0.34792900  1
  H  H17  1  0.88401000  0.22347400  0.84793500  1
  H  H18  1  0.29515800  0.09368600  0.50582500  1
  H  H19  1  0.29506800  0.59374000  0.00584400  1
  H  H20  1  0.70487800  0.90625800  0.49414700  1
  H  H21  1  0.70481000  0.40629400  0.99416500  1
  S  S22  1  0.65568900  0.01015900  0.23804000  1
  S  S23  1  0.65569700  0.51014600  0.73805700  1
  S  S24  1  0.34429600  0.98984800  0.76195700  1
  S  S25  1  0.34430700  0.48985400  0.26195100  1
  N  N26  1  0.27867100  0.19814500  0.48300700  1
  N  N27  1  0.27860200  0.69818800  0.98303500  1
  N  N28  1  0.72137300  0.80180300  0.51696700  1
  N  N29  1  0.72131300  0.30183300  0.01697200  1
  N  N30  1  0.07287800  0.27832600  0.53755900  1
  N  N31  1  0.07282100  0.77842700  0.03758100  1
  N  N32  1  0.92721100  0.72159700  0.46244100  1
  N  N33  1  0.92715300  0.22167700  0.96245200  1
  O  O34  1  0.85562000  0.07458900  0.19155300  1
  O  O35  1  0.85562700  0.57456300  0.69156100  1
  O  O36  1  0.14432100  0.92543700  0.80843400  1
  O  O37  1  0.14437600  0.42542400  0.30844000  1
  O  O38  1  0.40743100  0.06916200  0.17032100  1
  O  O39  1  0.40743400  0.56912700  0.67032800  1
  O  O40  1  0.59252600  0.93086700  0.82969400  1
  O  O41  1  0.59256100  0.43086700  0.32967900  1
  O  O42  1  0.71009600  0.05253000  0.40906400  1
  O  O43  1  0.71010400  0.55253700  0.90908200  1
  O  O44  1  0.28989100  0.94747000  0.59092800  1
  O  O45  1  0.28988700  0.44746800  0.09092700  1
  O  O46  1  0.67176900  0.84880500  0.18761400  1
  O  O47  1  0.67177600  0.34879500  0.68764000  1
  O  O48  1  0.32820600  0.15120500  0.81237100  1
  O  O49  1  0.32821300  0.65119300  0.31237200  1
