# generated using pymatgen
data_NaGa5O8
_symmetry_space_group_name_H-M   'P 1'
_cell_length_a   11.72822371
_cell_length_b   11.72822371
_cell_length_c   11.72822416
_cell_angle_alpha   29.63982960
_cell_angle_beta   29.63982960
_cell_angle_gamma   29.63982907
_symmetry_Int_Tables_number   1
_chemical_formula_structural   NaGa5O8
_chemical_formula_sum   'Na2 Ga10 O16'
_cell_volume   349.30652923
_cell_formula_units_Z   2
loop_
 _symmetry_equiv_pos_site_id
 _symmetry_equiv_pos_as_xyz
  1  'x, y, z'
loop_
 _atom_site_type_symbol
 _atom_site_label
 _atom_site_symmetry_multiplicity
 _atom_site_fract_x
 _atom_site_fract_y
 _atom_site_fract_z
 _atom_site_occupancy
  Na  Na0  1  0.34521400  0.34521400  0.34521400  1
  Na  Na1  1  0.82529500  0.82529500  0.82529500  1
  Ga  Ga2  1  0.58738500  0.09275600  0.09275600  1
  Ga  Ga3  1  0.00432200  0.00432200  0.00432200  1
  Ga  Ga4  1  0.09275600  0.09275600  0.58738500  1
  Ga  Ga5  1  0.09275600  0.58738500  0.09275600  1
  Ga  Ga6  1  0.65263200  0.65263200  0.65263200  1
  Ga  Ga7  1  0.43112100  0.43112100  0.43112100  1
  Ga  Ga8  1  0.55666300  0.55666300  0.55666300  1
  Ga  Ga9  1  0.91544400  0.39752900  0.91544400  1
  Ga  Ga10  1  0.91544400  0.91544400  0.39752900  1
  Ga  Ga11  1  0.39752900  0.91544400  0.91544400  1
  O  O12  1  0.28384600  0.28384600  0.28384600  1
  O  O13  1  0.10693900  0.10693900  0.10693900  1
  O  O14  1  0.80566500  0.28109800  0.80566500  1
  O  O15  1  0.74132000  0.19080200  0.19080200  1
  O  O16  1  0.90128300  0.38778800  0.38778800  1
  O  O17  1  0.61364500  0.09250500  0.61364500  1
  O  O18  1  0.61364500  0.61364500  0.09250500  1
  O  O19  1  0.80566500  0.80566500  0.28109800  1
  O  O20  1  0.19080200  0.19080200  0.74132000  1
  O  O21  1  0.38778800  0.38778800  0.90128300  1
  O  O22  1  0.38778800  0.90128300  0.38778800  1
  O  O23  1  0.09250500  0.61364500  0.61364500  1
  O  O24  1  0.19080200  0.74132000  0.19080200  1
  O  O25  1  0.28109800  0.80566500  0.80566500  1
  O  O26  1  0.89858400  0.89858400  0.89858400  1
  O  O27  1  0.70806000  0.70806000  0.70806000  1
