# generated using pymatgen
data_VO2F
_symmetry_space_group_name_H-M   'P 1'
_cell_length_a   3.61187100
_cell_length_b   4.87343200
_cell_length_c   13.62777100
_cell_angle_alpha   90.00000000
_cell_angle_beta   90.00000000
_cell_angle_gamma   90.00000000
_symmetry_Int_Tables_number   1
_chemical_formula_structural   VO2F
_chemical_formula_sum   'V4 O8 F4'
_cell_volume   239.87885578
_cell_formula_units_Z   4
loop_
 _symmetry_equiv_pos_site_id
 _symmetry_equiv_pos_as_xyz
  1  'x, y, z'
loop_
 _atom_site_type_symbol
 _atom_site_label
 _atom_site_symmetry_multiplicity
 _atom_site_fract_x
 _atom_site_fract_y
 _atom_site_fract_z
 _atom_site_occupancy
  V  V0  1  0.25000000  0.07490400  0.08908600  1
  V  V1  1  0.75000000  0.57490400  0.41091400  1
  V  V2  1  0.25000000  0.42509600  0.58908600  1
  V  V3  1  0.75000000  0.92509600  0.91091400  1
  O  O4  1  0.75000000  0.97715000  0.05760000  1
  O  O5  1  0.25000000  0.40111800  0.10412100  1
  O  O6  1  0.75000000  0.90111800  0.39587900  1
  O  O7  1  0.25000000  0.47715000  0.44240000  1
  O  O8  1  0.75000000  0.52285000  0.55760000  1
  O  O9  1  0.25000000  0.09888200  0.60412100  1
  O  O10  1  0.75000000  0.59888200  0.89587900  1
  O  O11  1  0.25000000  0.02285000  0.94240000  1
  F  F12  1  0.25000000  0.92785900  0.20754200  1
  F  F13  1  0.75000000  0.42785900  0.29245800  1
  F  F14  1  0.25000000  0.57214100  0.70754200  1
  F  F15  1  0.75000000  0.07214100  0.79245800  1
