# generated using pymatgen
data_La2CuOs
_symmetry_space_group_name_H-M   'P 1'
_cell_length_a   11.59818371
_cell_length_b   11.59818371
_cell_length_c   11.59818371
_cell_angle_alpha   126.00844080
_cell_angle_beta   118.06630281
_cell_angle_gamma   86.65216922
_symmetry_Int_Tables_number   1
_chemical_formula_structural   La2CuOs
_chemical_formula_sum   'La2 Cu1 Os1'
_cell_volume   1060.33760312
_cell_formula_units_Z   1
loop_
 _symmetry_equiv_pos_site_id
 _symmetry_equiv_pos_as_xyz
  1  'x, y, z'
loop_
 _atom_site_type_symbol
 _atom_site_label
 _atom_site_symmetry_multiplicity
 _atom_site_fract_x
 _atom_site_fract_y
 _atom_site_fract_z
 _atom_site_occupancy
  La  La0  1  0.00000000  0.27099500  0.27099500  1
  La  La1  1  0.00000000  0.72900500  0.72900500  1
  Cu  Cu2  1  0.00000000  0.00000000  0.00000000  1
  Os  Os3  1  0.00000000  0.50000000  0.50000000  1
