# generated using pymatgen
data_Zr7VO16
_symmetry_space_group_name_H-M   'P 1'
_cell_length_a   7.25537108
_cell_length_b   7.25329952
_cell_length_c   12.91889191
_cell_angle_alpha   103.58705386
_cell_angle_beta   73.68411526
_cell_angle_gamma   119.99541700
_symmetry_Int_Tables_number   1
_chemical_formula_structural   Zr7VO16
_chemical_formula_sum   'Zr14 V2 O32'
_cell_volume   561.42974432
_cell_formula_units_Z   2
loop_
 _symmetry_equiv_pos_site_id
 _symmetry_equiv_pos_as_xyz
  1  'x, y, z'
loop_
 _atom_site_type_symbol
 _atom_site_label
 _atom_site_symmetry_multiplicity
 _atom_site_fract_x
 _atom_site_fract_y
 _atom_site_fract_z
 _atom_site_occupancy
  Zr  Zr0  1  0.61099400  0.36626000  0.39413600  1
  Zr  Zr1  1  0.61098500  0.86626600  0.89415000  1
  Zr  Zr2  1  0.87367200  0.63110300  0.13353600  1
  Zr  Zr3  1  0.87376100  0.13110800  0.63356400  1
  Zr  Zr4  1  0.12545600  0.37502400  0.37391500  1
  Zr  Zr5  1  0.12548700  0.87509000  0.87392400  1
  Zr  Zr6  1  0.12538500  0.87781000  0.36745400  1
  Zr  Zr7  1  0.12539000  0.37783100  0.86744600  1
  Zr  Zr8  1  0.63504700  0.87775300  0.36745400  1
  Zr  Zr9  1  0.63507000  0.37778900  0.86743400  1
  Zr  Zr10  1  0.88070600  0.12753100  0.12107200  1
  Zr  Zr11  1  0.88077600  0.62756700  0.62107200  1
  Zr  Zr12  1  0.37584300  0.12754900  0.12110300  1
  Zr  Zr13  1  0.37580900  0.62751000  0.62110200  1
  V  V14  1  0.35669000  0.08889500  0.62565600  1
  V  V15  1  0.35652900  0.58884200  0.12569500  1
  O  O16  1  0.42297200  0.01227600  0.41627800  1
  O  O17  1  0.42299100  0.51232100  0.91626200  1
  O  O18  1  0.30674500  0.64774500  0.28432600  1
  O  O19  1  0.30675900  0.14774300  0.78428800  1
  O  O20  1  0.52872700  0.87079400  0.06347700  1
  O  O21  1  0.52872400  0.37079200  0.56344700  1
  O  O22  1  0.92078800  0.01930800  0.42771000  1
  O  O23  1  0.92075800  0.51935200  0.92776700  1
  O  O24  1  0.78804200  0.62859200  0.30237700  1
  O  O25  1  0.78805700  0.12860700  0.80239500  1
  O  O26  1  0.68730300  0.27736500  0.15273700  1
  O  O27  1  0.68731100  0.77735400  0.65275100  1
  O  O28  1  0.05352600  0.89900700  0.04193800  1
  O  O29  1  0.05354800  0.39893400  0.54189000  1
  O  O30  1  0.17391500  0.27310100  0.17520900  1
  O  O31  1  0.17397100  0.77306500  0.67516200  1
  O  O32  1  0.82444400  0.23366300  0.32672100  1
  O  O33  1  0.82446700  0.73368400  0.82673700  1
  O  O34  1  0.33249500  0.23369600  0.32672300  1
  O  O35  1  0.33246600  0.73369700  0.82674100  1
  O  O36  1  0.16751800  0.86603200  0.20448300  1
  O  O37  1  0.16749300  0.36604500  0.70449700  1
  O  O38  1  0.74405200  0.86606000  0.20447300  1
  O  O39  1  0.74410200  0.36609300  0.70447900  1
  O  O40  1  0.09898600  0.49422100  0.08213800  1
  O  O41  1  0.09908200  0.99424300  0.58214100  1
  O  O42  1  0.56296900  0.49432600  0.08218900  1
  O  O43  1  0.56309900  0.99427200  0.58212100  1
  O  O44  1  0.94863900  0.60592700  0.45242300  1
  O  O45  1  0.94863800  0.10592500  0.95244300  1
  O  O46  1  0.45491800  0.60590900  0.45246800  1
  O  O47  1  0.45490700  0.10593700  0.95249500  1
