# generated using pymatgen
data_Be2CuOs
_symmetry_space_group_name_H-M   'P 1'
_cell_length_a   9.10492030
_cell_length_b   9.10492030
_cell_length_c   9.10492030
_cell_angle_alpha   123.79296092
_cell_angle_beta   118.74838549
_cell_angle_gamma   87.87053702
_symmetry_Int_Tables_number   1
_chemical_formula_structural   Be2CuOs
_chemical_formula_sum   'Be2 Cu1 Os1'
_cell_volume   521.74867040
_cell_formula_units_Z   1
loop_
 _symmetry_equiv_pos_site_id
 _symmetry_equiv_pos_as_xyz
  1  'x, y, z'
loop_
 _atom_site_type_symbol
 _atom_site_label
 _atom_site_symmetry_multiplicity
 _atom_site_fract_x
 _atom_site_fract_y
 _atom_site_fract_z
 _atom_site_occupancy
  Be  Be0  1  0.00000000  0.25023300  0.25023300  1
  Be  Be1  1  0.00000000  0.74976700  0.74976700  1
  Cu  Cu2  1  0.00000000  0.00000000  0.00000000  1
  Os  Os3  1  0.00000000  0.50000000  0.50000000  1
