# generated using pymatgen
data_NaV2O5
_symmetry_space_group_name_H-M   'P 1'
_cell_length_a   5.89915652
_cell_length_b   5.89915652
_cell_length_c   11.42386300
_cell_angle_alpha   90.00000000
_cell_angle_beta   90.00000000
_cell_angle_gamma   143.53575800
_symmetry_Int_Tables_number   1
_chemical_formula_structural   NaV2O5
_chemical_formula_sum   'Na2 V4 O10'
_cell_volume   236.27288953
_cell_formula_units_Z   2
loop_
 _symmetry_equiv_pos_site_id
 _symmetry_equiv_pos_as_xyz
  1  'x, y, z'
loop_
 _atom_site_type_symbol
 _atom_site_label
 _atom_site_symmetry_multiplicity
 _atom_site_fract_x
 _atom_site_fract_y
 _atom_site_fract_z
 _atom_site_occupancy
  Na  Na0  1  0.90345200  0.09654800  0.75000000  1
  Na  Na1  1  0.09654800  0.90345200  0.25000000  1
  V  V2  1  0.79584000  0.20416000  0.40033000  1
  V  V3  1  0.79584000  0.20416000  0.09967000  1
  V  V4  1  0.20416000  0.79584000  0.59967000  1
  V  V5  1  0.20416000  0.79584000  0.90033000  1
  O  O6  1  0.94090300  0.05909700  0.11650200  1
  O  O7  1  0.94090300  0.05909700  0.38349800  1
  O  O8  1  0.73197000  0.26803000  0.25000000  1
  O  O9  1  0.75679800  0.24320200  0.57086100  1
  O  O10  1  0.75679800  0.24320200  0.92913900  1
  O  O11  1  0.26803000  0.73197000  0.75000000  1
  O  O12  1  0.24320200  0.75679800  0.07086100  1
  O  O13  1  0.24320200  0.75679800  0.42913900  1
  O  O14  1  0.05909700  0.94090300  0.61650200  1
  O  O15  1  0.05909700  0.94090300  0.88349800  1
