# generated using pymatgen
data_Ce5Y2O13
_symmetry_space_group_name_H-M   'P 1'
_cell_length_a   22.40921799
_cell_length_b   22.40921799
_cell_length_c   22.40921819
_cell_angle_alpha   9.80681800
_cell_angle_beta   9.80681800
_cell_angle_gamma   9.80681859
_symmetry_Int_Tables_number   1
_chemical_formula_structural   Ce5Y2O13
_chemical_formula_sum   'Ce5 Y2 O13'
_cell_volume   283.42324963
_cell_formula_units_Z   1
loop_
 _symmetry_equiv_pos_site_id
 _symmetry_equiv_pos_as_xyz
  1  'x, y, z'
loop_
 _atom_site_type_symbol
 _atom_site_label
 _atom_site_symmetry_multiplicity
 _atom_site_fract_x
 _atom_site_fract_y
 _atom_site_fract_z
 _atom_site_occupancy
  Ce  Ce0  1  0.57208900  0.57208900  0.57208900  1
  Ce  Ce1  1  0.85775600  0.85775600  0.85775600  1
  Ce  Ce2  1  0.14345300  0.14345300  0.14345300  1
  Ce  Ce3  1  0.42913500  0.42913500  0.42913500  1
  Ce  Ce4  1  0.71503100  0.71503100  0.71503100  1
  Y  Y5  1  0.00106600  0.00106600  0.00106600  1
  Y  Y6  1  0.28373600  0.28373600  0.28373600  1
  O  O7  1  0.60704300  0.60704300  0.60704300  1
  O  O8  1  0.96921600  0.96921600  0.96921600  1
  O  O9  1  0.89250100  0.89250100  0.89250100  1
  O  O10  1  0.53547800  0.53547800  0.53547800  1
  O  O11  1  0.24969600  0.24969600  0.24969600  1
  O  O12  1  0.17823600  0.17823600  0.17823600  1
  O  O13  1  0.82116700  0.82116700  0.82116700  1
  O  O14  1  0.74959300  0.74959300  0.74959300  1
  O  O15  1  0.10685000  0.10685000  0.10685000  1
  O  O16  1  0.46392300  0.46392300  0.46392300  1
  O  O17  1  0.03598100  0.03598100  0.03598100  1
  O  O18  1  0.39280700  0.39280700  0.39280700  1
  O  O19  1  0.67380800  0.67380800  0.67380800  1
