# generated using pymatgen
data_RbMg6W
_symmetry_space_group_name_H-M   'P 1'
_cell_length_a   6.74054600
_cell_length_b   6.74054600
_cell_length_c   4.34882500
_cell_angle_alpha   90.00000000
_cell_angle_beta   90.00000000
_cell_angle_gamma   90.00000000
_symmetry_Int_Tables_number   1
_chemical_formula_structural   RbMg6W
_chemical_formula_sum   'Rb1 Mg6 W1'
_cell_volume   197.58869157
_cell_formula_units_Z   1
loop_
 _symmetry_equiv_pos_site_id
 _symmetry_equiv_pos_as_xyz
  1  'x, y, z'
loop_
 _atom_site_type_symbol
 _atom_site_label
 _atom_site_symmetry_multiplicity
 _atom_site_fract_x
 _atom_site_fract_y
 _atom_site_fract_z
 _atom_site_occupancy
  Rb  Rb0  1  0.00000000  0.00000000  0.50000000  1
  Mg  Mg1  1  0.00000000  0.50000000  0.50000000  1
  Mg  Mg2  1  0.50000000  0.00000000  0.50000000  1
  Mg  Mg3  1  0.70791600  0.29208400  0.00000000  1
  Mg  Mg4  1  0.29208400  0.70791600  0.00000000  1
  Mg  Mg5  1  0.70791600  0.70791600  0.00000000  1
  Mg  Mg6  1  0.29208400  0.29208400  0.00000000  1
  W  W7  1  0.50000000  0.50000000  0.50000000  1
