# generated using pymatgen
data_Rb6Ti2O7
_symmetry_space_group_name_H-M   'P 1'
_cell_length_a   9.93015655
_cell_length_b   9.93015655
_cell_length_c   9.96172300
_cell_angle_alpha   90.00000000
_cell_angle_beta   90.00000000
_cell_angle_gamma   120.00000370
_symmetry_Int_Tables_number   1
_chemical_formula_structural   Rb6Ti2O7
_chemical_formula_sum   'Rb12 Ti4 O14'
_cell_volume   850.70163562
_cell_formula_units_Z   2
loop_
 _symmetry_equiv_pos_site_id
 _symmetry_equiv_pos_as_xyz
  1  'x, y, z'
loop_
 _atom_site_type_symbol
 _atom_site_label
 _atom_site_symmetry_multiplicity
 _atom_site_fract_x
 _atom_site_fract_y
 _atom_site_fract_z
 _atom_site_occupancy
  Rb  Rb0  1  0.33340000  0.97092300  0.37382500  1
  Rb  Rb1  1  0.35023600  0.96285700  0.87273100  1
  Rb  Rb2  1  0.02907700  0.36247800  0.37382500  1
  Rb  Rb3  1  0.03714300  0.38737900  0.87273100  1
  Rb  Rb4  1  0.36247800  0.33340000  0.62617500  1
  Rb  Rb5  1  0.38737900  0.35023600  0.12726900  1
  Rb  Rb6  1  0.61262100  0.64976400  0.87273100  1
  Rb  Rb7  1  0.63752200  0.66660000  0.37382500  1
  Rb  Rb8  1  0.96285700  0.61262100  0.12726900  1
  Rb  Rb9  1  0.97092300  0.63752200  0.62617500  1
  Rb  Rb10  1  0.64976400  0.03714300  0.12726900  1
  Rb  Rb11  1  0.66660000  0.02907700  0.62617500  1
  Ti  Ti12  1  0.33333300  0.66666700  0.18046300  1
  Ti  Ti13  1  0.33333300  0.66666700  0.56638600  1
  Ti  Ti14  1  0.66666700  0.33333300  0.81953700  1
  Ti  Ti15  1  0.66666700  0.33333300  0.43361400  1
  O  O16  1  0.17597600  0.47794700  0.62171500  1
  O  O17  1  0.17518100  0.47856300  0.12504400  1
  O  O18  1  0.30338200  0.82481900  0.12504400  1
  O  O19  1  0.30197100  0.82402400  0.62171500  1
  O  O20  1  0.33333300  0.66666700  0.37304700  1
  O  O21  1  0.52205300  0.69802900  0.62171500  1
  O  O22  1  0.52143700  0.69661800  0.12504400  1
  O  O23  1  0.47856300  0.30338200  0.87495600  1
  O  O24  1  0.47794700  0.30197100  0.37828500  1
  O  O25  1  0.66666700  0.33333300  0.62695300  1
  O  O26  1  0.69802900  0.17597600  0.37828500  1
  O  O27  1  0.69661800  0.17518100  0.87495600  1
  O  O28  1  0.82481900  0.52143700  0.87495600  1
  O  O29  1  0.82402400  0.52205300  0.37828500  1
