# generated using pymatgen
data_WO2F
_symmetry_space_group_name_H-M   'P 1'
_cell_length_a   5.51919400
_cell_length_b   5.64194750
_cell_length_c   13.82860705
_cell_angle_alpha   92.78841273
_cell_angle_beta   89.32775825
_cell_angle_gamma   118.52029748
_symmetry_Int_Tables_number   1
_chemical_formula_structural   WO2F
_chemical_formula_sum   'W6 O12 F6'
_cell_volume   377.87338254
_cell_formula_units_Z   6
loop_
 _symmetry_equiv_pos_site_id
 _symmetry_equiv_pos_as_xyz
  1  'x, y, z'
loop_
 _atom_site_type_symbol
 _atom_site_label
 _atom_site_symmetry_multiplicity
 _atom_site_fract_x
 _atom_site_fract_y
 _atom_site_fract_z
 _atom_site_occupancy
  W  W0  1  0.32600300  0.66211100  0.58381400  1
  W  W1  1  0.98401500  0.98697800  0.75072000  1
  W  W2  1  0.63168700  0.29936400  0.91685500  1
  W  W3  1  0.67399700  0.33788900  0.41618600  1
  W  W4  1  0.36831300  0.70063600  0.08314500  1
  W  W5  1  0.01598500  0.01302200  0.24928000  1
  O  O6  1  0.67312800  0.83195700  0.67009600  1
  O  O7  1  0.00000000  0.50000000  0.50000000  1
  O  O8  1  0.69876500  0.85426200  0.16713000  1
  O  O9  1  0.17168300  0.82112100  0.66676500  1
  O  O10  1  0.82831700  0.17887900  0.33323500  1
  O  O11  1  0.82048100  0.17243700  0.83517700  1
  O  O12  1  0.50000000  0.50000000  0.50000000  1
  O  O13  1  0.17951900  0.82756300  0.16482300  1
  O  O14  1  0.50000000  0.50000000  0.00000000  1
  O  O15  1  0.32687200  0.16804300  0.32990400  1
  O  O16  1  0.30123500  0.14573800  0.83287000  1
  O  O17  1  0.50000000  0.00000000  0.00000000  1
  F  F18  1  0.00000000  0.50000000  0.00000000  1
  F  F19  1  0.83566100  0.67670700  0.33460600  1
  F  F20  1  0.81373400  0.65689200  0.83406500  1
  F  F21  1  0.50000000  0.00000000  0.50000000  1
  F  F22  1  0.18626600  0.34310800  0.16593500  1
  F  F23  1  0.16433900  0.32329300  0.66539400  1
