# generated using pymatgen
data_Mg3Fe2O5
_symmetry_space_group_name_H-M   'P 1'
_cell_length_a   5.30501795
_cell_length_b   5.30913080
_cell_length_c   7.99251847
_cell_angle_alpha   71.64722046
_cell_angle_beta   75.84492425
_cell_angle_gamma   98.89508358
_symmetry_Int_Tables_number   1
_chemical_formula_structural   Mg3Fe2O5
_chemical_formula_sum   'Mg6 Fe4 O10'
_cell_volume   200.50351954
_cell_formula_units_Z   2
loop_
 _symmetry_equiv_pos_site_id
 _symmetry_equiv_pos_as_xyz
  1  'x, y, z'
loop_
 _atom_site_type_symbol
 _atom_site_label
 _atom_site_symmetry_multiplicity
 _atom_site_fract_x
 _atom_site_fract_y
 _atom_site_fract_z
 _atom_site_occupancy
  Mg  Mg0  1  0.90055400  0.79954400  0.69957500  1
  Mg  Mg1  1  0.40055700  0.79954100  0.19957600  1
  Mg  Mg2  1  0.49357600  0.99370000  0.49924100  1
  Mg  Mg3  1  0.99358400  0.99369800  0.99925300  1
  Mg  Mg4  1  0.80769200  0.60524500  0.39976800  1
  Mg  Mg5  1  0.30770200  0.60523800  0.89977900  1
  Fe  Fe6  1  0.59638700  0.20079200  0.79782200  1
  Fe  Fe7  1  0.20455300  0.39821200  0.60122700  1
  Fe  Fe8  1  0.09635300  0.20078100  0.29780900  1
  Fe  Fe9  1  0.70464100  0.39823400  0.10122500  1
  O  O10  1  0.15053200  0.79958700  0.44954600  1
  O  O11  1  0.65051900  0.79958900  0.94956200  1
  O  O12  1  0.84105000  0.19767500  0.54687200  1
  O  O13  1  0.34107700  0.19771100  0.04695100  1
  O  O14  1  0.96003900  0.40132000  0.85223300  1
  O  O15  1  0.46000500  0.40127400  0.35216200  1
  O  O16  1  0.23935300  0.98418600  0.75106600  1
  O  O17  1  0.73929600  0.98417300  0.25109800  1
  O  O18  1  0.06194100  0.61469800  0.14793700  1
  O  O19  1  0.56188800  0.61468300  0.64797000  1
