# generated using pymatgen
data_TiWO4
_symmetry_space_group_name_H-M   'P 1'
_cell_length_a   3.12368100
_cell_length_b   4.71396600
_cell_length_c   14.18244969
_cell_angle_alpha   89.95337947
_cell_angle_beta   90.00000000
_cell_angle_gamma   90.00000000
_symmetry_Int_Tables_number   1
_chemical_formula_structural   TiWO4
_chemical_formula_sum   'Ti3 W3 O12'
_cell_volume   208.83545353
_cell_formula_units_Z   3
loop_
 _symmetry_equiv_pos_site_id
 _symmetry_equiv_pos_as_xyz
  1  'x, y, z'
loop_
 _atom_site_type_symbol
 _atom_site_label
 _atom_site_symmetry_multiplicity
 _atom_site_fract_x
 _atom_site_fract_y
 _atom_site_fract_z
 _atom_site_occupancy
  Ti  Ti0  1  0.00000000  0.99766500  0.34107300  1
  Ti  Ti1  1  0.00000000  0.00233500  0.65892700  1
  Ti  Ti2  1  0.50000000  0.50000000  0.50000000  1
  W  W3  1  0.00000000  0.00000000  0.00000000  1
  W  W4  1  0.50000000  0.50017100  0.17458500  1
  W  W5  1  0.50000000  0.49982900  0.82541500  1
  O  O6  1  0.50000000  0.81220800  0.40326600  1
  O  O7  1  0.50000000  0.79224400  0.06846100  1
  O  O8  1  0.50000000  0.80750000  0.72390100  1
  O  O9  1  0.00000000  0.68692300  0.56361100  1
  O  O10  1  0.00000000  0.70485400  0.89511500  1
  O  O11  1  0.00000000  0.71078500  0.24195900  1
  O  O12  1  0.00000000  0.31307700  0.43638900  1
  O  O13  1  0.00000000  0.29514600  0.10488500  1
  O  O14  1  0.00000000  0.28921500  0.75804100  1
  O  O15  1  0.50000000  0.18779200  0.59673400  1
  O  O16  1  0.50000000  0.19250000  0.27609900  1
  O  O17  1  0.50000000  0.20775600  0.93153900  1
