# generated using pymatgen
data_Li4Fe3Sb5O16
_symmetry_space_group_name_H-M   'P 1'
_cell_length_a   6.30168077
_cell_length_b   6.30168077
_cell_length_c   10.39384833
_cell_angle_alpha   89.72865825
_cell_angle_beta   89.72865825
_cell_angle_gamma   59.30279651
_symmetry_Int_Tables_number   1
_chemical_formula_structural   Li4Fe3Sb5O16
_chemical_formula_sum   'Li4 Fe3 Sb5 O16'
_cell_volume   354.91074906
_cell_formula_units_Z   1
loop_
 _symmetry_equiv_pos_site_id
 _symmetry_equiv_pos_as_xyz
  1  'x, y, z'
loop_
 _atom_site_type_symbol
 _atom_site_label
 _atom_site_symmetry_multiplicity
 _atom_site_fract_x
 _atom_site_fract_y
 _atom_site_fract_z
 _atom_site_occupancy
  Li  Li0  1  0.66095000  0.66095000  0.10968800  1
  Li  Li1  1  0.99421400  0.99421400  0.01027800  1
  Li  Li2  1  0.99895100  0.99895100  0.49781800  1
  Li  Li3  1  0.32013900  0.32013900  0.59985900  1
  Fe  Fe4  1  0.83058000  0.83058000  0.78655300  1
  Fe  Fe5  1  0.66574500  0.17148600  0.28607500  1
  Fe  Fe6  1  0.17148600  0.66574500  0.28607500  1
  Sb  Sb7  1  0.83046600  0.33303000  0.78389900  1
  Sb  Sb8  1  0.68009100  0.68009100  0.49036200  1
  Sb  Sb9  1  0.33303000  0.83046600  0.78389900  1
  Sb  Sb10  1  0.17069000  0.17069000  0.28209500  1
  Sb  Sb11  1  0.34493000  0.34493000  0.02284600  1
  O  O12  1  0.85523800  0.31319400  0.39211200  1
  O  O13  1  0.50504500  0.50504500  0.68077200  1
  O  O14  1  0.65677300  0.65677300  0.89301700  1
  O  O15  1  0.00413000  0.00413000  0.67919600  1
  O  O16  1  0.00828100  0.00828100  0.18928700  1
  O  O17  1  0.31319400  0.85523800  0.39211200  1
  O  O18  1  0.96795400  0.50278600  0.67814600  1
  O  O19  1  0.50278600  0.96795400  0.67814600  1
  O  O20  1  0.14665600  0.14665600  0.89162900  1
  O  O21  1  0.84760900  0.84760900  0.39927800  1
  O  O22  1  0.48102100  0.03170800  0.16801900  1
  O  O23  1  0.03170800  0.48102100  0.16801900  1
  O  O24  1  0.32397500  0.32397500  0.39139800  1
  O  O25  1  0.70418000  0.15691800  0.89395800  1
  O  O26  1  0.48038500  0.48038500  0.16371600  1
  O  O27  1  0.15691800  0.70418000  0.89395800  1
