# generated using pymatgen
data_Ho2Ge2O7
_symmetry_space_group_name_H-M   'P 1'
_cell_length_a   5.76875419
_cell_length_b   5.76875419
_cell_length_c   5.03012983
_cell_angle_alpha   82.60616854
_cell_angle_beta   82.60616854
_cell_angle_gamma   105.35749562
_symmetry_Int_Tables_number   1
_chemical_formula_structural   Ho2Ge2O7
_chemical_formula_sum   'Ho2 Ge2 O7'
_cell_volume   157.73982955
_cell_formula_units_Z   1
loop_
 _symmetry_equiv_pos_site_id
 _symmetry_equiv_pos_as_xyz
  1  'x, y, z'
loop_
 _atom_site_type_symbol
 _atom_site_label
 _atom_site_symmetry_multiplicity
 _atom_site_fract_x
 _atom_site_fract_y
 _atom_site_fract_z
 _atom_site_occupancy
  Ho  Ho0  1  0.30638800  0.69361200  0.50000000  1
  Ho  Ho1  1  0.69361200  0.30638800  0.50000000  1
  Ge  Ge2  1  0.76906800  0.76906800  0.90934900  1
  Ge  Ge3  1  0.23093200  0.23093200  0.09065100  1
  O  O4  1  0.91951300  0.60070700  0.71255700  1
  O  O5  1  0.60070700  0.91951300  0.71255700  1
  O  O6  1  0.59754700  0.59754700  0.22323600  1
  O  O7  1  0.40245300  0.40245300  0.77676400  1
  O  O8  1  0.00000000  0.00000000  0.00000000  1
  O  O9  1  0.08048700  0.39929300  0.28744300  1
  O  O10  1  0.39929300  0.08048700  0.28744300  1
