# generated using pymatgen
data_Mn2CrO6
_symmetry_space_group_name_H-M   'P 1'
_cell_length_a   5.07693485
_cell_length_b   5.07693485
_cell_length_c   9.61052300
_cell_angle_alpha   90.00000000
_cell_angle_beta   90.00000000
_cell_angle_gamma   120.19455249
_symmetry_Int_Tables_number   1
_chemical_formula_structural   Mn2CrO6
_chemical_formula_sum   'Mn4 Cr2 O12'
_cell_volume   214.10464216
_cell_formula_units_Z   2
loop_
 _symmetry_equiv_pos_site_id
 _symmetry_equiv_pos_as_xyz
  1  'x, y, z'
loop_
 _atom_site_type_symbol
 _atom_site_label
 _atom_site_symmetry_multiplicity
 _atom_site_fract_x
 _atom_site_fract_y
 _atom_site_fract_z
 _atom_site_occupancy
  Mn  Mn0  1  0.33295800  0.66704200  0.00000000  1
  Mn  Mn1  1  0.16704200  0.83295800  0.50000000  1
  Mn  Mn2  1  0.83295800  0.16704200  0.50000000  1
  Mn  Mn3  1  0.66704200  0.33295800  0.00000000  1
  Cr  Cr4  1  0.50000000  0.50000000  0.50000000  1
  Cr  Cr5  1  0.00000000  0.00000000  0.00000000  1
  O  O6  1  0.16534900  0.50064500  0.60001500  1
  O  O7  1  0.83465100  0.49935500  0.39998500  1
  O  O8  1  0.00064500  0.66534900  0.89998500  1
  O  O9  1  0.33465100  0.99935500  0.10001500  1
  O  O10  1  0.66619300  0.66619300  0.09933500  1
  O  O11  1  0.83380700  0.83380700  0.59933500  1
  O  O12  1  0.16619300  0.16619300  0.40066500  1
  O  O13  1  0.49935500  0.83465100  0.39998500  1
  O  O14  1  0.33380700  0.33380700  0.90066500  1
  O  O15  1  0.66534900  0.00064500  0.89998500  1
  O  O16  1  0.99935500  0.33465100  0.10001500  1
  O  O17  1  0.50064500  0.16534900  0.60001500  1
