# generated using pymatgen
data_Ca2HgPt
_symmetry_space_group_name_H-M   'P 1'
_cell_length_a   12.29336485
_cell_length_b   12.29336485
_cell_length_c   12.29336485
_cell_angle_alpha   123.54704531
_cell_angle_beta   118.79603469
_cell_angle_gamma   88.03353650
_symmetry_Int_Tables_number   1
_chemical_formula_structural   Ca2HgPt
_chemical_formula_sum   'Ca2 Hg1 Pt1'
_cell_volume   1286.72193268
_cell_formula_units_Z   1
loop_
 _symmetry_equiv_pos_site_id
 _symmetry_equiv_pos_as_xyz
  1  'x, y, z'
loop_
 _atom_site_type_symbol
 _atom_site_label
 _atom_site_symmetry_multiplicity
 _atom_site_fract_x
 _atom_site_fract_y
 _atom_site_fract_z
 _atom_site_occupancy
  Ca  Ca0  1  0.00000000  0.22062900  0.22062900  1
  Ca  Ca1  1  0.00000000  0.77937100  0.77937100  1
  Hg  Hg2  1  0.00000000  0.50000000  0.50000000  1
  Pt  Pt3  1  0.00000000  0.00000000  0.00000000  1
