# generated using pymatgen
data_Mn5SbO12
_symmetry_space_group_name_H-M   'P 1'
_cell_length_a   5.22049792
_cell_length_b   5.22049792
_cell_length_c   9.72361746
_cell_angle_alpha   89.80526869
_cell_angle_beta   89.80526869
_cell_angle_gamma   120.69678467
_symmetry_Int_Tables_number   1
_chemical_formula_structural   Mn5SbO12
_chemical_formula_sum   'Mn5 Sb1 O12'
_cell_volume   227.86613311
_cell_formula_units_Z   1
loop_
 _symmetry_equiv_pos_site_id
 _symmetry_equiv_pos_as_xyz
  1  'x, y, z'
loop_
 _atom_site_type_symbol
 _atom_site_label
 _atom_site_symmetry_multiplicity
 _atom_site_fract_x
 _atom_site_fract_y
 _atom_site_fract_z
 _atom_site_occupancy
  Mn  Mn0  1  0.16677000  0.83323000  0.50000000  1
  Mn  Mn1  1  0.33372600  0.66627400  0.00000000  1
  Mn  Mn2  1  0.50000000  0.50000000  0.50000000  1
  Mn  Mn3  1  0.66627400  0.33372600  0.00000000  1
  Mn  Mn4  1  0.83323000  0.16677000  0.50000000  1
  Sb  Sb5  1  0.00000000  0.00000000  0.00000000  1
  O  O6  1  0.33897500  0.00688100  0.10214400  1
  O  O7  1  0.99311900  0.66102500  0.89785600  1
  O  O8  1  0.50125200  0.83439100  0.40471000  1
  O  O9  1  0.16560900  0.49874800  0.59529000  1
  O  O10  1  0.83258500  0.83258500  0.59549100  1
  O  O11  1  0.66413100  0.66413100  0.10417700  1
  O  O12  1  0.33586900  0.33586900  0.89582300  1
  O  O13  1  0.16741500  0.16741500  0.40450900  1
  O  O14  1  0.83439100  0.50125200  0.40471000  1
  O  O15  1  0.49874800  0.16560900  0.59529000  1
  O  O16  1  0.00688100  0.33897500  0.10214400  1
  O  O17  1  0.66102500  0.99311900  0.89785600  1
