# generated using pymatgen
data_Ce5Sm2O13
_symmetry_space_group_name_H-M   'P 1'
_cell_length_a   3.85371923
_cell_length_b   3.85371923
_cell_length_c   22.50018409
_cell_angle_alpha   94.91268666
_cell_angle_beta   94.91268666
_cell_angle_gamma   60.00000000
_symmetry_Int_Tables_number   1
_chemical_formula_structural   Ce5Sm2O13
_chemical_formula_sum   'Ce5 Sm2 O13'
_cell_volume   287.96721398
_cell_formula_units_Z   1
loop_
 _symmetry_equiv_pos_site_id
 _symmetry_equiv_pos_as_xyz
  1  'x, y, z'
loop_
 _atom_site_type_symbol
 _atom_site_label
 _atom_site_symmetry_multiplicity
 _atom_site_fract_x
 _atom_site_fract_y
 _atom_site_fract_z
 _atom_site_occupancy
  Ce  Ce0  1  0.42840800  0.42840800  0.28522200  1
  Ce  Ce1  1  0.85649100  0.85649100  0.56947500  1
  Ce  Ce2  1  0.14228400  0.14228400  0.42685200  1
  Ce  Ce3  1  0.57069800  0.57069800  0.71209500  1
  Ce  Ce4  1  0.28435300  0.28435300  0.85306000  1
  Sm  Sm5  1  0.71653600  0.71653600  0.14960600  1
  Sm  Sm6  1  0.99859700  0.99859700  0.99579200  1
  O  O7  1  0.75111200  0.75111200  0.25333500  1
  O  O8  1  0.39388600  0.39388600  0.18165900  1
  O  O9  1  0.03115900  0.03115900  0.09347900  1
  O  O10  1  0.82178700  0.82178700  0.46536200  1
  O  O11  1  0.10776300  0.10776300  0.32328800  1
  O  O12  1  0.46469400  0.46469400  0.39408100  1
  O  O13  1  0.53603200  0.53603200  0.60809600  1
  O  O14  1  0.89314800  0.89314800  0.67944600  1
  O  O15  1  0.17889300  0.17889300  0.53667900  1
  O  O16  1  0.60694000  0.60694000  0.82082200  1
  O  O17  1  0.25021200  0.25021200  0.75063600  1
  O  O18  1  0.96310400  0.96310400  0.88931200  1
  O  O19  1  0.32532900  0.32532900  0.97598700  1
