# generated using pymatgen
data_V3FeO8
_symmetry_space_group_name_H-M   'P 1'
_cell_length_a   6.29021700
_cell_length_b   7.56975017
_cell_length_c   7.57957636
_cell_angle_alpha   60.04321110
_cell_angle_beta   67.16358719
_cell_angle_gamma   72.76515806
_symmetry_Int_Tables_number   1
_chemical_formula_structural   V3FeO8
_chemical_formula_sum   'V6 Fe2 O16'
_cell_volume   285.79498475
_cell_formula_units_Z   2
loop_
 _symmetry_equiv_pos_site_id
 _symmetry_equiv_pos_as_xyz
  1  'x, y, z'
loop_
 _atom_site_type_symbol
 _atom_site_label
 _atom_site_symmetry_multiplicity
 _atom_site_fract_x
 _atom_site_fract_y
 _atom_site_fract_z
 _atom_site_occupancy
  V  V0  1  0.79386600  0.44345700  0.73213800  1
  V  V1  1  0.80156600  0.94957400  0.70080800  1
  V  V2  1  0.60323800  0.70737000  0.28117500  1
  V  V3  1  0.39676200  0.29263000  0.71882500  1
  V  V4  1  0.19843400  0.05042600  0.29919200  1
  V  V5  1  0.20613400  0.55654300  0.26786200  1
  Fe  Fe6  1  0.59249700  0.19940900  0.30816000  1
  Fe  Fe7  1  0.40750300  0.80059100  0.69184000  1
  O  O8  1  0.74508300  0.70625500  0.69872100  1
  O  O9  1  0.72738400  0.22247000  0.70025700  1
  O  O10  1  0.89575000  0.09247500  0.36388400  1
  O  O11  1  0.88574800  0.60062900  0.35397500  1
  O  O12  1  0.71730400  0.81471600  0.01249900  1
  O  O13  1  0.72765600  0.31708400  0.99509300  1
  O  O14  1  0.48078000  0.06812100  0.65000100  1
  O  O15  1  0.48180000  0.53907200  0.65661300  1
  O  O16  1  0.51820000  0.46092800  0.34338700  1
  O  O17  1  0.51922000  0.93187900  0.34999900  1
  O  O18  1  0.27234400  0.68291600  0.00490700  1
  O  O19  1  0.28269600  0.18528400  0.98750100  1
  O  O20  1  0.10425000  0.90752500  0.63611600  1
  O  O21  1  0.11425200  0.39937100  0.64602500  1
  O  O22  1  0.25491700  0.29374500  0.30127900  1
  O  O23  1  0.27261600  0.77753000  0.29974300  1
