# generated using pymatgen
data_Ce4ThO8
_symmetry_space_group_name_H-M   'P 1'
_cell_length_a   14.17722053
_cell_length_b   14.17722053
_cell_length_c   14.17722053
_cell_angle_alpha   164.09691863
_cell_angle_beta   163.93268123
_cell_angle_gamma   22.68133561
_symmetry_Int_Tables_number   1
_chemical_formula_structural   Ce4ThO8
_chemical_formula_sum   'Ce4 Th1 O8'
_cell_volume   216.05804020
_cell_formula_units_Z   1
loop_
 _symmetry_equiv_pos_site_id
 _symmetry_equiv_pos_as_xyz
  1  'x, y, z'
loop_
 _atom_site_type_symbol
 _atom_site_label
 _atom_site_symmetry_multiplicity
 _atom_site_fract_x
 _atom_site_fract_y
 _atom_site_fract_z
 _atom_site_occupancy
  Ce  Ce0  1  0.40293100  0.90293100  0.50000000  1
  Ce  Ce1  1  0.79662000  0.29662000  0.50000000  1
  Ce  Ce2  1  0.20338000  0.70338000  0.50000000  1
  Ce  Ce3  1  0.59706900  0.09706900  0.50000000  1
  Th  Th4  1  0.00000000  0.50000000  0.50000000  1
  O  O5  1  0.44682500  0.44682500  0.00000000  1
  O  O6  1  0.95124000  0.95124000  0.00000000  1
  O  O7  1  0.84843000  0.84843000  0.00000000  1
  O  O8  1  0.25822200  0.25822200  0.00000000  1
  O  O9  1  0.74177800  0.74177800  0.00000000  1
  O  O10  1  0.15157000  0.15157000  0.00000000  1
  O  O11  1  0.04876000  0.04876000  0.00000000  1
  O  O12  1  0.55317500  0.55317500  0.00000000  1
