# generated using pymatgen
data_Ca5Mn4O9
_symmetry_space_group_name_H-M   'P 1'
_cell_length_a   8.72197345
_cell_length_b   8.72197345
_cell_length_c   9.90283086
_cell_angle_alpha   55.90449266
_cell_angle_beta   55.90449266
_cell_angle_gamma   22.00807081
_symmetry_Int_Tables_number   1
_chemical_formula_structural   Ca5Mn4O9
_chemical_formula_sum   'Ca5 Mn4 O9'
_cell_volume   231.74223944
_cell_formula_units_Z   1
loop_
 _symmetry_equiv_pos_site_id
 _symmetry_equiv_pos_as_xyz
  1  'x, y, z'
loop_
 _atom_site_type_symbol
 _atom_site_label
 _atom_site_symmetry_multiplicity
 _atom_site_fract_x
 _atom_site_fract_y
 _atom_site_fract_z
 _atom_site_occupancy
  Ca  Ca0  1  0.32956600  0.32956600  0.66896200  1
  Ca  Ca1  1  0.00125900  0.00125900  0.32538300  1
  Ca  Ca2  1  0.00381400  0.00381400  0.66901400  1
  Ca  Ca3  1  0.67066400  0.67066400  0.33466200  1
  Ca  Ca4  1  0.33679400  0.33679400  0.00260800  1
  Mn  Mn5  1  0.66798600  0.66798600  0.99930900  1
  Mn  Mn6  1  0.66736700  0.66736700  0.66969200  1
  Mn  Mn7  1  0.33454000  0.33454000  0.33410000  1
  Mn  Mn8  1  0.00493500  0.00493500  0.99908900  1
  O  O9  1  0.16375000  0.16375000  0.83921600  1
  O  O10  1  0.83008200  0.83008200  0.49620900  1
  O  O11  1  0.83139800  0.83139800  0.83782000  1
  O  O12  1  0.50333600  0.50333600  0.15584000  1
  O  O13  1  0.50206200  0.50206200  0.49958000  1
  O  O14  1  0.50674800  0.50674800  0.83519200  1
  O  O15  1  0.16897500  0.16897500  0.16071300  1
  O  O16  1  0.17199300  0.17199300  0.50479700  1
  O  O17  1  0.83883700  0.83883700  0.17208400  1
