# generated using pymatgen
data_Cr3Sb(PO4)4
_symmetry_space_group_name_H-M   'P 1'
_cell_length_a   4.89892438
_cell_length_b   10.21959259
_cell_length_c   5.88349700
_cell_angle_alpha   90.00085820
_cell_angle_beta   89.99984814
_cell_angle_gamma   91.03131312
_symmetry_Int_Tables_number   1
_chemical_formula_structural   Cr3Sb(PO4)4
_chemical_formula_sum   'Cr3 Sb1 P4 O16'
_cell_volume   294.50962790
_cell_formula_units_Z   1
loop_
 _symmetry_equiv_pos_site_id
 _symmetry_equiv_pos_as_xyz
  1  'x, y, z'
loop_
 _atom_site_type_symbol
 _atom_site_label
 _atom_site_symmetry_multiplicity
 _atom_site_fract_x
 _atom_site_fract_y
 _atom_site_fract_z
 _atom_site_occupancy
  Cr  Cr0  1  0.44744600  0.22409600  0.75016800  1
  Cr  Cr1  1  0.55159700  0.78178900  0.24997400  1
  Cr  Cr2  1  0.95349500  0.26432400  0.24994800  1
  Sb  Sb3  1  0.04064500  0.72485100  0.75000900  1
  P  P4  1  0.12676900  0.59279600  0.24999600  1
  P  P5  1  0.39251100  0.09071300  0.25002500  1
  P  P6  1  0.59148500  0.92317900  0.74999900  1
  P  P7  1  0.89317800  0.39048500  0.74998700  1
  O  O8  1  0.14635600  0.44483400  0.24999100  1
  O  O9  1  0.29837600  0.66179600  0.05010300  1
  O  O10  1  0.29834700  0.66179200  0.44992600  1
  O  O11  1  0.20184700  0.37393300  0.74995200  1
  O  O12  1  0.28198100  0.90198800  0.74995900  1
  O  O13  1  0.24446100  0.16592500  0.04718400  1
  O  O14  1  0.24448400  0.16592600  0.45291800  1
  O  O15  1  0.32227600  0.94419200  0.24997600  1
  O  O16  1  0.66956500  0.06768000  0.74998500  1
  O  O17  1  0.72752400  0.85158700  0.54086700  1
  O  O18  1  0.72750000  0.85159000  0.95911800  1
  O  O19  1  0.70182300  0.11261100  0.24999100  1
  O  O20  1  0.83290200  0.64018800  0.24997800  1
  O  O21  1  0.74645700  0.31569100  0.54400000  1
  O  O22  1  0.74653200  0.31571900  0.95597100  1
  O  O23  1  0.81244000  0.53231500  0.74997700  1
