# generated using pymatgen
data_Cs3HoO3
_symmetry_space_group_name_H-M   'P 1'
_cell_length_a   7.61533411
_cell_length_b   7.61533411
_cell_length_c   7.61881883
_cell_angle_alpha   84.03041169
_cell_angle_beta   84.03041169
_cell_angle_gamma   115.87092705
_symmetry_Int_Tables_number   1
_chemical_formula_structural   Cs3HoO3
_chemical_formula_sum   'Cs6 Ho2 O6'
_cell_volume   389.85548310
_cell_formula_units_Z   2
loop_
 _symmetry_equiv_pos_site_id
 _symmetry_equiv_pos_as_xyz
  1  'x, y, z'
loop_
 _atom_site_type_symbol
 _atom_site_label
 _atom_site_symmetry_multiplicity
 _atom_site_fract_x
 _atom_site_fract_y
 _atom_site_fract_z
 _atom_site_occupancy
  Cs  Cs0  1  0.63864300  0.63864300  0.65145100  1
  Cs  Cs1  1  0.79501700  0.20498300  0.50000000  1
  Cs  Cs2  1  0.20498300  0.79501700  0.50000000  1
  Cs  Cs3  1  0.73776600  0.26223400  0.00000000  1
  Cs  Cs4  1  0.26223400  0.73776600  0.00000000  1
  Cs  Cs5  1  0.36135700  0.36135700  0.34854900  1
  Ho  Ho6  1  0.82737600  0.82737600  0.14883300  1
  Ho  Ho7  1  0.17262400  0.17262400  0.85116700  1
  O  O8  1  0.90226100  0.90226100  0.85414800  1
  O  O9  1  0.83559900  0.56554200  0.26509300  1
  O  O10  1  0.56554200  0.83559900  0.26509300  1
  O  O11  1  0.43445800  0.16440100  0.73490700  1
  O  O12  1  0.16440100  0.43445800  0.73490700  1
  O  O13  1  0.09773900  0.09773900  0.14585200  1
