# generated using pymatgen
data_BaSrI4
_symmetry_space_group_name_H-M   'P 1'
_cell_length_a   9.27111497
_cell_length_b   9.27111497
_cell_length_c   8.51340733
_cell_angle_alpha   68.85790966
_cell_angle_beta   68.85790966
_cell_angle_gamma   108.08056495
_symmetry_Int_Tables_number   1
_chemical_formula_structural   BaSrI4
_chemical_formula_sum   'Ba2 Sr2 I8'
_cell_volume   548.93950696
_cell_formula_units_Z   2
loop_
 _symmetry_equiv_pos_site_id
 _symmetry_equiv_pos_as_xyz
  1  'x, y, z'
loop_
 _atom_site_type_symbol
 _atom_site_label
 _atom_site_symmetry_multiplicity
 _atom_site_fract_x
 _atom_site_fract_y
 _atom_site_fract_z
 _atom_site_occupancy
  Ba  Ba0  1  0.98140800  0.01859200  0.25000000  1
  Ba  Ba1  1  0.01859200  0.98140800  0.75000000  1
  Sr  Sr2  1  0.63165600  0.36834400  0.75000000  1
  Sr  Sr3  1  0.36834400  0.63165600  0.25000000  1
  I  I4  1  0.62847100  0.74458200  0.76019900  1
  I  I5  1  0.94478600  0.30524000  0.43643600  1
  I  I6  1  0.30524000  0.94478600  0.93643600  1
  I  I7  1  0.25541800  0.37152900  0.73980100  1
  I  I8  1  0.74458200  0.62847100  0.26019900  1
  I  I9  1  0.69476000  0.05521400  0.06356400  1
  I  I10  1  0.05521400  0.69476000  0.56356400  1
  I  I11  1  0.37152900  0.25541800  0.23980100  1
