# generated using pymatgen
data_Y2ZnTc
_symmetry_space_group_name_H-M   'P 1'
_cell_length_a   11.69974718
_cell_length_b   11.69974718
_cell_length_c   11.69974718
_cell_angle_alpha   123.53439229
_cell_angle_beta   118.51292159
_cell_angle_gamma   88.29265534
_symmetry_Int_Tables_number   1
_chemical_formula_structural   Y2ZnTc
_chemical_formula_sum   'Y2 Zn1 Tc1'
_cell_volume   1111.60158728
_cell_formula_units_Z   1
loop_
 _symmetry_equiv_pos_site_id
 _symmetry_equiv_pos_as_xyz
  1  'x, y, z'
loop_
 _atom_site_type_symbol
 _atom_site_label
 _atom_site_symmetry_multiplicity
 _atom_site_fract_x
 _atom_site_fract_y
 _atom_site_fract_z
 _atom_site_occupancy
  Y  Y0  1  0.00000000  0.29115400  0.29115400  1
  Y  Y1  1  0.00000000  0.70884600  0.70884600  1
  Zn  Zn2  1  0.00000000  0.00000000  0.00000000  1
  Tc  Tc3  1  0.00000000  0.50000000  0.50000000  1
