# generated using pymatgen
data_BaY2Br8
_symmetry_space_group_name_H-M   'P 1'
_cell_length_a   10.37257490
_cell_length_b   10.37257490
_cell_length_c   11.10699797
_cell_angle_alpha   65.79951444
_cell_angle_beta   65.79951444
_cell_angle_gamma   68.77851776
_symmetry_Int_Tables_number   1
_chemical_formula_structural   BaY2Br8
_chemical_formula_sum   'Ba2 Y4 Br16'
_cell_volume   966.80503423
_cell_formula_units_Z   2
loop_
 _symmetry_equiv_pos_site_id
 _symmetry_equiv_pos_as_xyz
  1  'x, y, z'
loop_
 _atom_site_type_symbol
 _atom_site_label
 _atom_site_symmetry_multiplicity
 _atom_site_fract_x
 _atom_site_fract_y
 _atom_site_fract_z
 _atom_site_occupancy
  Ba  Ba0  1  0.97196600  0.02803400  0.25000000  1
  Ba  Ba1  1  0.02803400  0.97196600  0.75000000  1
  Y  Y2  1  0.49193300  0.93958400  0.22961600  1
  Y  Y3  1  0.93958400  0.49193300  0.72961600  1
  Y  Y4  1  0.06041600  0.50806700  0.27038400  1
  Y  Y5  1  0.50806700  0.06041600  0.77038400  1
  Br  Br6  1  0.59779100  0.66318600  0.32896200  1
  Br  Br7  1  0.21163500  0.97899000  0.41502700  1
  Br  Br8  1  0.93694700  0.36770900  0.20461500  1
  Br  Br9  1  0.32393500  0.97985400  0.05563700  1
  Br  Br10  1  0.66318600  0.59779100  0.82896200  1
  Br  Br11  1  0.97899000  0.21163500  0.91502700  1
  Br  Br12  1  0.36770900  0.93694700  0.70461500  1
  Br  Br13  1  0.97985400  0.32393500  0.55563700  1
  Br  Br14  1  0.02014600  0.67606500  0.44436300  1
  Br  Br15  1  0.63229100  0.06305300  0.29538500  1
  Br  Br16  1  0.02101000  0.78836500  0.08497300  1
  Br  Br17  1  0.33681400  0.40220900  0.17103800  1
  Br  Br18  1  0.67606500  0.02014600  0.94436300  1
  Br  Br19  1  0.06305300  0.63229100  0.79538500  1
  Br  Br20  1  0.78836500  0.02101000  0.58497300  1
  Br  Br21  1  0.40220900  0.33681400  0.67103800  1
