data_image0
_chemical_formula_structural       Fe2Rb2S4
_chemical_formula_sum              "Fe2 Rb2 S4"
_cell_length_a       5.40555
_cell_length_b       6.84344
_cell_length_c       6.84344
_cell_angle_alpha    116.357
_cell_angle_beta     101.28
_cell_angle_gamma    101.28

_space_group_name_H-M_alt    "P 1"
_space_group_IT_number       1

loop_
  _space_group_symop_operation_xyz
  'x, y, z'

loop_
  _atom_site_type_symbol
  _atom_site_label
  _atom_site_symmetry_multiplicity
  _atom_site_fract_x
  _atom_site_fract_y
  _atom_site_fract_z
  _atom_site_occupancy
  Fe  Fe1       1.0  0.25000  0.99900  0.00125  1.0000
  Fe  Fe2       1.0  0.75000  0.00125  0.99900  1.0000
  Rb  Rb1       1.0  0.75000  0.64600  0.35400  1.0000
  Rb  Rb2       1.0  0.25000  0.35400  0.64600  1.0000
  S   S1        1.0  0.09410  0.28700  0.08540  1.0000
  S   S2        1.0  0.59400  0.08540  0.28700  1.0000
  S   S3        1.0  0.40600  0.91500  0.71300  1.0000
  S   S4        1.0  0.90600  0.71300  0.91500  1.0000
