# generated using pymatgen
data_V2(OF)3
_symmetry_space_group_name_H-M   'P 1'
_cell_length_a   5.19544700
_cell_length_b   5.25158350
_cell_length_c   9.25417331
_cell_angle_alpha   75.13362393
_cell_angle_beta   73.74078543
_cell_angle_gamma   60.63482107
_symmetry_Int_Tables_number   1
_chemical_formula_structural   V2(OF)3
_chemical_formula_sum   'V4 O6 F6'
_cell_volume   209.09292635
_cell_formula_units_Z   2
loop_
 _symmetry_equiv_pos_site_id
 _symmetry_equiv_pos_as_xyz
  1  'x, y, z'
loop_
 _atom_site_type_symbol
 _atom_site_label
 _atom_site_symmetry_multiplicity
 _atom_site_fract_x
 _atom_site_fract_y
 _atom_site_fract_z
 _atom_site_occupancy
  V  V0  1  0.95335900  0.01691100  0.00169700  1
  V  V1  1  0.72276400  0.75228500  0.76140500  1
  V  V2  1  0.54541800  0.48661700  0.50110300  1
  V  V3  1  0.24717900  0.27147600  0.26223000  1
  O  O4  1  0.39357700  0.80019100  0.87478800  1
  O  O5  1  0.82584500  0.94484400  0.87518200  1
  O  O6  1  0.29375600  0.43959800  0.37704900  1
  O  O7  1  0.70222500  0.54896900  0.61648300  1
  O  O8  1  0.63127100  0.19105700  0.12185900  1
  O  O9  1  0.85267300  0.31186500  0.37211500  1
  F  F10  1  0.12755000  0.69896000  0.62078900  1
  F  F11  1  0.04264100  0.62688000  0.12019900  1
  F  F12  1  0.44842200  0.86826100  0.37407300  1
  F  F13  1  0.20169600  0.04382300  0.12132900  1
  F  F14  1  0.54104700  0.13092700  0.62279900  1
  F  F15  1  0.97057700  0.36733600  0.87689900  1
