# generated using pymatgen
data_Mn7O12
_symmetry_space_group_name_H-M   'P 1'
_cell_length_a   6.38448109
_cell_length_b   6.38539944
_cell_length_c   6.38462268
_cell_angle_alpha   109.42239321
_cell_angle_beta   109.36109426
_cell_angle_gamma   109.63649985
_symmetry_Int_Tables_number   1
_chemical_formula_structural   Mn7O12
_chemical_formula_sum   'Mn7 O12'
_cell_volume   200.35078003
_cell_formula_units_Z   1
loop_
 _symmetry_equiv_pos_site_id
 _symmetry_equiv_pos_as_xyz
  1  'x, y, z'
loop_
 _atom_site_type_symbol
 _atom_site_label
 _atom_site_symmetry_multiplicity
 _atom_site_fract_x
 _atom_site_fract_y
 _atom_site_fract_z
 _atom_site_occupancy
  Mn  Mn0  1  0.99997400  0.49999100  0.50000500  1
  Mn  Mn1  1  0.00000200  0.50004800  0.00002300  1
  Mn  Mn2  1  0.99999800  0.99997400  0.49995600  1
  Mn  Mn3  1  0.49999400  0.50001300  0.50003000  1
  Mn  Mn4  1  0.50002500  0.00002900  0.50004000  1
  Mn  Mn5  1  0.50002100  0.49999800  0.99998800  1
  Mn  Mn6  1  0.49996900  0.99996000  0.99999300  1
  O  O7  1  0.18951000  0.87346300  0.68403200  1
  O  O8  1  0.12655600  0.31584400  0.81072200  1
  O  O9  1  0.18944500  0.50546200  0.31600400  1
  O  O10  1  0.31615100  0.81054300  0.12670200  1
  O  O11  1  0.49485900  0.68412000  0.81070000  1
  O  O12  1  0.31611800  0.18935000  0.50550700  1
  O  O13  1  0.68389000  0.81064200  0.49448300  1
  O  O14  1  0.50514300  0.31587700  0.18929300  1
  O  O15  1  0.68386400  0.18946100  0.87331000  1
  O  O16  1  0.81054500  0.49453600  0.68398700  1
  O  O17  1  0.87344300  0.68415400  0.18926700  1
  O  O18  1  0.81049400  0.12653500  0.31596000  1
