# generated using pymatgen
data_Hf2N2O
_symmetry_space_group_name_H-M   'P 1'
_cell_length_a   5.48971400
_cell_length_b   5.81515300
_cell_length_c   7.93103811
_cell_angle_alpha   85.30140213
_cell_angle_beta   90.00000000
_cell_angle_gamma   90.00000000
_symmetry_Int_Tables_number   1
_chemical_formula_structural   Hf2N2O
_chemical_formula_sum   'Hf8 N8 O4'
_cell_volume   252.33584667
_cell_formula_units_Z   4
loop_
 _symmetry_equiv_pos_site_id
 _symmetry_equiv_pos_as_xyz
  1  'x, y, z'
loop_
 _atom_site_type_symbol
 _atom_site_label
 _atom_site_symmetry_multiplicity
 _atom_site_fract_x
 _atom_site_fract_y
 _atom_site_fract_z
 _atom_site_occupancy
  Hf  Hf0  1  0.99973500  0.27918400  0.14305000  1
  Hf  Hf1  1  0.00026500  0.27918400  0.64305000  1
  Hf  Hf2  1  0.48797400  0.21058600  0.35443000  1
  Hf  Hf3  1  0.51202600  0.21058600  0.85443000  1
  Hf  Hf4  1  0.48797400  0.78941400  0.14557000  1
  Hf  Hf5  1  0.51202600  0.78941400  0.64557000  1
  Hf  Hf6  1  0.99973500  0.72081600  0.35695000  1
  Hf  Hf7  1  0.00026500  0.72081600  0.85695000  1
  N  N8  1  0.65150900  0.15232200  0.10016400  1
  N  N9  1  0.34849100  0.15232200  0.60016400  1
  N  N10  1  0.28406100  0.50000000  0.25000000  1
  N  N11  1  0.71593900  0.50000000  0.75000000  1
  N  N12  1  0.65150900  0.84767800  0.39983600  1
  N  N13  1  0.34849100  0.84767800  0.89983600  1
  N  N14  1  0.19222100  0.00000000  0.25000000  1
  N  N15  1  0.80777900  0.00000000  0.75000000  1
  O  O16  1  0.84661300  0.35070700  0.39853700  1
  O  O17  1  0.15338700  0.35070700  0.89853700  1
  O  O18  1  0.84661300  0.64929300  0.10146300  1
  O  O19  1  0.15338700  0.64929300  0.60146300  1
