# generated using pymatgen
data_V5CrO12
_symmetry_space_group_name_H-M   'P 1'
_cell_length_a   6.86336513
_cell_length_b   6.86336513
_cell_length_c   5.68672259
_cell_angle_alpha   75.13584392
_cell_angle_beta   75.13584392
_cell_angle_gamma   84.44121337
_symmetry_Int_Tables_number   1
_chemical_formula_structural   V5CrO12
_chemical_formula_sum   'V5 Cr1 O12'
_cell_volume   250.11101383
_cell_formula_units_Z   1
loop_
 _symmetry_equiv_pos_site_id
 _symmetry_equiv_pos_as_xyz
  1  'x, y, z'
loop_
 _atom_site_type_symbol
 _atom_site_label
 _atom_site_symmetry_multiplicity
 _atom_site_fract_x
 _atom_site_fract_y
 _atom_site_fract_z
 _atom_site_occupancy
  V  V0  1  0.08207600  0.91792400  0.00000000  1
  V  V1  1  0.79488500  0.60702500  0.50111100  1
  V  V2  1  0.60328300  0.80855500  0.99068300  1
  V  V3  1  0.39297500  0.20511500  0.49888900  1
  V  V4  1  0.19144500  0.39671700  0.00931700  1
  Cr  Cr5  1  0.91611600  0.08388400  0.50000000  1
  O  O6  1  0.95988800  0.81123000  0.39153600  1
  O  O7  1  0.91662800  0.37322800  0.50679200  1
  O  O8  1  0.82348800  0.96701800  0.87647800  1
  O  O9  1  0.63012500  0.65293000  0.30596600  1
  O  O10  1  0.62677200  0.08337200  0.49320800  1
  O  O11  1  0.65891500  0.61669600  0.80276400  1
  O  O12  1  0.34707000  0.36987500  0.69403400  1
  O  O13  1  0.35961500  0.90833800  0.03626900  1
  O  O14  1  0.38330400  0.34108500  0.19723600  1
  O  O15  1  0.18877000  0.04011200  0.60846400  1
  O  O16  1  0.09166200  0.64038500  0.96373100  1
  O  O17  1  0.03298200  0.17651200  0.12352200  1
