# generated using pymatgen
data_Ca2ZnAg
_symmetry_space_group_name_H-M   'P 1'
_cell_length_a   12.45810991
_cell_length_b   12.45810991
_cell_length_c   12.45810991
_cell_angle_alpha   120.14517947
_cell_angle_beta   119.43439261
_cell_angle_gamma   90.36558374
_symmetry_Int_Tables_number   1
_chemical_formula_structural   Ca2ZnAg
_chemical_formula_sum   'Ca2 Zn1 Ag1'
_cell_volume   1371.47820316
_cell_formula_units_Z   1
loop_
 _symmetry_equiv_pos_site_id
 _symmetry_equiv_pos_as_xyz
  1  'x, y, z'
loop_
 _atom_site_type_symbol
 _atom_site_label
 _atom_site_symmetry_multiplicity
 _atom_site_fract_x
 _atom_site_fract_y
 _atom_site_fract_z
 _atom_site_occupancy
  Ca  Ca0  1  0.73975600  0.00000000  0.73975600  1
  Ca  Ca1  1  0.26024400  0.00000000  0.26024400  1
  Zn  Zn2  1  0.00000000  0.00000000  0.00000000  1
  Ag  Ag3  1  0.50000000  0.00000000  0.50000000  1
