# generated using pymatgen
data_Ho2TeO6
_symmetry_space_group_name_H-M   'P 1'
_cell_length_a   9.15723959
_cell_length_b   9.15723959
_cell_length_c   5.18405800
_cell_angle_alpha   90.00000000
_cell_angle_beta   90.00000000
_cell_angle_gamma   119.99999707
_symmetry_Int_Tables_number   1
_chemical_formula_structural   Ho2TeO6
_chemical_formula_sum   'Ho6 Te3 O18'
_cell_volume   376.46937342
_cell_formula_units_Z   3
loop_
 _symmetry_equiv_pos_site_id
 _symmetry_equiv_pos_as_xyz
  1  'x, y, z'
loop_
 _atom_site_type_symbol
 _atom_site_label
 _atom_site_symmetry_multiplicity
 _atom_site_fract_x
 _atom_site_fract_y
 _atom_site_fract_z
 _atom_site_occupancy
  Ho  Ho0  1  0.00000000  0.62254200  0.00000000  1
  Ho  Ho1  1  0.00000000  0.28553600  0.50000000  1
  Ho  Ho2  1  0.37745800  0.37745800  0.00000000  1
  Ho  Ho3  1  0.28553600  0.00000000  0.50000000  1
  Ho  Ho4  1  0.71446400  0.71446400  0.50000000  1
  Ho  Ho5  1  0.62254200  0.00000000  0.00000000  1
  Te  Te6  1  0.33333300  0.66666700  0.50497600  1
  Te  Te7  1  0.00000000  0.00000000  0.00000000  1
  Te  Te8  1  0.66666700  0.33333300  0.49502400  1
  O  O9  1  0.08208600  0.88099300  0.79056000  1
  O  O10  1  0.22281600  0.75892700  0.29139400  1
  O  O11  1  0.13271800  0.54350800  0.71855000  1
  O  O12  1  0.41079000  0.86728200  0.71855000  1
  O  O13  1  0.11900700  0.20109300  0.79056000  1
  O  O14  1  0.24107300  0.46388900  0.29139400  1
  O  O15  1  0.53611100  0.77718400  0.29139400  1
  O  O16  1  0.20109300  0.11900700  0.20944000  1
  O  O17  1  0.45649200  0.58921000  0.71855000  1
  O  O18  1  0.46388900  0.24107300  0.70860600  1
  O  O19  1  0.79890700  0.91791400  0.79056000  1
  O  O20  1  0.58921000  0.45649200  0.28145000  1
  O  O21  1  0.54350800  0.13271800  0.28145000  1
  O  O22  1  0.91791400  0.79890700  0.20944000  1
  O  O23  1  0.77718400  0.53611100  0.70860600  1
  O  O24  1  0.75892700  0.22281600  0.70860600  1
  O  O25  1  0.86728200  0.41079000  0.28145000  1
  O  O26  1  0.88099300  0.08208600  0.20944000  1
