# generated using pymatgen
data_ZrO2
_symmetry_space_group_name_H-M   'P 1'
_cell_length_a   6.11014999
_cell_length_b   6.11014999
_cell_length_c   6.11014999
_cell_angle_alpha   141.16145089
_cell_angle_beta   141.16145089
_cell_angle_gamma   56.09397353
_symmetry_Int_Tables_number   1
_chemical_formula_structural   ZrO2
_chemical_formula_sum   'Zr2 O4'
_cell_volume   89.02006205
_cell_formula_units_Z   2
loop_
 _symmetry_equiv_pos_site_id
 _symmetry_equiv_pos_as_xyz
  1  'x, y, z'
loop_
 _atom_site_type_symbol
 _atom_site_label
 _atom_site_symmetry_multiplicity
 _atom_site_fract_x
 _atom_site_fract_y
 _atom_site_fract_z
 _atom_site_occupancy
  Zr  Zr0  1  0.00000000  0.00000000  0.00000000  1
  Zr  Zr1  1  0.75000000  0.25000000  0.50000000  1
  O  O2  1  0.79821100  0.79821100  0.00000000  1
  O  O3  1  0.20178900  0.20178900  0.00000000  1
  O  O4  1  0.95178900  0.45178900  0.50000000  1
  O  O5  1  0.54821100  0.04821100  0.50000000  1
