# generated using pymatgen
data_K4TiO4
_symmetry_space_group_name_H-M   'P 1'
_cell_length_a   6.89933906
_cell_length_b   6.89933906
_cell_length_c   7.46070500
_cell_angle_alpha   90.00000000
_cell_angle_beta   90.00000000
_cell_angle_gamma   91.92372605
_symmetry_Int_Tables_number   1
_chemical_formula_structural   K4TiO4
_chemical_formula_sum   'K8 Ti2 O8'
_cell_volume   354.93596540
_cell_formula_units_Z   2
loop_
 _symmetry_equiv_pos_site_id
 _symmetry_equiv_pos_as_xyz
  1  'x, y, z'
loop_
 _atom_site_type_symbol
 _atom_site_label
 _atom_site_symmetry_multiplicity
 _atom_site_fract_x
 _atom_site_fract_y
 _atom_site_fract_z
 _atom_site_occupancy
  K  K0  1  0.16774300  0.16774300  0.50000000  1
  K  K1  1  0.16774300  0.16774300  0.00000000  1
  K  K2  1  0.13623500  0.54545400  0.25000000  1
  K  K3  1  0.54545400  0.13623500  0.75000000  1
  K  K4  1  0.86376500  0.45454600  0.75000000  1
  K  K5  1  0.45454600  0.86376500  0.25000000  1
  K  K6  1  0.83225700  0.83225700  0.00000000  1
  K  K7  1  0.83225700  0.83225700  0.50000000  1
  Ti  Ti8  1  0.67374600  0.32625400  0.25000000  1
  Ti  Ti9  1  0.32625400  0.67374600  0.75000000  1
  O  O10  1  0.40938700  0.26601500  0.25000000  1
  O  O11  1  0.26601500  0.40938700  0.75000000  1
  O  O12  1  0.78416900  0.21583100  0.04649200  1
  O  O13  1  0.78416900  0.21583100  0.45350800  1
  O  O14  1  0.21583100  0.78416900  0.95350800  1
  O  O15  1  0.21583100  0.78416900  0.54649200  1
  O  O16  1  0.59061300  0.73398500  0.75000000  1
  O  O17  1  0.73398500  0.59061300  0.25000000  1
