# generated using pymatgen
data_Mn3OF5
_symmetry_space_group_name_H-M   'P 1'
_cell_length_a   5.89765112
_cell_length_b   5.89765112
_cell_length_c   7.35380962
_cell_angle_alpha   74.12782447
_cell_angle_beta   74.12782447
_cell_angle_gamma   73.15757183
_symmetry_Int_Tables_number   1
_chemical_formula_structural   Mn3OF5
_chemical_formula_sum   'Mn6 O2 F10'
_cell_volume   230.17545910
_cell_formula_units_Z   2
loop_
 _symmetry_equiv_pos_site_id
 _symmetry_equiv_pos_as_xyz
  1  'x, y, z'
loop_
 _atom_site_type_symbol
 _atom_site_label
 _atom_site_symmetry_multiplicity
 _atom_site_fract_x
 _atom_site_fract_y
 _atom_site_fract_z
 _atom_site_occupancy
  Mn  Mn0  1  0.33704100  0.33704100  0.16679400  1
  Mn  Mn1  1  0.00000000  0.00000000  0.00000000  1
  Mn  Mn2  1  0.31212500  0.31212500  0.65277600  1
  Mn  Mn3  1  0.00000000  0.00000000  0.50000000  1
  Mn  Mn4  1  0.66295900  0.66295900  0.83320600  1
  Mn  Mn5  1  0.68787500  0.68787500  0.34722400  1
  O  O6  1  0.91837900  0.91837900  0.28596300  1
  O  O7  1  0.08162100  0.08162100  0.71403700  1
  F  F8  1  0.29754500  0.70245500  0.00000000  1
  F  F9  1  0.63770900  0.02108000  0.65224000  1
  F  F10  1  0.54616700  0.54616700  0.64157800  1
  F  F11  1  0.22824800  0.22824800  0.96357100  1
  F  F12  1  0.77175200  0.77175200  0.03642900  1
  F  F13  1  0.45383300  0.45383300  0.35842200  1
  F  F14  1  0.02108000  0.63770900  0.65224000  1
  F  F15  1  0.70245500  0.29754500  0.00000000  1
  F  F16  1  0.36229100  0.97892000  0.34776000  1
  F  F17  1  0.97892000  0.36229100  0.34776000  1
