# generated using pymatgen
data_Li3CrBAsO7
_symmetry_space_group_name_H-M   'P 1'
_cell_length_a   5.11877354
_cell_length_b   10.76238265
_cell_length_c   10.75960725
_cell_angle_alpha   105.35306723
_cell_angle_beta   94.21400563
_cell_angle_gamma   85.79650397
_symmetry_Int_Tables_number   1
_chemical_formula_structural   Li3CrBAsO7
_chemical_formula_sum   'Li12 Cr4 B4 As4 O28'
_cell_volume   569.15582393
_cell_formula_units_Z   4
loop_
 _symmetry_equiv_pos_site_id
 _symmetry_equiv_pos_as_xyz
  1  'x, y, z'
loop_
 _atom_site_type_symbol
 _atom_site_label
 _atom_site_symmetry_multiplicity
 _atom_site_fract_x
 _atom_site_fract_y
 _atom_site_fract_z
 _atom_site_occupancy
  Li  Li0  1  0.76157600  0.17175600  0.07830100  1
  Li  Li1  1  0.76156800  0.67176100  0.57829300  1
  Li  Li2  1  0.23846100  0.82828000  0.92174000  1
  Li  Li3  1  0.23841700  0.32828600  0.42172900  1
  Li  Li4  1  0.25232000  0.60794500  0.38242500  1
  Li  Li5  1  0.25230500  0.10791400  0.88244000  1
  Li  Li6  1  0.25231900  0.36754200  0.14194400  1
  Li  Li7  1  0.25226000  0.86754700  0.64195000  1
  Li  Li8  1  0.74773400  0.63247600  0.85812300  1
  Li  Li9  1  0.74773600  0.13247100  0.35811000  1
  Li  Li10  1  0.74763200  0.39206700  0.61759100  1
  Li  Li11  1  0.74770700  0.89213400  0.11760800  1
  Cr  Cr12  1  0.78855800  0.03114100  0.71888200  1
  Cr  Cr13  1  0.21151400  0.96885400  0.28116300  1
  Cr  Cr14  1  0.78861000  0.53102800  0.21887200  1
  Cr  Cr15  1  0.21136700  0.46890700  0.78095800  1
  B  B16  1  0.70324800  0.39365100  0.35636200  1
  B  B17  1  0.70329900  0.89364500  0.85637600  1
  B  B18  1  0.29670500  0.60640200  0.64362100  1
  B  B19  1  0.29669100  0.10635000  0.14368200  1
  As  As20  1  0.72711800  0.33615200  0.91381900  1
  As  As21  1  0.72711900  0.83612000  0.41384200  1
  As  As22  1  0.27293400  0.66383300  0.08613700  1
  As  As23  1  0.27289000  0.16384600  0.58617100  1
  O  O24  1  0.36037700  0.18139300  0.06860600  1
  O  O25  1  0.36037100  0.68142000  0.56859800  1
  O  O26  1  0.63960500  0.81860400  0.93145700  1
  O  O27  1  0.63955700  0.31861500  0.43146000  1
  O  O28  1  0.95850700  0.41808900  0.33194500  1
  O  O29  1  0.95861000  0.91809100  0.83197700  1
  O  O30  1  0.04133000  0.58197900  0.66796000  1
  O  O31  1  0.04126900  0.08190400  0.16802500  1
  O  O32  1  0.50991000  0.45784500  0.29210800  1
  O  O33  1  0.50988800  0.95784300  0.79209500  1
  O  O34  1  0.49022700  0.54220000  0.70789900  1
  O  O35  1  0.49016400  0.04216000  0.20800200  1
  O  O36  1  0.39267400  0.35860300  0.89163800  1
  O  O37  1  0.39263900  0.85852100  0.39172700  1
  O  O38  1  0.60731200  0.64142600  0.10825000  1
  O  O39  1  0.60726000  0.14143400  0.60830800  1
  O  O40  1  0.13981800  0.57594600  0.17413700  1
  O  O41  1  0.13976100  0.07595800  0.67417400  1
  O  O42  1  0.86032500  0.42406100  0.82582800  1
  O  O43  1  0.86023500  0.92400200  0.32583200  1
  O  O44  1  0.82508400  0.17441400  0.88012900  1
  O  O45  1  0.82507000  0.67437800  0.38008300  1
  O  O46  1  0.82543200  0.36973900  0.07551900  1
  O  O47  1  0.82550400  0.86980100  0.57552900  1
  O  O48  1  0.17452900  0.63016400  0.92440300  1
  O  O49  1  0.17451300  0.13015300  0.42443700  1
  O  O50  1  0.17501800  0.82558500  0.11990900  1
  O  O51  1  0.17492500  0.32556300  0.61982300  1
