# generated using pymatgen
data_MnV2O4
_symmetry_space_group_name_H-M   'P 1'
_cell_length_a   3.00654400
_cell_length_b   9.26251000
_cell_length_c   10.70964700
_cell_angle_alpha   90.00000000
_cell_angle_beta   90.00000000
_cell_angle_gamma   90.00000000
_symmetry_Int_Tables_number   1
_chemical_formula_structural   MnV2O4
_chemical_formula_sum   'Mn4 V8 O16'
_cell_volume   298.24379040
_cell_formula_units_Z   4
loop_
 _symmetry_equiv_pos_site_id
 _symmetry_equiv_pos_as_xyz
  1  'x, y, z'
loop_
 _atom_site_type_symbol
 _atom_site_label
 _atom_site_symmetry_multiplicity
 _atom_site_fract_x
 _atom_site_fract_y
 _atom_site_fract_z
 _atom_site_occupancy
  Mn  Mn0  1  0.25000000  0.75174900  0.64954300  1
  Mn  Mn1  1  0.25000000  0.25174900  0.85045700  1
  Mn  Mn2  1  0.75000000  0.74825100  0.14954300  1
  Mn  Mn3  1  0.75000000  0.24825100  0.35045700  1
  V  V4  1  0.25000000  0.43374200  0.61784400  1
  V  V5  1  0.75000000  0.08420700  0.60411300  1
  V  V6  1  0.25000000  0.93374200  0.88215600  1
  V  V7  1  0.75000000  0.58420700  0.89588700  1
  V  V8  1  0.25000000  0.41579300  0.10411300  1
  V  V9  1  0.75000000  0.06625800  0.11784400  1
  V  V10  1  0.25000000  0.91579300  0.39588700  1
  V  V11  1  0.75000000  0.56625800  0.38215600  1
  O  O12  1  0.25000000  0.12296100  0.47277200  1
  O  O13  1  0.75000000  0.87703900  0.52722800  1
  O  O14  1  0.75000000  0.58633100  0.57235700  1
  O  O15  1  0.75000000  0.29218800  0.67552900  1
  O  O16  1  0.25000000  0.02579900  0.71647000  1
  O  O17  1  0.25000000  0.52579900  0.78353000  1
  O  O18  1  0.75000000  0.79218800  0.82447100  1
  O  O19  1  0.75000000  0.08633100  0.92764300  1
  O  O20  1  0.75000000  0.37703900  0.97277200  1
  O  O21  1  0.25000000  0.62296100  0.02722800  1
  O  O22  1  0.25000000  0.91366900  0.07235700  1
  O  O23  1  0.25000000  0.20781200  0.17552900  1
  O  O24  1  0.75000000  0.47420100  0.21647000  1
  O  O25  1  0.75000000  0.97420100  0.28353000  1
  O  O26  1  0.25000000  0.70781200  0.32447100  1
  O  O27  1  0.25000000  0.41366900  0.42764300  1
