# generated using pymatgen
data_Zr3N4
_symmetry_space_group_name_H-M   'P 1'
_cell_length_a   6.51333734
_cell_length_b   6.51333734
_cell_length_c   6.51333734
_cell_angle_alpha   60.00000000
_cell_angle_beta   60.00000000
_cell_angle_gamma   60.00000000
_symmetry_Int_Tables_number   1
_chemical_formula_structural   Zr3N4
_chemical_formula_sum   'Zr6 N8'
_cell_volume   195.38702364
_cell_formula_units_Z   2
loop_
 _symmetry_equiv_pos_site_id
 _symmetry_equiv_pos_as_xyz
  1  'x, y, z'
loop_
 _atom_site_type_symbol
 _atom_site_label
 _atom_site_symmetry_multiplicity
 _atom_site_fract_x
 _atom_site_fract_y
 _atom_site_fract_z
 _atom_site_occupancy
  Zr  Zr0  1  0.62500000  0.62500000  0.12500000  1
  Zr  Zr1  1  0.62500000  0.62500000  0.62500000  1
  Zr  Zr2  1  0.25000000  0.25000000  0.25000000  1
  Zr  Zr3  1  0.62500000  0.12500000  0.62500000  1
  Zr  Zr4  1  0.00000000  0.00000000  0.00000000  1
  Zr  Zr5  1  0.12500000  0.62500000  0.62500000  1
  N  N6  1  0.86724000  0.86724000  0.39827900  1
  N  N7  1  0.86724000  0.39827900  0.86724000  1
  N  N8  1  0.86724000  0.86724000  0.86724000  1
  N  N9  1  0.39827900  0.86724000  0.86724000  1
  N  N10  1  0.38276000  0.38276000  0.38276000  1
  N  N11  1  0.85172100  0.38276000  0.38276000  1
  N  N12  1  0.38276000  0.38276000  0.85172100  1
  N  N13  1  0.38276000  0.85172100  0.38276000  1
