# generated using pymatgen
data_Li2V3TeO8
_symmetry_space_group_name_H-M   'P 1'
_cell_length_a   5.88958104
_cell_length_b   5.89066208
_cell_length_c   10.25440102
_cell_angle_alpha   90.00860410
_cell_angle_beta   89.99569288
_cell_angle_gamma   120.00607028
_symmetry_Int_Tables_number   1
_chemical_formula_structural   Li2V3TeO8
_chemical_formula_sum   'Li4 V6 Te2 O16'
_cell_volume   308.07954755
_cell_formula_units_Z   2
loop_
 _symmetry_equiv_pos_site_id
 _symmetry_equiv_pos_as_xyz
  1  'x, y, z'
loop_
 _atom_site_type_symbol
 _atom_site_label
 _atom_site_symmetry_multiplicity
 _atom_site_fract_x
 _atom_site_fract_y
 _atom_site_fract_z
 _atom_site_occupancy
  Li  Li0  1  0.33331200  0.66668500  0.89943600  1
  Li  Li1  1  0.00001500  0.00003400  0.98990900  1
  Li  Li2  1  0.99998500  0.00001800  0.48990900  1
  Li  Li3  1  0.66668800  0.33337400  0.39943600  1
  V  V4  1  0.17782200  0.82177800  0.21940000  1
  V  V5  1  0.17833700  0.35615200  0.21938900  1
  V  V6  1  0.64394800  0.82227900  0.21936900  1
  V  V7  1  0.35605200  0.17833100  0.71936900  1
  V  V8  1  0.82217800  0.64395500  0.71940000  1
  V  V9  1  0.82166300  0.17781500  0.71938900  1
  Te  Te10  1  0.33338000  0.66666000  0.50555800  1
  Te  Te11  1  0.66662000  0.33328000  0.00555800  1
  O  O12  1  0.16096800  0.83996300  0.60209000  1
  O  O13  1  0.02156000  0.51091100  0.32920400  1
  O  O14  1  0.33333000  0.66661100  0.10297400  1
  O  O15  1  0.99997900  0.00010100  0.30396600  1
  O  O16  1  0.00002100  0.00012400  0.80396600  1
  O  O17  1  0.16004900  0.32107400  0.60215400  1
  O  O18  1  0.48923300  0.97843500  0.32925800  1
  O  O19  1  0.48928500  0.51071600  0.32908300  1
  O  O20  1  0.32100700  0.15986600  0.10212800  1
  O  O21  1  0.67899300  0.83885800  0.60212800  1
  O  O22  1  0.51076700  0.48920100  0.82925800  1
  O  O23  1  0.51071500  0.02143100  0.82908300  1
  O  O24  1  0.66667000  0.33328100  0.60297400  1
  O  O25  1  0.83903200  0.67899500  0.10209000  1
  O  O26  1  0.97844000  0.48935000  0.82920400  1
  O  O27  1  0.83995100  0.16102500  0.10215400  1
