# generated using pymatgen
data_Ca2GaAg
_symmetry_space_group_name_H-M   'P 1'
_cell_length_a   12.44760167
_cell_length_b   12.44760167
_cell_length_c   12.44760167
_cell_angle_alpha   122.90639435
_cell_angle_beta   119.03952123
_cell_angle_gamma   88.35647743
_symmetry_Int_Tables_number   1
_chemical_formula_structural   Ca2GaAg
_chemical_formula_sum   'Ca2 Ga1 Ag1'
_cell_volume   1341.13510946
_cell_formula_units_Z   1
loop_
 _symmetry_equiv_pos_site_id
 _symmetry_equiv_pos_as_xyz
  1  'x, y, z'
loop_
 _atom_site_type_symbol
 _atom_site_label
 _atom_site_symmetry_multiplicity
 _atom_site_fract_x
 _atom_site_fract_y
 _atom_site_fract_z
 _atom_site_occupancy
  Ca  Ca0  1  0.00000000  0.24769400  0.24769400  1
  Ca  Ca1  1  0.00000000  0.75230600  0.75230600  1
  Ga  Ga2  1  0.00000000  0.00000000  0.00000000  1
  Ag  Ag3  1  0.00000000  0.50000000  0.50000000  1
