# generated using pymatgen
data_CdPd2Pt
_symmetry_space_group_name_H-M   'P 1'
_cell_length_a   10.82769091
_cell_length_b   10.82769091
_cell_length_c   10.82769091
_cell_angle_alpha   123.90619918
_cell_angle_beta   118.23696018
_cell_angle_gamma   88.22617824
_symmetry_Int_Tables_number   1
_chemical_formula_structural   CdPd2Pt
_chemical_formula_sum   'Cd1 Pd2 Pt1'
_cell_volume   879.81352099
_cell_formula_units_Z   1
loop_
 _symmetry_equiv_pos_site_id
 _symmetry_equiv_pos_as_xyz
  1  'x, y, z'
loop_
 _atom_site_type_symbol
 _atom_site_label
 _atom_site_symmetry_multiplicity
 _atom_site_fract_x
 _atom_site_fract_y
 _atom_site_fract_z
 _atom_site_occupancy
  Cd  Cd0  1  0.00000000  0.00000000  0.00000000  1
  Pd  Pd1  1  0.00000000  0.26061500  0.26061500  1
  Pd  Pd2  1  0.00000000  0.73938500  0.73938500  1
  Pt  Pt3  1  0.00000000  0.50000000  0.50000000  1
