# generated using pymatgen
data_Fe7O3F13
_symmetry_space_group_name_H-M   'P 1'
_cell_length_a   6.16752778
_cell_length_b   6.31633589
_cell_length_c   10.63792966
_cell_angle_alpha   107.64283561
_cell_angle_beta   106.93372588
_cell_angle_gamma   59.53276915
_symmetry_Int_Tables_number   1
_chemical_formula_structural   Fe7O3F13
_chemical_formula_sum   'Fe7 O3 F13'
_cell_volume   335.58036808
_cell_formula_units_Z   1
loop_
 _symmetry_equiv_pos_site_id
 _symmetry_equiv_pos_as_xyz
  1  'x, y, z'
loop_
 _atom_site_type_symbol
 _atom_site_label
 _atom_site_symmetry_multiplicity
 _atom_site_fract_x
 _atom_site_fract_y
 _atom_site_fract_z
 _atom_site_occupancy
  Fe  Fe0  1  0.76363200  0.76584400  0.26347800  1
  Fe  Fe1  1  0.01373000  0.51078400  0.99459700  1
  Fe  Fe2  1  0.76857300  0.73940700  0.75133200  1
  Fe  Fe3  1  0.72773600  0.26578400  0.74793500  1
  Fe  Fe4  1  0.26188700  0.26339100  0.25927300  1
  Fe  Fe5  1  0.47456500  0.00248800  0.49476200  1
  Fe  Fe6  1  0.32019300  0.78984200  0.92778000  1
  O  O7  1  0.64343100  0.59185000  0.87063100  1
  O  O8  1  0.58761900  0.09226600  0.36523400  1
  O  O9  1  0.11424000  0.64930000  0.88507200  1
  F  F10  1  0.85698700  0.83926900  0.13130800  1
  F  F11  1  0.90046500  0.40846000  0.14820300  1
  F  F12  1  0.82802000  0.92045300  0.62283700  1
  F  F13  1  0.86535200  0.37628000  0.65473600  1
  F  F14  1  0.62601800  0.67255900  0.37310000  1
  F  F15  1  0.39005900  0.89121500  0.12672800  1
  F  F16  1  0.42210900  0.87084200  0.61557700  1
  F  F17  1  0.34239800  0.34476200  0.12483700  1
  F  F18  1  0.65346400  0.10890300  0.84917400  1
  F  F19  1  0.11120200  0.60521300  0.36182400  1
  F  F20  1  0.41043600  0.32858000  0.61886600  1
  F  F21  1  0.15034300  0.14043700  0.37090800  1
  F  F22  1  0.09809500  0.12471800  0.87593600  1
