# generated using pymatgen
data_MnInPt2
_symmetry_space_group_name_H-M   'P 1'
_cell_length_a   10.90095400
_cell_length_b   10.90095400
_cell_length_c   10.90095400
_cell_angle_alpha   126.49834487
_cell_angle_beta   117.93781720
_cell_angle_gamma   86.37002773
_symmetry_Int_Tables_number   1
_chemical_formula_structural   MnInPt2
_chemical_formula_sum   'Mn1 In1 Pt2'
_cell_volume   876.63793579
_cell_formula_units_Z   1
loop_
 _symmetry_equiv_pos_site_id
 _symmetry_equiv_pos_as_xyz
  1  'x, y, z'
loop_
 _atom_site_type_symbol
 _atom_site_label
 _atom_site_symmetry_multiplicity
 _atom_site_fract_x
 _atom_site_fract_y
 _atom_site_fract_z
 _atom_site_occupancy
  Mn  Mn0  1  0.00000000  0.00000000  0.00000000  1
  In  In1  1  0.00000000  0.50000000  0.50000000  1
  Pt  Pt2  1  0.00000000  0.24153400  0.24153400  1
  Pt  Pt3  1  0.00000000  0.75846600  0.75846600  1
