# generated using pymatgen
data_V6O7F5
_symmetry_space_group_name_H-M   'P 1'
_cell_length_a   4.72212000
_cell_length_b   5.63567813
_cell_length_c   7.76713380
_cell_angle_alpha   86.02193657
_cell_angle_beta   88.33060208
_cell_angle_gamma   87.53965470
_symmetry_Int_Tables_number   1
_chemical_formula_structural   V6O7F5
_chemical_formula_sum   'V6 O7 F5'
_cell_volume   205.94263193
_cell_formula_units_Z   1
loop_
 _symmetry_equiv_pos_site_id
 _symmetry_equiv_pos_as_xyz
  1  'x, y, z'
loop_
 _atom_site_type_symbol
 _atom_site_label
 _atom_site_symmetry_multiplicity
 _atom_site_fract_x
 _atom_site_fract_y
 _atom_site_fract_z
 _atom_site_occupancy
  V  V0  1  0.54897700  0.85452700  0.66380600  1
  V  V1  1  0.52357400  0.50375500  0.01072400  1
  V  V2  1  0.48951500  0.16515500  0.33382000  1
  V  V3  1  0.99613500  0.32821700  0.66867200  1
  V  V4  1  0.99409700  0.65959100  0.32099100  1
  V  V5  1  0.95918700  0.99798900  0.99967300  1
  O  O6  1  0.80464900  0.69949500  0.09925500  1
  O  O7  1  0.79279600  0.04067300  0.76391000  1
  O  O8  1  0.69700600  0.19461100  0.10858800  1
  O  O9  1  0.68857100  0.54376800  0.76103000  1
  O  O10  1  0.70520600  0.86644500  0.43838500  1
  O  O11  1  0.30227700  0.12291800  0.56855000  1
  O  O12  1  0.30406800  0.46199100  0.23748700  1
  F  F13  1  0.80311100  0.36335000  0.43453500  1
  F  F14  1  0.30292000  0.80984900  0.89567500  1
  F  F15  1  0.19695200  0.95976700  0.22393200  1
  F  F16  1  0.19385300  0.29981200  0.90377300  1
  F  F17  1  0.19710600  0.62808400  0.56719000  1
