# generated using pymatgen
data_Ta2CrNO5
_symmetry_space_group_name_H-M   'P 1'
_cell_length_a   4.74391476
_cell_length_b   10.42464379
_cell_length_c   9.48769051
_cell_angle_alpha   62.93157464
_cell_angle_beta   90.42585321
_cell_angle_gamma   90.19394467
_symmetry_Int_Tables_number   1
_chemical_formula_structural   Ta2CrNO5
_chemical_formula_sum   'Ta8 Cr4 N4 O20'
_cell_volume   417.79461717
_cell_formula_units_Z   4
loop_
 _symmetry_equiv_pos_site_id
 _symmetry_equiv_pos_as_xyz
  1  'x, y, z'
loop_
 _atom_site_type_symbol
 _atom_site_label
 _atom_site_symmetry_multiplicity
 _atom_site_fract_x
 _atom_site_fract_y
 _atom_site_fract_z
 _atom_site_occupancy
  Ta  Ta0  1  0.99999400  0.34348600  0.32826500  1
  Ta  Ta1  1  0.99999700  0.34348400  0.82826000  1
  Ta  Ta2  1  0.00000700  0.65651100  0.17174200  1
  Ta  Ta3  1  0.00000800  0.65651300  0.67173400  1
  Ta  Ta4  1  0.49999600  0.16804200  0.16597600  1
  Ta  Ta5  1  0.49999800  0.16804000  0.66597900  1
  Ta  Ta6  1  0.50000300  0.83195600  0.83402400  1
  Ta  Ta7  1  0.50000600  0.83196300  0.33402200  1
  Cr  Cr8  1  0.49996200  0.50001400  0.99998300  1
  Cr  Cr9  1  0.00000400  0.99998800  0.50001700  1
  Cr  Cr10  1  0.99997200  0.99997700  0.00000900  1
  Cr  Cr11  1  0.50002000  0.50003900  0.49998500  1
  N  N12  1  0.19586500  0.50000200  0.84792600  1
  N  N13  1  0.19585800  0.50000200  0.34793000  1
  N  N14  1  0.80413600  0.50000000  0.15207200  1
  N  N15  1  0.80414300  0.49999700  0.65207000  1
  O  O16  1  0.30635900  0.99999600  0.34682300  1
  O  O17  1  0.30635900  0.00000000  0.84682100  1
  O  O18  1  0.69364400  0.99999700  0.15318000  1
  O  O19  1  0.69364300  0.00000200  0.65317900  1
  O  O20  1  0.19930000  0.83575000  0.68176900  1
  O  O21  1  0.19929400  0.83574500  0.18176600  1
  O  O22  1  0.19929700  0.16424500  0.01752300  1
  O  O23  1  0.19928800  0.16424900  0.51751700  1
  O  O24  1  0.80070200  0.16424800  0.31823300  1
  O  O25  1  0.80071000  0.16425100  0.81823600  1
  O  O26  1  0.80070500  0.83575200  0.98247800  1
  O  O27  1  0.80071300  0.83575100  0.48248200  1
  O  O28  1  0.30444300  0.32638600  0.18458300  1
  O  O29  1  0.30445000  0.32637900  0.68458500  1
  O  O30  1  0.30444300  0.67361200  0.01096500  1
  O  O31  1  0.30444700  0.67362100  0.51096000  1
  O  O32  1  0.69556200  0.32638800  0.98903300  1
  O  O33  1  0.69555600  0.32637900  0.48904100  1
  O  O34  1  0.69555900  0.67361300  0.81541700  1
  O  O35  1  0.69555600  0.67362100  0.31541400  1
