# generated using pymatgen
data_LaMg6C
_symmetry_space_group_name_H-M   'P 1'
_cell_length_a   7.44109789
_cell_length_b   7.44109789
_cell_length_c   4.69437300
_cell_angle_alpha   90.00000000
_cell_angle_beta   90.00000000
_cell_angle_gamma   135.86294613
_symmetry_Int_Tables_number   1
_chemical_formula_structural   LaMg6C
_chemical_formula_sum   'La1 Mg6 C1'
_cell_volume   181.00730134
_cell_formula_units_Z   1
loop_
 _symmetry_equiv_pos_site_id
 _symmetry_equiv_pos_as_xyz
  1  'x, y, z'
loop_
 _atom_site_type_symbol
 _atom_site_label
 _atom_site_symmetry_multiplicity
 _atom_site_fract_x
 _atom_site_fract_y
 _atom_site_fract_z
 _atom_site_occupancy
  La  La0  1  0.80398900  0.19601100  0.50000000  1
  Mg  Mg1  1  0.29769900  0.20690500  0.50000000  1
  Mg  Mg2  1  0.79309500  0.70230100  0.50000000  1
  Mg  Mg3  1  0.18322500  0.34037600  0.00000000  1
  Mg  Mg4  1  0.65962400  0.81677500  0.00000000  1
  Mg  Mg5  1  0.63895900  0.36104100  0.00000000  1
  Mg  Mg6  1  0.21536400  0.78463600  0.00000000  1
  C  C7  1  0.40804800  0.59195200  0.50000000  1
