# generated using pymatgen
data_Fe6OF11
_symmetry_space_group_name_H-M   'P 1'
_cell_length_a   5.83781750
_cell_length_b   5.83781750
_cell_length_c   7.50707481
_cell_angle_alpha   73.92788423
_cell_angle_beta   73.92788423
_cell_angle_gamma   71.67692815
_symmetry_Int_Tables_number   1
_chemical_formula_structural   Fe6OF11
_chemical_formula_sum   'Fe6 O1 F11'
_cell_volume   228.26924566
_cell_formula_units_Z   1
loop_
 _symmetry_equiv_pos_site_id
 _symmetry_equiv_pos_as_xyz
  1  'x, y, z'
loop_
 _atom_site_type_symbol
 _atom_site_label
 _atom_site_symmetry_multiplicity
 _atom_site_fract_x
 _atom_site_fract_y
 _atom_site_fract_z
 _atom_site_occupancy
  Fe  Fe0  1  0.33109500  0.33109500  0.16320800  1
  Fe  Fe1  1  0.66363600  0.66363600  0.34571500  1
  Fe  Fe2  1  0.35367500  0.35367500  0.66564500  1
  Fe  Fe3  1  0.66056200  0.66056200  0.82799700  1
  Fe  Fe4  1  0.00300600  0.00300600  0.50262400  1
  Fe  Fe5  1  0.99660600  0.99660600  0.99817500  1
  O  O6  1  0.55471100  0.55471100  0.63901500  1
  F  F7  1  0.96584800  0.36398100  0.32486300  1
  F  F8  1  0.63133400  0.04173400  0.66862800  1
  F  F9  1  0.11957100  0.11957100  0.68983300  1
  F  F10  1  0.76240600  0.76240600  0.03239800  1
  F  F11  1  0.41852200  0.41852200  0.37932300  1
  F  F12  1  0.24080700  0.24080700  0.94953500  1
  F  F13  1  0.89934400  0.89934400  0.30387700  1
  F  F14  1  0.04173400  0.63133400  0.66862800  1
  F  F15  1  0.36398100  0.96584800  0.32486300  1
  F  F16  1  0.70123600  0.29192600  0.00783600  1
  F  F17  1  0.29192600  0.70123600  0.00783600  1
