# generated using pymatgen
data_VO2F
_symmetry_space_group_name_H-M   'P 1'
_cell_length_a   5.13612200
_cell_length_b   5.15233509
_cell_length_c   13.01871105
_cell_angle_alpha   88.83937211
_cell_angle_beta   89.23261731
_cell_angle_gamma   60.84687524
_symmetry_Int_Tables_number   1
_chemical_formula_structural   VO2F
_chemical_formula_sum   'V6 O12 F6'
_cell_volume   300.80747955
_cell_formula_units_Z   6
loop_
 _symmetry_equiv_pos_site_id
 _symmetry_equiv_pos_as_xyz
  1  'x, y, z'
loop_
 _atom_site_type_symbol
 _atom_site_label
 _atom_site_symmetry_multiplicity
 _atom_site_fract_x
 _atom_site_fract_y
 _atom_site_fract_z
 _atom_site_occupancy
  V  V0  1  0.95299500  0.07473400  0.50012400  1
  V  V1  1  0.03297800  0.93251800  0.99632000  1
  V  V2  1  0.61976100  0.68062200  0.16358600  1
  V  V3  1  0.29323100  0.32752500  0.33359700  1
  V  V4  1  0.64737600  0.71518600  0.66632600  1
  V  V5  1  0.39631000  0.29953400  0.83386900  1
  O  O6  1  0.43174500  0.58699500  0.24906300  1
  O  O7  1  0.75110100  0.90763300  0.58382400  1
  O  O8  1  0.24990300  0.66036000  0.91422300  1
  O  O9  1  0.92576000  0.75431700  0.08307500  1
  O  O10  1  0.41578600  0.98952100  0.75062000  1
  O  O11  1  0.57688200  0.41067200  0.75106000  1
  O  O12  1  0.34499900  0.91884000  0.08088600  1
  O  O13  1  0.66872400  0.25634800  0.41906300  1
  O  O14  1  0.01697600  0.41344300  0.25115900  1
  O  O15  1  0.66968900  0.08148700  0.91881400  1
  O  O16  1  0.91197100  0.33196900  0.58528900  1
  O  O17  1  0.25944600  0.08040600  0.41767000  1
  F  F18  1  0.59946400  0.00328400  0.24946100  1
  F  F19  1  0.08419500  0.65971800  0.41566800  1
  F  F20  1  0.98799000  0.58406500  0.75016700  1
  F  F21  1  0.33454100  0.73825200  0.58463100  1
  F  F22  1  0.08099000  0.24921800  0.91692800  1
  F  F23  1  0.74718500  0.34335500  0.08457500  1
