# generated using pymatgen
data_V2O5
_symmetry_space_group_name_H-M   'P 1'
_cell_length_a   3.63468400
_cell_length_b   6.32489900
_cell_length_c   11.41933100
_cell_angle_alpha   90.00000000
_cell_angle_beta   90.00000000
_cell_angle_gamma   90.00000000
_symmetry_Int_Tables_number   1
_chemical_formula_structural   V2O5
_chemical_formula_sum   'V4 O10'
_cell_volume   262.51910538
_cell_formula_units_Z   2
loop_
 _symmetry_equiv_pos_site_id
 _symmetry_equiv_pos_as_xyz
  1  'x, y, z'
loop_
 _atom_site_type_symbol
 _atom_site_label
 _atom_site_symmetry_multiplicity
 _atom_site_fract_x
 _atom_site_fract_y
 _atom_site_fract_z
 _atom_site_occupancy
  V  V0  1  0.00000000  0.08398100  0.14887700  1
  V  V1  1  0.50000000  0.91601900  0.35112300  1
  V  V2  1  0.50000000  0.91601900  0.64887700  1
  V  V3  1  0.00000000  0.08398100  0.85112300  1
  O  O4  1  0.00000000  0.98488100  0.00000000  1
  O  O5  1  0.00000000  0.33694200  0.13983700  1
  O  O6  1  0.50000000  0.00864500  0.18160000  1
  O  O7  1  0.00000000  0.99135500  0.31840000  1
  O  O8  1  0.50000000  0.66305800  0.36016300  1
  O  O9  1  0.50000000  0.01511900  0.50000000  1
  O  O10  1  0.50000000  0.66305800  0.63983700  1
  O  O11  1  0.00000000  0.99135500  0.68160000  1
  O  O12  1  0.50000000  0.00864500  0.81840000  1
  O  O13  1  0.00000000  0.33694200  0.86016300  1
