# generated using pymatgen
data_Na2SnO3
_symmetry_space_group_name_H-M   'P 1'
_cell_length_a   5.61509404
_cell_length_b   5.61509404
_cell_length_c   5.85071794
_cell_angle_alpha   80.62135717
_cell_angle_beta   80.62135717
_cell_angle_gamma   119.88426324
_symmetry_Int_Tables_number   1
_chemical_formula_structural   Na2SnO3
_chemical_formula_sum   'Na4 Sn2 O6'
_cell_volume   151.23911717
_cell_formula_units_Z   2
loop_
 _symmetry_equiv_pos_site_id
 _symmetry_equiv_pos_as_xyz
  1  'x, y, z'
loop_
 _atom_site_type_symbol
 _atom_site_label
 _atom_site_symmetry_multiplicity
 _atom_site_fract_x
 _atom_site_fract_y
 _atom_site_fract_z
 _atom_site_occupancy
  Na  Na0  1  0.50000000  0.50000000  0.00000000  1
  Na  Na1  1  0.84427500  0.15572500  0.00000000  1
  Na  Na2  1  0.15572500  0.84427500  0.00000000  1
  Na  Na3  1  0.00000000  0.00000000  0.50000000  1
  Sn  Sn4  1  0.66849500  0.33150500  0.50000000  1
  Sn  Sn5  1  0.33150500  0.66849500  0.50000000  1
  O  O6  1  0.56006800  0.92505100  0.71337000  1
  O  O7  1  0.43993200  0.07494900  0.28663000  1
  O  O8  1  0.70312800  0.70312800  0.28713200  1
  O  O9  1  0.92505100  0.56006800  0.71337000  1
  O  O10  1  0.07494900  0.43993200  0.28663000  1
  O  O11  1  0.29687200  0.29687200  0.71286800  1
