# generated using pymatgen
data_BaSr3I8
_symmetry_space_group_name_H-M   'P 1'
_cell_length_a   9.98925294
_cell_length_b   9.98925294
_cell_length_c   9.98925334
_cell_angle_alpha   131.88950878
_cell_angle_beta   131.88951506
_cell_angle_gamma   70.40358355
_symmetry_Int_Tables_number   1
_chemical_formula_structural   BaSr3I8
_chemical_formula_sum   'Ba1 Sr3 I8'
_cell_volume   541.31955582
_cell_formula_units_Z   1
loop_
 _symmetry_equiv_pos_site_id
 _symmetry_equiv_pos_as_xyz
  1  'x, y, z'
loop_
 _atom_site_type_symbol
 _atom_site_label
 _atom_site_symmetry_multiplicity
 _atom_site_fract_x
 _atom_site_fract_y
 _atom_site_fract_z
 _atom_site_occupancy
  Ba  Ba0  1  0.00000000  0.00000000  0.00000000  1
  Sr  Sr1  1  0.50000000  0.50000000  0.00000000  1
  Sr  Sr2  1  0.25000000  0.75000000  0.50000000  1
  Sr  Sr3  1  0.75000000  0.25000000  0.50000000  1
  I  I4  1  0.87280600  0.38141900  0.00000000  1
  I  I5  1  0.38141900  0.38141900  0.50861300  1
  I  I6  1  0.61858100  0.12719400  0.00000000  1
  I  I7  1  0.12719400  0.12719400  0.50861300  1
  I  I8  1  0.87280600  0.87280600  0.49138700  1
  I  I9  1  0.38141900  0.87280600  0.00000000  1
  I  I10  1  0.12719400  0.61858100  0.00000000  1
  I  I11  1  0.61858100  0.61858100  0.49138700  1
