# generated using pymatgen
data_Fe10O9F11
_symmetry_space_group_name_H-M   'P 1'
_cell_length_a   4.77003631
_cell_length_b   4.77003631
_cell_length_c   15.48464088
_cell_angle_alpha   89.74279085
_cell_angle_beta   89.74279085
_cell_angle_gamma   91.40222451
_symmetry_Int_Tables_number   1
_chemical_formula_structural   Fe10O9F11
_chemical_formula_sum   'Fe10 O9 F11'
_cell_volume   352.21306624
_cell_formula_units_Z   1
loop_
 _symmetry_equiv_pos_site_id
 _symmetry_equiv_pos_as_xyz
  1  'x, y, z'
loop_
 _atom_site_type_symbol
 _atom_site_label
 _atom_site_symmetry_multiplicity
 _atom_site_fract_x
 _atom_site_fract_y
 _atom_site_fract_z
 _atom_site_occupancy
  Fe  Fe0  1  0.99949300  0.00050700  0.00000000  1
  Fe  Fe1  1  0.04322100  0.02427400  0.20697600  1
  Fe  Fe2  1  0.98877700  0.94369000  0.40196200  1
  Fe  Fe3  1  0.05631000  0.01122300  0.59803800  1
  Fe  Fe4  1  0.97572600  0.95677900  0.79302400  1
  Fe  Fe5  1  0.49221100  0.48437400  0.09281700  1
  Fe  Fe6  1  0.48141200  0.51858800  0.50000000  1
  Fe  Fe7  1  0.47930700  0.52708200  0.29861400  1
  Fe  Fe8  1  0.47291800  0.52069300  0.70138600  1
  Fe  Fe9  1  0.51562600  0.50778900  0.90718300  1
  O  O10  1  0.18982000  0.80933200  0.30126500  1
  O  O11  1  0.19434900  0.80565100  0.50000000  1
  O  O12  1  0.19066800  0.81018000  0.69873500  1
  O  O13  1  0.69727100  0.69124700  0.00252800  1
  O  O14  1  0.67898100  0.67705300  0.39974600  1
  O  O15  1  0.67958500  0.68001200  0.79889500  1
  O  O16  1  0.30875300  0.30272900  0.99747200  1
  O  O17  1  0.31998800  0.32041500  0.20110500  1
  O  O18  1  0.32294700  0.32101900  0.60025400  1
  F  F19  1  0.20872100  0.80724100  0.10919000  1
  F  F20  1  0.19275900  0.79127900  0.89081000  1
  F  F21  1  0.70936600  0.71394800  0.20124300  1
  F  F22  1  0.70447900  0.71085200  0.59969000  1
  F  F23  1  0.28914800  0.29552100  0.40031000  1
  F  F24  1  0.28605200  0.29063400  0.79875700  1
  F  F25  1  0.81116700  0.20299300  0.11169400  1
  F  F26  1  0.80713900  0.19286100  0.50000000  1
  F  F27  1  0.80253000  0.19573100  0.30311900  1
  F  F28  1  0.79700700  0.18883300  0.88830600  1
  F  F29  1  0.80426900  0.19747000  0.69688100  1
