# generated using pymatgen
data_V3(O2F)2
_symmetry_space_group_name_H-M   'P 1'
_cell_length_a   10.41153077
_cell_length_b   10.41153077
_cell_length_c   3.08018300
_cell_angle_alpha   90.00000000
_cell_angle_beta   90.00000000
_cell_angle_gamma   143.24012703
_symmetry_Int_Tables_number   1
_chemical_formula_structural   V3(O2F)2
_chemical_formula_sum   'V6 O8 F4'
_cell_volume   199.82174755
_cell_formula_units_Z   2
loop_
 _symmetry_equiv_pos_site_id
 _symmetry_equiv_pos_as_xyz
  1  'x, y, z'
loop_
 _atom_site_type_symbol
 _atom_site_label
 _atom_site_symmetry_multiplicity
 _atom_site_fract_x
 _atom_site_fract_y
 _atom_site_fract_z
 _atom_site_occupancy
  V  V0  1  0.83950500  0.16049500  0.00000000  1
  V  V1  1  0.00000000  0.00000000  0.50000000  1
  V  V2  1  0.34025000  0.65975000  0.50000000  1
  V  V3  1  0.50000000  0.50000000  0.00000000  1
  V  V4  1  0.16049500  0.83950500  0.00000000  1
  V  V5  1  0.65975000  0.34025000  0.50000000  1
  O  O6  1  0.90301400  0.09698600  0.50000000  1
  O  O7  1  0.14042600  0.47690100  0.00000000  1
  O  O8  1  0.52309900  0.85957400  0.00000000  1
  O  O9  1  0.85957400  0.52309900  0.00000000  1
  O  O10  1  0.43442100  0.56557900  0.50000000  1
  O  O11  1  0.09698600  0.90301400  0.50000000  1
  O  O12  1  0.56557900  0.43442100  0.50000000  1
  O  O13  1  0.47690100  0.14042600  0.00000000  1
  F  F14  1  0.19956100  0.19956100  0.00000000  1
  F  F15  1  0.23302200  0.76697800  0.50000000  1
  F  F16  1  0.80043900  0.80043900  0.00000000  1
  F  F17  1  0.76697800  0.23302200  0.50000000  1
