# generated using pymatgen
data_Cr3O8
_symmetry_space_group_name_H-M   'P 1'
_cell_length_a   5.49211900
_cell_length_b   6.61019600
_cell_length_c   8.24373000
_cell_angle_alpha   90.00000000
_cell_angle_beta   90.00000000
_cell_angle_gamma   90.00000000
_symmetry_Int_Tables_number   1
_chemical_formula_structural   Cr3O8
_chemical_formula_sum   'Cr6 O16'
_cell_volume   299.28023415
_cell_formula_units_Z   2
loop_
 _symmetry_equiv_pos_site_id
 _symmetry_equiv_pos_as_xyz
  1  'x, y, z'
loop_
 _atom_site_type_symbol
 _atom_site_label
 _atom_site_symmetry_multiplicity
 _atom_site_fract_x
 _atom_site_fract_y
 _atom_site_fract_z
 _atom_site_occupancy
  Cr  Cr0  1  0.00000000  0.50000000  0.00000000  1
  Cr  Cr1  1  0.00000000  0.21597100  0.34260100  1
  Cr  Cr2  1  0.00000000  0.78402900  0.65739900  1
  Cr  Cr3  1  0.50000000  0.28402900  0.84260100  1
  Cr  Cr4  1  0.50000000  0.71597100  0.15739900  1
  Cr  Cr5  1  0.50000000  0.00000000  0.50000000  1
  O  O6  1  0.00000000  0.97376000  0.77405500  1
  O  O7  1  0.00000000  0.43109900  0.23315700  1
  O  O8  1  0.00000000  0.56890100  0.76684300  1
  O  O9  1  0.00000000  0.02624000  0.22594500  1
  O  O10  1  0.75285700  0.29885400  0.96361400  1
  O  O11  1  0.75285700  0.70114600  0.03638600  1
  O  O12  1  0.74714300  0.79885400  0.53638600  1
  O  O13  1  0.74714300  0.20114600  0.46361400  1
  O  O14  1  0.50000000  0.06890100  0.73315700  1
  O  O15  1  0.50000000  0.47376000  0.72594500  1
  O  O16  1  0.50000000  0.93109900  0.26684300  1
  O  O17  1  0.50000000  0.52624000  0.27405500  1
  O  O18  1  0.25285700  0.79885400  0.53638600  1
  O  O19  1  0.25285700  0.20114600  0.46361400  1
  O  O20  1  0.24714300  0.29885400  0.96361400  1
  O  O21  1  0.24714300  0.70114600  0.03638600  1
