# generated using pymatgen
data_Cs3TmO3
_symmetry_space_group_name_H-M   'P 1'
_cell_length_a   7.57910791
_cell_length_b   7.57910791
_cell_length_c   7.63070205
_cell_angle_alpha   84.00180497
_cell_angle_beta   84.00180497
_cell_angle_gamma   116.60908674
_symmetry_Int_Tables_number   1
_chemical_formula_structural   Cs3TmO3
_chemical_formula_sum   'Cs6 Tm2 O6'
_cell_volume   384.07359522
_cell_formula_units_Z   2
loop_
 _symmetry_equiv_pos_site_id
 _symmetry_equiv_pos_as_xyz
  1  'x, y, z'
loop_
 _atom_site_type_symbol
 _atom_site_label
 _atom_site_symmetry_multiplicity
 _atom_site_fract_x
 _atom_site_fract_y
 _atom_site_fract_z
 _atom_site_occupancy
  Cs  Cs0  1  0.64075700  0.64075700  0.65080000  1
  Cs  Cs1  1  0.78953100  0.21046900  0.50000000  1
  Cs  Cs2  1  0.21046900  0.78953100  0.50000000  1
  Cs  Cs3  1  0.73775500  0.26224500  0.00000000  1
  Cs  Cs4  1  0.26224500  0.73775500  0.00000000  1
  Cs  Cs5  1  0.35924300  0.35924300  0.34920000  1
  Tm  Tm6  1  0.82977900  0.82977900  0.14898400  1
  Tm  Tm7  1  0.17022100  0.17022100  0.85101600  1
  O  O8  1  0.89985000  0.89985000  0.85908300  1
  O  O9  1  0.56883200  0.83573400  0.26377000  1
  O  O10  1  0.83573400  0.56883200  0.26377000  1
  O  O11  1  0.16426600  0.43116800  0.73623000  1
  O  O12  1  0.43116800  0.16426600  0.73623000  1
  O  O13  1  0.10015000  0.10015000  0.14091700  1
