# generated using pymatgen
data_Al2Si2O7
_symmetry_space_group_name_H-M   'P 1'
_cell_length_a   5.20798426
_cell_length_b   5.20798426
_cell_length_c   9.49369313
_cell_angle_alpha   75.80707981
_cell_angle_beta   75.80707981
_cell_angle_gamma   95.97325128
_symmetry_Int_Tables_number   1
_chemical_formula_structural   Al2Si2O7
_chemical_formula_sum   'Al4 Si4 O14'
_cell_volume   238.29729238
_cell_formula_units_Z   2
loop_
 _symmetry_equiv_pos_site_id
 _symmetry_equiv_pos_as_xyz
  1  'x, y, z'
loop_
 _atom_site_type_symbol
 _atom_site_label
 _atom_site_symmetry_multiplicity
 _atom_site_fract_x
 _atom_site_fract_y
 _atom_site_fract_z
 _atom_site_occupancy
  Al  Al0  1  0.39854100  0.25034100  0.97789500  1
  Al  Al1  1  0.74965900  0.60145900  0.52210500  1
  Al  Al2  1  0.25034100  0.39854100  0.47789500  1
  Al  Al3  1  0.60145900  0.74965900  0.02210500  1
  Si  Si4  1  0.48725000  0.99060600  0.70480300  1
  Si  Si5  1  0.99060600  0.48725000  0.20480300  1
  Si  Si6  1  0.00939400  0.51275000  0.79519700  1
  Si  Si7  1  0.51275000  0.00939400  0.29519700  1
  O  O8  1  0.13692200  0.29015900  0.89226400  1
  O  O9  1  0.48361800  0.30010800  0.60392600  1
  O  O10  1  0.81571000  0.18429000  0.25000000  1
  O  O11  1  0.70984100  0.86307800  0.60773600  1
  O  O12  1  0.55053100  0.01254500  0.86621100  1
  O  O13  1  0.69989200  0.51638200  0.89607400  1
  O  O14  1  0.01254500  0.55053100  0.36621100  1
  O  O15  1  0.98745500  0.44946900  0.63378900  1
  O  O16  1  0.30010800  0.48361800  0.10392600  1
  O  O17  1  0.44946900  0.98745500  0.13378900  1
  O  O18  1  0.29015900  0.13692200  0.39226400  1
  O  O19  1  0.18429000  0.81571000  0.75000000  1
  O  O20  1  0.51638200  0.69989200  0.39607400  1
  O  O21  1  0.86307800  0.70984100  0.10773600  1
