# generated using pymatgen
data_LaBiO3
_symmetry_space_group_name_H-M   'P 1'
_cell_length_a   6.29805872
_cell_length_b   6.29805872
_cell_length_c   6.29805833
_cell_angle_alpha   60.02589617
_cell_angle_beta   60.02589617
_cell_angle_gamma   60.02589877
_symmetry_Int_Tables_number   1
_chemical_formula_structural   LaBiO3
_chemical_formula_sum   'La2 Bi2 O6'
_cell_volume   176.75022354
_cell_formula_units_Z   2
loop_
 _symmetry_equiv_pos_site_id
 _symmetry_equiv_pos_as_xyz
  1  'x, y, z'
loop_
 _atom_site_type_symbol
 _atom_site_label
 _atom_site_symmetry_multiplicity
 _atom_site_fract_x
 _atom_site_fract_y
 _atom_site_fract_z
 _atom_site_occupancy
  La  La0  1  0.86657800  0.86657800  0.86657800  1
  La  La1  1  0.13342200  0.13342200  0.13342200  1
  Bi  Bi2  1  0.64859900  0.64859900  0.64859900  1
  Bi  Bi3  1  0.35140100  0.35140100  0.35140100  1
  O  O4  1  0.99490800  0.23227200  0.53496200  1
  O  O5  1  0.46503800  0.00509200  0.76772800  1
  O  O6  1  0.76772800  0.46503800  0.00509200  1
  O  O7  1  0.23227200  0.53496200  0.99490800  1
  O  O8  1  0.53496200  0.99490800  0.23227200  1
  O  O9  1  0.00509200  0.76772800  0.46503800  1
