# generated using pymatgen
data_NaSrPb2
_symmetry_space_group_name_H-M   'P 1'
_cell_length_a   13.55329272
_cell_length_b   13.55329272
_cell_length_c   13.55329272
_cell_angle_alpha   124.00264782
_cell_angle_beta   118.33758253
_cell_angle_gamma   88.05748077
_symmetry_Int_Tables_number   1
_chemical_formula_structural   NaSrPb2
_chemical_formula_sum   'Na1 Sr1 Pb2'
_cell_volume   1722.70683582
_cell_formula_units_Z   1
loop_
 _symmetry_equiv_pos_site_id
 _symmetry_equiv_pos_as_xyz
  1  'x, y, z'
loop_
 _atom_site_type_symbol
 _atom_site_label
 _atom_site_symmetry_multiplicity
 _atom_site_fract_x
 _atom_site_fract_y
 _atom_site_fract_z
 _atom_site_occupancy
  Na  Na0  1  0.00000000  0.00000000  0.00000000  1
  Sr  Sr1  1  0.00000000  0.50000000  0.50000000  1
  Pb  Pb2  1  0.00000000  0.24728800  0.24728800  1
  Pb  Pb3  1  0.00000000  0.75271200  0.75271200  1
