# generated using pymatgen
data_Ga3NO3
_symmetry_space_group_name_H-M   'P 1'
_cell_length_a   5.95426494
_cell_length_b   5.95426494
_cell_length_c   10.35389192
_cell_angle_alpha   72.95917430
_cell_angle_beta   72.95917430
_cell_angle_gamma   59.59076015
_symmetry_Int_Tables_number   1
_chemical_formula_structural   Ga3NO3
_chemical_formula_sum   'Ga12 N4 O12'
_cell_volume   297.98369364
_cell_formula_units_Z   4
loop_
 _symmetry_equiv_pos_site_id
 _symmetry_equiv_pos_as_xyz
  1  'x, y, z'
loop_
 _atom_site_type_symbol
 _atom_site_label
 _atom_site_symmetry_multiplicity
 _atom_site_fract_x
 _atom_site_fract_y
 _atom_site_fract_z
 _atom_site_occupancy
  Ga  Ga0  1  0.50000000  0.50000000  0.00000000  1
  Ga  Ga1  1  0.06077900  0.06077900  0.80859400  1
  Ga  Ga2  1  0.00000000  0.50000000  0.00000000  1
  Ga  Ga3  1  0.25070000  0.25070000  0.25615900  1
  Ga  Ga4  1  0.74930000  0.74930000  0.74384100  1
  Ga  Ga5  1  0.93922100  0.93922100  0.19140600  1
  Ga  Ga6  1  0.00000000  0.50000000  0.50000000  1
  Ga  Ga7  1  0.50000000  0.00000000  0.00000000  1
  Ga  Ga8  1  0.55143600  0.55143600  0.30362400  1
  Ga  Ga9  1  0.50000000  0.00000000  0.50000000  1
  Ga  Ga10  1  0.44856400  0.44856400  0.69637600  1
  Ga  Ga11  1  0.00000000  0.00000000  0.50000000  1
  N  N12  1  0.36937500  0.36937500  0.89743800  1
  N  N13  1  0.35269700  0.35269700  0.38473600  1
  N  N14  1  0.63062500  0.63062500  0.10256200  1
  N  N15  1  0.64730300  0.64730300  0.61526400  1
  O  O16  1  0.87364800  0.38571000  0.87319100  1
  O  O17  1  0.38571000  0.87364800  0.87319100  1
  O  O18  1  0.12635200  0.61429000  0.12680900  1
  O  O19  1  0.86558200  0.86558200  0.87005300  1
  O  O20  1  0.88378000  0.35872200  0.37693100  1
  O  O21  1  0.61429000  0.12635200  0.12680900  1
  O  O22  1  0.87570800  0.87570800  0.38429700  1
  O  O23  1  0.13441800  0.13441800  0.12994700  1
  O  O24  1  0.35872200  0.88378000  0.37693100  1
  O  O25  1  0.12429200  0.12429200  0.61570300  1
  O  O26  1  0.11622000  0.64127800  0.62306900  1
  O  O27  1  0.64127800  0.11622000  0.62306900  1
