# generated using pymatgen
data_Al2O3
_symmetry_space_group_name_H-M   'P 1'
_cell_length_a   11.55338100
_cell_length_b   3.40005900
_cell_length_c   5.20758886
_cell_angle_alpha   72.37537869
_cell_angle_beta   90.00000000
_cell_angle_gamma   90.00000000
_symmetry_Int_Tables_number   1
_chemical_formula_structural   Al2O3
_chemical_formula_sum   'Al8 O12'
_cell_volume   194.96325846
_cell_formula_units_Z   4
loop_
 _symmetry_equiv_pos_site_id
 _symmetry_equiv_pos_as_xyz
  1  'x, y, z'
loop_
 _atom_site_type_symbol
 _atom_site_label
 _atom_site_symmetry_multiplicity
 _atom_site_fract_x
 _atom_site_fract_y
 _atom_site_fract_z
 _atom_site_occupancy
  Al  Al0  1  0.66246700  0.38682300  0.69068300  1
  Al  Al1  1  0.94452700  0.16092400  0.71326400  1
  Al  Al2  1  0.44452700  0.83907600  0.78673600  1
  Al  Al3  1  0.16246700  0.61317700  0.80931700  1
  Al  Al4  1  0.83753300  0.38682300  0.19068300  1
  Al  Al5  1  0.55547300  0.16092400  0.21326400  1
  Al  Al6  1  0.05547300  0.83907600  0.28673600  1
  Al  Al7  1  0.33753300  0.61317700  0.30931700  1
  O  O8  1  0.61465600  0.94421300  0.56095900  1
  O  O9  1  0.80432600  0.33839100  0.54102800  1
  O  O10  1  0.49821900  0.32652900  0.81589900  1
  O  O11  1  0.99821900  0.67347100  0.68410100  1
  O  O12  1  0.11465600  0.05578700  0.93904100  1
  O  O13  1  0.30432600  0.66160900  0.95897200  1
  O  O14  1  0.69567400  0.33839100  0.04102800  1
  O  O15  1  0.88534400  0.94421300  0.06095900  1
  O  O16  1  0.00178100  0.32652900  0.31589900  1
  O  O17  1  0.50178100  0.67347100  0.18410100  1
  O  O18  1  0.19567400  0.66160900  0.45897200  1
  O  O19  1  0.38534400  0.05578700  0.43904100  1
