# generated using pymatgen
data_U4O7
_symmetry_space_group_name_H-M   'P 1'
_cell_length_a   6.65139461
_cell_length_b   6.65139461
_cell_length_c   10.85360445
_cell_angle_alpha   65.97438323
_cell_angle_beta   65.97438323
_cell_angle_gamma   48.54071998
_symmetry_Int_Tables_number   1
_chemical_formula_structural   U4O7
_chemical_formula_sum   'U8 O14'
_cell_volume   321.97165628
_cell_formula_units_Z   2
loop_
 _symmetry_equiv_pos_site_id
 _symmetry_equiv_pos_as_xyz
  1  'x, y, z'
loop_
 _atom_site_type_symbol
 _atom_site_label
 _atom_site_symmetry_multiplicity
 _atom_site_fract_x
 _atom_site_fract_y
 _atom_site_fract_z
 _atom_site_occupancy
  U  U0  1  0.14695400  0.11185400  0.31628800  1
  U  U1  1  0.61869800  0.63777900  0.05561800  1
  U  U2  1  0.36222100  0.38130200  0.44438200  1
  U  U3  1  0.85304600  0.88814600  0.68371200  1
  U  U4  1  0.88814600  0.85304600  0.18371200  1
  U  U5  1  0.38130200  0.36222100  0.94438200  1
  U  U6  1  0.63777900  0.61869800  0.55561800  1
  U  U7  1  0.11185400  0.14695400  0.81628800  1
  O  O8  1  0.99257900  0.48550100  0.13101900  1
  O  O9  1  0.50366100  0.99788800  0.12375200  1
  O  O10  1  0.25280500  0.75333800  0.51117700  1
  O  O11  1  0.75333800  0.25280500  0.01117700  1
  O  O12  1  0.25422000  0.74578000  0.25000000  1
  O  O13  1  0.74719500  0.24666200  0.48882300  1
  O  O14  1  0.24666200  0.74719500  0.98882300  1
  O  O15  1  0.49633900  0.00211200  0.87624800  1
  O  O16  1  0.99788800  0.50366100  0.62375200  1
  O  O17  1  0.00742100  0.51449900  0.86898100  1
  O  O18  1  0.48550100  0.99257900  0.63101900  1
  O  O19  1  0.00211200  0.49633900  0.37624800  1
  O  O20  1  0.51449900  0.00742100  0.36898100  1
  O  O21  1  0.74578000  0.25422000  0.75000000  1
