# generated using pymatgen
data_Cs2BeO2
_symmetry_space_group_name_H-M   'P 1'
_cell_length_a   7.14923165
_cell_length_b   7.14923165
_cell_length_c   7.14923165
_cell_angle_alpha   143.70425186
_cell_angle_beta   143.70425186
_cell_angle_gamma   52.26976923
_symmetry_Int_Tables_number   1
_chemical_formula_structural   Cs2BeO2
_chemical_formula_sum   'Cs2 Be1 O2'
_cell_volume   127.30107432
_cell_formula_units_Z   1
loop_
 _symmetry_equiv_pos_site_id
 _symmetry_equiv_pos_as_xyz
  1  'x, y, z'
loop_
 _atom_site_type_symbol
 _atom_site_label
 _atom_site_symmetry_multiplicity
 _atom_site_fract_x
 _atom_site_fract_y
 _atom_site_fract_z
 _atom_site_occupancy
  Cs  Cs0  1  0.34621700  0.34621700  0.00000000  1
  Cs  Cs1  1  0.65378300  0.65378300  0.00000000  1
  Be  Be2  1  0.00000000  0.00000000  0.00000000  1
  O  O3  1  0.11243300  0.11243300  0.00000000  1
  O  O4  1  0.88756700  0.88756700  0.00000000  1
