# generated using pymatgen
data_CoSb2
_symmetry_space_group_name_H-M   'P 1'
_cell_length_a   6.41272700
_cell_length_b   6.53638500
_cell_length_c   6.57895470
_cell_angle_alpha   62.80224773
_cell_angle_beta   90.00000000
_cell_angle_gamma   90.00000000
_symmetry_Int_Tables_number   1
_chemical_formula_structural   CoSb2
_chemical_formula_sum   'Co4 Sb8'
_cell_volume   245.27379359
_cell_formula_units_Z   4
loop_
 _symmetry_equiv_pos_site_id
 _symmetry_equiv_pos_as_xyz
  1  'x, y, z'
loop_
 _atom_site_type_symbol
 _atom_site_label
 _atom_site_symmetry_multiplicity
 _atom_site_fract_x
 _atom_site_fract_y
 _atom_site_fract_z
 _atom_site_occupancy
  Co  Co0  1  0.00074500  0.27054900  0.71734200  1
  Co  Co1  1  0.50074500  0.72945100  0.78265800  1
  Co  Co2  1  0.99925500  0.72945100  0.28265800  1
  Co  Co3  1  0.49925500  0.27054900  0.21734200  1
  Sb  Sb4  1  0.64438100  0.34857600  0.83361800  1
  Sb  Sb5  1  0.14438100  0.65142400  0.66638200  1
  Sb  Sb6  1  0.35561900  0.65142400  0.16638200  1
  Sb  Sb7  1  0.85561900  0.34857600  0.33361800  1
  Sb  Sb8  1  0.35970100  0.14700800  0.62980600  1
  Sb  Sb9  1  0.85970100  0.85299200  0.87019400  1
  Sb  Sb10  1  0.64029900  0.85299200  0.37019400  1
  Sb  Sb11  1  0.14029900  0.14700800  0.12980600  1
