# generated using pymatgen
data_Mn6O7F5
_symmetry_space_group_name_H-M   'P 1'
_cell_length_a   4.72480700
_cell_length_b   5.61313419
_cell_length_c   7.72537299
_cell_angle_alpha   84.83272111
_cell_angle_beta   86.07994704
_cell_angle_gamma   85.83653611
_symmetry_Int_Tables_number   1
_chemical_formula_structural   Mn6O7F5
_chemical_formula_sum   'Mn6 O7 F5'
_cell_volume   203.11868401
_cell_formula_units_Z   1
loop_
 _symmetry_equiv_pos_site_id
 _symmetry_equiv_pos_as_xyz
  1  'x, y, z'
loop_
 _atom_site_type_symbol
 _atom_site_label
 _atom_site_symmetry_multiplicity
 _atom_site_fract_x
 _atom_site_fract_y
 _atom_site_fract_z
 _atom_site_occupancy
  Mn  Mn0  1  0.52448300  0.50661300  0.00901800  1
  Mn  Mn1  1  0.53274700  0.84507000  0.66230000  1
  Mn  Mn2  1  0.49212400  0.16123300  0.33433000  1
  Mn  Mn3  1  0.99533300  0.32220500  0.67243000  1
  Mn  Mn4  1  0.99060800  0.66095600  0.32103200  1
  Mn  Mn5  1  0.96494900  0.00275300  0.99979200  1
  O  O6  1  0.81589200  0.04433700  0.78271100  1
  O  O7  1  0.81107600  0.71843000  0.09346300  1
  O  O8  1  0.70017100  0.20326600  0.10855000  1
  O  O9  1  0.68972400  0.53745700  0.77032600  1
  O  O10  1  0.69897800  0.86695100  0.42827800  1
  O  O11  1  0.30889700  0.12279000  0.56720700  1
  O  O12  1  0.31325700  0.46846700  0.23259900  1
  F  F13  1  0.80613400  0.36339700  0.43331000  1
  F  F14  1  0.29851100  0.80755800  0.89488100  1
  F  F15  1  0.17495000  0.61419000  0.56153800  1
  F  F16  1  0.18684500  0.96739700  0.21200300  1
  F  F17  1  0.19531900  0.28692700  0.91623200  1
