# generated using pymatgen
data_CrAgO4
_symmetry_space_group_name_H-M   'P 1'
_cell_length_a   5.14676087
_cell_length_b   5.14676087
_cell_length_c   7.10952300
_cell_angle_alpha   90.00000000
_cell_angle_beta   90.00000000
_cell_angle_gamma   110.54113016
_symmetry_Int_Tables_number   1
_chemical_formula_structural   CrAgO4
_chemical_formula_sum   'Cr2 Ag2 O8'
_cell_volume   176.35158991
_cell_formula_units_Z   2
loop_
 _symmetry_equiv_pos_site_id
 _symmetry_equiv_pos_as_xyz
  1  'x, y, z'
loop_
 _atom_site_type_symbol
 _atom_site_label
 _atom_site_symmetry_multiplicity
 _atom_site_fract_x
 _atom_site_fract_y
 _atom_site_fract_z
 _atom_site_occupancy
  Cr  Cr0  1  0.64734400  0.35265600  0.25000000  1
  Cr  Cr1  1  0.35265600  0.64734400  0.75000000  1
  Ag  Ag2  1  0.00000000  0.00000000  0.00000000  1
  Ag  Ag3  1  0.00000000  0.00000000  0.50000000  1
  O  O4  1  0.29793400  0.23088900  0.25000000  1
  O  O5  1  0.23088900  0.29793400  0.75000000  1
  O  O6  1  0.24389000  0.75611000  0.55474200  1
  O  O7  1  0.75611000  0.24389000  0.05474200  1
  O  O8  1  0.24389000  0.75611000  0.94525800  1
  O  O9  1  0.75611000  0.24389000  0.44525800  1
  O  O10  1  0.70206600  0.76911100  0.75000000  1
  O  O11  1  0.76911100  0.70206600  0.25000000  1
