# generated using pymatgen
data_VCrMo2
_symmetry_space_group_name_H-M   'P 1'
_cell_length_a   9.39282847
_cell_length_b   9.39282847
_cell_length_c   9.39282847
_cell_angle_alpha   135.18756530
_cell_angle_beta   114.63936631
_cell_angle_gamma   82.74282468
_symmetry_Int_Tables_number   1
_chemical_formula_structural   VCrMo2
_chemical_formula_sum   'V1 Cr1 Mo2'
_cell_volume   511.96432874
_cell_formula_units_Z   1
loop_
 _symmetry_equiv_pos_site_id
 _symmetry_equiv_pos_as_xyz
  1  'x, y, z'
loop_
 _atom_site_type_symbol
 _atom_site_label
 _atom_site_symmetry_multiplicity
 _atom_site_fract_x
 _atom_site_fract_y
 _atom_site_fract_z
 _atom_site_occupancy
  V  V0  1  0.00000000  0.00000000  0.00000000  1
  Cr  Cr1  1  0.50000000  0.00000000  0.50000000  1
  Mo  Mo2  1  0.78495300  0.00000000  0.78495300  1
  Mo  Mo3  1  0.21504700  0.00000000  0.21504700  1
