# generated using pymatgen
data_CaTb2O4
_symmetry_space_group_name_H-M   'P 1'
_cell_length_a   6.87604776
_cell_length_b   6.87604776
_cell_length_c   6.87604776
_cell_angle_alpha   60.00000000
_cell_angle_beta   60.00000000
_cell_angle_gamma   60.00000000
_symmetry_Int_Tables_number   1
_chemical_formula_structural   CaTb2O4
_chemical_formula_sum   'Ca2 Tb4 O8'
_cell_volume   229.88024757
_cell_formula_units_Z   2
loop_
 _symmetry_equiv_pos_site_id
 _symmetry_equiv_pos_as_xyz
  1  'x, y, z'
loop_
 _atom_site_type_symbol
 _atom_site_label
 _atom_site_symmetry_multiplicity
 _atom_site_fract_x
 _atom_site_fract_y
 _atom_site_fract_z
 _atom_site_occupancy
  Ca  Ca0  1  0.25000000  0.25000000  0.25000000  1
  Ca  Ca1  1  0.00000000  0.00000000  0.00000000  1
  Tb  Tb2  1  0.62500000  0.12500000  0.62500000  1
  Tb  Tb3  1  0.12500000  0.62500000  0.62500000  1
  Tb  Tb4  1  0.62500000  0.62500000  0.62500000  1
  Tb  Tb5  1  0.62500000  0.62500000  0.12500000  1
  O  O6  1  0.38765700  0.38765700  0.38765700  1
  O  O7  1  0.86234300  0.86234300  0.41297000  1
  O  O8  1  0.83703000  0.38765700  0.38765700  1
  O  O9  1  0.38765700  0.83703000  0.38765700  1
  O  O10  1  0.86234300  0.86234300  0.86234300  1
  O  O11  1  0.38765700  0.38765700  0.83703000  1
  O  O12  1  0.41297000  0.86234300  0.86234300  1
  O  O13  1  0.86234300  0.41297000  0.86234300  1
