# generated using pymatgen
data_Na3FeO4
_symmetry_space_group_name_H-M   'P 1'
_cell_length_a   5.31927731
_cell_length_b   10.91032236
_cell_length_c   6.49441300
_cell_angle_alpha   89.99998798
_cell_angle_beta   90.00012653
_cell_angle_gamma   82.77839423
_symmetry_Int_Tables_number   1
_chemical_formula_structural   Na3FeO4
_chemical_formula_sum   'Na12 Fe4 O16'
_cell_volume   373.91361848
_cell_formula_units_Z   4
loop_
 _symmetry_equiv_pos_site_id
 _symmetry_equiv_pos_as_xyz
  1  'x, y, z'
loop_
 _atom_site_type_symbol
 _atom_site_label
 _atom_site_symmetry_multiplicity
 _atom_site_fract_x
 _atom_site_fract_y
 _atom_site_fract_z
 _atom_site_occupancy
  Na  Na0  1  0.75000200  0.00000000  0.38156200  1
  Na  Na1  1  0.25000300  0.50000200  0.38155500  1
  Na  Na2  1  0.25000000  0.00000000  0.61844100  1
  Na  Na3  1  0.74999700  0.50000100  0.61844500  1
  Na  Na4  1  0.50000000  0.25000000  0.11758200  1
  Na  Na5  1  0.00000200  0.75000100  0.11758200  1
  Na  Na6  1  0.00000000  0.24999900  0.88241600  1
  Na  Na7  1  0.50000000  0.74999900  0.88241700  1
  Na  Na8  1  0.50000000  0.24999600  0.62178800  1
  Na  Na9  1  0.00000200  0.75000400  0.62179000  1
  Na  Na10  1  0.00000600  0.24999400  0.37820900  1
  Na  Na11  1  0.49999500  0.75000400  0.37821000  1
  Fe  Fe12  1  0.24999800  0.50000100  0.87383900  1
  Fe  Fe13  1  0.25000100  0.99999900  0.12615300  1
  Fe  Fe14  1  0.74999900  0.00000000  0.87386500  1
  Fe  Fe15  1  0.74999900  0.50000000  0.12614400  1
  O  O16  1  0.83941100  0.10949400  0.67741500  1
  O  O17  1  0.33941700  0.60950100  0.67738800  1
  O  O18  1  0.33942200  0.10949500  0.32259800  1
  O  O19  1  0.83941300  0.60949900  0.32259800  1
  O  O20  1  0.16058100  0.39050100  0.67738900  1
  O  O21  1  0.66058700  0.89050500  0.67741400  1
  O  O22  1  0.66058900  0.39050100  0.32259800  1
  O  O23  1  0.16058100  0.89050400  0.32259900  1
  O  O24  1  0.41649300  0.09346300  0.90349800  1
  O  O25  1  0.91650500  0.59346600  0.90348200  1
  O  O26  1  0.91651100  0.09346400  0.09652000  1
  O  O27  1  0.41649800  0.59346400  0.09650200  1
  O  O28  1  0.08350100  0.40653600  0.09650200  1
  O  O29  1  0.58349000  0.90653400  0.09652000  1
  O  O30  1  0.58349100  0.40653600  0.90348400  1
  O  O31  1  0.08350600  0.90653600  0.90349700  1
