# generated using pymatgen
data_Mn3(OF2)2
_symmetry_space_group_name_H-M   'P 1'
_cell_length_a   4.75342500
_cell_length_b   5.82591416
_cell_length_c   7.94128750
_cell_angle_alpha   87.17885102
_cell_angle_beta   88.41677222
_cell_angle_gamma   87.51284447
_symmetry_Int_Tables_number   1
_chemical_formula_structural   Mn3(OF2)2
_chemical_formula_sum   'Mn6 O4 F8'
_cell_volume   219.37336098
_cell_formula_units_Z   2
loop_
 _symmetry_equiv_pos_site_id
 _symmetry_equiv_pos_as_xyz
  1  'x, y, z'
loop_
 _atom_site_type_symbol
 _atom_site_label
 _atom_site_symmetry_multiplicity
 _atom_site_fract_x
 _atom_site_fract_y
 _atom_site_fract_z
 _atom_site_occupancy
  Mn  Mn0  1  0.52702100  0.51074700  0.00359500  1
  Mn  Mn1  1  0.50286700  0.83032200  0.66117000  1
  Mn  Mn2  1  0.46602300  0.18564100  0.34810800  1
  Mn  Mn3  1  0.00191600  0.33764600  0.67360900  1
  Mn  Mn4  1  0.00316000  0.65102400  0.31055200  1
  Mn  Mn5  1  0.98600200  0.98931300  0.00569800  1
  O  O6  1  0.81479300  0.69676100  0.09983900  1
  O  O7  1  0.70072900  0.53996500  0.76871900  1
  O  O8  1  0.29831300  0.13103600  0.57152500  1
  O  O9  1  0.30968700  0.47207300  0.22369600  1
  F  F10  1  0.80596400  0.36092200  0.44165900  1
  F  F11  1  0.79869400  0.04410000  0.76776300  1
  F  F12  1  0.68846100  0.19123300  0.12180200  1
  F  F13  1  0.70697700  0.86156400  0.42453100  1
  F  F14  1  0.30056300  0.80447300  0.89039100  1
  F  F15  1  0.18764500  0.63012100  0.54675600  1
  F  F16  1  0.20372600  0.96720300  0.23427600  1
  F  F17  1  0.19746000  0.29585300  0.90631300  1
