data_image0
_chemical_formula_structural       Fe2La2Si4
_chemical_formula_sum              "Fe2 La2 Si4"
_cell_length_a       4.05117
_cell_length_b       4.16219
_cell_length_c       8.77594
_cell_angle_alpha    76.2824
_cell_angle_beta     90
_cell_angle_gamma    90

_space_group_name_H-M_alt    "P 1"
_space_group_IT_number       1

loop_
  _space_group_symop_operation_xyz
  'x, y, z'

loop_
  _atom_site_type_symbol
  _atom_site_label
  _atom_site_symmetry_multiplicity
  _atom_site_fract_x
  _atom_site_fract_y
  _atom_site_fract_z
  _atom_site_occupancy
  Fe  Fe1       1.0  0.75000  0.75000  0.50000  1.0000
  Fe  Fe2       1.0  0.25000  0.25000  0.50000  1.0000
  La  La1       1.0  0.25000  0.89200  0.21500  1.0000
  La  La2       1.0  0.75000  0.10800  0.78500  1.0000
  Si  Si1       1.0  0.75000  0.46200  0.07610  1.0000
  Si  Si2       1.0  0.75000  0.31000  0.38000  1.0000
  Si  Si3       1.0  0.25000  0.69000  0.62000  1.0000
  Si  Si4       1.0  0.25000  0.53800  0.92400  1.0000
