# generated using pymatgen
data_Ni6OF11
_symmetry_space_group_name_H-M   'P 1'
_cell_length_a   3.09575000
_cell_length_b   4.73515600
_cell_length_c   13.91462356
_cell_angle_alpha   89.59329055
_cell_angle_beta   90.00000000
_cell_angle_gamma   90.00000000
_symmetry_Int_Tables_number   1
_chemical_formula_structural   Ni6OF11
_chemical_formula_sum   'Ni6 O1 F11'
_cell_volume   203.96736860
_cell_formula_units_Z   1
loop_
 _symmetry_equiv_pos_site_id
 _symmetry_equiv_pos_as_xyz
  1  'x, y, z'
loop_
 _atom_site_type_symbol
 _atom_site_label
 _atom_site_symmetry_multiplicity
 _atom_site_fract_x
 _atom_site_fract_y
 _atom_site_fract_z
 _atom_site_occupancy
  Ni  Ni0  1  0.00000000  0.98804600  0.00456200  1
  Ni  Ni1  1  0.50000000  0.51281000  0.16390400  1
  Ni  Ni2  1  0.00000000  0.00443800  0.33251700  1
  Ni  Ni3  1  0.50000000  0.50075700  0.49999300  1
  Ni  Ni4  1  0.00000000  0.99916500  0.66687400  1
  Ni  Ni5  1  0.50000000  0.49590400  0.83381500  1
  O  O6  1  0.50000000  0.81245500  0.06927200  1
  F  F7  1  0.00000000  0.31699400  0.09721900  1
  F  F8  1  0.00000000  0.68303200  0.23800800  1
  F  F9  1  0.50000000  0.18769700  0.26070000  1
  F  F10  1  0.50000000  0.82027900  0.40298500  1
  F  F11  1  0.00000000  0.31793800  0.42973300  1
  F  F12  1  0.00000000  0.68259000  0.57005100  1
  F  F13  1  0.50000000  0.18174900  0.59633800  1
  F  F14  1  0.50000000  0.81636500  0.73693900  1
  F  F15  1  0.00000000  0.31737400  0.76275700  1
  F  F16  1  0.00000000  0.68242100  0.90270300  1
  F  F17  1  0.50000000  0.17998600  0.93163400  1
