# generated using pymatgen
data_TaFeO4
_symmetry_space_group_name_H-M   'P 1'
_cell_length_a   6.14235093
_cell_length_b   6.14235093
_cell_length_c   4.94334596
_cell_angle_alpha   68.03304051
_cell_angle_beta   68.03304051
_cell_angle_gamma   113.15248214
_symmetry_Int_Tables_number   1
_chemical_formula_structural   TaFeO4
_chemical_formula_sum   'Ta2 Fe2 O8'
_cell_volume   125.87566203
_cell_formula_units_Z   2
loop_
 _symmetry_equiv_pos_site_id
 _symmetry_equiv_pos_as_xyz
  1  'x, y, z'
loop_
 _atom_site_type_symbol
 _atom_site_label
 _atom_site_symmetry_multiplicity
 _atom_site_fract_x
 _atom_site_fract_y
 _atom_site_fract_z
 _atom_site_occupancy
  Ta  Ta0  1  0.12831700  0.87168300  0.25000000  1
  Ta  Ta1  1  0.87168300  0.12831700  0.75000000  1
  Fe  Fe2  1  0.60580200  0.39419800  0.25000000  1
  Fe  Fe3  1  0.39419800  0.60580200  0.75000000  1
  O  O4  1  0.82228200  0.74071200  0.75154100  1
  O  O5  1  0.11226500  0.52374800  0.64665800  1
  O  O6  1  0.74071200  0.82228200  0.25154100  1
  O  O7  1  0.52374800  0.11226500  0.14665800  1
  O  O8  1  0.47625200  0.88773500  0.85334200  1
  O  O9  1  0.25928800  0.17771800  0.74845900  1
  O  O10  1  0.88773500  0.47625200  0.35334200  1
  O  O11  1  0.17771800  0.25928800  0.24845900  1
