# generated using pymatgen
data_BiO2
_symmetry_space_group_name_H-M   'P 1'
_cell_length_a   4.29478770
_cell_length_b   4.29478770
_cell_length_c   6.60244156
_cell_angle_alpha   71.76423689
_cell_angle_beta   71.76423689
_cell_angle_gamma   89.82582256
_symmetry_Int_Tables_number   1
_chemical_formula_structural   BiO2
_chemical_formula_sum   'Bi2 O4'
_cell_volume   109.24846795
_cell_formula_units_Z   2
loop_
 _symmetry_equiv_pos_site_id
 _symmetry_equiv_pos_as_xyz
  1  'x, y, z'
loop_
 _atom_site_type_symbol
 _atom_site_label
 _atom_site_symmetry_multiplicity
 _atom_site_fract_x
 _atom_site_fract_y
 _atom_site_fract_z
 _atom_site_occupancy
  Bi  Bi0  1  0.12935800  0.87064200  0.25000000  1
  Bi  Bi1  1  0.87064200  0.12935800  0.75000000  1
  O  O2  1  0.07575200  0.31557700  0.36301200  1
  O  O3  1  0.31557700  0.07575200  0.86301200  1
  O  O4  1  0.68442300  0.92424800  0.13698800  1
  O  O5  1  0.92424800  0.68442300  0.63698800  1
