# generated using pymatgen
data_TiBi2O5
_symmetry_space_group_name_H-M   'P 1'
_cell_length_a   6.49213734
_cell_length_b   6.49213734
_cell_length_c   10.42153200
_cell_angle_alpha   90.00000000
_cell_angle_beta   90.00000000
_cell_angle_gamma   143.48573408
_symmetry_Int_Tables_number   1
_chemical_formula_structural   TiBi2O5
_chemical_formula_sum   'Ti2 Bi4 O10'
_cell_volume   261.36092413
_cell_formula_units_Z   2
loop_
 _symmetry_equiv_pos_site_id
 _symmetry_equiv_pos_as_xyz
  1  'x, y, z'
loop_
 _atom_site_type_symbol
 _atom_site_label
 _atom_site_symmetry_multiplicity
 _atom_site_fract_x
 _atom_site_fract_y
 _atom_site_fract_z
 _atom_site_occupancy
  Ti  Ti0  1  0.16409900  0.83590100  0.25000000  1
  Ti  Ti1  1  0.83590100  0.16409900  0.75000000  1
  Bi  Bi2  1  0.14300400  0.85699600  0.92641900  1
  Bi  Bi3  1  0.14300400  0.85699600  0.57358100  1
  Bi  Bi4  1  0.85699600  0.14300400  0.07358100  1
  Bi  Bi5  1  0.85699600  0.14300400  0.42641900  1
  O  O6  1  0.06272800  0.93727200  0.37966900  1
  O  O7  1  0.06272800  0.93727200  0.12033100  1
  O  O8  1  0.72286400  0.27713600  0.91603100  1
  O  O9  1  0.72286400  0.27713600  0.58396900  1
  O  O10  1  0.29084600  0.70915400  0.75000000  1
  O  O11  1  0.70915400  0.29084600  0.25000000  1
  O  O12  1  0.27713600  0.72286400  0.08396900  1
  O  O13  1  0.27713600  0.72286400  0.41603100  1
  O  O14  1  0.93727200  0.06272800  0.62033100  1
  O  O15  1  0.93727200  0.06272800  0.87966900  1
