# generated using pymatgen
data_TiMnV4O12
_symmetry_space_group_name_H-M   'P 1'
_cell_length_a   6.95544426
_cell_length_b   6.95544426
_cell_length_c   5.80793025
_cell_angle_alpha   74.89571765
_cell_angle_beta   74.89571765
_cell_angle_gamma   84.26609787
_symmetry_Int_Tables_number   1
_chemical_formula_structural   TiMnV4O12
_chemical_formula_sum   'Ti1 Mn1 V4 O12'
_cell_volume   261.74436267
_cell_formula_units_Z   1
loop_
 _symmetry_equiv_pos_site_id
 _symmetry_equiv_pos_as_xyz
  1  'x, y, z'
loop_
 _atom_site_type_symbol
 _atom_site_label
 _atom_site_symmetry_multiplicity
 _atom_site_fract_x
 _atom_site_fract_y
 _atom_site_fract_z
 _atom_site_occupancy
  Ti  Ti0  1  0.09610600  0.90389400  0.50000000  1
  Mn  Mn1  1  0.90804100  0.09195900  0.00000000  1
  V  V2  1  0.79345100  0.61620400  0.99749000  1
  V  V3  1  0.60979500  0.80665200  0.50466500  1
  V  V4  1  0.38379600  0.20654900  0.00251000  1
  V  V5  1  0.19334800  0.39020500  0.49533500  1
  O  O6  1  0.96426900  0.81242700  0.85916400  1
  O  O7  1  0.91881900  0.39253700  0.01521600  1
  O  O8  1  0.82213000  0.95737400  0.39816300  1
  O  O9  1  0.62869700  0.63993300  0.80632100  1
  O  O10  1  0.60746300  0.08118100  0.98478400  1
  O  O11  1  0.66497900  0.63764600  0.29423100  1
  O  O12  1  0.36006700  0.37130300  0.19367900  1
  O  O13  1  0.35686500  0.90037900  0.53493100  1
  O  O14  1  0.36235400  0.33502100  0.70576900  1
  O  O15  1  0.18757300  0.03573100  0.14083600  1
  O  O16  1  0.09962100  0.64313500  0.46506900  1
  O  O17  1  0.04262600  0.17787000  0.60183700  1
