# generated using pymatgen
data_MnZnAu2
_symmetry_space_group_name_H-M   'P 1'
_cell_length_a   10.59752928
_cell_length_b   10.59752928
_cell_length_c   10.59752928
_cell_angle_alpha   122.32274968
_cell_angle_beta   119.24081053
_cell_angle_gamma   88.67238252
_symmetry_Int_Tables_number   1
_chemical_formula_structural   MnZnAu2
_chemical_formula_sum   'Mn1 Zn1 Au2'
_cell_volume   830.62601272
_cell_formula_units_Z   1
loop_
 _symmetry_equiv_pos_site_id
 _symmetry_equiv_pos_as_xyz
  1  'x, y, z'
loop_
 _atom_site_type_symbol
 _atom_site_label
 _atom_site_symmetry_multiplicity
 _atom_site_fract_x
 _atom_site_fract_y
 _atom_site_fract_z
 _atom_site_occupancy
  Mn  Mn0  1  0.00000000  0.00000000  0.00000000  1
  Zn  Zn1  1  0.00000000  0.50000000  0.50000000  1
  Au  Au2  1  0.00000000  0.24352500  0.24352500  1
  Au  Au3  1  0.00000000  0.75647500  0.75647500  1
