# generated using pymatgen
data_V3CrO8
_symmetry_space_group_name_H-M   'P 1'
_cell_length_a   6.38741479
_cell_length_b   6.38741479
_cell_length_c   6.47207457
_cell_angle_alpha   73.60437453
_cell_angle_beta   73.60437453
_cell_angle_gamma   34.90177046
_symmetry_Int_Tables_number   1
_chemical_formula_structural   V3CrO8
_chemical_formula_sum   'V3 Cr1 O8'
_cell_volume   144.31935031
_cell_formula_units_Z   1
loop_
 _symmetry_equiv_pos_site_id
 _symmetry_equiv_pos_as_xyz
  1  'x, y, z'
loop_
 _atom_site_type_symbol
 _atom_site_label
 _atom_site_symmetry_multiplicity
 _atom_site_fract_x
 _atom_site_fract_y
 _atom_site_fract_z
 _atom_site_occupancy
  V  V0  1  0.59867400  0.59867400  0.29782900  1
  V  V1  1  0.39912900  0.39912900  0.72185400  1
  V  V2  1  0.70288700  0.70288700  0.71071900  1
  Cr  Cr3  1  0.29325500  0.29325500  0.31185600  1
  O  O4  1  0.86587100  0.86587100  0.69237500  1
  O  O5  1  0.75651800  0.75651800  0.35748100  1
  O  O6  1  0.64193900  0.64193900  0.98570600  1
  O  O7  1  0.55377700  0.55377700  0.63628800  1
  O  O8  1  0.44911800  0.44911800  0.35545600  1
  O  O9  1  0.36108100  0.36108100  0.99296800  1
  O  O10  1  0.24322200  0.24322200  0.64557500  1
  O  O11  1  0.13452900  0.13452900  0.29189400  1
