# generated using pymatgen
data_Ti2VTc
_symmetry_space_group_name_H-M   'P 1'
_cell_length_a   12.04798016
_cell_length_b   12.04798016
_cell_length_c   12.04798016
_cell_angle_alpha   132.63977867
_cell_angle_beta   112.57050924
_cell_angle_gamma   86.49090725
_symmetry_Int_Tables_number   1
_chemical_formula_structural   Ti2VTc
_chemical_formula_sum   'Ti2 V1 Tc1'
_cell_volume   1135.93261076
_cell_formula_units_Z   1
loop_
 _symmetry_equiv_pos_site_id
 _symmetry_equiv_pos_as_xyz
  1  'x, y, z'
loop_
 _atom_site_type_symbol
 _atom_site_label
 _atom_site_symmetry_multiplicity
 _atom_site_fract_x
 _atom_site_fract_y
 _atom_site_fract_z
 _atom_site_occupancy
  Ti  Ti0  1  0.00000000  0.27891900  0.27891900  1
  Ti  Ti1  1  0.00000000  0.72108100  0.72108100  1
  V  V2  1  0.00000000  0.00000000  0.00000000  1
  Tc  Tc3  1  0.00000000  0.50000000  0.50000000  1
