# generated using pymatgen
data_Sc2O3
_symmetry_space_group_name_H-M   'P 1'
_cell_length_a   5.71036916
_cell_length_b   5.71036916
_cell_length_c   5.71036905
_cell_angle_alpha   56.10256953
_cell_angle_beta   56.10256953
_cell_angle_gamma   56.10257290
_symmetry_Int_Tables_number   1
_chemical_formula_structural   Sc2O3
_chemical_formula_sum   'Sc4 O6'
_cell_volume   119.78422428
_cell_formula_units_Z   2
loop_
 _symmetry_equiv_pos_site_id
 _symmetry_equiv_pos_as_xyz
  1  'x, y, z'
loop_
 _atom_site_type_symbol
 _atom_site_label
 _atom_site_symmetry_multiplicity
 _atom_site_fract_x
 _atom_site_fract_y
 _atom_site_fract_z
 _atom_site_occupancy
  Sc  Sc0  1  0.64429200  0.64429200  0.64429200  1
  Sc  Sc1  1  0.85570800  0.85570800  0.85570800  1
  Sc  Sc2  1  0.14429200  0.14429200  0.14429200  1
  Sc  Sc3  1  0.35570800  0.35570800  0.35570800  1
  O  O4  1  0.45008800  0.75000000  0.04991200  1
  O  O5  1  0.95008800  0.54991200  0.25000000  1
  O  O6  1  0.25000000  0.95008800  0.54991200  1
  O  O7  1  0.75000000  0.04991200  0.45008800  1
  O  O8  1  0.04991200  0.45008800  0.75000000  1
  O  O9  1  0.54991200  0.25000000  0.95008800  1
