# generated using pymatgen
data_Ba2Sc2O5
_symmetry_space_group_name_H-M   'P 1'
_cell_length_a   6.30831026
_cell_length_b   6.30831026
_cell_length_c   8.42733906
_cell_angle_alpha   89.10355604
_cell_angle_beta   89.10355604
_cell_angle_gamma   86.39722082
_symmetry_Int_Tables_number   1
_chemical_formula_structural   Ba2Sc2O5
_chemical_formula_sum   'Ba4 Sc4 O10'
_cell_volume   334.62421189
_cell_formula_units_Z   2
loop_
 _symmetry_equiv_pos_site_id
 _symmetry_equiv_pos_as_xyz
  1  'x, y, z'
loop_
 _atom_site_type_symbol
 _atom_site_label
 _atom_site_symmetry_multiplicity
 _atom_site_fract_x
 _atom_site_fract_y
 _atom_site_fract_z
 _atom_site_occupancy
  Ba  Ba0  1  0.73443900  0.80420800  0.30597100  1
  Ba  Ba1  1  0.80420800  0.73443900  0.80597100  1
  Ba  Ba2  1  0.19579200  0.26556100  0.19402900  1
  Ba  Ba3  1  0.26556100  0.19579200  0.69402900  1
  Sc  Sc4  1  0.75682100  0.30113500  0.47832200  1
  Sc  Sc5  1  0.30113500  0.75682100  0.97832200  1
  Sc  Sc6  1  0.69886500  0.24317900  0.02167800  1
  Sc  Sc7  1  0.24317900  0.69886500  0.52167800  1
  O  O8  1  0.50000000  0.00000000  0.00000000  1
  O  O9  1  0.26185700  0.96682400  0.41155100  1
  O  O10  1  0.96682400  0.26185700  0.91155100  1
  O  O11  1  0.77752800  0.22247200  0.25000000  1
  O  O12  1  0.50000000  0.50000000  0.50000000  1
  O  O13  1  0.22247200  0.77752800  0.75000000  1
  O  O14  1  0.50000000  0.50000000  0.00000000  1
  O  O15  1  0.03317600  0.73814300  0.08844900  1
  O  O16  1  0.73814300  0.03317600  0.58844900  1
  O  O17  1  0.00000000  0.50000000  0.50000000  1
