# generated using pymatgen
data_Sr3WO6
_symmetry_space_group_name_H-M   'P 1'
_cell_length_a   6.14842700
_cell_length_b   5.89359700
_cell_length_c   10.30914514
_cell_angle_alpha   55.17699144
_cell_angle_beta   90.00000000
_cell_angle_gamma   90.00000000
_symmetry_Int_Tables_number   1
_chemical_formula_structural   Sr3WO6
_chemical_formula_sum   'Sr6 W2 O12'
_cell_volume   306.66762183
_cell_formula_units_Z   2
loop_
 _symmetry_equiv_pos_site_id
 _symmetry_equiv_pos_as_xyz
  1  'x, y, z'
loop_
 _atom_site_type_symbol
 _atom_site_label
 _atom_site_symmetry_multiplicity
 _atom_site_fract_x
 _atom_site_fract_y
 _atom_site_fract_z
 _atom_site_occupancy
  Sr  Sr0  1  0.50000000  0.50000000  0.50000000  1
  Sr  Sr1  1  0.94898800  0.73045500  0.25544300  1
  Sr  Sr2  1  0.44898800  0.26954500  0.24455700  1
  Sr  Sr3  1  0.00000000  0.50000000  0.00000000  1
  Sr  Sr4  1  0.55101200  0.73045500  0.75544300  1
  Sr  Sr5  1  0.05101200  0.26954500  0.74455700  1
  W  W6  1  0.50000000  0.00000000  0.00000000  1
  W  W7  1  0.00000000  0.00000000  0.50000000  1
  O  O8  1  0.44901800  0.11167200  0.78232800  1
  O  O9  1  0.23630600  0.76640300  0.06790900  1
  O  O10  1  0.17411500  0.31662600  0.45444900  1
  O  O11  1  0.67411500  0.68337400  0.04555100  1
  O  O12  1  0.73630600  0.23359700  0.43209100  1
  O  O13  1  0.94901800  0.88832800  0.71767200  1
  O  O14  1  0.05098200  0.11167200  0.28232800  1
  O  O15  1  0.26369400  0.76640300  0.56790900  1
  O  O16  1  0.32588500  0.31662600  0.95444900  1
  O  O17  1  0.82588500  0.68337400  0.54555100  1
  O  O18  1  0.76369400  0.23359700  0.93209100  1
  O  O19  1  0.55098200  0.88832800  0.21767200  1
