# generated using pymatgen
data_CrSbO4
_symmetry_space_group_name_H-M   'P 1'
_cell_length_a   5.59523740
_cell_length_b   5.59523622
_cell_length_c   5.59522753
_cell_angle_alpha   138.47327217
_cell_angle_beta   138.47338022
_cell_angle_gamma   60.17904672
_symmetry_Int_Tables_number   1
_chemical_formula_structural   CrSbO4
_chemical_formula_sum   'Cr1 Sb1 O4'
_cell_volume   76.19151992
_cell_formula_units_Z   1
loop_
 _symmetry_equiv_pos_site_id
 _symmetry_equiv_pos_as_xyz
  1  'x, y, z'
loop_
 _atom_site_type_symbol
 _atom_site_label
 _atom_site_symmetry_multiplicity
 _atom_site_fract_x
 _atom_site_fract_y
 _atom_site_fract_z
 _atom_site_occupancy
  Cr  Cr0  1  0.75001700  0.24999800  0.50000500  1
  Sb  Sb1  1  0.99999700  0.00000100  0.99999900  1
  O  O2  1  0.54176300  0.04176700  0.49999900  1
  O  O3  1  0.20469200  0.20469600  0.99999900  1
  O  O4  1  0.95823000  0.45823400  0.49999900  1
  O  O5  1  0.79530100  0.79530500  0.99999900  1
