# generated using pymatgen
data_Ti2FeRu
_symmetry_space_group_name_H-M   'P 1'
_cell_length_a   12.40458659
_cell_length_b   12.40458659
_cell_length_c   12.40458659
_cell_angle_alpha   137.99764756
_cell_angle_beta   114.18816651
_cell_angle_gamma   81.20775988
_symmetry_Int_Tables_number   1
_chemical_formula_structural   Ti2FeRu
_chemical_formula_sum   'Ti2 Fe1 Ru1'
_cell_volume   1128.59908398
_cell_formula_units_Z   1
loop_
 _symmetry_equiv_pos_site_id
 _symmetry_equiv_pos_as_xyz
  1  'x, y, z'
loop_
 _atom_site_type_symbol
 _atom_site_label
 _atom_site_symmetry_multiplicity
 _atom_site_fract_x
 _atom_site_fract_y
 _atom_site_fract_z
 _atom_site_occupancy
  Ti  Ti0  1  0.00000000  0.25420600  0.25420600  1
  Ti  Ti1  1  0.00000000  0.74579400  0.74579400  1
  Fe  Fe2  1  0.00000000  0.00000000  0.00000000  1
  Ru  Ru3  1  0.00000000  0.50000000  0.50000000  1
