# generated using pymatgen
data_V3O5F
_symmetry_space_group_name_H-M   'P 1'
_cell_length_a   2.97048900
_cell_length_b   4.66818200
_cell_length_c   13.98185487
_cell_angle_alpha   87.47380970
_cell_angle_beta   90.00000000
_cell_angle_gamma   90.00000000
_symmetry_Int_Tables_number   1
_chemical_formula_structural   V3O5F
_chemical_formula_sum   'V6 O10 F2'
_cell_volume   193.69493130
_cell_formula_units_Z   2
loop_
 _symmetry_equiv_pos_site_id
 _symmetry_equiv_pos_as_xyz
  1  'x, y, z'
loop_
 _atom_site_type_symbol
 _atom_site_label
 _atom_site_symmetry_multiplicity
 _atom_site_fract_x
 _atom_site_fract_y
 _atom_site_fract_z
 _atom_site_occupancy
  V  V0  1  0.00000000  0.00000000  0.00000000  1
  V  V1  1  0.00000000  0.02096500  0.34252000  1
  V  V2  1  0.00000000  0.97903500  0.65748000  1
  V  V3  1  0.50000000  0.47340600  0.15905700  1
  V  V4  1  0.50000000  0.50000000  0.50000000  1
  V  V5  1  0.50000000  0.52659400  0.84094300  1
  O  O6  1  0.50000000  0.79859800  0.59992700  1
  O  O7  1  0.50000000  0.80245400  0.93451000  1
  O  O8  1  0.00000000  0.69604400  0.10208400  1
  O  O9  1  0.00000000  0.70788900  0.76483300  1
  O  O10  1  0.00000000  0.70809300  0.43042700  1
  O  O11  1  0.00000000  0.29211100  0.23516700  1
  O  O12  1  0.00000000  0.29190700  0.56957300  1
  O  O13  1  0.00000000  0.30395600  0.89791600  1
  O  O14  1  0.50000000  0.19754600  0.06549000  1
  O  O15  1  0.50000000  0.20140200  0.40007300  1
  F  F16  1  0.50000000  0.80675400  0.26848700  1
  F  F17  1  0.50000000  0.19324600  0.73151300  1
