# generated using pymatgen
data_Mn4CoO8
_symmetry_space_group_name_H-M   'P 1'
_cell_length_a   5.89975896
_cell_length_b   5.89975896
_cell_length_c   6.00950044
_cell_angle_alpha   62.25230975
_cell_angle_beta   62.25230975
_cell_angle_gamma   59.10624638
_symmetry_Int_Tables_number   1
_chemical_formula_structural   Mn4CoO8
_chemical_formula_sum   'Mn4 Co1 O8'
_cell_volume   151.62385742
_cell_formula_units_Z   1
loop_
 _symmetry_equiv_pos_site_id
 _symmetry_equiv_pos_as_xyz
  1  'x, y, z'
loop_
 _atom_site_type_symbol
 _atom_site_label
 _atom_site_symmetry_multiplicity
 _atom_site_fract_x
 _atom_site_fract_y
 _atom_site_fract_z
 _atom_site_occupancy
  Mn  Mn0  1  0.50000000  0.50000000  0.50000000  1
  Mn  Mn1  1  0.00000000  0.00000000  0.00000000  1
  Mn  Mn2  1  0.00000000  0.50000000  0.00000000  1
  Mn  Mn3  1  0.50000000  0.00000000  0.00000000  1
  Co  Co4  1  0.50000000  0.50000000  0.00000000  1
  O  O5  1  0.72635800  0.72635800  0.80824600  1
  O  O6  1  0.71417600  0.23569600  0.80003200  1
  O  O7  1  0.23569600  0.71417600  0.80003200  1
  O  O8  1  0.25110700  0.25110700  0.78610800  1
  O  O9  1  0.74889300  0.74889300  0.21389200  1
  O  O10  1  0.76430400  0.28582400  0.19996800  1
  O  O11  1  0.28582400  0.76430400  0.19996800  1
  O  O12  1  0.27364200  0.27364200  0.19175400  1
