# generated using pymatgen
data_Mg2HgBi
_symmetry_space_group_name_H-M   'P 1'
_cell_length_a   11.90234996
_cell_length_b   11.90234996
_cell_length_c   11.90234996
_cell_angle_alpha   125.01625427
_cell_angle_beta   118.35449233
_cell_angle_gamma   87.20663016
_symmetry_Int_Tables_number   1
_chemical_formula_structural   Mg2HgBi
_chemical_formula_sum   'Mg2 Hg1 Bi1'
_cell_volume   1155.20379336
_cell_formula_units_Z   1
loop_
 _symmetry_equiv_pos_site_id
 _symmetry_equiv_pos_as_xyz
  1  'x, y, z'
loop_
 _atom_site_type_symbol
 _atom_site_label
 _atom_site_symmetry_multiplicity
 _atom_site_fract_x
 _atom_site_fract_y
 _atom_site_fract_z
 _atom_site_occupancy
  Mg  Mg0  1  0.00000000  0.25006800  0.25006800  1
  Mg  Mg1  1  0.00000000  0.74993200  0.74993200  1
  Hg  Hg2  1  0.00000000  0.00000000  0.00000000  1
  Bi  Bi3  1  0.00000000  0.50000000  0.50000000  1
