# generated using pymatgen
data_BaNa2O2
_symmetry_space_group_name_H-M   'P 1'
_cell_length_a   6.87010363
_cell_length_b   6.87010363
_cell_length_c   7.87332000
_cell_angle_alpha   90.00000000
_cell_angle_beta   90.00000000
_cell_angle_gamma   147.84656556
_symmetry_Int_Tables_number   1
_chemical_formula_structural   BaNa2O2
_chemical_formula_sum   'Ba2 Na4 O4'
_cell_volume   197.76519734
_cell_formula_units_Z   2
loop_
 _symmetry_equiv_pos_site_id
 _symmetry_equiv_pos_as_xyz
  1  'x, y, z'
loop_
 _atom_site_type_symbol
 _atom_site_label
 _atom_site_symmetry_multiplicity
 _atom_site_fract_x
 _atom_site_fract_y
 _atom_site_fract_z
 _atom_site_occupancy
  Ba  Ba0  1  0.80710900  0.19289100  0.06650000  1
  Ba  Ba1  1  0.19289100  0.80710900  0.56650000  1
  Na  Na2  1  0.94364000  0.05636000  0.61006200  1
  Na  Na3  1  0.57582000  0.42418000  0.85678600  1
  Na  Na4  1  0.05636000  0.94364000  0.11006200  1
  Na  Na5  1  0.42418000  0.57582000  0.35678600  1
  O  O6  1  0.81161200  0.18838800  0.41139800  1
  O  O7  1  0.54445000  0.45555000  0.57014500  1
  O  O8  1  0.45555000  0.54445000  0.07014500  1
  O  O9  1  0.18838800  0.81161200  0.91139800  1
