# generated using pymatgen
data_Y2TeO6
_symmetry_space_group_name_H-M   'P 1'
_cell_length_a   9.21016760
_cell_length_b   9.21016760
_cell_length_c   5.21771900
_cell_angle_alpha   90.00000000
_cell_angle_beta   90.00000000
_cell_angle_gamma   119.99999713
_symmetry_Int_Tables_number   1
_chemical_formula_structural   Y2TeO6
_chemical_formula_sum   'Y6 Te3 O18'
_cell_volume   383.30668829
_cell_formula_units_Z   3
loop_
 _symmetry_equiv_pos_site_id
 _symmetry_equiv_pos_as_xyz
  1  'x, y, z'
loop_
 _atom_site_type_symbol
 _atom_site_label
 _atom_site_symmetry_multiplicity
 _atom_site_fract_x
 _atom_site_fract_y
 _atom_site_fract_z
 _atom_site_occupancy
  Y  Y0  1  0.00000000  0.62180300  0.00000000  1
  Y  Y1  1  0.00000000  0.28420700  0.50000000  1
  Y  Y2  1  0.37819700  0.37819700  0.00000000  1
  Y  Y3  1  0.28420700  0.00000000  0.50000000  1
  Y  Y4  1  0.71579300  0.71579300  0.50000000  1
  Y  Y5  1  0.62180300  0.00000000  0.00000000  1
  Te  Te6  1  0.33333300  0.66666700  0.50549100  1
  Te  Te7  1  0.00000000  0.00000000  0.00000000  1
  Te  Te8  1  0.66666700  0.33333300  0.49450900  1
  O  O9  1  0.07986400  0.87986800  0.78970300  1
  O  O10  1  0.22237600  0.75763300  0.29280300  1
  O  O11  1  0.13342300  0.54285400  0.71907200  1
  O  O12  1  0.40943100  0.86657700  0.71907200  1
  O  O13  1  0.24236700  0.46474200  0.29280300  1
  O  O14  1  0.12013200  0.19999600  0.78970300  1
  O  O15  1  0.19999600  0.12013200  0.21029700  1
  O  O16  1  0.53525800  0.77762400  0.29280300  1
  O  O17  1  0.45714600  0.59056900  0.71907200  1
  O  O18  1  0.80000400  0.92013600  0.78970300  1
  O  O19  1  0.46474200  0.24236700  0.70719700  1
  O  O20  1  0.59056900  0.45714600  0.28092800  1
  O  O21  1  0.54285400  0.13342300  0.28092800  1
  O  O22  1  0.77762400  0.53525800  0.70719700  1
  O  O23  1  0.92013600  0.80000400  0.21029700  1
  O  O24  1  0.75763300  0.22237600  0.70719700  1
  O  O25  1  0.86657700  0.40943100  0.28092800  1
  O  O26  1  0.87986800  0.07986400  0.21029700  1
