# generated using pymatgen
data_Rb3InO3
_symmetry_space_group_name_H-M   'P 1'
_cell_length_a   7.18765747
_cell_length_b   7.18765747
_cell_length_c   7.09733260
_cell_angle_alpha   84.20502301
_cell_angle_beta   84.20502301
_cell_angle_gamma   114.86470679
_symmetry_Int_Tables_number   1
_chemical_formula_structural   Rb3InO3
_chemical_formula_sum   'Rb6 In2 O6'
_cell_volume   326.77194065
_cell_formula_units_Z   2
loop_
 _symmetry_equiv_pos_site_id
 _symmetry_equiv_pos_as_xyz
  1  'x, y, z'
loop_
 _atom_site_type_symbol
 _atom_site_label
 _atom_site_symmetry_multiplicity
 _atom_site_fract_x
 _atom_site_fract_y
 _atom_site_fract_z
 _atom_site_occupancy
  Rb  Rb0  1  0.63053400  0.63053400  0.64917700  1
  Rb  Rb1  1  0.19420600  0.80579400  0.50000000  1
  Rb  Rb2  1  0.80579400  0.19420600  0.50000000  1
  Rb  Rb3  1  0.74001400  0.25998600  0.00000000  1
  Rb  Rb4  1  0.25998600  0.74001400  0.00000000  1
  Rb  Rb5  1  0.36946600  0.36946600  0.35082300  1
  In  In6  1  0.82452400  0.82452400  0.14768800  1
  In  In7  1  0.17547600  0.17547600  0.85231200  1
  O  O8  1  0.89975700  0.89975700  0.84005300  1
  O  O9  1  0.84133700  0.55848500  0.27040600  1
  O  O10  1  0.55848500  0.84133700  0.27040600  1
  O  O11  1  0.15866300  0.44151500  0.72959400  1
  O  O12  1  0.44151500  0.15866300  0.72959400  1
  O  O13  1  0.10024300  0.10024300  0.15994700  1
