# generated using pymatgen
data_BaNb3NO7
_symmetry_space_group_name_H-M   'P 1'
_cell_length_a   10.77794918
_cell_length_b   10.77794918
_cell_length_c   9.13810439
_cell_angle_alpha   89.74522730
_cell_angle_beta   89.74522730
_cell_angle_gamma   20.81108890
_symmetry_Int_Tables_number   1
_chemical_formula_structural   BaNb3NO7
_chemical_formula_sum   'Ba2 Nb6 N2 O14'
_cell_volume   377.14150670
_cell_formula_units_Z   2
loop_
 _symmetry_equiv_pos_site_id
 _symmetry_equiv_pos_as_xyz
  1  'x, y, z'
loop_
 _atom_site_type_symbol
 _atom_site_label
 _atom_site_symmetry_multiplicity
 _atom_site_fract_x
 _atom_site_fract_y
 _atom_site_fract_z
 _atom_site_occupancy
  Ba  Ba0  1  0.98076000  0.98076000  0.75592600  1
  Ba  Ba1  1  0.01035400  0.01035400  0.24590900  1
  Nb  Nb2  1  0.62309600  0.62309600  0.94841800  1
  Nb  Nb3  1  0.22759500  0.22759500  0.77300300  1
  Nb  Nb4  1  0.62595900  0.62595900  0.56006600  1
  Nb  Nb5  1  0.35631300  0.35631300  0.45757300  1
  Nb  Nb6  1  0.75386000  0.75386000  0.25263600  1
  Nb  Nb7  1  0.36350400  0.36350400  0.06461400  1
  N  N8  1  0.15198700  0.15198700  0.90247900  1
  N  N9  1  0.55612700  0.55612700  0.06903800  1
  O  O10  1  0.42717000  0.42717000  0.93002900  1
  O  O11  1  0.29049800  0.29049800  0.91182200  1
  O  O12  1  0.71179900  0.71179900  0.72929100  1
  O  O13  1  0.57457700  0.57457700  0.74261300  1
  O  O14  1  0.29053300  0.29053300  0.59205000  1
  O  O15  1  0.14581800  0.14581800  0.58656900  1
  O  O16  1  0.42708600  0.42708600  0.57362100  1
  O  O17  1  0.56105300  0.56105300  0.43068900  1
  O  O18  1  0.84230600  0.84230600  0.40465800  1
  O  O19  1  0.69913700  0.69913700  0.40865300  1
  O  O20  1  0.28221800  0.28221800  0.25338500  1
  O  O21  1  0.41150400  0.41150400  0.24562800  1
  O  O22  1  0.69806700  0.69806700  0.10277600  1
  O  O23  1  0.84039100  0.84039100  0.09080600  1
