# generated using pymatgen
data_K2TbO3
_symmetry_space_group_name_H-M   'P 1'
_cell_length_a   6.33283296
_cell_length_b   6.33283296
_cell_length_c   12.61152519
_cell_angle_alpha   85.06137354
_cell_angle_beta   85.06137354
_cell_angle_gamma   120.16362708
_symmetry_Int_Tables_number   1
_chemical_formula_structural   K2TbO3
_chemical_formula_sum   'K8 Tb4 O12'
_cell_volume   430.73310045
_cell_formula_units_Z   4
loop_
 _symmetry_equiv_pos_site_id
 _symmetry_equiv_pos_as_xyz
  1  'x, y, z'
loop_
 _atom_site_type_symbol
 _atom_site_label
 _atom_site_symmetry_multiplicity
 _atom_site_fract_x
 _atom_site_fract_y
 _atom_site_fract_z
 _atom_site_occupancy
  K  K0  1  0.68477100  0.84241400  0.49981900  1
  K  K1  1  0.84241400  0.68477100  0.99981900  1
  K  K2  1  0.08569400  0.91430600  0.25000000  1
  K  K3  1  0.00000000  0.50000000  0.50000000  1
  K  K4  1  0.91430600  0.08569400  0.75000000  1
  K  K5  1  0.50000000  0.00000000  0.00000000  1
  K  K6  1  0.15758600  0.31522900  0.00018100  1
  K  K7  1  0.31522900  0.15758600  0.50018100  1
  Tb  Tb8  1  0.41818900  0.58181100  0.25000000  1
  Tb  Tb9  1  0.75244500  0.24755500  0.25000000  1
  Tb  Tb10  1  0.58181100  0.41818900  0.75000000  1
  Tb  Tb11  1  0.24755500  0.75244500  0.75000000  1
  O  O12  1  0.73123800  0.94904200  0.15144000  1
  O  O13  1  0.44092600  0.88019700  0.34867400  1
  O  O14  1  0.94904200  0.73123800  0.65144000  1
  O  O15  1  0.66114200  0.49063900  0.34812400  1
  O  O16  1  0.88019700  0.44092600  0.84867400  1
  O  O17  1  0.49063900  0.66114200  0.84812400  1
  O  O18  1  0.50936100  0.33885800  0.15187600  1
  O  O19  1  0.11980300  0.55907400  0.15132600  1
  O  O20  1  0.33885800  0.50936100  0.65187600  1
  O  O21  1  0.05095800  0.26876200  0.34856000  1
  O  O22  1  0.55907400  0.11980300  0.65132600  1
  O  O23  1  0.26876200  0.05095800  0.84856000  1
