# generated using pymatgen
data_Er2TiO5
_symmetry_space_group_name_H-M   'P 1'
_cell_length_a   5.84201548
_cell_length_b   5.84201548
_cell_length_c   10.45128600
_cell_angle_alpha   90.00000000
_cell_angle_beta   90.00000000
_cell_angle_gamma   139.20833528
_symmetry_Int_Tables_number   1
_chemical_formula_structural   Er2TiO5
_chemical_formula_sum   'Er4 Ti2 O10'
_cell_volume   233.03156836
_cell_formula_units_Z   2
loop_
 _symmetry_equiv_pos_site_id
 _symmetry_equiv_pos_as_xyz
  1  'x, y, z'
loop_
 _atom_site_type_symbol
 _atom_site_label
 _atom_site_symmetry_multiplicity
 _atom_site_fract_x
 _atom_site_fract_y
 _atom_site_fract_z
 _atom_site_occupancy
  Er  Er0  1  0.14264300  0.85735700  0.93062000  1
  Er  Er1  1  0.14264300  0.85735700  0.56938000  1
  Er  Er2  1  0.85735700  0.14264300  0.06938000  1
  Er  Er3  1  0.85735700  0.14264300  0.43062000  1
  Ti  Ti4  1  0.17314800  0.82685200  0.25000000  1
  Ti  Ti5  1  0.82685200  0.17314800  0.75000000  1
  O  O6  1  0.05163400  0.94836600  0.37654700  1
  O  O7  1  0.05163400  0.94836600  0.12345300  1
  O  O8  1  0.70846400  0.29153600  0.90975100  1
  O  O9  1  0.70846400  0.29153600  0.59024900  1
  O  O10  1  0.27158600  0.72841400  0.75000000  1
  O  O11  1  0.72841400  0.27158600  0.25000000  1
  O  O12  1  0.29153600  0.70846400  0.09024900  1
  O  O13  1  0.29153600  0.70846400  0.40975100  1
  O  O14  1  0.94836600  0.05163400  0.62345300  1
  O  O15  1  0.94836600  0.05163400  0.87654700  1
