# generated using pymatgen
data_Na2NiO3
_symmetry_space_group_name_H-M   'P 1'
_cell_length_a   5.24138219
_cell_length_b   5.24138219
_cell_length_c   5.62082515
_cell_angle_alpha   80.77633949
_cell_angle_beta   99.22366051
_cell_angle_gamma   59.99480182
_symmetry_Int_Tables_number   1
_chemical_formula_structural   Na2NiO3
_chemical_formula_sum   'Na4 Ni2 O6'
_cell_volume   126.66236507
_cell_formula_units_Z   2
loop_
 _symmetry_equiv_pos_site_id
 _symmetry_equiv_pos_as_xyz
  1  'x, y, z'
loop_
 _atom_site_type_symbol
 _atom_site_label
 _atom_site_symmetry_multiplicity
 _atom_site_fract_x
 _atom_site_fract_y
 _atom_site_fract_z
 _atom_site_occupancy
  Na  Na0  1  0.15739300  0.15739300  0.50000000  1
  Na  Na1  1  0.84260700  0.84260700  0.50000000  1
  Na  Na2  1  0.50000000  0.50000000  0.50000000  1
  Na  Na3  1  0.00000000  0.00000000  0.00000000  1
  Ni  Ni4  1  0.66693000  0.66693000  0.00000000  1
  Ni  Ni5  1  0.33307000  0.33307000  0.00000000  1
  O  O6  1  0.30820300  0.69179700  0.80125900  1
  O  O7  1  0.06703400  0.55503500  0.19766900  1
  O  O8  1  0.44496500  0.93296600  0.19766900  1
  O  O9  1  0.93296600  0.44496500  0.80233100  1
  O  O10  1  0.55503500  0.06703400  0.80233100  1
  O  O11  1  0.69179700  0.30820300  0.19874100  1
