# generated using pymatgen
data_Hg(BiO3)2
_symmetry_space_group_name_H-M   'P 1'
_cell_length_a   5.08321900
_cell_length_b   5.08321900
_cell_length_c   10.50146900
_cell_angle_alpha   90.00000000
_cell_angle_beta   90.00000000
_cell_angle_gamma   90.00000000
_symmetry_Int_Tables_number   1
_chemical_formula_structural   Hg(BiO3)2
_chemical_formula_sum   'Hg2 Bi4 O12'
_cell_volume   271.34866938
_cell_formula_units_Z   2
loop_
 _symmetry_equiv_pos_site_id
 _symmetry_equiv_pos_as_xyz
  1  'x, y, z'
loop_
 _atom_site_type_symbol
 _atom_site_label
 _atom_site_symmetry_multiplicity
 _atom_site_fract_x
 _atom_site_fract_y
 _atom_site_fract_z
 _atom_site_occupancy
  Hg  Hg0  1  0.00000000  0.00000000  0.00000000  1
  Hg  Hg1  1  0.50000000  0.50000000  0.50000000  1
  Bi  Bi2  1  0.00000000  0.00000000  0.33227100  1
  Bi  Bi3  1  0.00000000  0.00000000  0.66772900  1
  Bi  Bi4  1  0.50000000  0.50000000  0.16772900  1
  Bi  Bi5  1  0.50000000  0.50000000  0.83227100  1
  O  O6  1  0.19923500  0.80076500  0.82436800  1
  O  O7  1  0.19923500  0.80076500  0.17563200  1
  O  O8  1  0.18464600  0.81535400  0.50000000  1
  O  O9  1  0.31535400  0.31535400  0.00000000  1
  O  O10  1  0.30076500  0.30076500  0.32436800  1
  O  O11  1  0.30076500  0.30076500  0.67563200  1
  O  O12  1  0.69923500  0.69923500  0.32436800  1
  O  O13  1  0.69923500  0.69923500  0.67563200  1
  O  O14  1  0.68464600  0.68464600  0.00000000  1
  O  O15  1  0.81535400  0.18464600  0.50000000  1
  O  O16  1  0.80076500  0.19923500  0.17563200  1
  O  O17  1  0.80076500  0.19923500  0.82436800  1
