# generated using pymatgen
data_ZrO2
_symmetry_space_group_name_H-M   'P 1'
_cell_length_a   6.99358588
_cell_length_b   6.99358588
_cell_length_c   7.11783881
_cell_angle_alpha   74.16781204
_cell_angle_beta   74.16781204
_cell_angle_gamma   33.60199069
_symmetry_Int_Tables_number   1
_chemical_formula_structural   ZrO2
_chemical_formula_sum   'Zr4 O8'
_cell_volume   184.67569457
_cell_formula_units_Z   4
loop_
 _symmetry_equiv_pos_site_id
 _symmetry_equiv_pos_as_xyz
  1  'x, y, z'
loop_
 _atom_site_type_symbol
 _atom_site_label
 _atom_site_symmetry_multiplicity
 _atom_site_fract_x
 _atom_site_fract_y
 _atom_site_fract_z
 _atom_site_occupancy
  Zr  Zr0  1  0.90014900  0.90014900  0.71006400  1
  Zr  Zr1  1  0.80539000  0.80539000  0.28705500  1
  Zr  Zr2  1  0.19461000  0.19461000  0.71294500  1
  Zr  Zr3  1  0.09985100  0.09985100  0.28993600  1
  O  O4  1  0.94013200  0.94013200  0.37787700  1
  O  O5  1  0.35810500  0.35810500  0.70645300  1
  O  O6  1  0.86792200  0.86792200  0.00420900  1
  O  O7  1  0.74092600  0.74092600  0.64647000  1
  O  O8  1  0.25907400  0.25907400  0.35353000  1
  O  O9  1  0.13207800  0.13207800  0.99579100  1
  O  O10  1  0.64189500  0.64189500  0.29354700  1
  O  O11  1  0.05986800  0.05986800  0.62212300  1
