data_image0
_chemical_formula_structural       I4Pd2Te2
_chemical_formula_sum              "I4 Pd2 Te2"
_cell_length_a       4.3087
_cell_length_b       7.17701
_cell_length_c       9.17202
_cell_angle_alpha    68.6186
_cell_angle_beta     82.1714
_cell_angle_gamma    84.2814

_space_group_name_H-M_alt    "P 1"
_space_group_IT_number       1

loop_
  _space_group_symop_operation_xyz
  'x, y, z'

loop_
  _atom_site_type_symbol
  _atom_site_label
  _atom_site_symmetry_multiplicity
  _atom_site_fract_x
  _atom_site_fract_y
  _atom_site_fract_z
  _atom_site_occupancy
  I   I1        1.0  0.66500  0.96800  0.18900  1.0000
  I   I2        1.0  0.78400  0.29100  0.42800  1.0000
  I   I3        1.0  0.21600  0.70900  0.57200  1.0000
  I   I4        1.0  0.33500  0.03230  0.81100  1.0000
  Pd  Pd1       1.0  0.26600  0.25100  0.00637  1.0000
  Pd  Pd2       1.0  0.73400  0.74900  0.99400  1.0000
  Te  Te1       1.0  0.17300  0.50800  0.15300  1.0000
  Te  Te2       1.0  0.82700  0.49200  0.84700  1.0000
