# generated using pymatgen
data_Rb3LuO3
_symmetry_space_group_name_H-M   'P 1'
_cell_length_a   7.28755609
_cell_length_b   7.28755609
_cell_length_c   7.21986851
_cell_angle_alpha   84.71222385
_cell_angle_beta   84.71222385
_cell_angle_gamma   115.72081501
_symmetry_Int_Tables_number   1
_chemical_formula_structural   Rb3LuO3
_chemical_formula_sum   'Rb6 Lu2 O6'
_cell_volume   340.22217177
_cell_formula_units_Z   2
loop_
 _symmetry_equiv_pos_site_id
 _symmetry_equiv_pos_as_xyz
  1  'x, y, z'
loop_
 _atom_site_type_symbol
 _atom_site_label
 _atom_site_symmetry_multiplicity
 _atom_site_fract_x
 _atom_site_fract_y
 _atom_site_fract_z
 _atom_site_occupancy
  Rb  Rb0  1  0.79959500  0.20040500  0.50000000  1
  Rb  Rb1  1  0.73806600  0.26193400  0.00000000  1
  Rb  Rb2  1  0.63435700  0.63435700  0.64526100  1
  Rb  Rb3  1  0.36564300  0.36564300  0.35473900  1
  Rb  Rb4  1  0.26193400  0.73806600  0.00000000  1
  Rb  Rb5  1  0.20040500  0.79959500  0.50000000  1
  Lu  Lu6  1  0.82632700  0.82632700  0.14749700  1
  Lu  Lu7  1  0.17367300  0.17367300  0.85250300  1
  O  O8  1  0.83745100  0.56227400  0.26711900  1
  O  O9  1  0.90056100  0.90056100  0.84587500  1
  O  O10  1  0.43772600  0.16254900  0.73288100  1
  O  O11  1  0.56227400  0.83745100  0.26711900  1
  O  O12  1  0.09943900  0.09943900  0.15412500  1
  O  O13  1  0.16254900  0.43772600  0.73288100  1
