# generated using pymatgen
data_Sc(CuO2)2
_symmetry_space_group_name_H-M   'P 1'
_cell_length_a   6.12134992
_cell_length_b   6.12134992
_cell_length_c   6.12134992
_cell_angle_alpha   126.56611049
_cell_angle_beta   126.56611049
_cell_angle_gamma   78.95967422
_symmetry_Int_Tables_number   1
_chemical_formula_structural   Sc(CuO2)2
_chemical_formula_sum   'Sc2 Cu4 O8'
_cell_volume   143.13759846
_cell_formula_units_Z   2
loop_
 _symmetry_equiv_pos_site_id
 _symmetry_equiv_pos_as_xyz
  1  'x, y, z'
loop_
 _atom_site_type_symbol
 _atom_site_label
 _atom_site_symmetry_multiplicity
 _atom_site_fract_x
 _atom_site_fract_y
 _atom_site_fract_z
 _atom_site_occupancy
  Sc  Sc0  1  0.00000000  0.00000000  0.00000000  1
  Sc  Sc1  1  0.75000000  0.25000000  0.50000000  1
  Cu  Cu2  1  0.37500000  0.62500000  0.75000000  1
  Cu  Cu3  1  0.37500000  0.62500000  0.25000000  1
  Cu  Cu4  1  0.37500000  0.12500000  0.75000000  1
  Cu  Cu5  1  0.87500000  0.62500000  0.25000000  1
  O  O6  1  0.04214500  0.39124900  0.03932200  1
  O  O7  1  0.39807300  0.24717600  0.53932200  1
  O  O8  1  0.14124900  0.60192700  0.84910300  1
  O  O9  1  0.99717600  0.95785500  0.34910300  1
  O  O10  1  0.75282400  0.29214500  0.15089700  1
  O  O11  1  0.60875100  0.64807300  0.65089700  1
  O  O12  1  0.35192700  0.00282400  0.96067800  1
  O  O13  1  0.70785500  0.85875100  0.46067800  1
