# generated using pymatgen
data_V6O7F5
_symmetry_space_group_name_H-M   'P 1'
_cell_length_a   5.61496800
_cell_length_b   5.62936007
_cell_length_c   7.39209879
_cell_angle_alpha   71.90979678
_cell_angle_beta   72.51004462
_cell_angle_gamma   71.80766807
_symmetry_Int_Tables_number   1
_chemical_formula_structural   V6O7F5
_chemical_formula_sum   'V6 O7 F5'
_cell_volume   205.57016021
_cell_formula_units_Z   1
loop_
 _symmetry_equiv_pos_site_id
 _symmetry_equiv_pos_as_xyz
  1  'x, y, z'
loop_
 _atom_site_type_symbol
 _atom_site_label
 _atom_site_symmetry_multiplicity
 _atom_site_fract_x
 _atom_site_fract_y
 _atom_site_fract_z
 _atom_site_occupancy
  V  V0  1  0.68651400  0.67983300  0.83789400  1
  V  V1  1  0.33405700  0.33862500  0.67012200  1
  V  V2  1  0.68812800  0.61640900  0.31415200  1
  V  V3  1  0.33769000  0.32991500  0.15768200  1
  V  V4  1  0.98162200  0.98920500  0.51267400  1
  V  V5  1  0.97966600  0.03148600  0.00388000  1
  O  O6  1  0.04588900  0.63973900  0.66430900  1
  O  O7  1  0.22637800  0.23122400  0.96691800  1
  O  O8  1  0.76805600  0.76830200  0.04533900  1
  O  O9  1  0.44022400  0.43723600  0.36331400  1
  O  O10  1  0.63521100  0.03227700  0.66866100  1
  O  O11  1  0.97019000  0.35328900  0.33535500  1
  O  O12  1  0.68486800  0.31947600  0.99566000  1
  F  F13  1  0.36985000  0.95217100  0.33782500  1
  F  F14  1  0.57787100  0.57373700  0.62179800  1
  F  F15  1  0.88493700  0.89000500  0.30459200  1
  F  F16  1  0.09557400  0.10540700  0.70315400  1
  F  F17  1  0.29327200  0.71166200  0.99667500  1
