# generated using pymatgen
data_Mn6O7F5
_symmetry_space_group_name_H-M   'P 1'
_cell_length_a   4.62123900
_cell_length_b   5.63289276
_cell_length_c   7.73685294
_cell_angle_alpha   86.19792729
_cell_angle_beta   89.50348758
_cell_angle_gamma   88.61747840
_symmetry_Int_Tables_number   1
_chemical_formula_structural   Mn6O7F5
_chemical_formula_sum   'Mn6 O7 F5'
_cell_volume   200.89078276
_cell_formula_units_Z   1
loop_
 _symmetry_equiv_pos_site_id
 _symmetry_equiv_pos_as_xyz
  1  'x, y, z'
loop_
 _atom_site_type_symbol
 _atom_site_label
 _atom_site_symmetry_multiplicity
 _atom_site_fract_x
 _atom_site_fract_y
 _atom_site_fract_z
 _atom_site_occupancy
  Mn  Mn0  1  0.49295100  0.49767200  0.99781600  1
  Mn  Mn1  1  0.51168700  0.82582800  0.64947400  1
  Mn  Mn2  1  0.50659000  0.17833800  0.35668300  1
  Mn  Mn3  1  0.99405000  0.33250700  0.67172200  1
  Mn  Mn4  1  0.97669400  0.65075500  0.31829700  1
  Mn  Mn5  1  0.00764500  0.00409800  0.00488200  1
  O  O6  1  0.79762300  0.36394600  0.44488600  1
  O  O7  1  0.81716600  0.71123900  0.09213100  1
  O  O8  1  0.68365600  0.53923000  0.76516200  1
  O  O9  1  0.70927400  0.87915500  0.42939500  1
  O  O10  1  0.31124500  0.12459600  0.56714800  1
  O  O11  1  0.31070200  0.46020100  0.23520700  1
  O  O12  1  0.18440700  0.29146500  0.90264800  1
  F  F13  1  0.79036600  0.03110400  0.78052700  1
  F  F14  1  0.70348500  0.19466500  0.12454900  1
  F  F15  1  0.29548200  0.80928200  0.87672300  1
  F  F16  1  0.18491600  0.63470400  0.54831700  1
  F  F17  1  0.22206200  0.97121700  0.23443300  1
