# generated using pymatgen
data_V3(O2F)2
_symmetry_space_group_name_H-M   'P 1'
_cell_length_a   4.69413500
_cell_length_b   5.63377327
_cell_length_c   7.66450121
_cell_angle_alpha   85.59539664
_cell_angle_beta   87.18235252
_cell_angle_gamma   87.16784950
_symmetry_Int_Tables_number   1
_chemical_formula_structural   V3(O2F)2
_chemical_formula_sum   'V6 O8 F4'
_cell_volume   201.63802833
_cell_formula_units_Z   2
loop_
 _symmetry_equiv_pos_site_id
 _symmetry_equiv_pos_as_xyz
  1  'x, y, z'
loop_
 _atom_site_type_symbol
 _atom_site_label
 _atom_site_symmetry_multiplicity
 _atom_site_fract_x
 _atom_site_fract_y
 _atom_site_fract_z
 _atom_site_occupancy
  V  V0  1  0.49527700  0.82941400  0.66606300  1
  V  V1  1  0.52427500  0.51835800  0.00806200  1
  V  V2  1  0.51831100  0.18173200  0.33741100  1
  V  V3  1  0.99470200  0.32671800  0.65889300  1
  V  V4  1  0.96994000  0.65209800  0.32649900  1
  V  V5  1  0.99378400  0.99185100  0.00419800  1
  O  O6  1  0.80625000  0.37352900  0.43327900  1
  O  O7  1  0.79954000  0.70156000  0.10495800  1
  O  O8  1  0.69782200  0.21042300  0.09655300  1
  O  O9  1  0.69007800  0.52568900  0.77694700  1
  O  O10  1  0.71395200  0.85901800  0.43237600  1
  O  O11  1  0.30791600  0.12945300  0.56781400  1
  O  O12  1  0.29764000  0.48389900  0.22487700  1
  O  O13  1  0.30245900  0.79798300  0.90085900  1
  F  F14  1  0.80301900  0.02722300  0.76639700  1
  F  F15  1  0.19891500  0.96572300  0.23610700  1
  F  F16  1  0.19309600  0.29528200  0.89808700  1
  F  F17  1  0.19302700  0.63004800  0.56062300  1
