# generated using pymatgen
data_Na3MnO3
_symmetry_space_group_name_H-M   'P 1'
_cell_length_a   6.04827189
_cell_length_b   10.88299200
_cell_length_c   6.07800373
_cell_angle_alpha   89.99979137
_cell_angle_beta   91.74208466
_cell_angle_gamma   90.00028617
_symmetry_Int_Tables_number   1
_chemical_formula_structural   Na3MnO3
_chemical_formula_sum   'Na12 Mn4 O12'
_cell_volume   399.88931607
_cell_formula_units_Z   4
loop_
 _symmetry_equiv_pos_site_id
 _symmetry_equiv_pos_as_xyz
  1  'x, y, z'
loop_
 _atom_site_type_symbol
 _atom_site_label
 _atom_site_symmetry_multiplicity
 _atom_site_fract_x
 _atom_site_fract_y
 _atom_site_fract_z
 _atom_site_occupancy
  Na  Na0  1  0.90793100  0.77586900  0.04573900  1
  Na  Na1  1  0.40792200  0.72412600  0.04574000  1
  Na  Na2  1  0.59207800  0.27586800  0.95425900  1
  Na  Na3  1  0.09207700  0.22413500  0.95425600  1
  Na  Na4  1  0.85754400  0.00271000  0.35368800  1
  Na  Na5  1  0.35753600  0.49729000  0.35368100  1
  Na  Na6  1  0.64248200  0.50271800  0.64631400  1
  Na  Na7  1  0.14246100  0.99729400  0.64630700  1
  Na  Na8  1  0.98313900  0.27813400  0.50610400  1
  Na  Na9  1  0.51685700  0.77813700  0.49389500  1
  Na  Na10  1  0.48315300  0.22185900  0.50609900  1
  Na  Na11  1  0.01685400  0.72187000  0.49389900  1
  Mn  Mn12  1  0.66752200  0.99724900  0.83549700  1
  Mn  Mn13  1  0.16751900  0.50275000  0.83551100  1
  Mn  Mn14  1  0.83246200  0.49724800  0.16450800  1
  Mn  Mn15  1  0.33245500  0.00274600  0.16449600  1
  O  O16  1  0.60621000  0.91227500  0.11129700  1
  O  O17  1  0.89379900  0.41228000  0.88869900  1
  O  O18  1  0.10621400  0.58772200  0.11130800  1
  O  O19  1  0.39378800  0.08772100  0.88869600  1
  O  O20  1  0.68099000  0.36838800  0.30003800  1
  O  O21  1  0.81901400  0.86839300  0.69996000  1
  O  O22  1  0.18098500  0.13160800  0.30003800  1
  O  O23  1  0.31901800  0.63161300  0.69995900  1
  O  O24  1  0.69150300  0.62730100  0.30527300  1
  O  O25  1  0.80849000  0.12730000  0.69473500  1
  O  O26  1  0.19150200  0.87269300  0.30526600  1
  O  O27  1  0.30849400  0.37270100  0.69473700  1
