# generated using pymatgen
data_VSb(PO4)2
_symmetry_space_group_name_H-M   'P 1'
_cell_length_a   5.06594231
_cell_length_b   10.99818434
_cell_length_c   5.93967300
_cell_angle_alpha   89.99990369
_cell_angle_beta   90.00069005
_cell_angle_gamma   97.42734877
_symmetry_Int_Tables_number   1
_chemical_formula_structural   VSb(PO4)2
_chemical_formula_sum   'V2 Sb2 P4 O16'
_cell_volume   328.15912196
_cell_formula_units_Z   2
loop_
 _symmetry_equiv_pos_site_id
 _symmetry_equiv_pos_as_xyz
  1  'x, y, z'
loop_
 _atom_site_type_symbol
 _atom_site_label
 _atom_site_symmetry_multiplicity
 _atom_site_fract_x
 _atom_site_fract_y
 _atom_site_fract_z
 _atom_site_occupancy
  V  V0  1  0.56595200  0.79838600  0.24999600  1
  V  V1  1  0.43426500  0.20164000  0.75000400  1
  Sb  Sb2  1  0.96789000  0.27166100  0.25000500  1
  Sb  Sb3  1  0.03224400  0.72819900  0.74999600  1
  P  P4  1  0.39801100  0.07646300  0.25000100  1
  P  P5  1  0.60183100  0.92359700  0.74999900  1
  P  P6  1  0.90748900  0.37798900  0.74999900  1
  P  P7  1  0.09257300  0.62196400  0.25000100  1
  O  O8  1  0.66506700  0.06226200  0.75000600  1
  O  O9  1  0.33457700  0.93782500  0.24999400  1
  O  O10  1  0.70420700  0.11351200  0.25000200  1
  O  O11  1  0.29568000  0.88642000  0.74999900  1
  O  O12  1  0.18013800  0.33253500  0.74999500  1
  O  O13  1  0.81988800  0.66745300  0.25000300  1
  O  O14  1  0.08799300  0.48530300  0.24999700  1
  O  O15  1  0.91214200  0.51466600  0.75000400  1
  O  O16  1  0.27206900  0.13715500  0.04245600  1
  O  O17  1  0.27207500  0.13714900  0.45755000  1
  O  O18  1  0.72780800  0.86295100  0.54245800  1
  O  O19  1  0.72781400  0.86294600  0.95753600  1
  O  O20  1  0.73006000  0.31280600  0.95129600  1
  O  O21  1  0.73005100  0.31281100  0.54869900  1
  O  O22  1  0.27008400  0.68715500  0.04866900  1
  O  O23  1  0.27009000  0.68715100  0.45133600  1
