# generated using pymatgen
data_CrTe(WO6)2
_symmetry_space_group_name_H-M   'P 1'
_cell_length_a   5.13172600
_cell_length_b   5.33330386
_cell_length_c   7.41493921
_cell_angle_alpha   92.68806925
_cell_angle_beta   90.03786266
_cell_angle_gamma   90.14826456
_symmetry_Int_Tables_number   1
_chemical_formula_structural   CrTe(WO6)2
_chemical_formula_sum   'Cr1 Te1 W2 O12'
_cell_volume   202.71582882
_cell_formula_units_Z   1
loop_
 _symmetry_equiv_pos_site_id
 _symmetry_equiv_pos_as_xyz
  1  'x, y, z'
loop_
 _atom_site_type_symbol
 _atom_site_label
 _atom_site_symmetry_multiplicity
 _atom_site_fract_x
 _atom_site_fract_y
 _atom_site_fract_z
 _atom_site_occupancy
  Cr  Cr0  1  0.00158200  0.05627300  0.96825300  1
  Te  Te1  1  0.49976700  0.49717500  0.50384400  1
  W  W2  1  0.98797200  0.99784000  0.46919900  1
  W  W3  1  0.51030000  0.55418300  0.00283600  1
  O  O4  1  0.30056200  0.19718100  0.44761400  1
  O  O5  1  0.10199800  0.00992700  0.75756100  1
  O  O6  1  0.29463800  0.81139400  0.04927300  1
  O  O7  1  0.19893900  0.69875600  0.45195400  1
  O  O8  1  0.80834100  0.71417800  0.95158500  1
  O  O9  1  0.39349200  0.49086100  0.75370400  1
  O  O10  1  0.59890700  0.49145400  0.25096400  1
  O  O11  1  0.19244800  0.29248300  0.04391500  1
  O  O12  1  0.80361200  0.29820600  0.55564800  1
  O  O13  1  0.71667200  0.19987300  0.94416100  1
  O  O14  1  0.89371200  0.99947100  0.23925100  1
  O  O15  1  0.69705700  0.80034100  0.55544100  1
