# generated using pymatgen
data_NaV5O8
_symmetry_space_group_name_H-M   'P 1'
_cell_length_a   3.05783000
_cell_length_b   7.88184062
_cell_length_c   14.49639645
_cell_angle_alpha   105.64614751
_cell_angle_beta   83.94607924
_cell_angle_gamma   101.18350402
_symmetry_Int_Tables_number   1
_chemical_formula_structural   NaV5O8
_chemical_formula_sum   'Na2 V10 O16'
_cell_volume   329.52476594
_cell_formula_units_Z   2
loop_
 _symmetry_equiv_pos_site_id
 _symmetry_equiv_pos_as_xyz
  1  'x, y, z'
loop_
 _atom_site_type_symbol
 _atom_site_label
 _atom_site_symmetry_multiplicity
 _atom_site_fract_x
 _atom_site_fract_y
 _atom_site_fract_z
 _atom_site_occupancy
  Na  Na0  1  0.00000800  0.99998700  0.99998600  1
  Na  Na1  1  0.00000200  0.49999900  0.50000900  1
  V  V2  1  0.50003200  0.75000000  0.75000100  1
  V  V3  1  0.84631600  0.40704600  0.71445100  1
  V  V4  1  0.15370600  0.09295000  0.78554900  1
  V  V5  1  0.79822200  0.01244700  0.41600600  1
  V  V6  1  0.20174600  0.48755200  0.08399400  1
  V  V7  1  0.49999500  0.25000000  0.25000000  1
  V  V8  1  0.84631900  0.90703200  0.21439900  1
  V  V9  1  0.15367400  0.59296100  0.28559300  1
  V  V10  1  0.79818900  0.51240600  0.91604600  1
  V  V11  1  0.20179500  0.98758700  0.58395700  1
  O  O12  1  0.91832800  0.14866100  0.31197300  1
  O  O13  1  0.91835000  0.64865600  0.81200400  1
  O  O14  1  0.08167200  0.35134900  0.18802200  1
  O  O15  1  0.08170700  0.85134500  0.68799500  1
  O  O16  1  0.42437100  0.99938600  0.15057000  1
  O  O17  1  0.42436700  0.49936400  0.65061000  1
  O  O18  1  0.57562700  0.50062900  0.34942900  1
  O  O19  1  0.57566700  0.00064000  0.84939200  1
  O  O20  1  0.32631300  0.14333300  0.49066000  1
  O  O21  1  0.32629900  0.64329600  0.99069500  1
  O  O22  1  0.67365600  0.35666900  0.00934700  1
  O  O23  1  0.67365700  0.85670700  0.50931000  1
  O  O24  1  0.26941900  0.86005400  0.32118500  1
  O  O25  1  0.26939600  0.36003300  0.82121600  1
  O  O26  1  0.73055900  0.63994700  0.17881500  1
  O  O27  1  0.73060600  0.13996400  0.67878800  1
