# generated using pymatgen
data_Zr2GaTc
_symmetry_space_group_name_H-M   'P 1'
_cell_length_a   10.97430356
_cell_length_b   10.97430356
_cell_length_c   10.97430356
_cell_angle_alpha   125.57411646
_cell_angle_beta   118.14387546
_cell_angle_gamma   86.93649131
_symmetry_Int_Tables_number   1
_chemical_formula_structural   Zr2GaTc
_chemical_formula_sum   'Zr2 Ga1 Tc1'
_cell_volume   901.80369708
_cell_formula_units_Z   1
loop_
 _symmetry_equiv_pos_site_id
 _symmetry_equiv_pos_as_xyz
  1  'x, y, z'
loop_
 _atom_site_type_symbol
 _atom_site_label
 _atom_site_symmetry_multiplicity
 _atom_site_fract_x
 _atom_site_fract_y
 _atom_site_fract_z
 _atom_site_occupancy
  Zr  Zr0  1  0.00000000  0.27742000  0.27742000  1
  Zr  Zr1  1  0.00000000  0.72258000  0.72258000  1
  Ga  Ga2  1  0.00000000  0.00000000  0.00000000  1
  Tc  Tc3  1  0.00000000  0.50000000  0.50000000  1
