# generated using pymatgen
data_TaCuO3
_symmetry_space_group_name_H-M   'P 1'
_cell_length_a   6.43912222
_cell_length_b   6.43912222
_cell_length_c   6.82324828
_cell_angle_alpha   89.82698392
_cell_angle_beta   89.82698392
_cell_angle_gamma   83.93754332
_symmetry_Int_Tables_number   1
_chemical_formula_structural   TaCuO3
_chemical_formula_sum   'Ta4 Cu4 O12'
_cell_volume   281.32301221
_cell_formula_units_Z   4
loop_
 _symmetry_equiv_pos_site_id
 _symmetry_equiv_pos_as_xyz
  1  'x, y, z'
loop_
 _atom_site_type_symbol
 _atom_site_label
 _atom_site_symmetry_multiplicity
 _atom_site_fract_x
 _atom_site_fract_y
 _atom_site_fract_z
 _atom_site_occupancy
  Ta  Ta0  1  0.74714600  0.74714600  0.23379700  1
  Ta  Ta1  1  0.79967500  0.20032500  0.00000000  1
  Ta  Ta2  1  0.20032500  0.79967500  0.00000000  1
  Ta  Ta3  1  0.25285400  0.25285400  0.76620400  1
  Cu  Cu4  1  0.77746500  0.77746500  0.70794700  1
  Cu  Cu5  1  0.84288600  0.15711400  0.50000000  1
  Cu  Cu6  1  0.15711400  0.84288600  0.50000000  1
  Cu  Cu7  1  0.22253500  0.22253500  0.29205300  1
  O  O8  1  0.87076700  0.87076700  0.94495300  1
  O  O9  1  0.67764200  0.67764200  0.48335800  1
  O  O10  1  0.78957400  0.46919400  0.11138700  1
  O  O11  1  0.46919400  0.78957400  0.11138700  1
  O  O12  1  0.93298900  0.26196800  0.74049000  1
  O  O13  1  0.26196800  0.93298900  0.74049000  1
  O  O14  1  0.06701100  0.73803200  0.25951000  1
  O  O15  1  0.73803200  0.06701100  0.25951000  1
  O  O16  1  0.21042600  0.53080600  0.88861300  1
  O  O17  1  0.53080600  0.21042600  0.88861300  1
  O  O18  1  0.32235800  0.32235800  0.51664200  1
  O  O19  1  0.12923300  0.12923300  0.05504700  1
