# generated using pymatgen
data_V3Zn2O8
_symmetry_space_group_name_H-M   'P 1'
_cell_length_a   5.96033317
_cell_length_b   5.96035085
_cell_length_c   10.26388336
_cell_angle_alpha   106.87652022
_cell_angle_beta   73.12285283
_cell_angle_gamma   119.99814376
_symmetry_Int_Tables_number   1
_chemical_formula_structural   V3Zn2O8
_chemical_formula_sum   'V6 Zn4 O16'
_cell_volume   297.51338529
_cell_formula_units_Z   2
loop_
 _symmetry_equiv_pos_site_id
 _symmetry_equiv_pos_as_xyz
  1  'x, y, z'
loop_
 _atom_site_type_symbol
 _atom_site_label
 _atom_site_symmetry_multiplicity
 _atom_site_fract_x
 _atom_site_fract_y
 _atom_site_fract_z
 _atom_site_occupancy
  V  V0  1  0.56250100  0.93750100  0.81249900  1
  V  V1  1  0.06249900  0.43749800  0.81250000  1
  V  V2  1  0.56249800  0.43749900  0.81250000  1
  V  V3  1  0.06250000  0.43750000  0.31250200  1
  V  V4  1  0.56250100  0.93750000  0.31249900  1
  V  V5  1  0.06249900  0.93749600  0.31250000  1
  Zn  Zn6  1  0.50329800  0.49670000  0.49015200  1
  Zn  Zn7  1  0.00322800  0.99676800  0.99019800  1
  Zn  Zn8  1  0.62170200  0.37830100  0.13484800  1
  Zn  Zn9  1  0.12177300  0.87823300  0.63480200  1
  O  O10  1  0.19083100  0.80916700  0.42750300  1
  O  O11  1  0.69083500  0.30916100  0.92751500  1
  O  O12  1  0.93416900  0.06583300  0.19749800  1
  O  O13  1  0.43416500  0.56583900  0.69748500  1
  O  O14  1  0.41907600  0.58096300  0.21113400  1
  O  O15  1  0.91902200  0.08101200  0.71119600  1
  O  O16  1  0.70592400  0.29403800  0.41386600  1
  O  O17  1  0.20597900  0.79398800  0.91380400  1
  O  O18  1  0.70597300  0.82586100  0.41385100  1
  O  O19  1  0.20602100  0.32571500  0.91383900  1
  O  O20  1  0.17413600  0.29406100  0.41385100  1
  O  O21  1  0.67428600  0.79400900  0.91383900  1
  O  O22  1  0.95086500  0.58094000  0.21114900  1
  O  O23  1  0.45071500  0.08099100  0.71116100  1
  O  O24  1  0.41902700  0.04914000  0.21115000  1
  O  O25  1  0.91898000  0.54928500  0.71116100  1
