# generated using pymatgen
data_Cr3Sb3(TeO8)2
_symmetry_space_group_name_H-M   'P 1'
_cell_length_a   6.15395205
_cell_length_b   6.15395205
_cell_length_c   9.96441456
_cell_angle_alpha   89.98345055
_cell_angle_beta   89.98345055
_cell_angle_gamma   60.39251042
_symmetry_Int_Tables_number   1
_chemical_formula_structural   Cr3Sb3(TeO8)2
_chemical_formula_sum   'Cr3 Sb3 Te2 O16'
_cell_volume   328.09134821
_cell_formula_units_Z   1
loop_
 _symmetry_equiv_pos_site_id
 _symmetry_equiv_pos_as_xyz
  1  'x, y, z'
loop_
 _atom_site_type_symbol
 _atom_site_label
 _atom_site_symmetry_multiplicity
 _atom_site_fract_x
 _atom_site_fract_y
 _atom_site_fract_z
 _atom_site_occupancy
  Cr  Cr0  1  0.83206400  0.33677900  0.21148800  1
  Cr  Cr1  1  0.33677900  0.83206400  0.21148800  1
  Cr  Cr2  1  0.16923000  0.16923000  0.71091100  1
  Sb  Sb3  1  0.83488700  0.83488700  0.21276400  1
  Sb  Sb4  1  0.16956700  0.66892500  0.71401400  1
  Sb  Sb5  1  0.66892500  0.16956700  0.71401400  1
  Te  Te6  1  0.65482800  0.65482800  0.47262100  1
  Te  Te7  1  0.32131400  0.32131400  0.00090900  1
  O  O8  1  0.84204400  0.30933100  0.60606700  1
  O  O9  1  0.52113300  0.52113300  0.33127700  1
  O  O10  1  0.66976700  0.66976700  0.11352100  1
  O  O11  1  0.00116000  0.00116000  0.30580700  1
  O  O12  1  0.00281300  0.00281300  0.81693100  1
  O  O13  1  0.30933100  0.84204400  0.60606700  1
  O  O14  1  0.95607100  0.52233600  0.33392400  1
  O  O15  1  0.52233600  0.95607100  0.33392400  1
  O  O16  1  0.16313800  0.16313800  0.10497700  1
  O  O17  1  0.84347100  0.84347100  0.61140700  1
  O  O18  1  0.48226200  0.04265500  0.82694100  1
  O  O19  1  0.04265500  0.48226200  0.82694100  1
  O  O20  1  0.33595900  0.33595900  0.60713600  1
  O  O21  1  0.67358400  0.15835200  0.10900100  1
  O  O22  1  0.48863000  0.48863000  0.82463400  1
  O  O23  1  0.15835200  0.67358400  0.10900100  1
