# generated using pymatgen
data_Fe4OF7
_symmetry_space_group_name_H-M   'P 1'
_cell_length_a   5.81029835
_cell_length_b   5.81029835
_cell_length_c   9.37469476
_cell_angle_alpha   86.00083012
_cell_angle_beta   86.00083012
_cell_angle_gamma   72.13953559
_symmetry_Int_Tables_number   1
_chemical_formula_structural   Fe4OF7
_chemical_formula_sum   'Fe8 O2 F14'
_cell_volume   300.10962999
_cell_formula_units_Z   2
loop_
 _symmetry_equiv_pos_site_id
 _symmetry_equiv_pos_as_xyz
  1  'x, y, z'
loop_
 _atom_site_type_symbol
 _atom_site_label
 _atom_site_symmetry_multiplicity
 _atom_site_fract_x
 _atom_site_fract_y
 _atom_site_fract_z
 _atom_site_occupancy
  Fe  Fe0  1  0.64348500  0.12710900  0.36487300  1
  Fe  Fe1  1  0.35651500  0.87289100  0.63512700  1
  Fe  Fe2  1  0.22954100  0.77045900  0.25000000  1
  Fe  Fe3  1  0.50000000  0.00000000  0.00000000  1
  Fe  Fe4  1  0.00000000  0.50000000  0.50000000  1
  Fe  Fe5  1  0.12710900  0.64348500  0.86487300  1
  Fe  Fe6  1  0.87289100  0.35651500  0.13512700  1
  Fe  Fe7  1  0.77045900  0.22954100  0.75000000  1
  O  O8  1  0.94548600  0.05451400  0.25000000  1
  O  O9  1  0.05451400  0.94548600  0.75000000  1
  F  F10  1  0.69108500  0.80828300  0.50188200  1
  F  F11  1  0.53414000  0.46586000  0.25000000  1
  F  F12  1  0.30891500  0.19171700  0.49811800  1
  F  F13  1  0.71561700  0.23649200  0.98090800  1
  F  F14  1  0.47983600  0.98172100  0.22620000  1
  F  F15  1  0.23649200  0.71561700  0.48090800  1
  F  F16  1  0.98172100  0.47983600  0.72620000  1
  F  F17  1  0.28438300  0.76350800  0.01909200  1
  F  F18  1  0.52016400  0.01827900  0.77380000  1
  F  F19  1  0.01827900  0.52016400  0.27380000  1
  F  F20  1  0.76350800  0.28438300  0.51909200  1
  F  F21  1  0.19171700  0.30891500  0.99811800  1
  F  F22  1  0.46586000  0.53414000  0.75000000  1
  F  F23  1  0.80828300  0.69108500  0.00188200  1
