# generated using pymatgen
data_Na3FeBPO7
_symmetry_space_group_name_H-M   'P 1'
_cell_length_a   6.69572400
_cell_length_b   5.24472100
_cell_length_c   8.94305675
_cell_angle_alpha   89.05796275
_cell_angle_beta   90.00000000
_cell_angle_gamma   90.00000000
_symmetry_Int_Tables_number   1
_chemical_formula_structural   Na3FeBPO7
_chemical_formula_sum   'Na6 Fe2 B2 P2 O14'
_cell_volume   314.01270279
_cell_formula_units_Z   2
loop_
 _symmetry_equiv_pos_site_id
 _symmetry_equiv_pos_as_xyz
  1  'x, y, z'
loop_
 _atom_site_type_symbol
 _atom_site_label
 _atom_site_symmetry_multiplicity
 _atom_site_fract_x
 _atom_site_fract_y
 _atom_site_fract_z
 _atom_site_occupancy
  Na  Na0  1  0.75000000  0.24318400  0.92453100  1
  Na  Na1  1  0.99811900  0.74991700  0.74781200  1
  Na  Na2  1  0.50188100  0.74991700  0.74781200  1
  Na  Na3  1  0.49811900  0.25008300  0.25218800  1
  Na  Na4  1  0.00188100  0.25008300  0.25218800  1
  Na  Na5  1  0.25000000  0.75681600  0.07546900  1
  Fe  Fe6  1  0.25000000  0.22173300  0.66160200  1
  Fe  Fe7  1  0.75000000  0.77826700  0.33839800  1
  B  B8  1  0.25000000  0.26340400  0.93473500  1
  B  B9  1  0.75000000  0.73659600  0.06526500  1
  P  P10  1  0.75000000  0.28907000  0.57709000  1
  P  P11  1  0.25000000  0.71093000  0.42291000  1
  O  O12  1  0.75000000  0.70607700  0.91642700  1
  O  O13  1  0.25000000  0.02702800  0.86262100  1
  O  O14  1  0.25000000  0.46748000  0.82905200  1
  O  O15  1  0.93575000  0.22267500  0.67448400  1
  O  O16  1  0.56425000  0.22267500  0.67448400  1
  O  O17  1  0.75000000  0.58249300  0.53851300  1
  O  O18  1  0.25000000  0.86150700  0.57033200  1
  O  O19  1  0.75000000  0.13849300  0.42966800  1
  O  O20  1  0.25000000  0.41750700  0.46148700  1
  O  O21  1  0.43575000  0.77732500  0.32551600  1
  O  O22  1  0.06425000  0.77732500  0.32551600  1
  O  O23  1  0.75000000  0.53252000  0.17094800  1
  O  O24  1  0.75000000  0.97297200  0.13737900  1
  O  O25  1  0.25000000  0.29392300  0.08357300  1
