# generated using pymatgen
data_La2HfO5
_symmetry_space_group_name_H-M   'P 1'
_cell_length_a   6.90237858
_cell_length_b   6.90237858
_cell_length_c   7.89887913
_cell_angle_alpha   68.29443448
_cell_angle_beta   68.29443448
_cell_angle_gamma   48.41483504
_symmetry_Int_Tables_number   1
_chemical_formula_structural   La2HfO5
_chemical_formula_sum   'La4 Hf2 O10'
_cell_volume   257.30010482
_cell_formula_units_Z   2
loop_
 _symmetry_equiv_pos_site_id
 _symmetry_equiv_pos_as_xyz
  1  'x, y, z'
loop_
 _atom_site_type_symbol
 _atom_site_label
 _atom_site_symmetry_multiplicity
 _atom_site_fract_x
 _atom_site_fract_y
 _atom_site_fract_z
 _atom_site_occupancy
  La  La0  1  0.36938200  0.34272400  0.76852000  1
  La  La1  1  0.34272400  0.36938200  0.26852000  1
  La  La2  1  0.65727600  0.63061800  0.73148000  1
  La  La3  1  0.63061800  0.65727600  0.23148000  1
  Hf  Hf4  1  0.00000000  0.00000000  0.50000000  1
  Hf  Hf5  1  0.00000000  0.00000000  0.00000000  1
  O  O6  1  0.23993800  0.61062200  0.96707200  1
  O  O7  1  0.61062200  0.23993800  0.46707200  1
  O  O8  1  0.98950800  0.67817800  0.63441500  1
  O  O9  1  0.32182200  0.01049200  0.86558500  1
  O  O10  1  0.67817800  0.98950800  0.13441500  1
  O  O11  1  0.01049200  0.32182200  0.36558500  1
  O  O12  1  0.38937800  0.76006200  0.53292800  1
  O  O13  1  0.84295600  0.15704400  0.75000000  1
  O  O14  1  0.76006200  0.38937800  0.03292800  1
  O  O15  1  0.15704400  0.84295600  0.25000000  1
