# generated using pymatgen
data_Lu(HO)3
_symmetry_space_group_name_H-M   'P 1'
_cell_length_a   10.11121600
_cell_length_b   5.29683400
_cell_length_c   6.16735666
_cell_angle_alpha   84.31539839
_cell_angle_beta   90.00000000
_cell_angle_gamma   90.00000000
_symmetry_Int_Tables_number   1
_chemical_formula_structural   Lu(HO)3
_chemical_formula_sum   'Lu4 H12 O12'
_cell_volume   328.68341047
_cell_formula_units_Z   4
loop_
 _symmetry_equiv_pos_site_id
 _symmetry_equiv_pos_as_xyz
  1  'x, y, z'
loop_
 _atom_site_type_symbol
 _atom_site_label
 _atom_site_symmetry_multiplicity
 _atom_site_fract_x
 _atom_site_fract_y
 _atom_site_fract_z
 _atom_site_occupancy
  Lu  Lu0  1  0.67026700  0.99068000  0.96217500  1
  Lu  Lu1  1  0.17026700  0.00932000  0.53782500  1
  Lu  Lu2  1  0.82973300  0.99068000  0.46217500  1
  Lu  Lu3  1  0.32973300  0.00932000  0.03782500  1
  H  H4  1  0.19339600  0.40969000  0.81018700  1
  H  H5  1  0.97392600  0.75984600  0.80512900  1
  H  H6  1  0.38745000  0.68965000  0.72677800  1
  H  H7  1  0.88745000  0.31035000  0.77322200  1
  H  H8  1  0.47392600  0.24015400  0.69487100  1
  H  H9  1  0.69339600  0.59031000  0.68981300  1
  H  H10  1  0.30660400  0.40969000  0.31018700  1
  H  H11  1  0.52607400  0.75984600  0.30512900  1
  H  H12  1  0.11255000  0.68965000  0.22677800  1
  H  H13  1  0.61255000  0.31035000  0.27322200  1
  H  H14  1  0.02607400  0.24015400  0.19487100  1
  H  H15  1  0.80660400  0.59031000  0.18981300  1
  O  O16  1  0.49375400  0.20877800  0.84969700  1
  O  O17  1  0.18109700  0.22558100  0.82784600  1
  O  O18  1  0.80574700  0.22301400  0.74441200  1
  O  O19  1  0.30574700  0.77698600  0.75558800  1
  O  O20  1  0.68109700  0.77441900  0.67215400  1
  O  O21  1  0.99375400  0.79122200  0.65030300  1
  O  O22  1  0.00624600  0.20877800  0.34969700  1
  O  O23  1  0.31890300  0.22558100  0.32784600  1
  O  O24  1  0.69425300  0.22301400  0.24441200  1
  O  O25  1  0.19425300  0.77698600  0.25558800  1
  O  O26  1  0.81890300  0.77441900  0.17215400  1
  O  O27  1  0.50624600  0.79122200  0.15030300  1
