# generated using pymatgen
data_Cr3O4
_symmetry_space_group_name_H-M   'P 1'
_cell_length_a   5.84866274
_cell_length_b   6.13913651
_cell_length_c   5.84861808
_cell_angle_alpha   118.02027318
_cell_angle_beta   90.98834742
_cell_angle_gamma   117.80369888
_symmetry_Int_Tables_number   1
_chemical_formula_structural   Cr3O4
_chemical_formula_sum   'Cr6 O8'
_cell_volume   156.28723262
_cell_formula_units_Z   2
loop_
 _symmetry_equiv_pos_site_id
 _symmetry_equiv_pos_as_xyz
  1  'x, y, z'
loop_
 _atom_site_type_symbol
 _atom_site_label
 _atom_site_symmetry_multiplicity
 _atom_site_fract_x
 _atom_site_fract_y
 _atom_site_fract_z
 _atom_site_occupancy
  Cr  Cr0  1  0.50000600  0.50006300  0.00003700  1
  Cr  Cr1  1  0.50001300  0.00006700  0.00006200  1
  Cr  Cr2  1  0.99988500  0.49993300  0.49999500  1
  Cr  Cr3  1  0.00013900  0.00002100  0.00009300  1
  Cr  Cr4  1  0.49980200  0.50012700  0.49997200  1
  Cr  Cr5  1  0.50012900  0.99984900  0.49971600  1
  O  O6  1  0.28821500  0.05352000  0.26722200  1
  O  O7  1  0.28625400  0.55348500  0.76537000  1
  O  O8  1  0.71372200  0.44649900  0.23475400  1
  O  O9  1  0.71184200  0.94654100  0.73276600  1
  O  O10  1  0.76433000  0.04799800  0.26928300  1
  O  O11  1  0.72118800  0.45194000  0.71625100  1
  O  O12  1  0.27877900  0.54806700  0.28372800  1
  O  O13  1  0.23569500  0.95189000  0.73075000  1
