# generated using pymatgen
data_Li4Ti3Cr3(CoO8)2
_symmetry_space_group_name_H-M   'P 1'
_cell_length_a   5.81416116
_cell_length_b   5.85478640
_cell_length_c   9.39608333
_cell_angle_alpha   90.00880295
_cell_angle_beta   90.12261502
_cell_angle_gamma   120.23727541
_symmetry_Int_Tables_number   1
_chemical_formula_structural   Li4Ti3Cr3(CoO8)2
_chemical_formula_sum   'Li4 Ti3 Cr3 Co2 O16'
_cell_volume   276.33177685
_cell_formula_units_Z   1
loop_
 _symmetry_equiv_pos_site_id
 _symmetry_equiv_pos_as_xyz
  1  'x, y, z'
loop_
 _atom_site_type_symbol
 _atom_site_label
 _atom_site_symmetry_multiplicity
 _atom_site_fract_x
 _atom_site_fract_y
 _atom_site_fract_z
 _atom_site_occupancy
  Li  Li0  1  0.33666200  0.66823900  0.89290400  1
  Li  Li1  1  0.98993200  0.99490300  0.99472400  1
  Li  Li2  1  0.99985900  0.99983200  0.49830100  1
  Li  Li3  1  0.66600000  0.33311100  0.39559100  1
  Ti  Ti4  1  0.16696900  0.83069900  0.21167300  1
  Ti  Ti5  1  0.16695000  0.33637300  0.21176700  1
  Ti  Ti6  1  0.34047400  0.17004600  0.71586900  1
  Cr  Cr7  1  0.65309300  0.82659400  0.21306400  1
  Cr  Cr8  1  0.82995100  0.65949900  0.70884000  1
  Cr  Cr9  1  0.83007600  0.17047200  0.70858800  1
  Co  Co10  1  0.33386800  0.66709200  0.48406000  1
  Co  Co11  1  0.67230200  0.33607300  0.97987400  1
  O  O12  1  0.17048800  0.83245900  0.60261200  1
  O  O13  1  0.04522900  0.52271700  0.34323700  1
  O  O14  1  0.32513400  0.66252500  0.09979300  1
  O  O15  1  0.99696300  0.99853700  0.31088500  1
  O  O16  1  0.99858000  0.99935500  0.80809700  1
  O  O17  1  0.17031500  0.33829600  0.60272100  1
  O  O18  1  0.47729900  0.95458900  0.34424900  1
  O  O19  1  0.47727600  0.52285800  0.34428700  1
  O  O20  1  0.33825700  0.16907100  0.10287100  1
  O  O21  1  0.66738700  0.83390600  0.60538900  1
  O  O22  1  0.52774300  0.48066000  0.84405400  1
  O  O23  1  0.52786400  0.04696900  0.84392400  1
  O  O24  1  0.66349400  0.33174300  0.59985800  1
  O  O25  1  0.83659300  0.66506300  0.10102800  1
  O  O26  1  0.95466300  0.47719900  0.83854400  1
  O  O27  1  0.83658100  0.17141800  0.10103200  1
