# generated using pymatgen
data_Fe4OF7
_symmetry_space_group_name_H-M   'P 1'
_cell_length_a   10.32496409
_cell_length_b   10.32496409
_cell_length_c   4.92304983
_cell_angle_alpha   88.02903658
_cell_angle_beta   88.02903658
_cell_angle_gamma   34.86578409
_symmetry_Int_Tables_number   1
_chemical_formula_structural   Fe4OF7
_chemical_formula_sum   'Fe8 O2 F14'
_cell_volume   299.82215579
_cell_formula_units_Z   2
loop_
 _symmetry_equiv_pos_site_id
 _symmetry_equiv_pos_as_xyz
  1  'x, y, z'
loop_
 _atom_site_type_symbol
 _atom_site_label
 _atom_site_symmetry_multiplicity
 _atom_site_fract_x
 _atom_site_fract_y
 _atom_site_fract_z
 _atom_site_occupancy
  Fe  Fe0  1  0.87876800  0.87876800  0.48923800  1
  Fe  Fe1  1  0.62229300  0.62229300  0.50981200  1
  Fe  Fe2  1  0.13011800  0.13011800  0.47516200  1
  Fe  Fe3  1  0.37519700  0.37519700  0.49230100  1
  Fe  Fe4  1  0.48427700  0.00957400  0.00974600  1
  Fe  Fe5  1  0.22210500  0.77129900  0.01149700  1
  Fe  Fe6  1  0.00957400  0.48427700  0.00974600  1
  Fe  Fe7  1  0.77129900  0.22210500  0.01149700  1
  O  O8  1  0.94856900  0.94856900  0.21220000  1
  O  O9  1  0.19976600  0.19976600  0.20517600  1
  F  F10  1  0.44804700  0.44804700  0.19885400  1
  F  F11  1  0.69771800  0.69771800  0.20718100  1
  F  F12  1  0.57991700  0.06634000  0.30161400  1
  F  F13  1  0.81865600  0.32821800  0.29996100  1
  F  F14  1  0.06634000  0.57991700  0.30161400  1
  F  F15  1  0.32821800  0.81865600  0.29996100  1
  F  F16  1  0.91913400  0.42697700  0.71085100  1
  F  F17  1  0.42697700  0.91913400  0.71085100  1
  F  F18  1  0.18040900  0.66588400  0.70879700  1
  F  F19  1  0.66588400  0.18040900  0.70879700  1
  F  F20  1  0.54598600  0.54598600  0.81299700  1
  F  F21  1  0.30178600  0.30178600  0.78675000  1
  F  F22  1  0.05390700  0.05390700  0.77431600  1
  F  F23  1  0.79671200  0.79671200  0.80985000  1
