# generated using pymatgen
data_WO3
_symmetry_space_group_name_H-M   'P 1'
_cell_length_a   6.59565640
_cell_length_b   6.59565640
_cell_length_c   6.59565640
_cell_angle_alpha   109.47122063
_cell_angle_beta   109.47122063
_cell_angle_gamma   109.47122063
_symmetry_Int_Tables_number   1
_chemical_formula_structural   WO3
_chemical_formula_sum   'W4 O12'
_cell_volume   220.87785649
_cell_formula_units_Z   4
loop_
 _symmetry_equiv_pos_site_id
 _symmetry_equiv_pos_as_xyz
  1  'x, y, z'
loop_
 _atom_site_type_symbol
 _atom_site_label
 _atom_site_symmetry_multiplicity
 _atom_site_fract_x
 _atom_site_fract_y
 _atom_site_fract_z
 _atom_site_occupancy
  W  W0  1  0.50000000  0.00000000  0.00000000  1
  W  W1  1  0.00000000  0.50000000  0.00000000  1
  W  W2  1  0.50000000  0.50000000  0.50000000  1
  W  W3  1  0.00000000  0.00000000  0.50000000  1
  O  O4  1  0.94044300  0.72187500  0.21856700  1
  O  O5  1  0.27812500  0.78143300  0.05955700  1
  O  O6  1  0.49669200  0.27812500  0.21856700  1
  O  O7  1  0.78143300  0.05955700  0.27812500  1
  O  O8  1  0.72187500  0.78143300  0.50330800  1
  O  O9  1  0.21856700  0.49669200  0.27812500  1
  O  O10  1  0.78143300  0.50330800  0.72187500  1
  O  O11  1  0.27812500  0.21856700  0.49669200  1
  O  O12  1  0.21856700  0.94044300  0.72187500  1
  O  O13  1  0.50330800  0.72187500  0.78143300  1
  O  O14  1  0.72187500  0.21856700  0.94044300  1
  O  O15  1  0.05955700  0.27812500  0.78143300  1
