# generated using pymatgen
data_La2AlIn
_symmetry_space_group_name_H-M   'P 1'
_cell_length_a   11.59054578
_cell_length_b   11.59054578
_cell_length_c   11.80147488
_cell_angle_alpha   60.37060668
_cell_angle_beta   60.37060668
_cell_angle_gamma   61.11189993
_symmetry_Int_Tables_number   1
_chemical_formula_structural   La2AlIn
_chemical_formula_sum   'La2 Al1 In1'
_cell_volume   1136.57338086
_cell_formula_units_Z   1
loop_
 _symmetry_equiv_pos_site_id
 _symmetry_equiv_pos_as_xyz
  1  'x, y, z'
loop_
 _atom_site_type_symbol
 _atom_site_label
 _atom_site_symmetry_multiplicity
 _atom_site_fract_x
 _atom_site_fract_y
 _atom_site_fract_z
 _atom_site_occupancy
  La  La0  1  0.75592600  0.24407400  0.00000000  1
  La  La1  1  0.24407400  0.75592600  0.00000000  1
  Al  Al2  1  0.00000000  0.00000000  0.00000000  1
  In  In3  1  0.50000000  0.50000000  0.00000000  1
