# generated using pymatgen
data_Li4V3Co3(TeO8)2
_symmetry_space_group_name_H-M   'P 1'
_cell_length_a   5.93426904
_cell_length_b   5.93426904
_cell_length_c   10.37017027
_cell_angle_alpha   89.52627455
_cell_angle_beta   89.52627455
_cell_angle_gamma   57.97779660
_symmetry_Int_Tables_number   1
_chemical_formula_structural   Li4V3Co3(TeO8)2
_chemical_formula_sum   'Li4 V3 Co3 Te2 O16'
_cell_volume   309.61088609
_cell_formula_units_Z   1
loop_
 _symmetry_equiv_pos_site_id
 _symmetry_equiv_pos_as_xyz
  1  'x, y, z'
loop_
 _atom_site_type_symbol
 _atom_site_label
 _atom_site_symmetry_multiplicity
 _atom_site_fract_x
 _atom_site_fract_y
 _atom_site_fract_z
 _atom_site_occupancy
  Li  Li0  1  0.33759600  0.33759600  0.90465500  1
  Li  Li1  1  0.00295400  0.00295400  0.99290800  1
  Li  Li2  1  0.00690600  0.00690600  0.48665000  1
  Li  Li3  1  0.66045400  0.66045400  0.40318600  1
  V  V4  1  0.18061200  0.18061200  0.23423100  1
  V  V5  1  0.83874600  0.36147800  0.72156100  1
  V  V6  1  0.36147800  0.83874600  0.72156100  1
  Co  Co7  1  0.63644100  0.18707200  0.21546100  1
  Co  Co8  1  0.18707200  0.63644100  0.21546100  1
  Co  Co9  1  0.82400000  0.82400000  0.70768000  1
  Te  Te10  1  0.34844000  0.34844000  0.49955300  1
  Te  Te11  1  0.67228600  0.67228600  0.01601300  1
  O  O12  1  0.68047400  0.17058100  0.59696600  1
  O  O13  1  0.48136900  0.48136900  0.35209600  1
  O  O14  1  0.31173700  0.31173700  0.10250200  1
  O  O15  1  0.01402800  0.01402800  0.29757300  1
  O  O16  1  0.00575400  0.00575400  0.80204500  1
  O  O17  1  0.17058100  0.68047400  0.59696600  1
  O  O18  1  0.47257800  0.01580000  0.32937900  1
  O  O19  1  0.01580000  0.47257800  0.32937900  1
  O  O20  1  0.83872800  0.83872800  0.10389400  1
  O  O21  1  0.15071800  0.15071800  0.60987100  1
  O  O22  1  0.98814000  0.48685300  0.81863900  1
  O  O23  1  0.48685300  0.98814000  0.81863900  1
  O  O24  1  0.65339300  0.65339300  0.60041700  1
  O  O25  1  0.83301300  0.33197800  0.10435400  1
  O  O26  1  0.51343500  0.51343500  0.82115600  1
  O  O27  1  0.33197800  0.83301300  0.10435400  1
