# generated using pymatgen
data_Ba3GeO5
_symmetry_space_group_name_H-M   'P 1'
_cell_length_a   10.71486060
_cell_length_b   10.71486060
_cell_length_c   10.71486092
_cell_angle_alpha   44.24787767
_cell_angle_beta   44.24787767
_cell_angle_gamma   44.24787701
_symmetry_Int_Tables_number   1
_chemical_formula_structural   Ba3GeO5
_chemical_formula_sum   'Ba9 Ge3 O15'
_cell_volume   544.27287308
_cell_formula_units_Z   3
loop_
 _symmetry_equiv_pos_site_id
 _symmetry_equiv_pos_as_xyz
  1  'x, y, z'
loop_
 _atom_site_type_symbol
 _atom_site_label
 _atom_site_symmetry_multiplicity
 _atom_site_fract_x
 _atom_site_fract_y
 _atom_site_fract_z
 _atom_site_occupancy
  Ba  Ba0  1  0.28562400  0.75504100  0.28562400  1
  Ba  Ba1  1  0.71829700  0.71829700  0.23430700  1
  Ba  Ba2  1  0.75504100  0.28562400  0.28562400  1
  Ba  Ba3  1  0.01009800  0.49672900  0.49672900  1
  Ba  Ba4  1  0.23430700  0.71829700  0.71829700  1
  Ba  Ba5  1  0.28562400  0.28562400  0.75504100  1
  Ba  Ba6  1  0.71829700  0.23430700  0.71829700  1
  Ba  Ba7  1  0.49672900  0.01009800  0.49672900  1
  Ba  Ba8  1  0.49672900  0.49672900  0.01009800  1
  Ge  Ge9  1  0.99899700  0.99899700  0.99899700  1
  Ge  Ge10  1  0.78084500  0.78084500  0.78084500  1
  Ge  Ge11  1  0.21501600  0.21501600  0.21501600  1
  O  O12  1  0.35635600  0.99496700  0.35635600  1
  O  O13  1  0.62292100  0.62292100  0.62292100  1
  O  O14  1  0.64024700  0.00291900  0.64024700  1
  O  O15  1  0.64024700  0.64024700  0.00291900  1
  O  O16  1  0.93768600  0.93768600  0.93768600  1
  O  O17  1  0.84223800  0.84223800  0.84223800  1
  O  O18  1  0.99496700  0.35635600  0.35635600  1
  O  O19  1  0.00291900  0.64024700  0.64024700  1
  O  O20  1  0.15276900  0.15276900  0.15276900  1
  O  O21  1  0.13975200  0.77496600  0.13975200  1
  O  O22  1  0.13975200  0.13975200  0.77496600  1
  O  O23  1  0.35635600  0.35635600  0.99496700  1
  O  O24  1  0.38261400  0.38261400  0.38261400  1
  O  O25  1  0.49975000  0.49975000  0.49975000  1
  O  O26  1  0.77496600  0.13975200  0.13975200  1
