# generated using pymatgen
data_Al3Cr3(SbO8)2
_symmetry_space_group_name_H-M   'P 1'
_cell_length_a   5.78129747
_cell_length_b   5.78129747
_cell_length_c   9.29624099
_cell_angle_alpha   89.59433244
_cell_angle_beta   89.59433244
_cell_angle_gamma   60.41500052
_symmetry_Int_Tables_number   1
_chemical_formula_structural   Al3Cr3(SbO8)2
_chemical_formula_sum   'Al3 Cr3 Sb2 O16'
_cell_volume   270.19359888
_cell_formula_units_Z   1
loop_
 _symmetry_equiv_pos_site_id
 _symmetry_equiv_pos_as_xyz
  1  'x, y, z'
loop_
 _atom_site_type_symbol
 _atom_site_label
 _atom_site_symmetry_multiplicity
 _atom_site_fract_x
 _atom_site_fract_y
 _atom_site_fract_z
 _atom_site_occupancy
  Al  Al0  1  0.16756000  0.16756000  0.79721400  1
  Al  Al1  1  0.83112100  0.33461000  0.29600400  1
  Al  Al2  1  0.33461000  0.83112100  0.29600400  1
  Cr  Cr3  1  0.66171400  0.16622000  0.78308400  1
  Cr  Cr4  1  0.16622000  0.66171400  0.78308400  1
  Cr  Cr5  1  0.83017600  0.83017600  0.27524400  1
  Sb  Sb6  1  0.33020300  0.33020300  0.50559500  1
  Sb  Sb7  1  0.66128900  0.66128900  0.00937100  1
  O  O8  1  0.66659700  0.17060600  0.39650500  1
  O  O9  1  0.48044700  0.48044700  0.65966800  1
  O  O10  1  0.33468700  0.33468700  0.89055000  1
  O  O11  1  0.00372300  0.00372300  0.69961800  1
  O  O12  1  0.99842800  0.99842800  0.19890700  1
  O  O13  1  0.17060600  0.66659700  0.39650500  1
  O  O14  1  0.47458500  0.04495900  0.66482600  1
  O  O15  1  0.04495900  0.47458500  0.66482600  1
  O  O16  1  0.83176500  0.83176500  0.89783800  1
  O  O17  1  0.16347400  0.16347400  0.39393700  1
  O  O18  1  0.96035100  0.52564200  0.16204800  1
  O  O19  1  0.52564200  0.96035100  0.16204800  1
  O  O20  1  0.67450100  0.67450100  0.38886000  1
  O  O21  1  0.83857900  0.33040100  0.89758000  1
  O  O22  1  0.52556400  0.52556400  0.16981100  1
  O  O23  1  0.33040100  0.83857900  0.89758000  1
