# generated using pymatgen
data_La2SnHg
_symmetry_space_group_name_H-M   'P 1'
_cell_length_a   12.59351176
_cell_length_b   12.59351176
_cell_length_c   12.59351176
_cell_angle_alpha   122.64844231
_cell_angle_beta   119.02404844
_cell_angle_gamma   88.58696897
_symmetry_Int_Tables_number   1
_chemical_formula_structural   La2SnHg
_chemical_formula_sum   'La2 Sn1 Hg1'
_cell_volume   1392.18628698
_cell_formula_units_Z   1
loop_
 _symmetry_equiv_pos_site_id
 _symmetry_equiv_pos_as_xyz
  1  'x, y, z'
loop_
 _atom_site_type_symbol
 _atom_site_label
 _atom_site_symmetry_multiplicity
 _atom_site_fract_x
 _atom_site_fract_y
 _atom_site_fract_z
 _atom_site_occupancy
  La  La0  1  0.00000000  0.24463400  0.24463400  1
  La  La1  1  0.00000000  0.75536600  0.75536600  1
  Sn  Sn2  1  0.00000000  0.00000000  0.00000000  1
  Hg  Hg3  1  0.00000000  0.50000000  0.50000000  1
