# generated using pymatgen
data_Sr3Ta4(O6F)2
_symmetry_space_group_name_H-M   'P 1'
_cell_length_a   7.48843483
_cell_length_b   7.48843483
_cell_length_c   7.48843497
_cell_angle_alpha   61.16398802
_cell_angle_beta   61.16398802
_cell_angle_gamma   61.16399414
_symmetry_Int_Tables_number   1
_chemical_formula_structural   Sr3Ta4(O6F)2
_chemical_formula_sum   'Sr3 Ta4 O12 F2'
_cell_volume   304.70931504
_cell_formula_units_Z   1
loop_
 _symmetry_equiv_pos_site_id
 _symmetry_equiv_pos_as_xyz
  1  'x, y, z'
loop_
 _atom_site_type_symbol
 _atom_site_label
 _atom_site_symmetry_multiplicity
 _atom_site_fract_x
 _atom_site_fract_y
 _atom_site_fract_z
 _atom_site_occupancy
  Sr  Sr0  1  0.50000000  0.50000000  0.00000000  1
  Sr  Sr1  1  0.00000000  0.50000000  0.50000000  1
  Sr  Sr2  1  0.50000000  0.00000000  0.50000000  1
  Ta  Ta3  1  0.00000000  0.50000000  0.00000000  1
  Ta  Ta4  1  0.00000000  0.00000000  0.00000000  1
  Ta  Ta5  1  0.50000000  0.00000000  0.00000000  1
  Ta  Ta6  1  0.00000000  0.00000000  0.50000000  1
  O  O7  1  0.06712800  0.68581500  0.06712800  1
  O  O8  1  0.93287200  0.31418500  0.93287200  1
  O  O9  1  0.69077900  0.69077900  0.05179600  1
  O  O10  1  0.05179600  0.69077900  0.69077900  1
  O  O11  1  0.68581500  0.06712800  0.06712800  1
  O  O12  1  0.06712800  0.06712800  0.68581500  1
  O  O13  1  0.69077900  0.05179600  0.69077900  1
  O  O14  1  0.94820400  0.30922100  0.30922100  1
  O  O15  1  0.93287200  0.93287200  0.31418500  1
  O  O16  1  0.30922100  0.30922100  0.94820400  1
  O  O17  1  0.31418500  0.93287200  0.93287200  1
  O  O18  1  0.30922100  0.94820400  0.30922100  1
  F  F19  1  0.62498600  0.62498600  0.62498600  1
  F  F20  1  0.37501400  0.37501400  0.37501400  1
