# generated using pymatgen
data_TePHO5
_symmetry_space_group_name_H-M   'P 1'
_cell_length_a   5.48601985
_cell_length_b   7.99246659
_cell_length_c   5.42154604
_cell_angle_alpha   110.86013393
_cell_angle_beta   96.34664029
_cell_angle_gamma   106.49799713
_symmetry_Int_Tables_number   1
_chemical_formula_structural   TePHO5
_chemical_formula_sum   'Te2 P2 H2 O10'
_cell_volume   206.96168642
_cell_formula_units_Z   2
loop_
 _symmetry_equiv_pos_site_id
 _symmetry_equiv_pos_as_xyz
  1  'x, y, z'
loop_
 _atom_site_type_symbol
 _atom_site_label
 _atom_site_symmetry_multiplicity
 _atom_site_fract_x
 _atom_site_fract_y
 _atom_site_fract_z
 _atom_site_occupancy
  Te  Te0  1  0.00000000  0.50000000  0.00000000  1
  Te  Te1  1  0.00000000  0.00000000  0.00000000  1
  P  P2  1  0.35607500  0.22648700  0.66339800  1
  P  P3  1  0.64392500  0.77351300  0.33660200  1
  H  H4  1  0.03843900  0.33788600  0.36822100  1
  H  H5  1  0.96156100  0.66211400  0.63177900  1
  O  O6  1  0.04866100  0.71766200  0.83084300  1
  O  O7  1  0.19129200  0.36205000  0.68579900  1
  O  O8  1  0.35521000  0.66011100  0.31126600  1
  O  O9  1  0.24918900  0.05791500  0.37762300  1
  O  O10  1  0.33916000  0.15012500  0.88827000  1
  O  O11  1  0.66084000  0.84987500  0.11173000  1
  O  O12  1  0.75081100  0.94208500  0.62237700  1
  O  O13  1  0.64479000  0.33988900  0.68873400  1
  O  O14  1  0.80870800  0.63795000  0.31420100  1
  O  O15  1  0.95133900  0.28233800  0.16915700  1
