# generated using pymatgen
data_Mn3(OF)2
_symmetry_space_group_name_H-M   'P 1'
_cell_length_a   5.88736227
_cell_length_b   6.16004428
_cell_length_c   5.93085400
_cell_angle_alpha   90.00349077
_cell_angle_beta   89.99919553
_cell_angle_gamma   118.08711854
_symmetry_Int_Tables_number   1
_chemical_formula_structural   Mn3(OF)2
_chemical_formula_sum   'Mn6 O4 F4'
_cell_volume   189.76014187
_cell_formula_units_Z   2
loop_
 _symmetry_equiv_pos_site_id
 _symmetry_equiv_pos_as_xyz
  1  'x, y, z'
loop_
 _atom_site_type_symbol
 _atom_site_label
 _atom_site_symmetry_multiplicity
 _atom_site_fract_x
 _atom_site_fract_y
 _atom_site_fract_z
 _atom_site_occupancy
  Mn  Mn0  1  0.99999600  0.99999700  0.99999900  1
  Mn  Mn1  1  0.77633100  0.65739900  0.56519500  1
  Mn  Mn2  1  0.22366900  0.34260500  0.43480200  1
  Mn  Mn3  1  0.49999800  0.99999800  0.49999900  1
  Mn  Mn4  1  0.72363300  0.34260000  0.06516100  1
  Mn  Mn5  1  0.27637500  0.65740400  0.93485100  1
  O  O6  1  0.57781300  0.33782800  0.37903900  1
  O  O7  1  0.92218800  0.66217300  0.87905400  1
  O  O8  1  0.07781300  0.33782600  0.12094800  1
  O  O9  1  0.42218600  0.66217000  0.62095500  1
  F  F10  1  0.90397700  0.11281200  0.65202100  1
  F  F11  1  0.40398300  0.11280900  0.84797800  1
  F  F12  1  0.59601800  0.88719300  0.15202000  1
  F  F13  1  0.09601900  0.88718800  0.34797800  1
