# generated using pymatgen
data_TiMn3O8
_symmetry_space_group_name_H-M   'P 1'
_cell_length_a   5.96920726
_cell_length_b   5.96920726
_cell_length_c   5.96920658
_cell_angle_alpha   59.13434181
_cell_angle_beta   59.13434181
_cell_angle_gamma   59.13434101
_symmetry_Int_Tables_number   1
_chemical_formula_structural   TiMn3O8
_chemical_formula_sum   'Ti1 Mn3 O8'
_cell_volume   147.42814900
_cell_formula_units_Z   1
loop_
 _symmetry_equiv_pos_site_id
 _symmetry_equiv_pos_as_xyz
  1  'x, y, z'
loop_
 _atom_site_type_symbol
 _atom_site_label
 _atom_site_symmetry_multiplicity
 _atom_site_fract_x
 _atom_site_fract_y
 _atom_site_fract_z
 _atom_site_occupancy
  Ti  Ti0  1  0.00000000  0.00000000  0.00000000  1
  Mn  Mn1  1  0.50000000  0.50000000  0.00000000  1
  Mn  Mn2  1  0.50000000  0.00000000  0.50000000  1
  Mn  Mn3  1  0.00000000  0.50000000  0.50000000  1
  O  O4  1  0.73188100  0.73188100  0.73188100  1
  O  O5  1  0.23472100  0.23472100  0.72654900  1
  O  O6  1  0.23472100  0.72654900  0.23472100  1
  O  O7  1  0.26811900  0.26811900  0.26811900  1
  O  O8  1  0.72654900  0.23472100  0.23472100  1
  O  O9  1  0.76527900  0.76527900  0.27345100  1
  O  O10  1  0.76527900  0.27345100  0.76527900  1
  O  O11  1  0.27345100  0.76527900  0.76527900  1
