# generated using pymatgen
data_TlCuPd2
_symmetry_space_group_name_H-M   'P 1'
_cell_length_a   11.02951276
_cell_length_b   11.02951276
_cell_length_c   11.02951276
_cell_angle_alpha   126.66490277
_cell_angle_beta   117.81939979
_cell_angle_gamma   86.34089533
_symmetry_Int_Tables_number   1
_chemical_formula_structural   TlCuPd2
_chemical_formula_sum   'Tl1 Cu1 Pd2'
_cell_volume   907.17247558
_cell_formula_units_Z   1
loop_
 _symmetry_equiv_pos_site_id
 _symmetry_equiv_pos_as_xyz
  1  'x, y, z'
loop_
 _atom_site_type_symbol
 _atom_site_label
 _atom_site_symmetry_multiplicity
 _atom_site_fract_x
 _atom_site_fract_y
 _atom_site_fract_z
 _atom_site_occupancy
  Tl  Tl0  1  0.00000000  0.50000000  0.50000000  1
  Cu  Cu1  1  0.00000000  0.00000000  0.00000000  1
  Pd  Pd2  1  0.00000000  0.24213200  0.24213200  1
  Pd  Pd3  1  0.00000000  0.75786800  0.75786800  1
