# generated using pymatgen
data_V3NiO8
_symmetry_space_group_name_H-M   'P 1'
_cell_length_a   5.39242900
_cell_length_b   5.65172092
_cell_length_c   7.09847969
_cell_angle_alpha   88.89919897
_cell_angle_beta   89.25771890
_cell_angle_gamma   89.86401199
_symmetry_Int_Tables_number   1
_chemical_formula_structural   V3NiO8
_chemical_formula_sum   'V3 Ni1 O8'
_cell_volume   216.27827708
_cell_formula_units_Z   1
loop_
 _symmetry_equiv_pos_site_id
 _symmetry_equiv_pos_as_xyz
  1  'x, y, z'
loop_
 _atom_site_type_symbol
 _atom_site_label
 _atom_site_symmetry_multiplicity
 _atom_site_fract_x
 _atom_site_fract_y
 _atom_site_fract_z
 _atom_site_occupancy
  V  V0  1  0.00846400  0.92382100  0.87798600  1
  V  V1  1  0.50002000  0.57650500  0.37181700  1
  V  V2  1  0.99745900  0.42755500  0.62866800  1
  Ni  Ni3  1  0.49752800  0.08557500  0.12436300  1
  O  O4  1  0.31582600  0.94682400  0.91916600  1
  O  O5  1  0.43557000  0.86640100  0.33366400  1
  O  O6  1  0.92454700  0.62295100  0.81926400  1
  O  O7  1  0.82263000  0.53469300  0.42911000  1
  O  O8  1  0.32352100  0.46297500  0.57106000  1
  O  O9  1  0.43775000  0.41848300  0.17732900  1
  O  O10  1  0.93964500  0.11795700  0.67989900  1
  O  O11  1  0.84544000  0.01626000  0.06767800  1
