# generated using pymatgen
data_MgScTl2
_symmetry_space_group_name_H-M   'P 1'
_cell_length_a   12.26128137
_cell_length_b   12.26128137
_cell_length_c   12.26128137
_cell_angle_alpha   122.85591477
_cell_angle_beta   119.31958094
_cell_angle_gamma   88.15425746
_symmetry_Int_Tables_number   1
_chemical_formula_structural   MgScTl2
_chemical_formula_sum   'Mg1 Sc1 Tl2'
_cell_volume   1279.70412938
_cell_formula_units_Z   1
loop_
 _symmetry_equiv_pos_site_id
 _symmetry_equiv_pos_as_xyz
  1  'x, y, z'
loop_
 _atom_site_type_symbol
 _atom_site_label
 _atom_site_symmetry_multiplicity
 _atom_site_fract_x
 _atom_site_fract_y
 _atom_site_fract_z
 _atom_site_occupancy
  Mg  Mg0  1  0.00000000  0.00000000  0.00000000  1
  Sc  Sc1  1  0.00000000  0.50000000  0.50000000  1
  Tl  Tl2  1  0.00000000  0.25003500  0.25003500  1
  Tl  Tl3  1  0.00000000  0.74996500  0.74996500  1
