# generated using pymatgen
data_KCePCO7
_symmetry_space_group_name_H-M   'P 1'
_cell_length_a   7.09232100
_cell_length_b   5.81836900
_cell_length_c   10.19428682
_cell_angle_alpha   89.51527005
_cell_angle_beta   90.00000000
_cell_angle_gamma   90.00000000
_symmetry_Int_Tables_number   1
_chemical_formula_structural   KCePCO7
_chemical_formula_sum   'K2 Ce2 P2 C2 O14'
_cell_volume   420.65974140
_cell_formula_units_Z   2
loop_
 _symmetry_equiv_pos_site_id
 _symmetry_equiv_pos_as_xyz
  1  'x, y, z'
loop_
 _atom_site_type_symbol
 _atom_site_label
 _atom_site_symmetry_multiplicity
 _atom_site_fract_x
 _atom_site_fract_y
 _atom_site_fract_z
 _atom_site_occupancy
  K  K0  1  0.54309800  0.75098400  0.78119300  1
  K  K1  1  0.04309800  0.24901600  0.21880700  1
  Ce  Ce2  1  0.22503700  0.21866400  0.65025800  1
  Ce  Ce3  1  0.72503700  0.78133600  0.34974200  1
  P  P4  1  0.73277800  0.28124300  0.56464100  1
  P  P5  1  0.23277800  0.71875700  0.43535900  1
  C  C6  1  0.26759900  0.27442800  0.91588800  1
  C  C7  1  0.76759900  0.72557200  0.08411200  1
  O  O8  1  0.77684900  0.69419100  0.96463000  1
  O  O9  1  0.26157800  0.06925300  0.85825600  1
  O  O10  1  0.26092700  0.44627900  0.82654100  1
  O  O11  1  0.90898000  0.23018900  0.65022800  1
  O  O12  1  0.55240900  0.21739800  0.64258800  1
  O  O13  1  0.24560000  0.86324800  0.56353000  1
  O  O14  1  0.72729600  0.54187400  0.52721700  1
  O  O15  1  0.22729600  0.45812600  0.47278300  1
  O  O16  1  0.74560000  0.13675200  0.43647000  1
  O  O17  1  0.05240900  0.78260200  0.35741200  1
  O  O18  1  0.40898000  0.76981100  0.34977200  1
  O  O19  1  0.76092700  0.55372100  0.17345900  1
  O  O20  1  0.76157800  0.93074700  0.14174400  1
  O  O21  1  0.27684900  0.30580900  0.03537000  1
