# generated using pymatgen
data_LuAlO3
_symmetry_space_group_name_H-M   'P 1'
_cell_length_a   6.48035130
_cell_length_b   6.48035130
_cell_length_c   10.24609600
_cell_angle_alpha   90.00000000
_cell_angle_beta   90.00000000
_cell_angle_gamma   120.22006393
_symmetry_Int_Tables_number   1
_chemical_formula_structural   LuAlO3
_chemical_formula_sum   'Lu6 Al6 O18'
_cell_volume   371.80807887
_cell_formula_units_Z   6
loop_
 _symmetry_equiv_pos_site_id
 _symmetry_equiv_pos_as_xyz
  1  'x, y, z'
loop_
 _atom_site_type_symbol
 _atom_site_label
 _atom_site_symmetry_multiplicity
 _atom_site_fract_x
 _atom_site_fract_y
 _atom_site_fract_z
 _atom_site_occupancy
  Lu  Lu0  1  0.83143000  0.16857000  0.50000000  1
  Lu  Lu1  1  0.83143000  0.16857000  0.00000000  1
  Lu  Lu2  1  0.16857000  0.83143000  0.50000000  1
  Lu  Lu3  1  0.16857000  0.83143000  0.00000000  1
  Lu  Lu4  1  0.50000000  0.50000000  0.00000000  1
  Lu  Lu5  1  0.50000000  0.50000000  0.50000000  1
  Al  Al6  1  0.55624400  0.83432100  0.25000000  1
  Al  Al7  1  0.16567900  0.44375600  0.75000000  1
  Al  Al8  1  0.83432100  0.55624400  0.25000000  1
  Al  Al9  1  0.44375600  0.16567900  0.75000000  1
  Al  Al10  1  0.88171600  0.88171600  0.75000000  1
  Al  Al11  1  0.11828400  0.11828400  0.25000000  1
  O  O12  1  0.89277300  0.16266500  0.75000000  1
  O  O13  1  0.83733500  0.10722600  0.25000000  1
  O  O14  1  0.47939700  0.83363900  0.08598900  1
  O  O15  1  0.47939700  0.83363900  0.41401100  1
  O  O16  1  0.16636100  0.52060300  0.58598900  1
  O  O17  1  0.16636100  0.52060300  0.91401100  1
  O  O18  1  0.83363900  0.47939700  0.08598900  1
  O  O19  1  0.83363900  0.47939700  0.41401100  1
  O  O20  1  0.52060300  0.16636100  0.58598900  1
  O  O21  1  0.52060300  0.16636100  0.91401100  1
  O  O22  1  0.10722700  0.83733500  0.25000000  1
  O  O23  1  0.16266500  0.89277400  0.75000000  1
  O  O24  1  0.44196300  0.44196300  0.75000000  1
  O  O25  1  0.81452500  0.81452500  0.58102700  1
  O  O26  1  0.81452500  0.81452500  0.91897300  1
  O  O27  1  0.18547500  0.18547500  0.08102700  1
  O  O28  1  0.18547500  0.18547500  0.41897300  1
  O  O29  1  0.55803700  0.55803700  0.25000000  1
