# generated using pymatgen
data_Gd2V2O7
_symmetry_space_group_name_H-M   'P 1'
_cell_length_a   6.84733455
_cell_length_b   7.04795991
_cell_length_c   7.04266374
_cell_angle_alpha   85.07030676
_cell_angle_beta   62.92458867
_cell_angle_gamma   83.61944307
_symmetry_Int_Tables_number   1
_chemical_formula_structural   Gd2V2O7
_chemical_formula_sum   'Gd4 V4 O14'
_cell_volume   300.51471621
_cell_formula_units_Z   2
loop_
 _symmetry_equiv_pos_site_id
 _symmetry_equiv_pos_as_xyz
  1  'x, y, z'
loop_
 _atom_site_type_symbol
 _atom_site_label
 _atom_site_symmetry_multiplicity
 _atom_site_fract_x
 _atom_site_fract_y
 _atom_site_fract_z
 _atom_site_occupancy
  Gd  Gd0  1  0.27117100  0.57219800  0.26421100  1
  Gd  Gd1  1  0.25363400  0.15338000  0.67440700  1
  Gd  Gd2  1  0.74636600  0.84662000  0.32559300  1
  Gd  Gd3  1  0.72882900  0.42780200  0.73578900  1
  V  V4  1  0.27436700  0.06553100  0.15491600  1
  V  V5  1  0.19591600  0.66451700  0.77837500  1
  V  V6  1  0.80408400  0.33548300  0.22162500  1
  V  V7  1  0.72563300  0.93446900  0.84508400  1
  O  O8  1  0.05090200  0.19229500  0.05875700  1
  O  O9  1  0.10239600  0.85884800  0.25899300  1
  O  O10  1  0.25803400  0.23409100  0.32857400  1
  O  O11  1  0.12790100  0.48569100  0.64233000  1
  O  O12  1  0.52654900  0.88695400  0.13852600  1
  O  O13  1  0.36621500  0.83151900  0.57582900  1
  O  O14  1  0.64361700  0.46078100  0.09791400  1
  O  O15  1  0.35638300  0.53921900  0.90208600  1
  O  O16  1  0.63378500  0.16848100  0.42417100  1
  O  O17  1  0.47345100  0.11304600  0.86147400  1
  O  O18  1  0.87209900  0.51430900  0.35767000  1
  O  O19  1  0.74196600  0.76590900  0.67142600  1
  O  O20  1  0.89760400  0.14115200  0.74100700  1
  O  O21  1  0.94909800  0.80770500  0.94124300  1
