# generated using pymatgen
data_Ni(TeO3)4
_symmetry_space_group_name_H-M   'P 1'
_cell_length_a   9.18205250
_cell_length_b   9.22591321
_cell_length_c   12.23876348
_cell_angle_alpha   99.46659895
_cell_angle_beta   72.80471520
_cell_angle_gamma   67.86254509
_symmetry_Int_Tables_number   1
_chemical_formula_structural   Ni(TeO3)4
_chemical_formula_sum   'Ni4 Te16 O48'
_cell_volume   871.70099412
_cell_formula_units_Z   4
loop_
 _symmetry_equiv_pos_site_id
 _symmetry_equiv_pos_as_xyz
  1  'x, y, z'
loop_
 _atom_site_type_symbol
 _atom_site_label
 _atom_site_symmetry_multiplicity
 _atom_site_fract_x
 _atom_site_fract_y
 _atom_site_fract_z
 _atom_site_occupancy
  Ni  Ni0  1  0.49885500  0.78897200  0.29690100  1
  Ni  Ni1  1  0.74898100  0.53892900  0.79687100  1
  Ni  Ni2  1  0.99893500  0.28882300  0.29695900  1
  Ni  Ni3  1  0.24905500  0.03875900  0.79683500  1
  Te  Te4  1  0.49364000  0.48906100  0.99243200  1
  Te  Te5  1  0.99358600  0.98907100  0.99246400  1
  Te  Te6  1  0.24373400  0.73909600  0.49243800  1
  Te  Te7  1  0.74367500  0.23910400  0.49247700  1
  Te  Te8  1  0.63112700  0.87074500  0.73552600  1
  Te  Te9  1  0.13107700  0.37070900  0.73554500  1
  Te  Te10  1  0.38116000  0.12072800  0.23551400  1
  Te  Te11  1  0.88113400  0.62067800  0.23554600  1
  Te  Te12  1  0.24713000  0.26079200  0.99896600  1
  Te  Te13  1  0.74714300  0.76080100  0.99902000  1
  Te  Te14  1  0.99700900  0.51105500  0.49898600  1
  Te  Te15  1  0.49701400  0.01107600  0.49901400  1
  Te  Te16  1  0.87834600  0.10752200  0.73612100  1
  Te  Te17  1  0.37834400  0.60749100  0.73611900  1
  Te  Te18  1  0.62830800  0.35757100  0.23614800  1
  Te  Te19  1  0.12832900  0.85748700  0.23612600  1
  O  O20  1  0.67621600  0.73940900  0.37660800  1
  O  O21  1  0.17623700  0.23938300  0.37663100  1
  O  O22  1  0.42620200  0.98943400  0.87668700  1
  O  O23  1  0.92613600  0.48948600  0.87668700  1
  O  O24  1  0.69311400  0.05675600  0.49600500  1
  O  O25  1  0.19312400  0.55675500  0.49599700  1
  O  O26  1  0.44312500  0.30668100  0.99599800  1
  O  O27  1  0.94314300  0.80666400  0.99599400  1
  O  O28  1  0.88607300  0.16913400  0.58775200  1
  O  O29  1  0.38607100  0.66914600  0.58774600  1
  O  O30  1  0.63599500  0.41923500  0.08778300  1
  O  O31  1  0.13598900  0.91924700  0.08779900  1
  O  O32  1  0.47552500  0.94244400  0.65166600  1
  O  O33  1  0.97550500  0.44245800  0.65169700  1
  O  O34  1  0.22546400  0.19249900  0.15170600  1
  O  O35  1  0.72548200  0.69250200  0.15169100  1
  O  O36  1  0.04044200  0.87587300  0.64125900  1
  O  O37  1  0.54042300  0.37585300  0.64127300  1
  O  O38  1  0.79035800  0.12586700  0.14130300  1
  O  O39  1  0.29039800  0.62585000  0.14127500  1
  O  O40  1  0.68432900  0.05852800  0.74301800  1
  O  O41  1  0.18432000  0.55846500  0.74301600  1
  O  O42  1  0.43431400  0.30852000  0.24303900  1
  O  O43  1  0.93432600  0.80851000  0.24303700  1
  O  O44  1  0.07368100  0.15758000  0.72739500  1
  O  O45  1  0.57363400  0.65763500  0.72736700  1
  O  O46  1  0.82367300  0.40758000  0.22734300  1
  O  O47  1  0.32366700  0.90763100  0.22733200  1
  O  O48  1  0.70834200  0.34212000  0.83072700  1
  O  O49  1  0.20831500  0.84200100  0.83075800  1
  O  O50  1  0.45826700  0.59222400  0.33071900  1
  O  O51  1  0.95825600  0.09209400  0.33074300  1
  O  O52  1  0.27002200  0.25812800  0.81173900  1
  O  O53  1  0.77003200  0.75824700  0.81171900  1
  O  O54  1  0.02007000  0.50815100  0.31176500  1
  O  O55  1  0.52005900  0.00825700  0.31175500  1
  O  O56  1  0.86253300  0.04824900  0.88618100  1
  O  O57  1  0.36254400  0.54825300  0.88618700  1
  O  O58  1  0.61258200  0.29824500  0.38617000  1
  O  O59  1  0.11258700  0.79826200  0.38617100  1
  O  O60  1  0.06966900  0.15075300  0.96906100  1
  O  O61  1  0.56960400  0.65084200  0.96909500  1
  O  O62  1  0.81957500  0.40090700  0.46915900  1
  O  O63  1  0.31956700  0.90095000  0.46915100  1
  O  O64  1  0.06113900  0.49290200  0.07773900  1
  O  O65  1  0.56111700  0.99291300  0.07774900  1
  O  O66  1  0.81109600  0.74305300  0.57774000  1
  O  O67  1  0.31108300  0.24304900  0.57775800  1
