# generated using pymatgen
data_AlNiRh2
_symmetry_space_group_name_H-M   'P 1'
_cell_length_a   9.92916784
_cell_length_b   9.92916784
_cell_length_c   9.92916784
_cell_angle_alpha   125.19291407
_cell_angle_beta   118.76951641
_cell_angle_gamma   86.69686629
_symmetry_Int_Tables_number   1
_chemical_formula_structural   AlNiRh2
_chemical_formula_sum   'Al1 Ni1 Rh2'
_cell_volume   667.41309397
_cell_formula_units_Z   1
loop_
 _symmetry_equiv_pos_site_id
 _symmetry_equiv_pos_as_xyz
  1  'x, y, z'
loop_
 _atom_site_type_symbol
 _atom_site_label
 _atom_site_symmetry_multiplicity
 _atom_site_fract_x
 _atom_site_fract_y
 _atom_site_fract_z
 _atom_site_occupancy
  Al  Al0  1  0.00000000  0.00000000  0.00000000  1
  Ni  Ni1  1  0.00000000  0.50000000  0.50000000  1
  Rh  Rh2  1  0.00000000  0.25273500  0.25273500  1
  Rh  Rh3  1  0.00000000  0.74726500  0.74726500  1
