# generated using pymatgen
data_Li6VCoP2(CO7)2
_symmetry_space_group_name_H-M   'P 1'
_cell_length_a   8.23422567
_cell_length_b   8.23501962
_cell_length_c   8.49770029
_cell_angle_alpha   93.83766666
_cell_angle_beta   86.15275695
_cell_angle_gamma   74.80943017
_symmetry_Int_Tables_number   1
_chemical_formula_structural   Li6VCoP2(CO7)2
_chemical_formula_sum   'Li12 V2 Co2 P4 C4 O28'
_cell_volume   552.69295895
_cell_formula_units_Z   2
loop_
 _symmetry_equiv_pos_site_id
 _symmetry_equiv_pos_as_xyz
  1  'x, y, z'
loop_
 _atom_site_type_symbol
 _atom_site_label
 _atom_site_symmetry_multiplicity
 _atom_site_fract_x
 _atom_site_fract_y
 _atom_site_fract_z
 _atom_site_occupancy
  Li  Li0  1  0.52194700  0.72815400  0.10584600  1
  Li  Li1  1  0.02182400  0.22808100  0.10581400  1
  Li  Li2  1  0.47719500  0.27284800  0.89621000  1
  Li  Li3  1  0.97715600  0.77287100  0.89620300  1
  Li  Li4  1  0.14510300  0.87715300  0.27783700  1
  Li  Li5  1  0.64508600  0.37719000  0.27788700  1
  Li  Li6  1  0.37284500  0.10493600  0.27790100  1
  Li  Li7  1  0.87280100  0.60492200  0.27791200  1
  Li  Li8  1  0.62619500  0.89230100  0.72371500  1
  Li  Li9  1  0.12628200  0.39240500  0.72359700  1
  Li  Li10  1  0.85772000  0.12361700  0.72363900  1
  Li  Li11  1  0.35773100  0.62338400  0.72344100  1
  V  V12  1  0.77068400  0.97931400  0.32717300  1
  V  V13  1  0.27056300  0.47947300  0.32718400  1
  Co  Co14  1  0.73080800  0.51917200  0.67030500  1
  Co  Co15  1  0.23081700  0.01915700  0.67033300  1
  P  P16  1  0.49214100  0.75782300  0.41248300  1
  P  P17  1  0.99212200  0.25787400  0.41245900  1
  P  P18  1  0.50962600  0.24032800  0.59030900  1
  P  P19  1  0.00966000  0.74037000  0.59031200  1
  C  C20  1  0.71068000  0.03932100  0.03626400  1
  C  C21  1  0.21070700  0.53935100  0.03623600  1
  C  C22  1  0.28606400  0.96402900  0.96020300  1
  C  C23  1  0.78600000  0.46397800  0.96020300  1
  O  O24  1  0.83500700  0.91497500  0.06666500  1
  O  O25  1  0.33501500  0.41497900  0.06663600  1
  O  O26  1  0.32150600  0.92857700  0.10264000  1
  O  O27  1  0.82145300  0.42852500  0.10265600  1
  O  O28  1  0.61825500  0.13174200  0.15791900  1
  O  O29  1  0.11828500  0.63180400  0.15790800  1
  O  O30  1  0.45995700  0.29004700  0.42516300  1
  O  O31  1  0.96000700  0.79007700  0.42516500  1
  O  O32  1  0.33456500  0.91537600  0.43590800  1
  O  O33  1  0.83457600  0.41543500  0.43596500  1
  O  O34  1  0.66667100  0.08318900  0.56944400  1
  O  O35  1  0.16681000  0.58330000  0.56943400  1
  O  O36  1  0.54424400  0.70560600  0.57639700  1
  O  O37  1  0.04431300  0.20563300  0.57637300  1
  O  O38  1  0.37711300  0.87340200  0.83651800  1
  O  O39  1  0.87687400  0.37315600  0.83653100  1
  O  O40  1  0.67840100  0.07162800  0.89312000  1
  O  O41  1  0.17841400  0.57167500  0.89308500  1
  O  O42  1  0.16121200  0.08845600  0.93282700  1
  O  O43  1  0.66133500  0.58859200  0.93284400  1
  O  O44  1  0.45324100  0.61348200  0.30649300  1
  O  O45  1  0.95314800  0.11355600  0.30650200  1
  O  O46  1  0.63655000  0.79677400  0.30659900  1
  O  O47  1  0.13648900  0.29686600  0.30651600  1
  O  O48  1  0.54938500  0.38685500  0.69428700  1
  O  O49  1  0.04934700  0.88693600  0.69433800  1
  O  O50  1  0.36297900  0.20069100  0.69432000  1
  O  O51  1  0.86309800  0.70060700  0.69427100  1
