# generated using pymatgen
data_MnF3
_symmetry_space_group_name_H-M   'P 1'
_cell_length_a   4.99974600
_cell_length_b   4.99974600
_cell_length_c   8.77617700
_cell_angle_alpha   90.00000000
_cell_angle_beta   90.00000000
_cell_angle_gamma   90.00000000
_symmetry_Int_Tables_number   1
_chemical_formula_structural   MnF3
_chemical_formula_sum   'Mn4 F12'
_cell_volume   219.38213408
_cell_formula_units_Z   4
loop_
 _symmetry_equiv_pos_site_id
 _symmetry_equiv_pos_as_xyz
  1  'x, y, z'
loop_
 _atom_site_type_symbol
 _atom_site_label
 _atom_site_symmetry_multiplicity
 _atom_site_fract_x
 _atom_site_fract_y
 _atom_site_fract_z
 _atom_site_occupancy
  Mn  Mn0  1  0.00000000  0.00000000  0.82634600  1
  Mn  Mn1  1  0.50000000  0.50000000  0.67365400  1
  Mn  Mn2  1  0.50000000  0.50000000  0.32634600  1
  Mn  Mn3  1  0.00000000  0.00000000  0.17365400  1
  F  F4  1  0.82679100  0.82679100  0.00000000  1
  F  F5  1  0.69932600  0.30067400  0.81377700  1
  F  F6  1  0.30067400  0.69932600  0.81377700  1
  F  F7  1  0.19932600  0.19932600  0.68622300  1
  F  F8  1  0.80067400  0.80067400  0.68622300  1
  F  F9  1  0.67320900  0.32679100  0.50000000  1
  F  F10  1  0.32679100  0.67320900  0.50000000  1
  F  F11  1  0.19932600  0.19932600  0.31377700  1
  F  F12  1  0.80067400  0.80067400  0.31377700  1
  F  F13  1  0.69932600  0.30067400  0.18622300  1
  F  F14  1  0.30067400  0.69932600  0.18622300  1
  F  F15  1  0.17320900  0.17320900  0.00000000  1
