# generated using pymatgen
data_Mn2F7
_symmetry_space_group_name_H-M   'P 1'
_cell_length_a   5.35270600
_cell_length_b   6.36002180
_cell_length_c   8.68252433
_cell_angle_alpha   71.05540002
_cell_angle_beta   75.52402865
_cell_angle_gamma   83.56802445
_symmetry_Int_Tables_number   1
_chemical_formula_structural   Mn2F7
_chemical_formula_sum   'Mn4 F14'
_cell_volume   270.54171632
_cell_formula_units_Z   2
loop_
 _symmetry_equiv_pos_site_id
 _symmetry_equiv_pos_as_xyz
  1  'x, y, z'
loop_
 _atom_site_type_symbol
 _atom_site_label
 _atom_site_symmetry_multiplicity
 _atom_site_fract_x
 _atom_site_fract_y
 _atom_site_fract_z
 _atom_site_occupancy
  Mn  Mn0  1  0.28838800  0.02630400  0.17453200  1
  Mn  Mn1  1  0.78626800  0.78260300  0.30667700  1
  Mn  Mn2  1  0.21373200  0.21739700  0.69332300  1
  Mn  Mn3  1  0.71161200  0.97369600  0.82546800  1
  F  F4  1  0.39192300  0.29217400  0.14032600  1
  F  F5  1  0.68438000  0.91443700  0.08406400  1
  F  F6  1  0.91687200  0.07490600  0.26384200  1
  F  F7  1  0.14410700  0.74414700  0.20629800  1
  F  F8  1  0.71277900  0.52112200  0.30822700  1
  F  F9  1  0.16209700  0.30132900  0.49075300  1
  F  F10  1  0.44769400  0.87462100  0.37626600  1
  F  F11  1  0.55230600  0.12537900  0.62373400  1
  F  F12  1  0.83790300  0.69867100  0.50924700  1
  F  F13  1  0.28722100  0.47887800  0.69177300  1
  F  F14  1  0.85589300  0.25585300  0.79370200  1
  F  F15  1  0.08312800  0.92509400  0.73615800  1
  F  F16  1  0.31562000  0.08556300  0.91593600  1
  F  F17  1  0.60807700  0.70782600  0.85967400  1
