# generated using pymatgen
data_Sn(PO3)4
_symmetry_space_group_name_H-M   'P 1'
_cell_length_a   7.29079606
_cell_length_b   7.29079606
_cell_length_c   10.26895445
_cell_angle_alpha   65.90475035
_cell_angle_beta   65.90475035
_cell_angle_gamma   70.20305408
_symmetry_Int_Tables_number   1
_chemical_formula_structural   Sn(PO3)4
_chemical_formula_sum   'Sn2 P8 O24'
_cell_volume   445.07860322
_cell_formula_units_Z   2
loop_
 _symmetry_equiv_pos_site_id
 _symmetry_equiv_pos_as_xyz
  1  'x, y, z'
loop_
 _atom_site_type_symbol
 _atom_site_label
 _atom_site_symmetry_multiplicity
 _atom_site_fract_x
 _atom_site_fract_y
 _atom_site_fract_z
 _atom_site_occupancy
  Sn  Sn0  1  0.05715800  0.94284200  0.75000000  1
  Sn  Sn1  1  0.94284200  0.05715800  0.25000000  1
  P  P2  1  0.28727400  0.30840200  0.69853400  1
  P  P3  1  0.25217800  0.72574000  0.47940600  1
  P  P4  1  0.27426000  0.74782200  0.02059400  1
  P  P5  1  0.30840200  0.28727400  0.19853400  1
  P  P6  1  0.69159800  0.71272600  0.80146600  1
  P  P7  1  0.72574000  0.25217800  0.97940600  1
  P  P8  1  0.74782200  0.27426000  0.52059400  1
  P  P9  1  0.71272600  0.69159800  0.30146600  1
  O  O10  1  0.80944000  0.64852100  0.15762800  1
  O  O11  1  0.80350300  0.26232400  0.09194400  1
  O  O12  1  0.46637300  0.71081000  0.35183600  1
  O  O13  1  0.26232400  0.80350300  0.59194400  1
  O  O14  1  0.22264300  0.49426000  0.55746700  1
  O  O15  1  0.26123900  0.12062400  0.68271300  1
  O  O16  1  0.49426000  0.22264300  0.05746700  1
  O  O17  1  0.35147900  0.19056000  0.34237200  1
  O  O18  1  0.08635700  0.83972400  0.40626100  1
  O  O19  1  0.28919000  0.53362700  0.14816400  1
  O  O20  1  0.87937600  0.73876100  0.81728700  1
  O  O21  1  0.16027600  0.91364300  0.09373900  1
  O  O22  1  0.83972400  0.08635700  0.90626100  1
  O  O23  1  0.12062400  0.26123900  0.18271300  1
  O  O24  1  0.71081000  0.46637300  0.85183600  1
  O  O25  1  0.91364300  0.16027600  0.59373900  1
  O  O26  1  0.64852100  0.80944000  0.65762800  1
  O  O27  1  0.50574000  0.77735700  0.94253300  1
  O  O28  1  0.73876100  0.87937600  0.31728700  1
  O  O29  1  0.77735700  0.50574000  0.44253300  1
  O  O30  1  0.73767600  0.19649700  0.40805600  1
  O  O31  1  0.53362700  0.28919000  0.64816400  1
  O  O32  1  0.19649700  0.73767600  0.90805600  1
  O  O33  1  0.19056000  0.35147900  0.84237200  1
