# generated using pymatgen
data_Sr5U5O19
_symmetry_space_group_name_H-M   'P 1'
_cell_length_a   6.89320400
_cell_length_b   7.76894488
_cell_length_c   8.74934058
_cell_angle_alpha   100.04620822
_cell_angle_beta   97.51994710
_cell_angle_gamma   107.29623049
_symmetry_Int_Tables_number   1
_chemical_formula_structural   Sr5U5O19
_chemical_formula_sum   'Sr5 U5 O19'
_cell_volume   432.10450038
_cell_formula_units_Z   1
loop_
 _symmetry_equiv_pos_site_id
 _symmetry_equiv_pos_as_xyz
  1  'x, y, z'
loop_
 _atom_site_type_symbol
 _atom_site_label
 _atom_site_symmetry_multiplicity
 _atom_site_fract_x
 _atom_site_fract_y
 _atom_site_fract_z
 _atom_site_occupancy
  Sr  Sr0  1  0.80311900  0.10347600  0.60394300  1
  Sr  Sr1  1  0.38670600  0.29452800  0.79877300  1
  Sr  Sr2  1  0.60473300  0.70130100  0.20406800  1
  Sr  Sr3  1  0.99901100  0.49886400  0.99728500  1
  Sr  Sr4  1  0.20465200  0.90502600  0.39230800  1
  U  U5  1  0.78216800  0.59969700  0.60062900  1
  U  U6  1  0.59683600  0.19872800  0.19382500  1
  U  U7  1  0.99848200  0.00621600  0.00284300  1
  U  U8  1  0.41304400  0.80768300  0.81280900  1
  U  U9  1  0.20259800  0.38736300  0.39086800  1
  O  O10  1  0.33118500  0.03614200  0.96442700  1
  O  O11  1  0.43865400  0.98352000  0.66751800  1
  O  O12  1  0.03517800  0.19796500  0.87374700  1
  O  O13  1  0.72983800  0.40665500  0.72825400  1
  O  O14  1  0.15710200  0.19644300  0.52256400  1
  O  O15  1  0.36629600  0.61259600  0.93944900  1
  O  O16  1  0.93993600  0.25003900  0.17815300  1
  O  O17  1  0.92551200  0.42293500  0.46684900  1
  O  O18  1  0.74760900  0.83760300  0.77661600  1
  O  O19  1  0.54665100  0.43580300  0.37526700  1
  O  O20  1  0.39691400  0.57448400  0.61688600  1
  O  O21  1  0.25544700  0.14763100  0.22585500  1
  O  O22  1  0.07597900  0.72289000  0.76880900  1
  O  O23  1  0.63494100  0.38914300  0.06829600  1
  O  O24  1  0.85254600  0.79312700  0.47204100  1
  O  O25  1  0.24484300  0.59626400  0.27728800  1
  O  O26  1  0.96059800  0.80130300  0.11786100  1
  O  O27  1  0.57277400  0.02001200  0.33461800  1
  O  O28  1  0.66056500  0.96020400  0.03639000  1
