data_image0
_chemical_formula_structural       C3Cr2Gd2
_chemical_formula_sum              "C3 Cr2 Gd2"
_cell_length_a       3.42828
_cell_length_b       5.46068
_cell_length_c       5.61994
_cell_angle_alpha    104.725
_cell_angle_beta     90
_cell_angle_gamma    108.295

_space_group_name_H-M_alt    "P 1"
_space_group_IT_number       1

loop_
  _space_group_symop_operation_xyz
  'x, y, z'

loop_
  _atom_site_type_symbol
  _atom_site_label
  _atom_site_symmetry_multiplicity
  _atom_site_fract_x
  _atom_site_fract_y
  _atom_site_fract_z
  _atom_site_occupancy
  C   C1        1.0  0.71000  0.42100  0.27500  1.0000
  C   C2        1.0  0.00000  0.00000  0.50000  1.0000
  C   C3        1.0  0.29000  0.57900  0.72500  1.0000
  Cr  Cr1       1.0  0.15800  0.31600  0.39300  1.0000
  Cr  Cr2       1.0  0.84200  0.68400  0.60700  1.0000
  Gd  Gd1       1.0  0.39600  0.79300  0.18300  1.0000
  Gd  Gd2       1.0  0.60400  0.20700  0.81700  1.0000
