# generated using pymatgen
data_TiAgAu2
_symmetry_space_group_name_H-M   'P 1'
_cell_length_a   10.91663550
_cell_length_b   10.91663550
_cell_length_c   10.91663550
_cell_angle_alpha   123.21905787
_cell_angle_beta   118.15225559
_cell_angle_gamma   88.87362230
_symmetry_Int_Tables_number   1
_chemical_formula_structural   TiAgAu2
_chemical_formula_sum   'Ti1 Ag1 Au2'
_cell_volume   907.91775466
_cell_formula_units_Z   1
loop_
 _symmetry_equiv_pos_site_id
 _symmetry_equiv_pos_as_xyz
  1  'x, y, z'
loop_
 _atom_site_type_symbol
 _atom_site_label
 _atom_site_symmetry_multiplicity
 _atom_site_fract_x
 _atom_site_fract_y
 _atom_site_fract_z
 _atom_site_occupancy
  Ti  Ti0  1  0.00000000  0.00000000  0.00000000  1
  Ag  Ag1  1  0.00000000  0.50000000  0.50000000  1
  Au  Au2  1  0.00000000  0.24185800  0.24185800  1
  Au  Au3  1  0.00000000  0.75814200  0.75814200  1
