# generated using pymatgen
data_Cd2Si(P2O7)2
_symmetry_space_group_name_H-M   'P 1'
_cell_length_a   9.35897882
_cell_length_b   9.35897882
_cell_length_c   12.77963550
_cell_angle_alpha   77.43907770
_cell_angle_beta   77.43907770
_cell_angle_gamma   33.35687174
_symmetry_Int_Tables_number   1
_chemical_formula_structural   Cd2Si(P2O7)2
_chemical_formula_sum   'Cd4 Si2 P8 O28'
_cell_volume   599.41885466
_cell_formula_units_Z   2
loop_
 _symmetry_equiv_pos_site_id
 _symmetry_equiv_pos_as_xyz
  1  'x, y, z'
loop_
 _atom_site_type_symbol
 _atom_site_label
 _atom_site_symmetry_multiplicity
 _atom_site_fract_x
 _atom_site_fract_y
 _atom_site_fract_z
 _atom_site_occupancy
  Cd  Cd0  1  0.10404700  0.38646000  0.37054500  1
  Cd  Cd1  1  0.61354000  0.89595300  0.12945500  1
  Cd  Cd2  1  0.38646000  0.10404700  0.87054500  1
  Cd  Cd3  1  0.89595300  0.61354000  0.62945500  1
  Si  Si4  1  0.62348600  0.37651400  0.25000000  1
  Si  Si5  1  0.37651400  0.62348600  0.75000000  1
  P  P6  1  0.64709300  0.10071900  0.42781000  1
  P  P7  1  0.28532700  0.47691100  0.13850500  1
  P  P8  1  0.10071900  0.64709300  0.92781000  1
  P  P9  1  0.47691100  0.28532700  0.63850500  1
  P  P10  1  0.52308900  0.71467300  0.36149500  1
  P  P11  1  0.89928100  0.35290700  0.07219000  1
  P  P12  1  0.71467300  0.52308900  0.86149500  1
  P  P13  1  0.35290700  0.89928100  0.57219000  1
  O  O14  1  0.77135700  0.12178100  0.33188000  1
  O  O15  1  0.38059400  0.52879200  0.18761000  1
  O  O16  1  0.36685100  0.32168500  0.40390600  1
  O  O17  1  0.18074200  0.65313200  0.02679200  1
  O  O18  1  0.12178100  0.77135700  0.83188000  1
  O  O19  1  0.52879200  0.38059400  0.68761000  1
  O  O20  1  0.52497900  0.19169500  0.12039000  1
  O  O21  1  0.80948900  0.83036800  0.44980200  1
  O  O22  1  0.05346800  0.58452800  0.20226500  1
  O  O23  1  0.32168500  0.36685100  0.90390600  1
  O  O24  1  0.65313200  0.18074200  0.52679200  1
  O  O25  1  0.19169500  0.52497900  0.62039000  1
  O  O26  1  0.83036800  0.80948900  0.94980200  1
  O  O27  1  0.58452800  0.05346800  0.70226500  1
  O  O28  1  0.41547200  0.94653200  0.29773500  1
  O  O29  1  0.16963200  0.19051100  0.05019800  1
  O  O30  1  0.80830500  0.47502100  0.37961000  1
  O  O31  1  0.34686800  0.81925800  0.47320800  1
  O  O32  1  0.67831500  0.63314900  0.09609400  1
  O  O33  1  0.94653200  0.41547200  0.79773500  1
  O  O34  1  0.19051100  0.16963200  0.55019800  1
  O  O35  1  0.47502100  0.80830500  0.87961000  1
  O  O36  1  0.47120800  0.61940600  0.31239000  1
  O  O37  1  0.87821900  0.22864300  0.16812000  1
  O  O38  1  0.81925800  0.34686800  0.97320800  1
  O  O39  1  0.63314900  0.67831500  0.59609400  1
  O  O40  1  0.61940600  0.47120800  0.81239000  1
  O  O41  1  0.22864300  0.87821900  0.66812000  1
