# generated using pymatgen
data_Na7Ti13O26
_symmetry_space_group_name_H-M   'P 1'
_cell_length_a   5.15600900
_cell_length_b   10.75097616
_cell_length_c   11.35888265
_cell_angle_alpha   65.25728803
_cell_angle_beta   85.86391226
_cell_angle_gamma   80.90555166
_symmetry_Int_Tables_number   1
_chemical_formula_structural   Na7Ti13O26
_chemical_formula_sum   'Na7 Ti13 O26'
_cell_volume   564.64212514
_cell_formula_units_Z   1
loop_
 _symmetry_equiv_pos_site_id
 _symmetry_equiv_pos_as_xyz
  1  'x, y, z'
loop_
 _atom_site_type_symbol
 _atom_site_label
 _atom_site_symmetry_multiplicity
 _atom_site_fract_x
 _atom_site_fract_y
 _atom_site_fract_z
 _atom_site_occupancy
  Na  Na0  1  0.42004600  0.80809600  0.84593800  1
  Na  Na1  1  0.66023200  0.88544200  0.30786300  1
  Na  Na2  1  0.33976800  0.11455800  0.69213700  1
  Na  Na3  1  0.57995400  0.19190400  0.15406200  1
  Na  Na4  1  0.26621200  0.42135400  0.53877900  1
  Na  Na5  1  0.73378800  0.57864600  0.46122100  1
  Na  Na6  1  0.50000000  0.50000000  0.00000000  1
  Ti  Ti7  1  0.81328900  0.76759000  0.62407900  1
  Ti  Ti8  1  0.57214700  0.69168500  0.15697200  1
  Ti  Ti9  1  0.03048100  0.84579700  0.07550400  1
  Ti  Ti10  1  0.27063900  0.92279100  0.52840800  1
  Ti  Ti11  1  0.72936100  0.07720900  0.47159200  1
  Ti  Ti12  1  0.50000000  0.00000000  0.00000000  1
  Ti  Ti13  1  0.96951900  0.15420300  0.92449600  1
  Ti  Ti14  1  0.42785300  0.30831500  0.84302800  1
  Ti  Ti15  1  0.18671100  0.23241000  0.37592100  1
  Ti  Ti16  1  0.66310700  0.38333200  0.31273300  1
  Ti  Ti17  1  0.87861500  0.45981400  0.77340100  1
  Ti  Ti18  1  0.12138500  0.54018600  0.22659900  1
  Ti  Ti19  1  0.33689300  0.61666800  0.68726700  1
  O  O20  1  0.13335600  0.78500000  0.69909700  1
  O  O21  1  0.26766500  0.67891300  0.06250900  1
  O  O22  1  0.50119000  0.75404500  0.52571900  1
  O  O23  1  0.89032200  0.70661300  0.24286000  1
  O  O24  1  0.18995400  0.98498500  0.91134300  1
  O  O25  1  0.94290300  0.90953000  0.45606700  1
  O  O26  1  0.57257700  0.93816800  0.62879400  1
  O  O27  1  0.35851900  0.86034900  0.16143300  1
  O  O28  1  0.71976800  0.83149800  0.99145100  1
  O  O29  1  0.05709700  0.09047000  0.54393300  1
  O  O30  1  0.81004600  0.01501500  0.08865700  1
  O  O31  1  0.64148100  0.13965100  0.83856700  1
  O  O32  1  0.42742300  0.06183200  0.37120600  1
  O  O33  1  0.86664400  0.21500000  0.30090300  1
  O  O34  1  0.28023200  0.16850200  0.00854900  1
  O  O35  1  0.10967800  0.29338700  0.75714000  1
  O  O36  1  0.49881000  0.24595500  0.47428100  1
  O  O37  1  0.20859900  0.47554500  0.85213500  1
  O  O38  1  0.57078100  0.44931000  0.67669600  1
  O  O39  1  0.34749800  0.37017400  0.21770100  1
  O  O40  1  0.73233500  0.32108700  0.93749100  1
  O  O41  1  0.97370800  0.40108900  0.39607700  1
  O  O42  1  0.02629200  0.59891100  0.60392300  1
  O  O43  1  0.65250200  0.62982600  0.78229900  1
  O  O44  1  0.42921900  0.55069000  0.32330400  1
  O  O45  1  0.79140100  0.52445500  0.14786500  1
