# generated using pymatgen
data_Zn2IrPt
_symmetry_space_group_name_H-M   'P 1'
_cell_length_a   10.33117474
_cell_length_b   10.33117474
_cell_length_c   10.33117474
_cell_angle_alpha   124.24738195
_cell_angle_beta   118.68986532
_cell_angle_gamma   87.54495578
_symmetry_Int_Tables_number   1
_chemical_formula_structural   Zn2IrPt
_chemical_formula_sum   'Zn2 Ir1 Pt1'
_cell_volume   759.27926941
_cell_formula_units_Z   1
loop_
 _symmetry_equiv_pos_site_id
 _symmetry_equiv_pos_as_xyz
  1  'x, y, z'
loop_
 _atom_site_type_symbol
 _atom_site_label
 _atom_site_symmetry_multiplicity
 _atom_site_fract_x
 _atom_site_fract_y
 _atom_site_fract_z
 _atom_site_occupancy
  Zn  Zn0  1  0.00000000  0.25136400  0.25136400  1
  Zn  Zn1  1  0.00000000  0.74863600  0.74863600  1
  Ir  Ir2  1  0.00000000  0.00000000  0.00000000  1
  Pt  Pt3  1  0.00000000  0.50000000  0.50000000  1
