# generated using pymatgen
data_Cr5(Si2O7)2
_symmetry_space_group_name_H-M   'P 1'
_cell_length_a   7.43594392
_cell_length_b   7.91981223
_cell_length_c   5.77190325
_cell_angle_alpha   89.71785516
_cell_angle_beta   107.49549903
_cell_angle_gamma   112.61957034
_symmetry_Int_Tables_number   1
_chemical_formula_structural   Cr5(Si2O7)2
_chemical_formula_sum   'Cr5 Si4 O14'
_cell_volume   296.87818903
_cell_formula_units_Z   1
loop_
 _symmetry_equiv_pos_site_id
 _symmetry_equiv_pos_as_xyz
  1  'x, y, z'
loop_
 _atom_site_type_symbol
 _atom_site_label
 _atom_site_symmetry_multiplicity
 _atom_site_fract_x
 _atom_site_fract_y
 _atom_site_fract_z
 _atom_site_occupancy
  Cr  Cr0  1  0.99973200  0.99995900  0.99996400  1
  Cr  Cr1  1  0.38961000  0.80851000  0.07518900  1
  Cr  Cr2  1  0.57644800  0.69673800  0.64413300  1
  Cr  Cr3  1  0.42359500  0.30333700  0.35592300  1
  Cr  Cr4  1  0.61031400  0.19127100  0.92498200  1
  Si  Si5  1  0.23555300  0.86527800  0.49630300  1
  Si  Si6  1  0.21588900  0.38533900  0.77248000  1
  Si  Si7  1  0.78413400  0.61467300  0.22749400  1
  Si  Si8  1  0.76447600  0.13473700  0.50366700  1
  O  O9  1  0.22484100  0.57979900  0.85456800  1
  O  O10  1  0.35655600  0.95212800  0.78063400  1
  O  O11  1  0.00763100  0.25864300  0.54943200  1
  O  O12  1  0.35099300  0.74704900  0.40934200  1
  O  O13  1  0.23343800  0.25829300  0.00427600  1
  O  O14  1  0.40544500  0.42262700  0.65132700  1
  O  O15  1  0.23545800  0.03233800  0.31980300  1
  O  O16  1  0.76462900  0.96768100  0.68023300  1
  O  O17  1  0.59465300  0.57743600  0.34874000  1
  O  O18  1  0.76659200  0.74174200  0.99576600  1
  O  O19  1  0.64905500  0.25293200  0.59064600  1
  O  O20  1  0.99235100  0.74137800  0.45041900  1
  O  O21  1  0.64345900  0.04784900  0.21942700  1
  O  O22  1  0.77514600  0.42026100  0.14525300  1
