# generated using pymatgen
data_Ti11Fe17O42
_symmetry_space_group_name_H-M   'P 1'
_cell_length_a   7.53910900
_cell_length_b   9.17138784
_cell_length_c   11.63012798
_cell_angle_alpha   99.47946892
_cell_angle_beta   93.04927513
_cell_angle_gamma   108.16923470
_symmetry_Int_Tables_number   1
_chemical_formula_structural   Ti11Fe17O42
_chemical_formula_sum   'Ti11 Fe17 O42'
_cell_volume   748.92133197
_cell_formula_units_Z   1
loop_
 _symmetry_equiv_pos_site_id
 _symmetry_equiv_pos_as_xyz
  1  'x, y, z'
loop_
 _atom_site_type_symbol
 _atom_site_label
 _atom_site_symmetry_multiplicity
 _atom_site_fract_x
 _atom_site_fract_y
 _atom_site_fract_z
 _atom_site_occupancy
  Ti  Ti0  1  0.48719200  0.26455000  0.18471300  1
  Ti  Ti1  1  0.77611600  0.83645800  0.04214700  1
  Ti  Ti2  1  0.65450500  0.02350600  0.24623600  1
  Ti  Ti3  1  0.94214100  0.59657600  0.10637800  1
  Ti  Ti4  1  0.91635300  0.11792000  0.46854500  1
  Ti  Ti5  1  0.37025000  0.45387100  0.38557100  1
  Ti  Ti6  1  0.79493100  0.31053300  0.67097200  1
  Ti  Ti7  1  0.08653800  0.87535900  0.52527000  1
  Ti  Ti8  1  0.34417200  0.98099800  0.75826800  1
  Ti  Ti9  1  0.05932400  0.40676500  0.90235400  1
  Ti  Ti10  1  0.51595800  0.73487000  0.81578200  1
  Fe  Fe11  1  0.16566300  0.02749100  0.24228400  1
  Fe  Fe12  1  0.45068600  0.60034600  0.10193400  1
  Fe  Fe13  1  0.98726700  0.25984800  0.18329600  1
  Fe  Fe14  1  0.27000000  0.83610300  0.04512100  1
  Fe  Fe15  1  0.20414600  0.69207100  0.32664500  1
  Fe  Fe16  1  0.69007800  0.68475400  0.32899600  1
  Fe  Fe17  1  0.87460000  0.45391700  0.38615700  1
  Fe  Fe18  1  0.40826500  0.11477200  0.47225000  1
  Fe  Fe19  1  0.62846700  0.54806700  0.60929100  1
  Fe  Fe20  1  0.12656600  0.54936900  0.61353900  1
  Fe  Fe21  1  0.30431800  0.31126800  0.67042900  1
  Fe  Fe22  1  0.58309800  0.87870700  0.52744000  1
  Fe  Fe23  1  0.55711400  0.40336000  0.90293600  1
  Fe  Fe24  1  0.73851300  0.17273300  0.95809600  1
  Fe  Fe25  1  0.01094800  0.73606800  0.81177500  1
  Fe  Fe26  1  0.84555800  0.97762500  0.75676900  1
  Fe  Fe27  1  0.22830100  0.16619600  0.95828900  1
  O  O28  1  0.02755800  0.24467000  0.00745800  1
  O  O29  1  0.27736000  0.05354200  0.08152500  1
  O  O30  1  0.43572900  0.36295900  0.06395000  1
  O  O31  1  0.89437500  0.00074800  0.16449900  1
  O  O32  1  0.18608300  0.58282100  0.02015300  1
  O  O33  1  0.68203200  0.18651600  0.13435300  1
  O  O34  1  0.46025300  0.09541300  0.29800600  1
  O  O35  1  0.74393200  0.66915300  0.15191400  1
  O  O36  1  0.24761500  0.27577100  0.26346400  1
  O  O37  1  0.52314300  0.85151500  0.11953400  1
  O  O38  1  0.98762200  0.49491500  0.22347600  1
  O  O39  1  0.86502300  0.21474000  0.34730100  1
  O  O40  1  0.15070800  0.79357000  0.19719900  1
  O  O41  1  0.61037300  0.43044000  0.30648300  1
  O  O42  1  0.40267100  0.61182500  0.27299500  1
  O  O43  1  0.11143200  0.04574300  0.41852900  1
  O  O44  1  0.17512000  0.52256800  0.43592900  1
  O  O45  1  0.95591900  0.71234400  0.40609900  1
  O  O46  1  0.67769100  0.14018100  0.55066800  1
  O  O47  1  0.41534600  0.34873100  0.51104700  1
  O  O48  1  0.70682400  0.92389100  0.36604200  1
  O  O49  1  0.29821100  0.08877300  0.63727100  1
  O  O50  1  0.57687200  0.64780300  0.48480400  1
  O  O51  1  0.04926100  0.28529600  0.59508500  1
  O  O52  1  0.32654800  0.87073200  0.45601500  1
  O  O53  1  0.83305500  0.46797800  0.56254600  1
  O  O54  1  0.88774400  0.95384000  0.58498200  1
  O  O55  1  0.59692300  0.37784700  0.72415800  1
  O  O56  1  0.38250500  0.56214400  0.69558800  1
  O  O57  1  0.84582600  0.19999700  0.79244900  1
  O  O58  1  0.13739600  0.78513600  0.65125600  1
  O  O59  1  0.00172900  0.49891900  0.77836700  1
  O  O60  1  0.47115500  0.14474400  0.87934100  1
  O  O61  1  0.75233400  0.72993500  0.73977200  1
  O  O62  1  0.25500300  0.33296100  0.83978800  1
  O  O63  1  0.53803000  0.90406400  0.70743900  1
  O  O64  1  0.31747400  0.81408900  0.87234400  1
  O  O65  1  0.09396400  0.99328600  0.82870800  1
  O  O66  1  0.82089000  0.42537300  0.97849000  1
  O  O67  1  0.56040500  0.64021600  0.93953400  1
  O  O68  1  0.72507800  0.93663900  0.91865500  1
  O  O69  1  0.97171500  0.76407100  0.99129900  1
