# generated using pymatgen
data_CsNa2Bi
_symmetry_space_group_name_H-M   'P 1'
_cell_length_a   14.46567696
_cell_length_b   14.46567696
_cell_length_c   14.46567696
_cell_angle_alpha   120.65077224
_cell_angle_beta   119.27072465
_cell_angle_gamma   90.07214920
_symmetry_Int_Tables_number   1
_chemical_formula_structural   CsNa2Bi
_chemical_formula_sum   'Cs1 Na2 Bi1'
_cell_volume   2141.31163732
_cell_formula_units_Z   1
loop_
 _symmetry_equiv_pos_site_id
 _symmetry_equiv_pos_as_xyz
  1  'x, y, z'
loop_
 _atom_site_type_symbol
 _atom_site_label
 _atom_site_symmetry_multiplicity
 _atom_site_fract_x
 _atom_site_fract_y
 _atom_site_fract_z
 _atom_site_occupancy
  Cs  Cs0  1  0.00000000  0.00000000  0.00000000  1
  Na  Na1  1  0.00000000  0.28596600  0.28596600  1
  Na  Na2  1  0.00000000  0.71403400  0.71403400  1
  Bi  Bi3  1  0.00000000  0.50000000  0.50000000  1
