# generated using pymatgen
data_BaMnO3
_symmetry_space_group_name_H-M   'P 1'
_cell_length_a   5.75968789
_cell_length_b   5.75968789
_cell_length_c   14.31339500
_cell_angle_alpha   90.00000000
_cell_angle_beta   90.00000000
_cell_angle_gamma   119.99999875
_symmetry_Int_Tables_number   1
_chemical_formula_structural   BaMnO3
_chemical_formula_sum   'Ba6 Mn6 O18'
_cell_volume   411.21712670
_cell_formula_units_Z   6
loop_
 _symmetry_equiv_pos_site_id
 _symmetry_equiv_pos_as_xyz
  1  'x, y, z'
loop_
 _atom_site_type_symbol
 _atom_site_label
 _atom_site_symmetry_multiplicity
 _atom_site_fract_x
 _atom_site_fract_y
 _atom_site_fract_z
 _atom_site_occupancy
  Ba  Ba0  1  0.33333300  0.66666700  0.16826800  1
  Ba  Ba1  1  0.33333300  0.66666700  0.50000000  1
  Ba  Ba2  1  0.33333300  0.66666700  0.83173200  1
  Ba  Ba3  1  0.00000000  0.00000000  0.00000000  1
  Ba  Ba4  1  0.66666700  0.33333300  0.66449300  1
  Ba  Ba5  1  0.66666700  0.33333300  0.33550700  1
  Mn  Mn6  1  0.00000000  0.00000000  0.23511000  1
  Mn  Mn7  1  0.00000000  0.00000000  0.41239800  1
  Mn  Mn8  1  0.00000000  0.00000000  0.58760200  1
  Mn  Mn9  1  0.00000000  0.00000000  0.76489000  1
  Mn  Mn10  1  0.66666700  0.33333300  0.90919500  1
  Mn  Mn11  1  0.66666700  0.33333300  0.09080500  1
  O  O12  1  0.95676300  0.47838100  0.00000000  1
  O  O13  1  0.14761000  0.85239000  0.32648600  1
  O  O14  1  0.14761000  0.85239000  0.67351400  1
  O  O15  1  0.14761000  0.29522000  0.32648600  1
  O  O16  1  0.14761000  0.29522000  0.67351400  1
  O  O17  1  0.70478000  0.85239000  0.32648600  1
  O  O18  1  0.70478000  0.85239000  0.67351400  1
  O  O19  1  0.52161900  0.47838100  0.00000000  1
  O  O20  1  0.29805500  0.14902700  0.50000000  1
  O  O21  1  0.33479700  0.16739900  0.16508800  1
  O  O22  1  0.33479700  0.16739900  0.83491200  1
  O  O23  1  0.52161900  0.04323700  0.00000000  1
  O  O24  1  0.83260100  0.66520300  0.16508800  1
  O  O25  1  0.85097300  0.70194500  0.50000000  1
  O  O26  1  0.83260100  0.66520300  0.83491200  1
  O  O27  1  0.85097300  0.14902700  0.50000000  1
  O  O28  1  0.83260100  0.16739900  0.16508800  1
  O  O29  1  0.83260100  0.16739900  0.83491200  1
