# generated using pymatgen
data_LiCa3Fe5Sn3O16
_symmetry_space_group_name_H-M   'P 1'
_cell_length_a   9.44979349
_cell_length_b   11.04747098
_cell_length_c   3.12983800
_cell_angle_alpha   90.00000000
_cell_angle_beta   90.00000000
_cell_angle_gamma   89.85482731
_symmetry_Int_Tables_number   1
_chemical_formula_structural   LiCa3Fe5Sn3O16
_chemical_formula_sum   'Li1 Ca3 Fe5 Sn3 O16'
_cell_volume   326.74251839
_cell_formula_units_Z   1
loop_
 _symmetry_equiv_pos_site_id
 _symmetry_equiv_pos_as_xyz
  1  'x, y, z'
loop_
 _atom_site_type_symbol
 _atom_site_label
 _atom_site_symmetry_multiplicity
 _atom_site_fract_x
 _atom_site_fract_y
 _atom_site_fract_z
 _atom_site_occupancy
  Li  Li0  1  0.22962000  0.35750300  0.75000000  1
  Ca  Ca1  1  0.26078700  0.85120000  0.25000000  1
  Ca  Ca2  1  0.73893900  0.14702800  0.75000000  1
  Ca  Ca3  1  0.74722000  0.66058200  0.25000000  1
  Fe  Fe4  1  0.42763900  0.10098200  0.25000000  1
  Fe  Fe5  1  0.43254900  0.61790100  0.25000000  1
  Fe  Fe6  1  0.58521800  0.89103000  0.75000000  1
  Fe  Fe7  1  0.91918500  0.39257600  0.25000000  1
  Fe  Fe8  1  0.92605900  0.88468400  0.25000000  1
  Sn  Sn9  1  0.07240300  0.11156300  0.75000000  1
  Sn  Sn10  1  0.08824200  0.60199600  0.75000000  1
  Sn  Sn11  1  0.55456700  0.38886400  0.75000000  1
  O  O12  1  0.02037100  0.71082700  0.25000000  1
  O  O13  1  0.09094600  0.92864200  0.75000000  1
  O  O14  1  0.12149100  0.47047800  0.25000000  1
  O  O15  1  0.21066600  0.16078000  0.25000000  1
  O  O16  1  0.28432800  0.67798600  0.75000000  1
  O  O17  1  0.38582400  0.98276700  0.75000000  1
  O  O18  1  0.41269900  0.42360400  0.25000000  1
  O  O19  1  0.48758800  0.21007600  0.75000000  1
  O  O20  1  0.52145300  0.79065900  0.25000000  1
  O  O21  1  0.59248300  0.56910000  0.75000000  1
  O  O22  1  0.62364600  0.02481300  0.25000000  1
  O  O23  1  0.70677000  0.33445800  0.25000000  1
  O  O24  1  0.78159100  0.82668100  0.75000000  1
  O  O25  1  0.88553900  0.51758100  0.75000000  1
  O  O26  1  0.91856500  0.08056900  0.25000000  1
  O  O27  1  0.97360900  0.28506900  0.75000000  1
