# generated using pymatgen
data_Mn6Cr9O20
_symmetry_space_group_name_H-M   'P 1'
_cell_length_a   25.12227113
_cell_length_b   25.12227113
_cell_length_c   25.12227016
_cell_angle_alpha   13.90632343
_cell_angle_beta   13.90632343
_cell_angle_gamma   13.90632465
_symmetry_Int_Tables_number   1
_chemical_formula_structural   Mn6Cr9O20
_chemical_formula_sum   'Mn12 Cr18 O40'
_cell_volume   797.01892298
_cell_formula_units_Z   2
loop_
 _symmetry_equiv_pos_site_id
 _symmetry_equiv_pos_as_xyz
  1  'x, y, z'
loop_
 _atom_site_type_symbol
 _atom_site_label
 _atom_site_symmetry_multiplicity
 _atom_site_fract_x
 _atom_site_fract_y
 _atom_site_fract_z
 _atom_site_occupancy
  Mn  Mn0  1  0.22491400  0.22491400  0.22491400  1
  Mn  Mn1  1  0.90000000  0.90000000  0.90000000  1
  Mn  Mn2  1  0.17502200  0.17502200  0.17502200  1
  Mn  Mn3  1  0.82497800  0.82497800  0.82497800  1
  Mn  Mn4  1  0.77508600  0.77508600  0.77508600  1
  Mn  Mn5  1  0.42491400  0.42491400  0.42491400  1
  Mn  Mn6  1  0.10000000  0.10000000  0.10000000  1
  Mn  Mn7  1  0.37500600  0.37500600  0.37500600  1
  Mn  Mn8  1  0.02500200  0.02500200  0.02500200  1
  Mn  Mn9  1  0.97499800  0.97499800  0.97499800  1
  Mn  Mn10  1  0.62499400  0.62499400  0.62499400  1
  Mn  Mn11  1  0.57508600  0.57508600  0.57508600  1
  Cr  Cr12  1  0.20030000  0.69972500  0.69972500  1
  Cr  Cr13  1  0.69972500  0.69972500  0.20030000  1
  Cr  Cr14  1  0.69972500  0.20030000  0.69972500  1
  Cr  Cr15  1  0.79970000  0.30027500  0.30027500  1
  Cr  Cr16  1  0.50000000  0.50000000  0.50000000  1
  Cr  Cr17  1  0.30027500  0.79970000  0.30027500  1
  Cr  Cr18  1  0.30027500  0.30027500  0.79970000  1
  Cr  Cr19  1  0.40033000  0.89970900  0.89970900  1
  Cr  Cr20  1  0.69997300  0.69997300  0.69997300  1
  Cr  Cr21  1  0.89970900  0.40033000  0.89970900  1
  Cr  Cr22  1  0.50000000  0.00000000  0.50000000  1
  Cr  Cr23  1  0.50000000  0.50000000  0.00000000  1
  Cr  Cr24  1  0.89970900  0.89970900  0.40033000  1
  Cr  Cr25  1  0.00000000  0.50000000  0.50000000  1
  Cr  Cr26  1  0.30002700  0.30002700  0.30002700  1
  Cr  Cr27  1  0.10029100  0.10029100  0.59967000  1
  Cr  Cr28  1  0.10029100  0.59967000  0.10029100  1
  Cr  Cr29  1  0.59967000  0.10029100  0.10029100  1
  O  O30  1  0.03294200  0.58026800  0.03294200  1
  O  O31  1  0.03294200  0.03294200  0.58026800  1
  O  O32  1  0.58026800  0.03294200  0.03294200  1
  O  O33  1  0.85268900  0.85268900  0.85268900  1
  O  O34  1  0.54731900  0.54731900  0.54731900  1
  O  O35  1  0.81432600  0.36914500  0.36914500  1
  O  O36  1  0.96705800  0.41973200  0.96705800  1
  O  O37  1  0.36914500  0.36914500  0.81432600  1
  O  O38  1  0.36914500  0.81432600  0.36914500  1
  O  O39  1  0.96705800  0.96705800  0.41973200  1
  O  O40  1  0.63085500  0.18567400  0.63085500  1
  O  O41  1  0.63085500  0.63085500  0.18567400  1
  O  O42  1  0.18567400  0.63085500  0.63085500  1
  O  O43  1  0.45268100  0.45268100  0.45268100  1
  O  O44  1  0.78026900  0.23294100  0.23294100  1
  O  O45  1  0.74732000  0.74732000  0.74732000  1
  O  O46  1  0.14731100  0.14731100  0.14731100  1
  O  O47  1  0.41973200  0.96705800  0.96705800  1
  O  O48  1  0.56917100  0.01425300  0.56917100  1
  O  O49  1  0.56917100  0.56917100  0.01425300  1
  O  O50  1  0.23294100  0.23294100  0.78026900  1
  O  O51  1  0.23294100  0.78026900  0.23294100  1
  O  O52  1  0.05269600  0.05269600  0.05269600  1
  O  O53  1  0.65271400  0.65271400  0.65271400  1
  O  O54  1  0.38529500  0.83097900  0.83097900  1
  O  O55  1  0.34728600  0.34728600  0.34728600  1
  O  O56  1  0.61470500  0.16902100  0.16902100  1
  O  O57  1  0.01425300  0.56917100  0.56917100  1
  O  O58  1  0.16902100  0.61470500  0.16902100  1
  O  O59  1  0.16902100  0.16902100  0.61470500  1
  O  O60  1  0.83097900  0.83097900  0.38529500  1
  O  O61  1  0.43082900  0.43082900  0.98574700  1
  O  O62  1  0.83097900  0.38529500  0.83097900  1
  O  O63  1  0.43082900  0.98574700  0.43082900  1
  O  O64  1  0.25268000  0.25268000  0.25268000  1
  O  O65  1  0.98574700  0.43082900  0.43082900  1
  O  O66  1  0.94730400  0.94730400  0.94730400  1
  O  O67  1  0.21973100  0.76705900  0.76705900  1
  O  O68  1  0.76705900  0.21973100  0.76705900  1
  O  O69  1  0.76705900  0.76705900  0.21973100  1
