# generated using pymatgen
data_Sn(PO3)4
_symmetry_space_group_name_H-M   'P 1'
_cell_length_a   8.61138802
_cell_length_b   8.61138802
_cell_length_c   9.09013825
_cell_angle_alpha   59.03444922
_cell_angle_beta   59.03444922
_cell_angle_gamma   49.02391933
_symmetry_Int_Tables_number   1
_chemical_formula_structural   Sn(PO3)4
_chemical_formula_sum   'Sn2 P8 O24'
_cell_volume   419.73985605
_cell_formula_units_Z   2
loop_
 _symmetry_equiv_pos_site_id
 _symmetry_equiv_pos_as_xyz
  1  'x, y, z'
loop_
 _atom_site_type_symbol
 _atom_site_label
 _atom_site_symmetry_multiplicity
 _atom_site_fract_x
 _atom_site_fract_y
 _atom_site_fract_z
 _atom_site_occupancy
  Sn  Sn0  1  0.80133300  0.19866700  0.25000000  1
  Sn  Sn1  1  0.19866700  0.80133300  0.75000000  1
  P  P2  1  0.99231500  0.29220700  0.80886500  1
  P  P3  1  0.58808300  0.67485300  0.88105200  1
  P  P4  1  0.70779300  0.00768500  0.69113500  1
  P  P5  1  0.67485300  0.58808300  0.38105200  1
  P  P6  1  0.32514700  0.41191700  0.61894800  1
  P  P7  1  0.29220700  0.99231500  0.30886500  1
  P  P8  1  0.41191700  0.32514700  0.11894800  1
  P  P9  1  0.00768500  0.70779300  0.19113500  1
  O  O10  1  0.78481600  0.51869300  0.75534700  1
  O  O11  1  0.66490100  0.82383300  0.84078200  1
  O  O12  1  0.00539800  0.12571100  0.78503300  1
  O  O13  1  0.87428900  0.99460200  0.71496700  1
  O  O14  1  0.74057700  0.00731100  0.50942600  1
  O  O15  1  0.39711700  0.82037800  0.80536700  1
  O  O16  1  0.82037800  0.39711700  0.30536700  1
  O  O17  1  0.48130700  0.21518400  0.74465300  1
  O  O18  1  0.00731100  0.74057700  0.00942600  1
  O  O19  1  0.82383300  0.66490100  0.34078200  1
  O  O20  1  0.55700600  0.56784600  0.57340400  1
  O  O21  1  0.43215400  0.44299400  0.92659600  1
  O  O22  1  0.56784600  0.55700600  0.07340400  1
  O  O23  1  0.44299400  0.43215400  0.42659600  1
  O  O24  1  0.17616700  0.33509900  0.65921800  1
  O  O25  1  0.99268900  0.25942300  0.99057400  1
  O  O26  1  0.51869300  0.78481600  0.25534700  1
  O  O27  1  0.17962200  0.60288300  0.69463300  1
  O  O28  1  0.60288300  0.17962200  0.19463300  1
  O  O29  1  0.25942300  0.99268900  0.49057400  1
  O  O30  1  0.12571100  0.00539800  0.28503300  1
  O  O31  1  0.99460200  0.87428900  0.21496700  1
  O  O32  1  0.33509900  0.17616700  0.15921800  1
  O  O33  1  0.21518400  0.48130700  0.24465300  1
