# generated using pymatgen
data_LaNb3O9
_symmetry_space_group_name_H-M   'P 1'
_cell_length_a   5.62126700
_cell_length_b   8.89025953
_cell_length_c   8.96470070
_cell_angle_alpha   66.60849712
_cell_angle_beta   71.74260244
_cell_angle_gamma   71.60283809
_symmetry_Int_Tables_number   1
_chemical_formula_structural   LaNb3O9
_chemical_formula_sum   'La2 Nb6 O18'
_cell_volume   380.97341541
_cell_formula_units_Z   2
loop_
 _symmetry_equiv_pos_site_id
 _symmetry_equiv_pos_as_xyz
  1  'x, y, z'
loop_
 _atom_site_type_symbol
 _atom_site_label
 _atom_site_symmetry_multiplicity
 _atom_site_fract_x
 _atom_site_fract_y
 _atom_site_fract_z
 _atom_site_occupancy
  La  La0  1  0.67296200  0.65924300  0.00140400  1
  La  La1  1  0.33863000  0.33637600  0.00156800  1
  Nb  Nb2  1  0.41838500  0.91729200  0.25280000  1
  Nb  Nb3  1  0.25767300  0.75783700  0.73577400  1
  Nb  Nb4  1  0.93020400  0.40762800  0.74352100  1
  Nb  Nb5  1  0.07726000  0.58971600  0.26015700  1
  Nb  Nb6  1  0.75033200  0.23980700  0.26766400  1
  Nb  Nb7  1  0.59176800  0.07807100  0.75120600  1
  O  O8  1  0.50039300  0.99932200  0.00007200  1
  O  O9  1  0.90408800  0.90444700  0.77099400  1
  O  O10  1  0.42171200  0.90577400  0.76631100  1
  O  O11  1  0.82252900  0.35157300  0.99835500  1
  O  O12  1  0.17214900  0.65224400  0.00183200  1
  O  O13  1  0.99624400  0.50253300  0.50080900  1
  O  O14  1  0.33196300  0.83317800  0.49778400  1
  O  O15  1  0.57086700  0.57723700  0.77691700  1
  O  O16  1  0.74866600  0.74854700  0.23364400  1
  O  O17  1  0.72986000  0.25344200  0.76727900  1
  O  O18  1  0.26884300  0.74868400  0.23504800  1
  O  O19  1  0.07133300  0.57881800  0.77453000  1
  O  O20  1  0.92486700  0.42485000  0.22508000  1
  O  O21  1  0.66412400  0.16747800  0.50305800  1
  O  O22  1  0.42590300  0.42501000  0.22508500  1
  O  O23  1  0.25109900  0.25297900  0.77058500  1
  O  O24  1  0.57965600  0.09711700  0.23080100  1
  O  O25  1  0.09677600  0.09917200  0.23125100  1
