# generated using pymatgen
data_Ga2CoRh
_symmetry_space_group_name_H-M   'P 1'
_cell_length_a   10.58619998
_cell_length_b   10.58619998
_cell_length_c   10.58619998
_cell_angle_alpha   126.78818723
_cell_angle_beta   115.43568527
_cell_angle_gamma   88.37509344
_symmetry_Int_Tables_number   1
_chemical_formula_structural   Ga2CoRh
_chemical_formula_sum   'Ga2 Co1 Rh1'
_cell_volume   813.92533552
_cell_formula_units_Z   1
loop_
 _symmetry_equiv_pos_site_id
 _symmetry_equiv_pos_as_xyz
  1  'x, y, z'
loop_
 _atom_site_type_symbol
 _atom_site_label
 _atom_site_symmetry_multiplicity
 _atom_site_fract_x
 _atom_site_fract_y
 _atom_site_fract_z
 _atom_site_occupancy
  Ga  Ga0  1  0.00000000  0.25093700  0.25093700  1
  Ga  Ga1  1  0.00000000  0.74906300  0.74906300  1
  Co  Co2  1  0.00000000  0.00000000  0.00000000  1
  Rh  Rh3  1  0.00000000  0.50000000  0.50000000  1
