# generated using pymatgen
data_Cs2HCl
_symmetry_space_group_name_H-M   'P 1'
_cell_length_a   12.08711534
_cell_length_b   12.08711534
_cell_length_c   12.08711534
_cell_angle_alpha   120.49786097
_cell_angle_beta   119.82437083
_cell_angle_gamma   89.72215927
_symmetry_Int_Tables_number   1
_chemical_formula_structural   Cs2HCl
_chemical_formula_sum   'Cs2 H1 Cl1'
_cell_volume   1245.57444748
_cell_formula_units_Z   1
loop_
 _symmetry_equiv_pos_site_id
 _symmetry_equiv_pos_as_xyz
  1  'x, y, z'
loop_
 _atom_site_type_symbol
 _atom_site_label
 _atom_site_symmetry_multiplicity
 _atom_site_fract_x
 _atom_site_fract_y
 _atom_site_fract_z
 _atom_site_occupancy
  Cs  Cs0  1  0.00000000  0.23112900  0.23112900  1
  Cs  Cs1  1  0.00000000  0.76887100  0.76887100  1
  H  H2  1  0.00000000  0.00000000  0.00000000  1
  Cl  Cl3  1  0.00000000  0.50000000  0.50000000  1
