# generated using pymatgen
data_Mg2HgPt
_symmetry_space_group_name_H-M   'P 1'
_cell_length_a   12.40344193
_cell_length_b   12.40344193
_cell_length_c   12.40344193
_cell_angle_alpha   129.86414137
_cell_angle_beta   116.18462496
_cell_angle_gamma   85.28298715
_symmetry_Int_Tables_number   1
_chemical_formula_structural   Mg2HgPt
_chemical_formula_sum   'Mg2 Hg1 Pt1'
_cell_volume   1257.39285429
_cell_formula_units_Z   1
loop_
 _symmetry_equiv_pos_site_id
 _symmetry_equiv_pos_as_xyz
  1  'x, y, z'
loop_
 _atom_site_type_symbol
 _atom_site_label
 _atom_site_symmetry_multiplicity
 _atom_site_fract_x
 _atom_site_fract_y
 _atom_site_fract_z
 _atom_site_occupancy
  Mg  Mg0  1  0.00000000  0.23247600  0.23247600  1
  Mg  Mg1  1  0.00000000  0.76752400  0.76752400  1
  Hg  Hg2  1  0.00000000  0.50000000  0.50000000  1
  Pt  Pt3  1  0.00000000  0.00000000  0.00000000  1
