# generated using pymatgen
data_Mn3Fe5O12
_symmetry_space_group_name_H-M   'P 1'
_cell_length_a   8.24588700
_cell_length_b   8.33134484
_cell_length_c   8.26383638
_cell_angle_alpha   109.72185033
_cell_angle_beta   109.40086558
_cell_angle_gamma   108.81272363
_symmetry_Int_Tables_number   1
_chemical_formula_structural   Mn3Fe5O12
_chemical_formula_sum   'Mn6 Fe10 O24'
_cell_volume   439.57009285
_cell_formula_units_Z   2
loop_
 _symmetry_equiv_pos_site_id
 _symmetry_equiv_pos_as_xyz
  1  'x, y, z'
loop_
 _atom_site_type_symbol
 _atom_site_label
 _atom_site_symmetry_multiplicity
 _atom_site_fract_x
 _atom_site_fract_y
 _atom_site_fract_z
 _atom_site_occupancy
  Mn  Mn0  1  0.78302100  0.24960000  0.03566700  1
  Mn  Mn1  1  0.00016200  0.00356900  0.00381700  1
  Mn  Mn2  1  0.50155800  0.50161900  0.00334900  1
  Mn  Mn3  1  0.52778400  0.28125900  0.25268900  1
  Mn  Mn4  1  0.50200900  0.99839700  0.49956000  1
  Mn  Mn5  1  0.96909900  0.22142200  0.75154300  1
  Fe  Fe6  1  0.74769100  0.95702700  0.20990800  1
  Fe  Fe7  1  0.75202300  0.46563900  0.71369200  1
  Fe  Fe8  1  0.28837500  0.24990300  0.53809000  1
  Fe  Fe9  1  0.71290400  0.75067300  0.46305400  1
  Fe  Fe10  1  0.25109800  0.54182200  0.28980500  1
  Fe  Fe11  1  0.24912500  0.03710500  0.78752200  1
  Fe  Fe12  1  0.99839700  0.49701600  0.49452200  1
  Fe  Fe13  1  0.04230600  0.79025400  0.25114100  1
  Fe  Fe14  1  0.46073600  0.70875400  0.74820900  1
  Fe  Fe15  1  0.21055300  0.74923000  0.95892700  1
  O  O16  1  0.78513000  0.22371800  0.26687800  1
  O  O17  1  0.53697100  0.25764700  0.99702000  1
  O  O18  1  0.27075000  0.04596200  0.05172400  1
  O  O19  1  0.78298300  0.73487800  0.22661400  1
  O  O20  1  0.00939200  0.45975800  0.73639600  1
  O  O21  1  0.49524800  0.23056500  0.45653300  1
  O  O22  1  0.74446600  0.24640700  0.78767300  1
  O  O23  1  0.05146500  0.04810300  0.26945800  1
  O  O24  1  0.76388800  0.52960700  0.49576100  1
  O  O25  1  0.04314500  0.26454000  0.06592700  1
  O  O26  1  0.44101800  0.49741100  0.20752300  1
  O  O27  1  0.27972400  0.00016300  0.54562400  1
  O  O28  1  0.54715700  0.49702300  0.78201500  1
  O  O29  1  0.95189900  0.73655100  0.94640500  1
  O  O30  1  0.71381100  0.00369500  0.44715500  1
  O  O31  1  0.26168000  0.75754300  0.21199400  1
  O  O32  1  0.23212700  0.45321400  0.50143100  1
  O  O33  1  0.96247200  0.96912700  0.74428800  1
  O  O34  1  0.48998700  0.77266300  0.54752600  1
  O  O35  1  0.21613100  0.26159900  0.75516200  1
  O  O36  1  0.00702500  0.55744800  0.28227100  1
  O  O37  1  0.73361100  0.93498300  0.94546000  1
  O  O38  1  0.45920400  0.74014800  0.00269000  1
  O  O39  1  0.22387600  0.77395100  0.72497400  1
