# generated using pymatgen
data_Mn23FeO32
_symmetry_space_group_name_H-M   'P 1'
_cell_length_a   6.33246000
_cell_length_b   10.48612191
_cell_length_c   10.49754609
_cell_angle_alpha   105.89923609
_cell_angle_beta   94.44166748
_cell_angle_gamma   94.26788013
_symmetry_Int_Tables_number   1
_chemical_formula_structural   Mn23FeO32
_chemical_formula_sum   'Mn23 Fe1 O32'
_cell_volume   665.05540308
_cell_formula_units_Z   1
loop_
 _symmetry_equiv_pos_site_id
 _symmetry_equiv_pos_as_xyz
  1  'x, y, z'
loop_
 _atom_site_type_symbol
 _atom_site_label
 _atom_site_symmetry_multiplicity
 _atom_site_fract_x
 _atom_site_fract_y
 _atom_site_fract_z
 _atom_site_occupancy
  Mn  Mn0  1  0.99663000  0.93721000  0.81276400  1
  Mn  Mn1  1  0.50020200  0.06319800  0.68712100  1
  Mn  Mn2  1  0.50025000  0.43758200  0.81253500  1
  Mn  Mn3  1  0.00003100  0.25026700  0.74979000  1
  Mn  Mn4  1  0.75039200  0.25009200  0.50000700  1
  Mn  Mn5  1  0.49624100  0.75132200  0.75089500  1
  Mn  Mn6  1  0.00005400  0.56308600  0.68797700  1
  Mn  Mn7  1  0.49979800  0.93680200  0.31287900  1
  Mn  Mn8  1  0.50000000  0.50000000  0.50000000  1
  Mn  Mn9  1  0.25020000  0.24994200  0.49969200  1
  Mn  Mn10  1  0.00000000  0.00000000  0.50000000  1
  Mn  Mn11  1  0.74980000  0.75005800  0.50030800  1
  Mn  Mn12  1  0.50375900  0.24867800  0.24910500  1
  Mn  Mn13  1  0.24960800  0.74990800  0.49999300  1
  Mn  Mn14  1  0.75127200  0.25017500  0.99985500  1
  Mn  Mn15  1  0.00337000  0.06279000  0.18723600  1
  Mn  Mn16  1  0.49975000  0.56241800  0.18746500  1
  Mn  Mn17  1  0.99994600  0.43691400  0.31202300  1
  Mn  Mn18  1  0.74740400  0.75118300  0.00190900  1
  Mn  Mn19  1  0.25259600  0.24881700  0.99809100  1
  Mn  Mn20  1  0.99996900  0.74973300  0.25021000  1
  Mn  Mn21  1  0.00000000  0.50000000  0.00000000  1
  Mn  Mn22  1  0.24872800  0.74982500  0.00014500  1
  Fe  Fe23  1  0.50000000  0.00000000  0.00000000  1
  O  O24  1  0.77217800  0.13548100  0.62074200  1
  O  O25  1  0.99346800  0.35735300  0.62131000  1
  O  O26  1  0.49355500  0.37134000  0.60695300  1
  O  O27  1  0.99265200  0.87142700  0.60752800  1
  O  O28  1  0.22820800  0.12907800  0.61425900  1
  O  O29  1  0.72812300  0.62969000  0.61544400  1
  O  O30  1  0.72853700  0.36480400  0.37900700  1
  O  O31  1  0.50747100  0.14273800  0.37822700  1
  O  O32  1  0.27146300  0.63519600  0.62099300  1
  O  O33  1  0.49252900  0.85726200  0.62177300  1
  O  O34  1  0.00734800  0.12857300  0.39247200  1
  O  O35  1  0.27187700  0.37031000  0.38455600  1
  O  O36  1  0.77179200  0.87092200  0.38574100  1
  O  O37  1  0.50644500  0.62866000  0.39304700  1
  O  O38  1  0.99517000  0.37066400  0.10683300  1
  O  O39  1  0.73294600  0.13100200  0.11551100  1
  O  O40  1  0.77151900  0.63498200  0.12110100  1
  O  O41  1  0.99219400  0.85700000  0.12176400  1
  O  O42  1  0.00653200  0.64264700  0.37869000  1
  O  O43  1  0.28275000  0.12740600  0.11494600  1
  O  O44  1  0.22782200  0.86451900  0.37925800  1
  O  O45  1  0.49304400  0.35650700  0.12146600  1
  O  O46  1  0.77209200  0.37119700  0.88519400  1
  O  O47  1  0.50814200  0.13106200  0.89224000  1
  O  O48  1  0.49185800  0.86893800  0.10776000  1
  O  O49  1  0.22790800  0.62880300  0.11480600  1
  O  O50  1  0.22848100  0.36501800  0.87889900  1
  O  O51  1  0.50695600  0.64349300  0.87853400  1
  O  O52  1  0.00780600  0.14300000  0.87823600  1
  O  O53  1  0.71725000  0.87259400  0.88505400  1
  O  O54  1  0.00483000  0.62933600  0.89316700  1
  O  O55  1  0.26705400  0.86899800  0.88448900  1
