# generated using pymatgen
data_Co(Bi5O8)5
_symmetry_space_group_name_H-M   'P 1'
_cell_length_a   10.34986200
_cell_length_b   10.34986200
_cell_length_c   10.34986200
_cell_angle_alpha   90.00000000
_cell_angle_beta   90.00000000
_cell_angle_gamma   90.00000000
_symmetry_Int_Tables_number   1
_chemical_formula_structural   Co(Bi5O8)5
_chemical_formula_sum   'Co1 Bi25 O40'
_cell_volume   1108.67352688
_cell_formula_units_Z   1
loop_
 _symmetry_equiv_pos_site_id
 _symmetry_equiv_pos_as_xyz
  1  'x, y, z'
loop_
 _atom_site_type_symbol
 _atom_site_label
 _atom_site_symmetry_multiplicity
 _atom_site_fract_x
 _atom_site_fract_y
 _atom_site_fract_z
 _atom_site_occupancy
  Co  Co0  1  0.00000000  0.00000000  0.00000000  1
  Bi  Bi1  1  0.98178500  0.31960700  0.17681200  1
  Bi  Bi2  1  0.98178500  0.68039300  0.82318800  1
  Bi  Bi3  1  0.82318800  0.01821500  0.31960700  1
  Bi  Bi4  1  0.82318800  0.98178500  0.68039300  1
  Bi  Bi5  1  0.81912900  0.32172100  0.51060900  1
  Bi  Bi6  1  0.81912900  0.67827900  0.48939100  1
  Bi  Bi7  1  0.68039300  0.17681200  0.01821500  1
  Bi  Bi8  1  0.68039300  0.82318800  0.98178500  1
  Bi  Bi9  1  0.67827900  0.51060900  0.18087100  1
  Bi  Bi10  1  0.67827900  0.48939100  0.81912900  1
  Bi  Bi11  1  0.51060900  0.81912900  0.32172100  1
  Bi  Bi12  1  0.51060900  0.18087100  0.67827900  1
  Bi  Bi13  1  0.50000000  0.50000000  0.50000000  1
  Bi  Bi14  1  0.48939100  0.18087100  0.32172100  1
  Bi  Bi15  1  0.48939100  0.81912900  0.67827900  1
  Bi  Bi16  1  0.32172100  0.51060900  0.81912900  1
  Bi  Bi17  1  0.32172100  0.48939100  0.18087100  1
  Bi  Bi18  1  0.31960700  0.82318800  0.01821500  1
  Bi  Bi19  1  0.31960700  0.17681200  0.98178500  1
  Bi  Bi20  1  0.18087100  0.32172100  0.48939100  1
  Bi  Bi21  1  0.18087100  0.67827900  0.51060900  1
  Bi  Bi22  1  0.17681200  0.98178500  0.31960700  1
  Bi  Bi23  1  0.17681200  0.01821500  0.68039300  1
  Bi  Bi24  1  0.01821500  0.68039300  0.17681200  1
  Bi  Bi25  1  0.01821500  0.31960700  0.82318800  1
  O  O26  1  0.98995000  0.75165000  0.36648900  1
  O  O27  1  0.98995000  0.24835000  0.63351100  1
  O  O28  1  0.90510300  0.90510300  0.09489700  1
  O  O29  1  0.90510300  0.09489700  0.90510300  1
  O  O30  1  0.87164800  0.49096600  0.24438700  1
  O  O31  1  0.87164800  0.50903400  0.75561300  1
  O  O32  1  0.80538100  0.19461900  0.19461900  1
  O  O33  1  0.80538100  0.80538100  0.80538100  1
  O  O34  1  0.75165000  0.63351100  0.01005000  1
  O  O35  1  0.75165000  0.36648900  0.98995000  1
  O  O36  1  0.75561300  0.12835200  0.49096600  1
  O  O37  1  0.75561300  0.87164800  0.50903400  1
  O  O38  1  0.68501700  0.68501700  0.31498300  1
  O  O39  1  0.68501700  0.31498300  0.68501700  1
  O  O40  1  0.63351100  0.01005000  0.75165000  1
  O  O41  1  0.63351100  0.98995000  0.24835000  1
  O  O42  1  0.62638800  0.62638800  0.62638800  1
  O  O43  1  0.62638800  0.37361200  0.37361200  1
  O  O44  1  0.50903400  0.24438700  0.12835200  1
  O  O45  1  0.50903400  0.75561300  0.87164800  1
  O  O46  1  0.49096600  0.75561300  0.12835200  1
  O  O47  1  0.49096600  0.24438700  0.87164800  1
  O  O48  1  0.37361200  0.62638800  0.37361200  1
  O  O49  1  0.37361200  0.37361200  0.62638800  1
  O  O50  1  0.36648900  0.01005000  0.24835000  1
  O  O51  1  0.36648900  0.98995000  0.75165000  1
  O  O52  1  0.31498300  0.68501700  0.68501700  1
  O  O53  1  0.31498300  0.31498300  0.31498300  1
  O  O54  1  0.24438700  0.87164800  0.49096600  1
  O  O55  1  0.24438700  0.12835200  0.50903400  1
  O  O56  1  0.24835000  0.36648900  0.01005000  1
  O  O57  1  0.24835000  0.63351100  0.98995000  1
  O  O58  1  0.19461900  0.80538100  0.19461900  1
  O  O59  1  0.19461900  0.19461900  0.80538100  1
  O  O60  1  0.12835200  0.50903400  0.24438700  1
  O  O61  1  0.12835200  0.49096600  0.75561300  1
  O  O62  1  0.09489700  0.09489700  0.09489700  1
  O  O63  1  0.09489700  0.90510300  0.90510300  1
  O  O64  1  0.01005000  0.75165000  0.63351100  1
  O  O65  1  0.01005000  0.24835000  0.36648900  1
