# generated using pymatgen
data_Al2VIr
_symmetry_space_group_name_H-M   'P 1'
_cell_length_a   10.20669544
_cell_length_b   10.20669544
_cell_length_c   10.20669544
_cell_angle_alpha   120.97112005
_cell_angle_beta   119.53963046
_cell_angle_gamma   89.56274842
_symmetry_Int_Tables_number   1
_chemical_formula_structural   Al2VIr
_chemical_formula_sum   'Al2 V1 Ir1'
_cell_volume   748.79272137
_cell_formula_units_Z   1
loop_
 _symmetry_equiv_pos_site_id
 _symmetry_equiv_pos_as_xyz
  1  'x, y, z'
loop_
 _atom_site_type_symbol
 _atom_site_label
 _atom_site_symmetry_multiplicity
 _atom_site_fract_x
 _atom_site_fract_y
 _atom_site_fract_z
 _atom_site_occupancy
  Al  Al0  1  0.00000000  0.26626700  0.26626700  1
  Al  Al1  1  0.00000000  0.73373300  0.73373300  1
  V  V2  1  0.00000000  0.00000000  0.00000000  1
  Ir  Ir3  1  0.00000000  0.50000000  0.50000000  1
