# generated using pymatgen
data_Sr3Co3O8
_symmetry_space_group_name_H-M   'P 1'
_cell_length_a   5.60363867
_cell_length_b   5.60363867
_cell_length_c   11.96652028
_cell_angle_alpha   76.96993668
_cell_angle_beta   76.96993668
_cell_angle_gamma   89.83917612
_symmetry_Int_Tables_number   1
_chemical_formula_structural   Sr3Co3O8
_chemical_formula_sum   'Sr6 Co6 O16'
_cell_volume   356.20006648
_cell_formula_units_Z   2
loop_
 _symmetry_equiv_pos_site_id
 _symmetry_equiv_pos_as_xyz
  1  'x, y, z'
loop_
 _atom_site_type_symbol
 _atom_site_label
 _atom_site_symmetry_multiplicity
 _atom_site_fract_x
 _atom_site_fract_y
 _atom_site_fract_z
 _atom_site_occupancy
  Sr  Sr0  1  0.50000000  0.00000000  0.00000000  1
  Sr  Sr1  1  0.00000000  0.50000000  0.00000000  1
  Sr  Sr2  1  0.82850300  0.34194800  0.32825500  1
  Sr  Sr3  1  0.65805200  0.17149700  0.67174500  1
  Sr  Sr4  1  0.17149700  0.65805200  0.67174500  1
  Sr  Sr5  1  0.34194800  0.82850300  0.32825500  1
  Co  Co6  1  0.58719400  0.58719400  0.83740800  1
  Co  Co7  1  0.41280600  0.41280600  0.16259200  1
  Co  Co8  1  0.26341800  0.26341800  0.49558900  1
  Co  Co9  1  0.08615400  0.08615400  0.82113000  1
  Co  Co10  1  0.91384600  0.91384600  0.17887000  1
  Co  Co11  1  0.73658200  0.73658200  0.50441100  1
  O  O12  1  0.50000000  0.50000000  0.00000000  1
  O  O13  1  0.00000000  0.50000000  0.50000000  1
  O  O14  1  0.14364000  0.69181500  0.15702800  1
  O  O15  1  0.16649500  0.16649500  0.14544500  1
  O  O16  1  0.66406500  0.66406500  0.17657300  1
  O  O17  1  0.50000000  0.50000000  0.50000000  1
  O  O18  1  0.30818500  0.85636000  0.84297200  1
  O  O19  1  0.69181500  0.14364000  0.15702800  1
  O  O20  1  0.50000000  0.00000000  0.50000000  1
  O  O21  1  0.30250200  0.30250200  0.33479300  1
  O  O22  1  0.88003600  0.88003600  0.35083700  1
  O  O23  1  0.11996400  0.11996400  0.64916300  1
  O  O24  1  0.69749800  0.69749800  0.66520700  1
  O  O25  1  0.83350500  0.83350500  0.85455500  1
  O  O26  1  0.33593500  0.33593500  0.82342700  1
  O  O27  1  0.85636000  0.30818500  0.84297200  1
