data_image0
_chemical_formula_structural       Cs2H8MgO16P4
_chemical_formula_sum              "Cs2 H8 Mg1 O16 P4"
_cell_length_a       6.95198
_cell_length_b       7.28843
_cell_length_c       7.83184
_cell_angle_alpha    83.2294
_cell_angle_beta     68.5394
_cell_angle_gamma    87.2086

_space_group_name_H-M_alt    "P 1"
_space_group_IT_number       1

loop_
  _space_group_symop_operation_xyz
  'x, y, z'

loop_
  _atom_site_type_symbol
  _atom_site_label
  _atom_site_symmetry_multiplicity
  _atom_site_fract_x
  _atom_site_fract_y
  _atom_site_fract_z
  _atom_site_occupancy
  Cs  Cs1       1.0  0.09010  0.70300  0.28100  1.0000
  Cs  Cs2       1.0  0.91000  0.29700  0.71900  1.0000
  H   H1        1.0  0.11400  0.25300  0.08500  1.0000
  H   H2        1.0  0.61300  0.69500  0.15200  1.0000
  H   H3        1.0  0.62900  0.82700  0.29700  1.0000
  H   H4        1.0  0.27100  0.02460  0.45700  1.0000
  H   H5        1.0  0.72900  0.97500  0.54300  1.0000
  H   H6        1.0  0.37100  0.17300  0.70300  1.0000
  H   H7        1.0  0.38700  0.30500  0.84800  1.0000
  H   H8        1.0  0.88600  0.74700  0.91500  1.0000
  Mg  Mg1       1.0  0.50000  0.50000  0.50000  1.0000
  O   O1        1.0  0.98200  0.19700  0.07370  1.0000
  O   O2        1.0  0.30100  0.32500  0.07750  1.0000
  O   O3        1.0  0.61700  0.22000  0.13900  1.0000
  O   O4        1.0  0.57300  0.70900  0.28500  1.0000
  O   O5        1.0  0.27000  0.05920  0.32200  1.0000
  O   O6        1.0  0.73900  0.00393  0.35600  1.0000
  O   O7        1.0  0.76400  0.35300  0.35900  1.0000
  O   O8        1.0  0.33100  0.37900  0.38500  1.0000
  O   O9        1.0  0.66900  0.62100  0.61500  1.0000
  O   O10       1.0  0.23600  0.64700  0.64100  1.0000
  O   O11       1.0  0.26100  0.99600  0.64400  1.0000
  O   O12       1.0  0.73000  0.94100  0.67800  1.0000
  O   O13       1.0  0.42700  0.29100  0.71500  1.0000
  O   O14       1.0  0.38300  0.78000  0.86100  1.0000
  O   O15       1.0  0.69900  0.67500  0.92300  1.0000
  O   O16       1.0  0.01750  0.80300  0.92600  1.0000
  P   P1        1.0  0.37000  0.25300  0.23600  1.0000
  P   P2        1.0  0.78000  0.19500  0.24700  1.0000
  P   P3        1.0  0.22000  0.80500  0.75300  1.0000
  P   P4        1.0  0.63000  0.74700  0.76400  1.0000
