# generated using pymatgen
data_Ce6Y2O15
_symmetry_space_group_name_H-M   'P 1'
_cell_length_a   9.43576110
_cell_length_b   9.43576110
_cell_length_c   10.88670822
_cell_angle_alpha   54.76548152
_cell_angle_beta   54.76548152
_cell_angle_gamma   70.61076639
_symmetry_Int_Tables_number   1
_chemical_formula_structural   Ce6Y2O15
_chemical_formula_sum   'Ce12 Y4 O30'
_cell_volume   646.66427213
_cell_formula_units_Z   2
loop_
 _symmetry_equiv_pos_site_id
 _symmetry_equiv_pos_as_xyz
  1  'x, y, z'
loop_
 _atom_site_type_symbol
 _atom_site_label
 _atom_site_symmetry_multiplicity
 _atom_site_fract_x
 _atom_site_fract_y
 _atom_site_fract_z
 _atom_site_occupancy
  Ce  Ce0  1  0.24819600  0.75680800  0.74449000  1
  Ce  Ce1  1  0.26739700  0.24260100  0.48253300  1
  Ce  Ce2  1  0.75066400  0.75246300  0.00074900  1
  Ce  Ce3  1  0.50494600  0.49799300  0.99654400  1
  Ce  Ce4  1  0.24816400  0.72891200  0.25741600  1
  Ce  Ce5  1  0.49799300  0.50494600  0.49654400  1
  Ce  Ce6  1  0.72891200  0.24816400  0.75741600  1
  Ce  Ce7  1  0.49587400  0.99903000  0.75047300  1
  Ce  Ce8  1  0.99903000  0.49587400  0.25047300  1
  Ce  Ce9  1  0.24260100  0.26739700  0.98253300  1
  Ce  Ce10  1  0.75246300  0.75066400  0.50074900  1
  Ce  Ce11  1  0.75680800  0.24819600  0.24449000  1
  Y  Y12  1  0.98109500  0.00448600  0.51995800  1
  Y  Y13  1  0.00043100  0.52617600  0.74467600  1
  Y  Y14  1  0.52617600  0.00043100  0.24467600  1
  Y  Y15  1  0.00448600  0.98109500  0.01995800  1
  O  O16  1  0.25167500  0.51628000  0.73813400  1
  O  O17  1  0.23524900  0.01566800  0.74811600  1
  O  O18  1  0.48535600  0.76511700  0.24930400  1
  O  O19  1  0.00491500  0.25652000  0.97369100  1
  O  O20  1  0.25652000  0.00491500  0.47369100  1
  O  O21  1  0.25690100  0.48941900  0.24367500  1
  O  O22  1  0.47462300  0.23037300  0.01571400  1
  O  O23  1  0.23037300  0.47462300  0.51571400  1
  O  O24  1  0.99349200  0.76043100  0.75619600  1
  O  O25  1  0.77736100  0.02689100  0.97427000  1
  O  O26  1  0.02689100  0.77736100  0.47427000  1
  O  O27  1  0.51628000  0.25167500  0.23813400  1
  O  O28  1  0.00252000  0.73242600  0.25948900  1
  O  O29  1  0.24909500  0.50510800  0.99224900  1
  O  O30  1  0.73242600  0.00252000  0.75948900  1
  O  O31  1  0.50746100  0.74957600  0.50065700  1
  O  O32  1  0.74957600  0.50746100  0.00065700  1
  O  O33  1  0.25040700  0.99429100  0.02656000  1
  O  O34  1  0.49864100  0.74959800  0.75101800  1
  O  O35  1  0.99429100  0.25040700  0.52656000  1
  O  O36  1  0.01566800  0.23524900  0.24811600  1
  O  O37  1  0.49718700  0.74270900  0.00110400  1
  O  O38  1  0.74270900  0.49718700  0.50110400  1
  O  O39  1  0.76511700  0.48535600  0.74930400  1
  O  O40  1  0.48941900  0.25690100  0.74367500  1
  O  O41  1  0.74179400  0.99765300  0.50900600  1
  O  O42  1  0.99765300  0.74179400  0.00900600  1
  O  O43  1  0.76043100  0.99349200  0.25619600  1
  O  O44  1  0.50510800  0.24909500  0.49224900  1
  O  O45  1  0.74959800  0.49864100  0.25101800  1
