# generated using pymatgen
data_Li2TiCo3O8
_symmetry_space_group_name_H-M   'P 1'
_cell_length_a   8.13931500
_cell_length_b   8.13931500
_cell_length_c   8.13931500
_cell_angle_alpha   90.00000000
_cell_angle_beta   90.00000000
_cell_angle_gamma   90.00000000
_symmetry_Int_Tables_number   1
_chemical_formula_structural   Li2TiCo3O8
_chemical_formula_sum   'Li8 Ti4 Co12 O32'
_cell_volume   539.21699198
_cell_formula_units_Z   4
loop_
 _symmetry_equiv_pos_site_id
 _symmetry_equiv_pos_as_xyz
  1  'x, y, z'
loop_
 _atom_site_type_symbol
 _atom_site_label
 _atom_site_symmetry_multiplicity
 _atom_site_fract_x
 _atom_site_fract_y
 _atom_site_fract_z
 _atom_site_occupancy
  Li  Li0  1  0.99509300  0.99509300  0.99509300  1
  Li  Li1  1  0.25490700  0.25490700  0.25490700  1
  Li  Li2  1  0.24509300  0.74509300  0.75490700  1
  Li  Li3  1  0.50490700  0.00490700  0.49509300  1
  Li  Li4  1  0.49509300  0.50490700  0.00490700  1
  Li  Li5  1  0.75490700  0.24509300  0.74509300  1
  Li  Li6  1  0.74509300  0.75490700  0.24509300  1
  Li  Li7  1  0.00490700  0.49509300  0.50490700  1
  Ti  Ti8  1  0.12500000  0.87500000  0.37500000  1
  Ti  Ti9  1  0.37500000  0.12500000  0.87500000  1
  Ti  Ti10  1  0.62500000  0.62500000  0.62500000  1
  Ti  Ti11  1  0.87500000  0.37500000  0.12500000  1
  Co  Co12  1  0.12587800  0.12412200  0.62500000  1
  Co  Co13  1  0.12500000  0.37412200  0.87587800  1
  Co  Co14  1  0.12412200  0.62500000  0.12587800  1
  Co  Co15  1  0.37587800  0.37500000  0.62587800  1
  Co  Co16  1  0.37500000  0.62587800  0.37587800  1
  Co  Co17  1  0.37412200  0.87587800  0.12500000  1
  Co  Co18  1  0.62587800  0.37587800  0.37500000  1
  Co  Co19  1  0.62500000  0.12587800  0.12412200  1
  Co  Co20  1  0.62412200  0.87500000  0.87412200  1
  Co  Co21  1  0.87587800  0.12500000  0.37412200  1
  Co  Co22  1  0.87500000  0.87412200  0.62412200  1
  Co  Co23  1  0.87412200  0.62412200  0.87500000  1
  O  O24  1  0.11167700  0.11711800  0.38905100  1
  O  O25  1  0.11094900  0.88832300  0.61711800  1
  O  O26  1  0.10845000  0.60845000  0.89155000  1
  O  O27  1  0.13288200  0.13832300  0.86094900  1
  O  O28  1  0.11711800  0.38905100  0.11167700  1
  O  O29  1  0.14155000  0.35845000  0.64155000  1
  O  O30  1  0.13905100  0.63288200  0.36167700  1
  O  O31  1  0.13832300  0.86094900  0.13288200  1
  O  O32  1  0.36167700  0.13905100  0.63288200  1
  O  O33  1  0.36094900  0.36711800  0.86167700  1
  O  O34  1  0.35845000  0.64155000  0.14155000  1
  O  O35  1  0.38288200  0.61094900  0.61167700  1
  O  O36  1  0.36711800  0.86167700  0.36094900  1
  O  O37  1  0.39155000  0.39155000  0.39155000  1
  O  O38  1  0.38905100  0.11167700  0.11711800  1
  O  O39  1  0.38832300  0.88288200  0.88905100  1
  O  O40  1  0.61167700  0.38288200  0.61094900  1
  O  O41  1  0.61094900  0.61167700  0.38288200  1
  O  O42  1  0.60845000  0.89155000  0.10845000  1
  O  O43  1  0.63288200  0.36167700  0.13905100  1
  O  O44  1  0.61711800  0.11094900  0.88832300  1
  O  O45  1  0.64155000  0.14155000  0.35845000  1
  O  O46  1  0.63905100  0.86711800  0.63832300  1
  O  O47  1  0.63832300  0.63905100  0.86711800  1
  O  O48  1  0.86167700  0.36094900  0.36711800  1
  O  O49  1  0.86094900  0.13288200  0.13832300  1
  O  O50  1  0.85845000  0.85845000  0.85845000  1
  O  O51  1  0.88288200  0.88905100  0.38832300  1
  O  O52  1  0.86711800  0.63832300  0.63905100  1
  O  O53  1  0.89155000  0.10845000  0.60845000  1
  O  O54  1  0.88905100  0.38832300  0.88288200  1
  O  O55  1  0.88832300  0.61711800  0.11094900  1
