# generated using pymatgen
data_Ta2TcRu
_symmetry_space_group_name_H-M   'P 1'
_cell_length_a   10.47224323
_cell_length_b   10.47224323
_cell_length_c   10.47224323
_cell_angle_alpha   129.22260302
_cell_angle_beta   117.05234152
_cell_angle_gamma   85.00094915
_symmetry_Int_Tables_number   1
_chemical_formula_structural   Ta2TcRu
_chemical_formula_sum   'Ta2 Tc1 Ru1'
_cell_volume   758.19188503
_cell_formula_units_Z   1
loop_
 _symmetry_equiv_pos_site_id
 _symmetry_equiv_pos_as_xyz
  1  'x, y, z'
loop_
 _atom_site_type_symbol
 _atom_site_label
 _atom_site_symmetry_multiplicity
 _atom_site_fract_x
 _atom_site_fract_y
 _atom_site_fract_z
 _atom_site_occupancy
  Ta  Ta0  1  0.00000000  0.24904200  0.24904200  1
  Ta  Ta1  1  0.00000000  0.75095800  0.75095800  1
  Tc  Tc2  1  0.00000000  0.00000000  0.00000000  1
  Ru  Ru3  1  0.00000000  0.50000000  0.50000000  1
