# generated using pymatgen
data_V2FeTc
_symmetry_space_group_name_H-M   'P 1'
_cell_length_a   10.26123892
_cell_length_b   10.26123892
_cell_length_c   10.26123892
_cell_angle_alpha   124.48999109
_cell_angle_beta   117.68328925
_cell_angle_gamma   88.23237072
_symmetry_Int_Tables_number   1
_chemical_formula_structural   V2FeTc
_chemical_formula_sum   'V2 Fe1 Tc1'
_cell_volume   747.60236278
_cell_formula_units_Z   1
loop_
 _symmetry_equiv_pos_site_id
 _symmetry_equiv_pos_as_xyz
  1  'x, y, z'
loop_
 _atom_site_type_symbol
 _atom_site_label
 _atom_site_symmetry_multiplicity
 _atom_site_fract_x
 _atom_site_fract_y
 _atom_site_fract_z
 _atom_site_occupancy
  V  V0  1  0.00000000  0.27490900  0.27490900  1
  V  V1  1  0.00000000  0.72509100  0.72509100  1
  Fe  Fe2  1  0.00000000  0.00000000  0.00000000  1
  Tc  Tc3  1  0.00000000  0.50000000  0.50000000  1
