# generated using pymatgen
data_K8Li3Mn4O16
_symmetry_space_group_name_H-M   'P 1'
_cell_length_a   5.74399550
_cell_length_b   8.14094341
_cell_length_c   11.13527685
_cell_angle_alpha   91.84149481
_cell_angle_beta   86.22343967
_cell_angle_gamma   90.08507726
_symmetry_Int_Tables_number   1
_chemical_formula_structural   K8Li3Mn4O16
_chemical_formula_sum   'K8 Li3 Mn4 O16'
_cell_volume   519.30357526
_cell_formula_units_Z   1
loop_
 _symmetry_equiv_pos_site_id
 _symmetry_equiv_pos_as_xyz
  1  'x, y, z'
loop_
 _atom_site_type_symbol
 _atom_site_label
 _atom_site_symmetry_multiplicity
 _atom_site_fract_x
 _atom_site_fract_y
 _atom_site_fract_z
 _atom_site_occupancy
  K  K0  1  0.24540100  0.97637400  0.17185700  1
  K  K1  1  0.24117100  0.25867800  0.65464500  1
  K  K2  1  0.24859800  0.45791100  0.33032400  1
  K  K3  1  0.73844600  0.24252300  0.15146800  1
  K  K4  1  0.25701200  0.75306000  0.85513100  1
  K  K5  1  0.74636400  0.52711400  0.68129300  1
  K  K6  1  0.77091200  0.77344300  0.36630700  1
  K  K7  1  0.75170800  0.01416900  0.78305500  1
  Li  Li8  1  0.30486000  0.52522300  0.06359000  1
  Li  Li9  1  0.19341100  0.02743300  0.44331400  1
  Li  Li10  1  0.68976300  0.46518300  0.93738400  1
  Mn  Mn11  1  0.19975000  0.26784000  0.94052000  1
  Mn  Mn12  1  0.29095100  0.76996400  0.55765100  1
  Mn  Mn13  1  0.71723400  0.22929400  0.44422700  1
  Mn  Mn14  1  0.79267000  0.72452900  0.05946600  1
  O  O15  1  0.07623600  0.69347900  0.09541400  1
  O  O16  1  0.20842700  0.29340500  0.09571200  1
  O  O17  1  0.13365200  0.93281300  0.61397600  1
  O  O18  1  0.18192300  0.58721200  0.59885100  1
  O  O19  1  0.29004100  0.78915100  0.40529100  1
  O  O20  1  0.44293300  0.17727900  0.40091400  1
  O  O21  1  0.30410200  0.08266100  0.88886900  1
  O  O22  1  0.62114400  0.56014200  0.10904600  1
  O  O23  1  0.37425800  0.42931500  0.88635700  1
  O  O24  1  0.69842200  0.90779000  0.11957200  1
  O  O25  1  0.55998800  0.79109000  0.60410200  1
  O  O26  1  0.72160100  0.22264800  0.59678600  1
  O  O27  1  0.77197800  0.42480000  0.40066300  1
  O  O28  1  0.92012300  0.09912200  0.37132600  1
  O  O29  1  0.77847300  0.70559300  0.90373200  1
  O  O30  1  0.92176200  0.29655500  0.89574400  1
