# generated using pymatgen
data_La16Mn15O48
_symmetry_space_group_name_H-M   'P 1'
_cell_length_a   5.53584700
_cell_length_b   12.42081819
_cell_length_c   14.82537388
_cell_angle_alpha   85.54980325
_cell_angle_beta   79.59944920
_cell_angle_gamma   78.31870168
_symmetry_Int_Tables_number   1
_chemical_formula_structural   La16Mn15O48
_chemical_formula_sum   'La16 Mn15 O48'
_cell_volume   980.98269648
_cell_formula_units_Z   1
loop_
 _symmetry_equiv_pos_site_id
 _symmetry_equiv_pos_as_xyz
  1  'x, y, z'
loop_
 _atom_site_type_symbol
 _atom_site_label
 _atom_site_symmetry_multiplicity
 _atom_site_fract_x
 _atom_site_fract_y
 _atom_site_fract_z
 _atom_site_occupancy
  La  La0  1  0.40245600  0.14253300  0.02977000  1
  La  La1  1  0.84660500  0.08934500  0.20645900  1
  La  La2  1  0.28079000  0.03148300  0.40529900  1
  La  La3  1  0.65691100  0.40464100  0.28098700  1
  La  La4  1  0.21953600  0.46778800  0.09315000  1
  La  La5  1  0.96353300  0.20815300  0.85416400  1
  La  La6  1  0.52936700  0.28196400  0.65795200  1
  La  La7  1  0.90692200  0.65631900  0.53133700  1
  La  La8  1  0.03646700  0.79184700  0.14583600  1
  La  La9  1  0.47063300  0.71803600  0.34204800  1
  La  La10  1  0.09307800  0.34368100  0.46866300  1
  La  La11  1  0.78046400  0.53221200  0.90685000  1
  La  La12  1  0.34308900  0.59535900  0.71901300  1
  La  La13  1  0.71921000  0.96851700  0.59470100  1
  La  La14  1  0.59754400  0.85746700  0.97023000  1
  La  La15  1  0.15339500  0.91065500  0.79354100  1
  Mn  Mn16  1  0.81166400  0.31286200  0.06252000  1
  Mn  Mn17  1  0.68874900  0.18653700  0.43641300  1
  Mn  Mn18  1  0.24984600  0.24977000  0.24961800  1
  Mn  Mn19  1  0.62398500  0.62523600  0.12485800  1
  Mn  Mn20  1  0.56341800  0.06307700  0.81067600  1
  Mn  Mn21  1  0.93785000  0.43612600  0.68871600  1
  Mn  Mn22  1  0.43658200  0.93692300  0.18932400  1
  Mn  Mn23  1  0.12614800  0.12375800  0.62525100  1
  Mn  Mn24  1  0.87385200  0.87624200  0.37474900  1
  Mn  Mn25  1  0.50000000  0.50000000  0.50000000  1
  Mn  Mn26  1  0.06215000  0.56387400  0.31128400  1
  Mn  Mn27  1  0.31125100  0.81346300  0.56358700  1
  Mn  Mn28  1  0.37601500  0.37476400  0.87514200  1
  Mn  Mn29  1  0.75015400  0.75023000  0.75038200  1
  Mn  Mn30  1  0.18833600  0.68713800  0.93748000  1
  O  O31  1  0.90064700  0.17337300  0.01322900  1
  O  O32  1  0.79070700  0.03952800  0.37846600  1
  O  O33  1  0.57158400  0.25842900  0.16543400  1
  O  O34  1  0.94803900  0.62889300  0.03868300  1
  O  O35  1  0.71371600  0.45716800  0.11950400  1
  O  O36  1  0.92774200  0.24591700  0.33697900  1
  O  O37  1  0.33524700  0.08535600  0.24489300  1
  O  O38  1  0.95544600  0.13891400  0.51358600  1
  O  O39  1  0.45499200  0.63541600  0.01572800  1
  O  O40  1  0.08378400  0.26285100  0.13906900  1
  O  O41  1  0.41671500  0.23646700  0.36135500  1
  O  O42  1  0.79034900  0.60770300  0.23567100  1
  O  O43  1  0.44901000  0.13065700  0.53870100  1
  O  O44  1  0.82337600  0.50626500  0.41469900  1
  O  O45  1  0.53819000  0.79020600  0.13258400  1
  O  O46  1  0.16551200  0.41409300  0.25614100  1
  O  O47  1  0.95848800  0.71133800  0.36994900  1
  O  O48  1  0.79319700  0.11873800  0.70838500  1
  O  O49  1  0.58475300  0.33567500  0.49479700  1
  O  O50  1  0.29904200  0.62106700  0.20960400  1
  O  O51  1  0.66439600  0.98979200  0.09428000  1
  O  O52  1  0.81427700  0.02251000  0.88409100  1
  O  O53  1  0.33217000  0.51418700  0.38941300  1
  O  O54  1  0.70750800  0.88969800  0.26241400  1
  O  O55  1  0.29249200  0.11030200  0.73758600  1
  O  O56  1  0.66783000  0.48581300  0.61058700  1
  O  O57  1  0.18572300  0.97749000  0.11590900  1
  O  O58  1  0.04151200  0.28866200  0.63005100  1
  O  O59  1  0.70095800  0.37893300  0.79039600  1
  O  O60  1  0.33560400  0.01020800  0.90572000  1
  O  O61  1  0.41524700  0.66432500  0.50520300  1
  O  O62  1  0.20680300  0.88126200  0.29161500  1
  O  O63  1  0.46181000  0.20979400  0.86741600  1
  O  O64  1  0.83448800  0.58590700  0.74385900  1
  O  O65  1  0.17662400  0.49373500  0.58530100  1
  O  O66  1  0.55099000  0.86934300  0.46129900  1
  O  O67  1  0.58328500  0.76353300  0.63864500  1
  O  O68  1  0.20965100  0.39229700  0.76432900  1
  O  O69  1  0.54500800  0.36458400  0.98427200  1
  O  O70  1  0.04455400  0.86108600  0.48641400  1
  O  O71  1  0.91621600  0.73714900  0.86093100  1
  O  O72  1  0.66475300  0.91464400  0.75510700  1
  O  O73  1  0.28628400  0.54283200  0.88049600  1
  O  O74  1  0.07225800  0.75408300  0.66302100  1
  O  O75  1  0.20929300  0.96047200  0.62153400  1
  O  O76  1  0.05196100  0.37110700  0.96131700  1
  O  O77  1  0.42841600  0.74157100  0.83456600  1
  O  O78  1  0.09935300  0.82662700  0.98677100  1
