# generated using pymatgen
data_NaZn2Au
_symmetry_space_group_name_H-M   'P 1'
_cell_length_a   11.51398821
_cell_length_b   11.51398821
_cell_length_c   11.51398821
_cell_angle_alpha   123.40946129
_cell_angle_beta   118.78967274
_cell_angle_gamma   88.15393671
_symmetry_Int_Tables_number   1
_chemical_formula_structural   NaZn2Au
_chemical_formula_sum   'Na1 Zn2 Au1'
_cell_volume   1058.56886865
_cell_formula_units_Z   1
loop_
 _symmetry_equiv_pos_site_id
 _symmetry_equiv_pos_as_xyz
  1  'x, y, z'
loop_
 _atom_site_type_symbol
 _atom_site_label
 _atom_site_symmetry_multiplicity
 _atom_site_fract_x
 _atom_site_fract_y
 _atom_site_fract_z
 _atom_site_occupancy
  Na  Na0  1  0.00000000  0.00000000  0.00000000  1
  Zn  Zn1  1  0.00000000  0.26688900  0.26688900  1
  Zn  Zn2  1  0.00000000  0.73311100  0.73311100  1
  Au  Au3  1  0.00000000  0.50000000  0.50000000  1
