# generated using pymatgen
data_Sc2CoRh
_symmetry_space_group_name_H-M   'P 1'
_cell_length_a   10.69431974
_cell_length_b   10.69431974
_cell_length_c   10.69431974
_cell_angle_alpha   130.18974123
_cell_angle_beta   116.84338291
_cell_angle_gamma   84.44080025
_symmetry_Int_Tables_number   1
_chemical_formula_structural   Sc2CoRh
_chemical_formula_sum   'Sc2 Co1 Rh1'
_cell_volume   798.98369243
_cell_formula_units_Z   1
loop_
 _symmetry_equiv_pos_site_id
 _symmetry_equiv_pos_as_xyz
  1  'x, y, z'
loop_
 _atom_site_type_symbol
 _atom_site_label
 _atom_site_symmetry_multiplicity
 _atom_site_fract_x
 _atom_site_fract_y
 _atom_site_fract_z
 _atom_site_occupancy
  Sc  Sc0  1  0.00000000  0.24347700  0.24347700  1
  Sc  Sc1  1  0.00000000  0.75652300  0.75652300  1
  Co  Co2  1  0.00000000  0.00000000  0.00000000  1
  Rh  Rh3  1  0.00000000  0.50000000  0.50000000  1
