# generated using pymatgen
data_NaCoH2C3O7
_symmetry_space_group_name_H-M   'P 1'
_cell_length_a   15.79550700
_cell_length_b   5.92345300
_cell_length_c   7.06575425
_cell_angle_alpha   79.96575572
_cell_angle_beta   90.00000000
_cell_angle_gamma   90.00000000
_symmetry_Int_Tables_number   1
_chemical_formula_structural   NaCoH2C3O7
_chemical_formula_sum   'Na4 Co4 H8 C12 O28'
_cell_volume   650.98750938
_cell_formula_units_Z   4
loop_
 _symmetry_equiv_pos_site_id
 _symmetry_equiv_pos_as_xyz
  1  'x, y, z'
loop_
 _atom_site_type_symbol
 _atom_site_label
 _atom_site_symmetry_multiplicity
 _atom_site_fract_x
 _atom_site_fract_y
 _atom_site_fract_z
 _atom_site_occupancy
  Na  Na0  1  0.31670900  0.96726600  0.69240600  1
  Na  Na1  1  0.18329100  0.96726600  0.19240600  1
  Na  Na2  1  0.81670900  0.03273400  0.80759400  1
  Na  Na3  1  0.68329100  0.03273400  0.30759400  1
  Co  Co4  1  0.10046100  0.77205000  0.78290400  1
  Co  Co5  1  0.39953900  0.77205000  0.28290400  1
  Co  Co6  1  0.60046100  0.22795000  0.71709600  1
  Co  Co7  1  0.89953900  0.22795000  0.21709600  1
  H  H8  1  0.47167000  0.67504000  0.63778700  1
  H  H9  1  0.38084900  0.54792500  0.64129700  1
  H  H10  1  0.02833000  0.67504000  0.13778700  1
  H  H11  1  0.88084900  0.45207500  0.85870300  1
  H  H12  1  0.11915100  0.54792500  0.14129700  1
  H  H13  1  0.97167000  0.32496000  0.86221300  1
  H  H14  1  0.61915100  0.45207500  0.35870300  1
  H  H15  1  0.52833000  0.32496000  0.36221300  1
  C  C16  1  0.96394500  0.99466600  0.57416600  1
  C  C17  1  0.53605500  0.99466600  0.07416600  1
  C  C18  1  0.64925600  0.70240800  0.71444900  1
  C  C19  1  0.85074400  0.70240800  0.21444900  1
  C  C20  1  0.73115000  0.55454500  0.74668000  1
  C  C21  1  0.76885000  0.55454500  0.24668000  1
  C  C22  1  0.23115000  0.44545500  0.75332000  1
  C  C23  1  0.26885000  0.44545500  0.25332000  1
  C  C24  1  0.14925600  0.29759200  0.78555100  1
  C  C25  1  0.35074400  0.29759200  0.28555100  1
  C  C26  1  0.46394500  0.00533400  0.92583400  1
  C  C27  1  0.03605500  0.00533400  0.42583400  1
  O  O28  1  0.39609700  0.90030000  0.98253400  1
  O  O29  1  0.65944200  0.91761300  0.67534000  1
  O  O30  1  0.97682900  0.88287700  0.74172900  1
  O  O31  1  0.10390300  0.90030000  0.48253400  1
  O  O32  1  0.84055800  0.91761300  0.17534000  1
  O  O33  1  0.52317100  0.88287700  0.24172900  1
  O  O34  1  0.22261100  0.65636600  0.76577700  1
  O  O35  1  0.79927500  0.64810800  0.78508100  1
  O  O36  1  0.41311100  0.68949200  0.58623700  1
  O  O37  1  0.57971900  0.59225400  0.72934900  1
  O  O38  1  0.27738900  0.65636600  0.26577700  1
  O  O39  1  0.70072500  0.64810800  0.28508100  1
  O  O40  1  0.08688900  0.68949200  0.08623700  1
  O  O41  1  0.92028100  0.59225400  0.22934900  1
  O  O42  1  0.07971900  0.40774600  0.77065100  1
  O  O43  1  0.91311100  0.31050800  0.91376300  1
  O  O44  1  0.29927500  0.35189200  0.71491900  1
  O  O45  1  0.72261100  0.34363400  0.73422300  1
  O  O46  1  0.42028100  0.40774600  0.27065100  1
  O  O47  1  0.58688900  0.31050800  0.41376300  1
  O  O48  1  0.20072500  0.35189200  0.21491900  1
  O  O49  1  0.77738900  0.34363400  0.23422300  1
  O  O50  1  0.47682900  0.11712300  0.75827100  1
  O  O51  1  0.15944200  0.08238700  0.82466000  1
  O  O52  1  0.89609700  0.09970000  0.51746600  1
  O  O53  1  0.02317100  0.11712300  0.25827100  1
  O  O54  1  0.34055800  0.08238700  0.32466000  1
  O  O55  1  0.60390300  0.09970000  0.01746600  1
