# generated using pymatgen
data_Fe3Co2Sb(PO4)6
_symmetry_space_group_name_H-M   'P 1'
_cell_length_a   8.55753467
_cell_length_b   8.55753467
_cell_length_c   8.55753444
_cell_angle_alpha   60.91392344
_cell_angle_beta   60.91392344
_cell_angle_gamma   60.91391886
_symmetry_Int_Tables_number   1
_chemical_formula_structural   Fe3Co2Sb(PO4)6
_chemical_formula_sum   'Fe3 Co2 Sb1 P6 O24'
_cell_volume   452.25739677
_cell_formula_units_Z   1
loop_
 _symmetry_equiv_pos_site_id
 _symmetry_equiv_pos_as_xyz
  1  'x, y, z'
loop_
 _atom_site_type_symbol
 _atom_site_label
 _atom_site_symmetry_multiplicity
 _atom_site_fract_x
 _atom_site_fract_y
 _atom_site_fract_z
 _atom_site_occupancy
  Fe  Fe0  1  0.35463800  0.35463800  0.35463800  1
  Fe  Fe1  1  0.14519600  0.14519600  0.14519600  1
  Fe  Fe2  1  0.64338700  0.64338700  0.64338700  1
  Co  Co3  1  0.00690800  0.00690800  0.00690800  1
  Co  Co4  1  0.49932800  0.49932800  0.49932800  1
  Sb  Sb5  1  0.85735100  0.85735100  0.85735100  1
  P  P6  1  0.74605000  0.04713200  0.45228200  1
  P  P7  1  0.04713200  0.45228200  0.74605000  1
  P  P8  1  0.45228200  0.74605000  0.04713200  1
  P  P9  1  0.54111000  0.25241100  0.95319900  1
  P  P10  1  0.95319900  0.54111000  0.25241100  1
  P  P11  1  0.25241100  0.95319900  0.54111000  1
  O  O12  1  0.88812500  0.50085200  0.68176400  1
  O  O13  1  0.50085200  0.68176400  0.88812500  1
  O  O14  1  0.68176400  0.88812500  0.50085200  1
  O  O15  1  0.90994900  0.05917700  0.26066000  1
  O  O16  1  0.81330000  0.01144800  0.61263900  1
  O  O17  1  0.58925500  0.24343000  0.44082500  1
  O  O18  1  0.05917700  0.26066000  0.90994900  1
  O  O19  1  0.24343000  0.44082500  0.58925500  1
  O  O20  1  0.39034200  0.17962600  0.99433900  1
  O  O21  1  0.44082500  0.58925500  0.24343000  1
  O  O22  1  0.74409600  0.08623600  0.93970000  1
  O  O23  1  0.99433900  0.39034200  0.17962600  1
  O  O24  1  0.01144800  0.61263900  0.81330000  1
  O  O25  1  0.26066000  0.90994900  0.05917700  1
  O  O26  1  0.56239900  0.40697700  0.75511000  1
  O  O27  1  0.61263900  0.81330000  0.01144800  1
  O  O28  1  0.75511000  0.56239900  0.40697700  1
  O  O29  1  0.93970000  0.74409600  0.08623600  1
  O  O30  1  0.40697700  0.75511000  0.56239900  1
  O  O31  1  0.17962600  0.99433900  0.39034200  1
  O  O32  1  0.08623600  0.93970000  0.74409600  1
  O  O33  1  0.31069400  0.11076900  0.50928500  1
  O  O34  1  0.50928500  0.31069400  0.11076900  1
  O  O35  1  0.11076900  0.50928500  0.31069400  1
