# generated using pymatgen
data_Ta2FeTc
_symmetry_space_group_name_H-M   'P 1'
_cell_length_a   10.57147071
_cell_length_b   10.57147071
_cell_length_c   10.57147071
_cell_angle_alpha   131.05517711
_cell_angle_beta   116.14345926
_cell_angle_gamma   84.41019965
_symmetry_Int_Tables_number   1
_chemical_formula_structural   Ta2FeTc
_chemical_formula_sum   'Ta2 Fe1 Tc1'
_cell_volume   766.90404202
_cell_formula_units_Z   1
loop_
 _symmetry_equiv_pos_site_id
 _symmetry_equiv_pos_as_xyz
  1  'x, y, z'
loop_
 _atom_site_type_symbol
 _atom_site_label
 _atom_site_symmetry_multiplicity
 _atom_site_fract_x
 _atom_site_fract_y
 _atom_site_fract_z
 _atom_site_occupancy
  Ta  Ta0  1  0.00000000  0.24636700  0.24636700  1
  Ta  Ta1  1  0.00000000  0.75363300  0.75363300  1
  Fe  Fe2  1  0.00000000  0.00000000  0.00000000  1
  Tc  Tc3  1  0.00000000  0.50000000  0.50000000  1
