# generated using pymatgen
data_Fe8SiO12
_symmetry_space_group_name_H-M   'P 1'
_cell_length_a   6.00298400
_cell_length_b   8.48437600
_cell_length_c   9.11982238
_cell_angle_alpha   89.28485712
_cell_angle_beta   90.00000000
_cell_angle_gamma   90.00000000
_symmetry_Int_Tables_number   1
_chemical_formula_structural   Fe8SiO12
_chemical_formula_sum   'Fe16 Si2 O24'
_cell_volume   464.45072197
_cell_formula_units_Z   2
loop_
 _symmetry_equiv_pos_site_id
 _symmetry_equiv_pos_as_xyz
  1  'x, y, z'
loop_
 _atom_site_type_symbol
 _atom_site_label
 _atom_site_symmetry_multiplicity
 _atom_site_fract_x
 _atom_site_fract_y
 _atom_site_fract_z
 _atom_site_occupancy
  Fe  Fe0  1  0.00000000  0.00000000  0.00000000  1
  Fe  Fe1  1  0.98693200  0.49524500  0.66330700  1
  Fe  Fe2  1  0.01306800  0.50475500  0.33669300  1
  Fe  Fe3  1  0.25000000  0.61863300  0.99104400  1
  Fe  Fe4  1  0.25000000  0.86472500  0.67562400  1
  Fe  Fe5  1  0.25000000  0.24762700  0.83463100  1
  Fe  Fe6  1  0.25000000  0.21691100  0.50090000  1
  Fe  Fe7  1  0.25000000  0.24643400  0.16564500  1
  Fe  Fe8  1  0.50000000  0.00000000  0.00000000  1
  Fe  Fe9  1  0.48693200  0.50475500  0.33669300  1
  Fe  Fe10  1  0.51306800  0.49524500  0.66330700  1
  Fe  Fe11  1  0.75000000  0.38136700  0.00895600  1
  Fe  Fe12  1  0.75000000  0.75356600  0.83435500  1
  Fe  Fe13  1  0.75000000  0.78308900  0.49910000  1
  Fe  Fe14  1  0.75000000  0.13527500  0.32437600  1
  Fe  Fe15  1  0.75000000  0.75237300  0.16536900  1
  Si  Si16  1  0.25000000  0.86875700  0.32818600  1
  Si  Si17  1  0.75000000  0.13124300  0.67181400  1
  O  O18  1  0.01055300  0.24881300  0.01123700  1
  O  O19  1  0.98589800  0.74004900  0.67278500  1
  O  O20  1  0.02343000  0.75515700  0.33134800  1
  O  O21  1  0.25000000  0.00365900  0.83760400  1
  O  O22  1  0.25000000  0.49056700  0.81759800  1
  O  O23  1  0.25000000  0.47070900  0.50800200  1
  O  O24  1  0.25000000  0.97186600  0.48306900  1
  O  O25  1  0.25000000  0.99276200  0.18589800  1
  O  O26  1  0.25000000  0.49217000  0.17129800  1
  O  O27  1  0.51410200  0.74004900  0.67278500  1
  O  O28  1  0.47657000  0.75515700  0.33134800  1
  O  O29  1  0.48944700  0.24881300  0.01123700  1
  O  O30  1  0.51055300  0.75118700  0.98876300  1
  O  O31  1  0.52343000  0.24484300  0.66865200  1
  O  O32  1  0.48589800  0.25995100  0.32721500  1
  O  O33  1  0.75000000  0.50783000  0.82870200  1
  O  O34  1  0.75000000  0.52929100  0.49199800  1
  O  O35  1  0.75000000  0.00723800  0.81410200  1
  O  O36  1  0.75000000  0.02813400  0.51693100  1
  O  O37  1  0.75000000  0.50943300  0.18240200  1
  O  O38  1  0.75000000  0.99634100  0.16239600  1
  O  O39  1  0.01410200  0.25995100  0.32721500  1
  O  O40  1  0.97657000  0.24484300  0.66865200  1
  O  O41  1  0.98944700  0.75118700  0.98876300  1
