# generated using pymatgen
data_Ba2NaMg
_symmetry_space_group_name_H-M   'P 1'
_cell_length_a   14.75358873
_cell_length_b   14.75358873
_cell_length_c   14.75358873
_cell_angle_alpha   120.48173306
_cell_angle_beta   118.78150689
_cell_angle_gamma   90.64548261
_symmetry_Int_Tables_number   1
_chemical_formula_structural   Ba2NaMg
_chemical_formula_sum   'Ba2 Na1 Mg1'
_cell_volume   2282.66280082
_cell_formula_units_Z   1
loop_
 _symmetry_equiv_pos_site_id
 _symmetry_equiv_pos_as_xyz
  1  'x, y, z'
loop_
 _atom_site_type_symbol
 _atom_site_label
 _atom_site_symmetry_multiplicity
 _atom_site_fract_x
 _atom_site_fract_y
 _atom_site_fract_z
 _atom_site_occupancy
  Ba  Ba0  1  0.74094800  0.00000000  0.74094800  1
  Ba  Ba1  1  0.25905200  0.00000000  0.25905200  1
  Na  Na2  1  0.00000000  0.00000000  0.00000000  1
  Mg  Mg3  1  0.50000000  0.00000000  0.50000000  1
