# generated using pymatgen
data_LiNiPO4
_symmetry_space_group_name_H-M   'P 1'
_cell_length_a   9.79598200
_cell_length_b   4.70956400
_cell_length_c   6.69548992
_cell_angle_alpha   89.65423740
_cell_angle_beta   90.00000000
_cell_angle_gamma   90.00000000
_symmetry_Int_Tables_number   1
_chemical_formula_structural   LiNiPO4
_chemical_formula_sum   'Li4 Ni4 P4 O16'
_cell_volume   308.88949154
_cell_formula_units_Z   4
loop_
 _symmetry_equiv_pos_site_id
 _symmetry_equiv_pos_as_xyz
  1  'x, y, z'
loop_
 _atom_site_type_symbol
 _atom_site_label
 _atom_site_symmetry_multiplicity
 _atom_site_fract_x
 _atom_site_fract_y
 _atom_site_fract_z
 _atom_site_occupancy
  Li  Li0  1  0.30537000  0.75744100  0.73550100  1
  Li  Li1  1  0.74216800  0.29384400  0.72447900  1
  Li  Li2  1  0.24216800  0.70615600  0.27552100  1
  Li  Li3  1  0.80537000  0.24255900  0.26449900  1
  Ni  Ni4  1  0.01537400  0.78359600  0.96672200  1
  Ni  Ni5  1  0.08784600  0.24050100  0.53309300  1
  Ni  Ni6  1  0.58784600  0.75949900  0.46690700  1
  Ni  Ni7  1  0.51537400  0.21640400  0.03327800  1
  P  P8  1  0.19993900  0.20731900  0.97641000  1
  P  P9  1  0.90588600  0.72273800  0.52995600  1
  P  P10  1  0.40588600  0.27726200  0.47004400  1
  P  P11  1  0.69993900  0.79268100  0.02359000  1
  O  O12  1  0.34398800  0.09094900  0.92320500  1
  O  O13  1  0.19082400  0.53459800  0.97575300  1
  O  O14  1  0.63934300  0.93299100  0.83321300  1
  O  O15  1  0.10848300  0.07761700  0.80073300  1
  O  O16  1  0.90855800  0.60980200  0.74863400  1
  O  O17  1  0.27544300  0.41268100  0.56135300  1
  O  O18  1  0.89955400  0.05186500  0.51189700  1
  O  O19  1  0.53614400  0.38762700  0.57951600  1
  O  O20  1  0.03614400  0.61237300  0.42048400  1
  O  O21  1  0.39955400  0.94813500  0.48810300  1
  O  O22  1  0.77544300  0.58731900  0.43864700  1
  O  O23  1  0.40855800  0.39019800  0.25136600  1
  O  O24  1  0.60848300  0.92238300  0.19926700  1
  O  O25  1  0.13934300  0.06700900  0.16678700  1
  O  O26  1  0.69082400  0.46540200  0.02424700  1
  O  O27  1  0.84398800  0.90905100  0.07679500  1
