# generated using pymatgen
data_Li2Fe2Si8O19
_symmetry_space_group_name_H-M   'P 1'
_cell_length_a   4.94696498
_cell_length_b   7.18915326
_cell_length_c   12.50521430
_cell_angle_alpha   72.89904881
_cell_angle_beta   89.96882253
_cell_angle_gamma   70.19702371
_symmetry_Int_Tables_number   1
_chemical_formula_structural   Li2Fe2Si8O19
_chemical_formula_sum   'Li2 Fe2 Si8 O19'
_cell_volume   397.50606369
_cell_formula_units_Z   1
loop_
 _symmetry_equiv_pos_site_id
 _symmetry_equiv_pos_as_xyz
  1  'x, y, z'
loop_
 _atom_site_type_symbol
 _atom_site_label
 _atom_site_symmetry_multiplicity
 _atom_site_fract_x
 _atom_site_fract_y
 _atom_site_fract_z
 _atom_site_occupancy
  Li  Li0  1  0.75796600  0.80364100  0.63705800  1
  Li  Li1  1  0.56429400  0.19873600  0.36391700  1
  Fe  Fe2  1  0.68450200  0.60003400  0.40434300  1
  Fe  Fe3  1  0.29798300  0.40550600  0.59337800  1
  Si  Si4  1  0.46659600  0.75833900  0.92673100  1
  Si  Si5  1  0.86605800  0.98075100  0.16896200  1
  Si  Si6  1  0.08114200  0.86486100  0.41864900  1
  Si  Si7  1  0.32851500  0.43890500  0.82964900  1
  Si  Si8  1  0.76704200  0.55850100  0.16888800  1
  Si  Si9  1  0.95197300  0.13552700  0.58039300  1
  Si  Si10  1  0.84963500  0.01934600  0.82970100  1
  Si  Si11  1  0.22545000  0.24055500  0.07261900  1
  O  O12  1  0.17256200  0.96799800  0.88857200  1
  O  O13  1  0.74082900  0.83422800  0.90009100  1
  O  O14  1  0.87318500  0.99881200  0.29657000  1
  O  O15  1  0.40572200  0.86600800  0.41516900  1
  O  O16  1  0.45264300  0.61244600  0.85058400  1
  O  O17  1  0.04843500  0.63685700  0.45754200  1
  O  O18  1  0.12193900  0.52851400  0.71181500  1
  O  O19  1  0.86364200  0.75546300  0.17261200  1
  O  O20  1  0.15490500  0.36566700  0.93808200  1
  O  O21  1  0.52060300  0.63210100  0.06111200  1
  O  O22  1  0.62200900  0.24476600  0.82558100  1
  O  O23  1  0.65549700  0.46610400  0.28811200  1
  O  O24  1  0.69413900  0.36296500  0.54214100  1
  O  O25  1  0.06364700  0.38430600  0.14879300  1
  O  O26  1  0.27561800  0.13635500  0.58315800  1
  O  O27  1  0.87537200  0.00007100  0.70234900  1
  O  O28  1  0.89207900  0.00030600  0.49970600  1
  O  O29  1  0.57327800  0.16806300  0.09970100  1
  O  O30  1  0.13981000  0.02987700  0.10926800  1
