# generated using pymatgen
data_Na22In5O15
_symmetry_space_group_name_H-M   'P 1'
_cell_length_a   9.71998984
_cell_length_b   9.71998984
_cell_length_c   9.67643758
_cell_angle_alpha   70.61395375
_cell_angle_beta   70.61395375
_cell_angle_gamma   109.60001816
_symmetry_Int_Tables_number   1
_chemical_formula_structural   Na22In5O15
_chemical_formula_sum   'Na22 In5 O15'
_cell_volume   704.11925604
_cell_formula_units_Z   1
loop_
 _symmetry_equiv_pos_site_id
 _symmetry_equiv_pos_as_xyz
  1  'x, y, z'
loop_
 _atom_site_type_symbol
 _atom_site_label
 _atom_site_symmetry_multiplicity
 _atom_site_fract_x
 _atom_site_fract_y
 _atom_site_fract_z
 _atom_site_occupancy
  Na  Na0  1  0.25986000  0.71908300  0.27873500  1
  Na  Na1  1  0.71908300  0.25986000  0.27873500  1
  Na  Na2  1  0.43535500  0.21719000  0.56466800  1
  Na  Na3  1  0.21719000  0.43535500  0.56466800  1
  Na  Na4  1  0.44896500  0.44896500  0.26271200  1
  Na  Na5  1  0.22545600  0.78470300  0.78900800  1
  Na  Na6  1  0.78470300  0.22545600  0.78900800  1
  Na  Na7  1  0.75406100  0.45372200  0.52254000  1
  Na  Na8  1  0.29869200  0.99991800  0.43879800  1
  Na  Na9  1  0.45372200  0.75406100  0.52254000  1
  Na  Na10  1  0.99991800  0.29869200  0.43879800  1
  Na  Na11  1  0.21152000  0.21152000  0.22086100  1
  Na  Na12  1  0.56452900  0.78764600  0.00876700  1
  Na  Na13  1  0.78764600  0.56452900  0.00876700  1
  Na  Na14  1  0.55486100  0.00771200  0.72072500  1
  Na  Na15  1  0.00771200  0.55486100  0.72072500  1
  Na  Na16  1  0.99417700  0.77814600  0.43707200  1
  Na  Na17  1  0.77814600  0.99417700  0.43707200  1
  Na  Na18  1  0.71343700  0.71343700  0.74090600  1
  Na  Na19  1  0.26592300  0.54295500  0.01724500  1
  Na  Na20  1  0.54295500  0.26592300  0.01724500  1
  Na  Na21  1  0.44545100  0.44545100  0.77770000  1
  In  In22  1  0.70254100  0.70254100  0.28891300  1
  In  In23  1  0.99228700  0.99228700  0.00218600  1
  In  In24  1  0.00622300  0.00622300  0.69846500  1
  In  In25  1  0.28832500  0.99989300  0.99102100  1
  In  In26  1  0.99989300  0.28832500  0.99102100  1
  O  O27  1  0.46508800  0.66950700  0.31577100  1
  O  O28  1  0.66950700  0.46508800  0.31577100  1
  O  O29  1  0.49121100  0.00255300  0.52174500  1
  O  O30  1  0.00255300  0.49121100  0.52174500  1
  O  O31  1  0.21445700  0.21445700  0.47393400  1
  O  O32  1  0.99660900  0.26954900  0.21779300  1
  O  O33  1  0.22184000  0.52447600  0.78630800  1
  O  O34  1  0.52447600  0.22184000  0.78630800  1
  O  O35  1  0.26954900  0.99660900  0.21779300  1
  O  O36  1  0.78905600  0.00169300  0.69485300  1
  O  O37  1  0.00169300  0.78905600  0.69485300  1
  O  O38  1  0.33502300  0.80274500  0.98952800  1
  O  O39  1  0.80274500  0.33502300  0.98952800  1
  O  O40  1  0.49415600  0.49415600  0.00128300  1
  O  O41  1  0.70043800  0.70043800  0.51330200  1
