# generated using pymatgen
data_Ti3Fe2Co(PO4)6
_symmetry_space_group_name_H-M   'P 1'
_cell_length_a   8.53510598
_cell_length_b   8.53510598
_cell_length_c   8.53510648
_cell_angle_alpha   61.07186612
_cell_angle_beta   61.07186612
_cell_angle_gamma   61.07186630
_symmetry_Int_Tables_number   1
_chemical_formula_structural   Ti3Fe2Co(PO4)6
_chemical_formula_sum   'Ti3 Fe2 Co1 P6 O24'
_cell_volume   450.26445869
_cell_formula_units_Z   1
loop_
 _symmetry_equiv_pos_site_id
 _symmetry_equiv_pos_as_xyz
  1  'x, y, z'
loop_
 _atom_site_type_symbol
 _atom_site_label
 _atom_site_symmetry_multiplicity
 _atom_site_fract_x
 _atom_site_fract_y
 _atom_site_fract_z
 _atom_site_occupancy
  Ti  Ti0  1  0.64421000  0.64421000  0.64421000  1
  Ti  Ti1  1  0.85788800  0.85788800  0.85788800  1
  Ti  Ti2  1  0.35500100  0.35500100  0.35500100  1
  Fe  Fe3  1  0.00346800  0.00346800  0.00346800  1
  Fe  Fe4  1  0.50105400  0.50105400  0.50105400  1
  Co  Co5  1  0.14292600  0.14292600  0.14292600  1
  P  P6  1  0.54179600  0.95498500  0.24777400  1
  P  P7  1  0.24777400  0.54179600  0.95498500  1
  P  P8  1  0.95498500  0.24777400  0.54179600  1
  P  P9  1  0.04429600  0.74933400  0.45655600  1
  P  P10  1  0.74933400  0.45655600  0.04429600  1
  P  P11  1  0.45655600  0.04429600  0.74933400  1
  O  O12  1  0.31458600  0.49560400  0.11916300  1
  O  O13  1  0.11916300  0.31458600  0.49560400  1
  O  O14  1  0.49560400  0.11916300  0.31458600  1
  O  O15  1  0.74189300  0.94218000  0.09027500  1
  O  O16  1  0.39106600  0.98671800  0.18504200  1
  O  O17  1  0.56635400  0.75946600  0.41131800  1
  O  O18  1  0.09027500  0.74189300  0.94218000  1
  O  O19  1  0.41131800  0.56635400  0.75946600  1
  O  O20  1  0.99713400  0.81543600  0.62000100  1
  O  O21  1  0.75946600  0.41131800  0.56635400  1
  O  O22  1  0.05271900  0.90340600  0.26406200  1
  O  O23  1  0.81543600  0.62000100  0.99713400  1
  O  O24  1  0.18504200  0.39106600  0.98671800  1
  O  O25  1  0.94218000  0.09027500  0.74189300  1
  O  O26  1  0.23875600  0.58660800  0.44724700  1
  O  O27  1  0.98671800  0.18504200  0.39106600  1
  O  O28  1  0.58660800  0.44724700  0.23875600  1
  O  O29  1  0.90340600  0.26406200  0.05271900  1
  O  O30  1  0.44724700  0.23875600  0.58660800  1
  O  O31  1  0.62000100  0.99713400  0.81543600  1
  O  O32  1  0.26406200  0.05271900  0.90340600  1
  O  O33  1  0.51217200  0.88531900  0.67418600  1
  O  O34  1  0.88531900  0.67418600  0.51217200  1
  O  O35  1  0.67418600  0.51217200  0.88531900  1
