# generated using pymatgen
data_TiRe2Mo
_symmetry_space_group_name_H-M   'P 1'
_cell_length_a   11.68539183
_cell_length_b   11.68539183
_cell_length_c   11.68539183
_cell_angle_alpha   132.62782492
_cell_angle_beta   114.76517732
_cell_angle_gamma   84.48342816
_symmetry_Int_Tables_number   1
_chemical_formula_structural   TiRe2Mo
_chemical_formula_sum   'Ti1 Re2 Mo1'
_cell_volume   1023.16632868
_cell_formula_units_Z   1
loop_
 _symmetry_equiv_pos_site_id
 _symmetry_equiv_pos_as_xyz
  1  'x, y, z'
loop_
 _atom_site_type_symbol
 _atom_site_label
 _atom_site_symmetry_multiplicity
 _atom_site_fract_x
 _atom_site_fract_y
 _atom_site_fract_z
 _atom_site_occupancy
  Ti  Ti0  1  0.00000000  0.00000000  0.00000000  1
  Re  Re1  1  0.00000000  0.25469200  0.25469200  1
  Re  Re2  1  0.00000000  0.74530800  0.74530800  1
  Mo  Mo3  1  0.00000000  0.50000000  0.50000000  1
