# generated using pymatgen
data_LaMg2Sc
_symmetry_space_group_name_H-M   'P 1'
_cell_length_a   13.08126128
_cell_length_b   13.08126128
_cell_length_c   13.08126128
_cell_angle_alpha   124.27798593
_cell_angle_beta   115.46652953
_cell_angle_gamma   90.39005173
_symmetry_Int_Tables_number   1
_chemical_formula_structural   LaMg2Sc
_chemical_formula_sum   'La1 Mg2 Sc1'
_cell_volume   1574.20466950
_cell_formula_units_Z   1
loop_
 _symmetry_equiv_pos_site_id
 _symmetry_equiv_pos_as_xyz
  1  'x, y, z'
loop_
 _atom_site_type_symbol
 _atom_site_label
 _atom_site_symmetry_multiplicity
 _atom_site_fract_x
 _atom_site_fract_y
 _atom_site_fract_z
 _atom_site_occupancy
  La  La0  1  0.00000000  0.50000000  0.50000000  1
  Mg  Mg1  1  0.00000000  0.24528000  0.24528000  1
  Mg  Mg2  1  0.00000000  0.75472000  0.75472000  1
  Sc  Sc3  1  0.00000000  0.00000000  0.00000000  1
