# generated using pymatgen
data_Sr5(ReO3)12
_symmetry_space_group_name_H-M   'P 1'
_cell_length_a   8.04367000
_cell_length_b   8.11171483
_cell_length_c   13.14526009
_cell_angle_alpha   90.03783160
_cell_angle_beta   90.05129713
_cell_angle_gamma   109.56799912
_symmetry_Int_Tables_number   1
_chemical_formula_structural   Sr5(ReO3)12
_chemical_formula_sum   'Sr5 Re12 O36'
_cell_volume   808.16379257
_cell_formula_units_Z   1
loop_
 _symmetry_equiv_pos_site_id
 _symmetry_equiv_pos_as_xyz
  1  'x, y, z'
loop_
 _atom_site_type_symbol
 _atom_site_label
 _atom_site_symmetry_multiplicity
 _atom_site_fract_x
 _atom_site_fract_y
 _atom_site_fract_z
 _atom_site_occupancy
  Sr  Sr0  1  0.18362100  0.18775200  0.18453300  1
  Sr  Sr1  1  0.00133500  0.63686600  0.00016400  1
  Sr  Sr2  1  0.49875700  0.86078000  0.49977900  1
  Sr  Sr3  1  0.85443000  0.49816200  0.50028300  1
  Sr  Sr4  1  0.18712800  0.18759600  0.81552800  1
  Re  Re5  1  0.17986900  0.81644600  0.31635900  1
  Re  Re6  1  0.32992200  0.68870300  0.18135900  1
  Re  Re7  1  0.56727400  0.42523800  0.06880900  1
  Re  Re8  1  0.06762100  0.93451600  0.56915200  1
  Re  Re9  1  0.39058800  0.88605000  0.75503000  1
  Re  Re10  1  0.11405900  0.61635600  0.74655600  1
  Re  Re11  1  0.61694800  0.11281100  0.25187700  1
  Re  Re12  1  0.88763200  0.38869900  0.25052500  1
  Re  Re13  1  0.43465100  0.56905300  0.93115600  1
  Re  Re14  1  0.93703900  0.06629300  0.43153300  1
  Re  Re15  1  0.81724200  0.18180600  0.68162200  1
  Re  Re16  1  0.68407600  0.32118400  0.81688800  1
  O  O17  1  0.16647700  0.83475500  0.16403100  1
  O  O18  1  0.03429900  0.96813200  0.32317100  1
  O  O19  1  0.32536500  0.67154100  0.03261100  1
  O  O20  1  0.52561600  0.88887000  0.18192900  1
  O  O21  1  0.11426800  0.47716200  0.17671000  1
  O  O22  1  0.66668900  0.65767400  0.99947200  1
  O  O23  1  0.32865300  0.32838800  0.99867300  1
  O  O24  1  0.46013500  0.52593600  0.17044500  1
  O  O25  1  0.17066800  0.81886100  0.46761800  1
  O  O26  1  0.33731100  0.67597200  0.33371800  1
  O  O27  1  0.71079500  0.00471800  0.35508100  1
  O  O28  1  0.99662000  0.28767700  0.35216300  1
  O  O29  1  0.78826100  0.49139200  0.14619800  1
  O  O30  1  0.50369300  0.21221200  0.14852600  1
  O  O31  1  0.97224700  0.61310700  0.32225400  1
  O  O32  1  0.82945100  0.82977200  0.49976800  1
  O  O33  1  0.16436300  0.16187700  0.49999200  1
  O  O34  1  0.61225900  0.97490200  0.67864200  1
  O  O35  1  0.83894600  0.16870200  0.17095300  1
  O  O36  1  0.38430700  0.02634800  0.31990200  1
  O  O37  1  0.67310700  0.33221900  0.33613800  1
  O  O38  1  0.33325800  0.67417300  0.66548800  1
  O  O39  1  0.02847800  0.38617500  0.67883400  1
  O  O40  1  0.16363600  0.83289800  0.83588200  1
  O  O41  1  0.20765100  0.50454200  0.85621500  1
  O  O42  1  0.48966700  0.78286000  0.85342200  1
  O  O43  1  0.00342400  0.70925400  0.64459200  1
  O  O44  1  0.28557800  0.99171700  0.64984000  1
  O  O45  1  0.67569100  0.33916800  0.66522800  1
  O  O46  1  0.52466800  0.45922300  0.82739000  1
  O  O47  1  0.81791200  0.17022400  0.53058600  1
  O  O48  1  0.88889100  0.52857300  0.82162300  1
  O  O49  1  0.47269500  0.11641300  0.82053600  1
  O  O50  1  0.67720000  0.33464500  0.96600400  1
  O  O51  1  0.96825700  0.03487700  0.67449300  1
  O  O52  1  0.84011800  0.17315900  0.83072200  1
