# generated using pymatgen
data_V(CO3)2
_symmetry_space_group_name_H-M   'P 1'
_cell_length_a   8.46886035
_cell_length_b   8.46886035
_cell_length_c   8.46886035
_cell_angle_alpha   107.43019984
_cell_angle_beta   107.43019984
_cell_angle_gamma   113.63523967
_symmetry_Int_Tables_number   1
_chemical_formula_structural   V(CO3)2
_chemical_formula_sum   'V4 C8 O24'
_cell_volume   465.71052406
_cell_formula_units_Z   4
loop_
 _symmetry_equiv_pos_site_id
 _symmetry_equiv_pos_as_xyz
  1  'x, y, z'
loop_
 _atom_site_type_symbol
 _atom_site_label
 _atom_site_symmetry_multiplicity
 _atom_site_fract_x
 _atom_site_fract_y
 _atom_site_fract_z
 _atom_site_occupancy
  V  V0  1  0.40470000  0.87500000  0.02970000  1
  V  V1  1  0.12500000  0.15470000  0.52970000  1
  V  V2  1  0.84530000  0.37500000  0.97030000  1
  V  V3  1  0.62500000  0.59530000  0.47030000  1
  C  C4  1  0.94712300  0.60821100  0.76574500  1
  C  C5  1  0.39178900  0.15753400  0.33891200  1
  C  C6  1  0.43137800  0.59246600  0.73425500  1
  C  C7  1  0.84246600  0.18137800  0.23425500  1
  C  C8  1  0.81862200  0.05287700  0.66108800  1
  C  C9  1  0.30287700  0.56862200  0.16108800  1
  C  C10  1  0.40753400  0.14178900  0.83891200  1
  C  C11  1  0.85821100  0.69712300  0.26574500  1
  O  O12  1  0.52928600  0.31253500  0.35759300  1
  O  O13  1  0.13485700  0.68767200  0.85643900  1
  O  O14  1  0.48250800  0.76568600  0.84749700  1
  O  O15  1  0.82830700  0.47071400  0.78324800  1
  O  O16  1  0.33181100  0.98431400  0.21682200  1
  O  O17  1  0.52841800  0.58123300  0.64356100  1
  O  O18  1  0.01568600  0.23250800  0.34749700  1
  O  O19  1  0.29505900  0.43746500  0.71675200  1
  O  O20  1  0.68746500  0.04505900  0.21675200  1
  O  O21  1  0.95494100  0.17169300  0.64240700  1
  O  O22  1  0.31232800  0.16876700  0.44718500  1
  O  O23  1  0.42169300  0.70494100  0.14240700  1
  O  O24  1  0.72158200  0.86514300  0.55281500  1
  O  O25  1  0.11514300  0.47158200  0.05281500  1
  O  O26  1  0.93767200  0.88485700  0.35643900  1
  O  O27  1  0.56253500  0.27928600  0.85759300  1
  O  O28  1  0.23431400  0.08181100  0.71682200  1
  O  O29  1  0.36498900  0.51749200  0.28317800  1
  O  O30  1  0.41876700  0.06232800  0.94718500  1
  O  O31  1  0.91818900  0.63501100  0.15250300  1
  O  O32  1  0.72071400  0.57830700  0.28324800  1
  O  O33  1  0.76749200  0.11498900  0.78317800  1
  O  O34  1  0.88501100  0.66818900  0.65250300  1
  O  O35  1  0.83123300  0.27841800  0.14356100  1
