# generated using pymatgen
data_YZrPd2
_symmetry_space_group_name_H-M   'P 1'
_cell_length_a   11.42007133
_cell_length_b   11.42007133
_cell_length_c   11.42007133
_cell_angle_alpha   127.28154509
_cell_angle_beta   117.56959563
_cell_angle_gamma   86.06884102
_symmetry_Int_Tables_number   1
_chemical_formula_structural   YZrPd2
_chemical_formula_sum   'Y1 Zr1 Pd2'
_cell_volume   1002.01393955
_cell_formula_units_Z   1
loop_
 _symmetry_equiv_pos_site_id
 _symmetry_equiv_pos_as_xyz
  1  'x, y, z'
loop_
 _atom_site_type_symbol
 _atom_site_label
 _atom_site_symmetry_multiplicity
 _atom_site_fract_x
 _atom_site_fract_y
 _atom_site_fract_z
 _atom_site_occupancy
  Y  Y0  1  0.00000000  0.00000000  0.00000000  1
  Zr  Zr1  1  0.00000000  0.50000000  0.50000000  1
  Pd  Pd2  1  0.00000000  0.24546300  0.24546300  1
  Pd  Pd3  1  0.00000000  0.75453700  0.75453700  1
