# generated using pymatgen
data_V(CO3)2
_symmetry_space_group_name_H-M   'P 1'
_cell_length_a   7.13412600
_cell_length_b   7.60594300
_cell_length_c   9.23795800
_cell_angle_alpha   90.00000000
_cell_angle_beta   90.00000000
_cell_angle_gamma   90.00000000
_symmetry_Int_Tables_number   1
_chemical_formula_structural   V(CO3)2
_chemical_formula_sum   'V4 C8 O24'
_cell_volume   501.26782026
_cell_formula_units_Z   4
loop_
 _symmetry_equiv_pos_site_id
 _symmetry_equiv_pos_as_xyz
  1  'x, y, z'
loop_
 _atom_site_type_symbol
 _atom_site_label
 _atom_site_symmetry_multiplicity
 _atom_site_fract_x
 _atom_site_fract_y
 _atom_site_fract_z
 _atom_site_occupancy
  V  V0  1  0.73666800  0.14452400  0.37059100  1
  V  V1  1  0.23666800  0.35547600  0.87059100  1
  V  V2  1  0.76333200  0.64452400  0.37059100  1
  V  V3  1  0.26333200  0.85547600  0.87059100  1
  C  C4  1  0.07501500  0.21946800  0.59486700  1
  C  C5  1  0.92132500  0.24637100  0.09882400  1
  C  C6  1  0.42132500  0.25362900  0.59882400  1
  C  C7  1  0.57501500  0.28053200  0.09486700  1
  C  C8  1  0.42498500  0.71946800  0.59486700  1
  C  C9  1  0.57867500  0.74637100  0.09882400  1
  C  C10  1  0.07867500  0.75362900  0.59882400  1
  C  C11  1  0.92498500  0.78053200  0.09486700  1
  O  O12  1  0.28686700  0.07443300  0.86831700  1
  O  O13  1  0.95232400  0.15427900  0.51620600  1
  O  O14  1  0.92580200  0.15513800  0.21323900  1
  O  O15  1  0.54954900  0.20558900  0.21582700  1
  O  O16  1  0.56537100  0.20727200  0.53292700  1
  O  O17  1  0.25558000  0.19622200  0.53662900  1
  O  O18  1  0.75558000  0.30377800  0.03662900  1
  O  O19  1  0.06537100  0.29272800  0.03292700  1
  O  O20  1  0.04954900  0.29441100  0.71582700  1
  O  O21  1  0.42580200  0.34486200  0.71323900  1
  O  O22  1  0.45232400  0.34572100  0.01620600  1
  O  O23  1  0.78686700  0.42556700  0.36831700  1
  O  O24  1  0.21313300  0.57443300  0.86831700  1
  O  O25  1  0.54767600  0.65427900  0.51620600  1
  O  O26  1  0.57419800  0.65513800  0.21323900  1
  O  O27  1  0.95045100  0.70558900  0.21582700  1
  O  O28  1  0.93462900  0.70727200  0.53292700  1
  O  O29  1  0.24442000  0.69622200  0.53662900  1
  O  O30  1  0.74442000  0.80377800  0.03662900  1
  O  O31  1  0.43462900  0.79272800  0.03292700  1
  O  O32  1  0.45045100  0.79441100  0.71582700  1
  O  O33  1  0.07419800  0.84486200  0.71323900  1
  O  O34  1  0.04767600  0.84572100  0.01620600  1
  O  O35  1  0.71313300  0.92556700  0.36831700  1
