# generated using pymatgen
data_ZnGaNi2
_symmetry_space_group_name_H-M   'P 1'
_cell_length_a   9.39507198
_cell_length_b   9.11270061
_cell_length_c   9.11270050
_cell_angle_alpha   54.27083439
_cell_angle_beta   58.96956393
_cell_angle_gamma   58.96956234
_symmetry_Int_Tables_number   1
_chemical_formula_structural   ZnGaNi2
_chemical_formula_sum   'Zn1 Ga1 Ni2'
_cell_volume   516.26565892
_cell_formula_units_Z   1
loop_
 _symmetry_equiv_pos_site_id
 _symmetry_equiv_pos_as_xyz
  1  'x, y, z'
loop_
 _atom_site_type_symbol
 _atom_site_label
 _atom_site_symmetry_multiplicity
 _atom_site_fract_x
 _atom_site_fract_y
 _atom_site_fract_z
 _atom_site_occupancy
  Zn  Zn0  1  0.00000000  0.00000000  0.00000000  1
  Ga  Ga1  1  0.50000000  0.00000000  0.00000000  1
  Ni  Ni2  1  0.74175100  0.00000000  0.00000000  1
  Ni  Ni3  1  0.25824900  0.00000000  0.00000000  1
