# generated using pymatgen
data_Na5CrHO4
_symmetry_space_group_name_H-M   'P 1'
_cell_length_a   10.09171900
_cell_length_b   10.13168500
_cell_length_c   12.36299200
_cell_angle_alpha   90.00000000
_cell_angle_beta   90.00000000
_cell_angle_gamma   90.00000000
_symmetry_Int_Tables_number   1
_chemical_formula_structural   Na5CrHO4
_chemical_formula_sum   'Na40 Cr8 H8 O32'
_cell_volume   1264.06793907
_cell_formula_units_Z   8
loop_
 _symmetry_equiv_pos_site_id
 _symmetry_equiv_pos_as_xyz
  1  'x, y, z'
loop_
 _atom_site_type_symbol
 _atom_site_label
 _atom_site_symmetry_multiplicity
 _atom_site_fract_x
 _atom_site_fract_y
 _atom_site_fract_z
 _atom_site_occupancy
  Na  Na0  1  0.99237500  0.59107700  0.20963500  1
  Na  Na1  1  0.99237500  0.90892300  0.20963500  1
  Na  Na2  1  0.07892000  0.07189500  0.41428700  1
  Na  Na3  1  0.07892000  0.42810500  0.41428700  1
  Na  Na4  1  0.08733500  0.75000000  0.44896500  1
  Na  Na5  1  0.11887100  0.25000000  0.98590400  1
  Na  Na6  1  0.12981300  0.56921800  0.98412600  1
  Na  Na7  1  0.12981300  0.93078200  0.98412600  1
  Na  Na8  1  0.22081600  0.58359400  0.68039400  1
  Na  Na9  1  0.22081600  0.91640600  0.68039400  1
  Na  Na10  1  0.27918400  0.08359400  0.18039400  1
  Na  Na11  1  0.27918400  0.41640600  0.18039400  1
  Na  Na12  1  0.37018700  0.06921800  0.48412600  1
  Na  Na13  1  0.37018700  0.43078200  0.48412600  1
  Na  Na14  1  0.38112900  0.75000000  0.48590400  1
  Na  Na15  1  0.41266500  0.25000000  0.94896500  1
  Na  Na16  1  0.42108000  0.57189500  0.91428700  1
  Na  Na17  1  0.42108000  0.92810500  0.91428700  1
  Na  Na18  1  0.50762500  0.09107700  0.70963500  1
  Na  Na19  1  0.50762500  0.40892300  0.70963500  1
  Na  Na20  1  0.49237500  0.59107700  0.29036500  1
  Na  Na21  1  0.49237500  0.90892300  0.29036500  1
  Na  Na22  1  0.57892000  0.07189500  0.08571300  1
  Na  Na23  1  0.57892000  0.42810500  0.08571300  1
  Na  Na24  1  0.58733500  0.75000000  0.05103500  1
  Na  Na25  1  0.61887100  0.25000000  0.51409600  1
  Na  Na26  1  0.62981300  0.56921800  0.51587400  1
  Na  Na27  1  0.62981300  0.93078200  0.51587400  1
  Na  Na28  1  0.72081600  0.58359400  0.81960600  1
  Na  Na29  1  0.72081600  0.91640600  0.81960600  1
  Na  Na30  1  0.77918400  0.08359400  0.31960600  1
  Na  Na31  1  0.77918400  0.41640600  0.31960600  1
  Na  Na32  1  0.87018700  0.06921800  0.01587400  1
  Na  Na33  1  0.87018700  0.43078200  0.01587400  1
  Na  Na34  1  0.88112900  0.75000000  0.01409600  1
  Na  Na35  1  0.91266500  0.25000000  0.55103500  1
  Na  Na36  1  0.92108000  0.92810500  0.58571300  1
  Na  Na37  1  0.92108000  0.57189500  0.58571300  1
  Na  Na38  1  0.00762500  0.09107700  0.79036500  1
  Na  Na39  1  0.00762500  0.40892300  0.79036500  1
  Cr  Cr40  1  0.01064500  0.25000000  0.21056400  1
  Cr  Cr41  1  0.20105800  0.25000000  0.62016500  1
  Cr  Cr42  1  0.29894200  0.75000000  0.12016500  1
  Cr  Cr43  1  0.48935500  0.75000000  0.71056400  1
  Cr  Cr44  1  0.51064500  0.25000000  0.28943600  1
  Cr  Cr45  1  0.70105800  0.25000000  0.87983500  1
  Cr  Cr46  1  0.79894200  0.75000000  0.37983500  1
  Cr  Cr47  1  0.98935500  0.75000000  0.78943600  1
  H  H48  1  0.24442800  0.63361300  0.31827600  1
  H  H49  1  0.24442800  0.86638700  0.31827600  1
  H  H50  1  0.25557200  0.13361300  0.81827600  1
  H  H51  1  0.25557200  0.36638700  0.81827600  1
  H  H52  1  0.74442800  0.63361300  0.18172400  1
  H  H53  1  0.74442800  0.86638700  0.18172400  1
  H  H54  1  0.75557200  0.13361300  0.68172400  1
  H  H55  1  0.75557200  0.36638700  0.68172400  1
  O  O56  1  0.06039400  0.75000000  0.64352100  1
  O  O57  1  0.06203400  0.40364000  0.12143100  1
  O  O58  1  0.06203400  0.09636000  0.12143100  1
  O  O59  1  0.10160900  0.40055000  0.61008900  1
  O  O60  1  0.10160900  0.09945000  0.61008900  1
  O  O61  1  0.11668500  0.75000000  0.11655800  1
  O  O62  1  0.25113300  0.08468900  0.88606900  1
  O  O63  1  0.25113300  0.41531100  0.88606900  1
  O  O64  1  0.24886700  0.58468900  0.38606900  1
  O  O65  1  0.24886700  0.91531100  0.38606900  1
  O  O66  1  0.38331500  0.25000000  0.61655800  1
  O  O67  1  0.39839100  0.59945000  0.11008900  1
  O  O68  1  0.39839100  0.90055000  0.11008900  1
  O  O69  1  0.43796600  0.59636000  0.62143100  1
  O  O70  1  0.43796600  0.90364000  0.62143100  1
  O  O71  1  0.43960600  0.25000000  0.14352100  1
  O  O72  1  0.56039400  0.75000000  0.85647900  1
  O  O73  1  0.56203400  0.09636000  0.37856900  1
  O  O74  1  0.56203400  0.40364000  0.37856900  1
  O  O75  1  0.60160900  0.09945000  0.88991100  1
  O  O76  1  0.60160900  0.40055000  0.88991100  1
  O  O77  1  0.61668500  0.75000000  0.38344200  1
  O  O78  1  0.75113300  0.08468900  0.61393100  1
  O  O79  1  0.75113300  0.41531100  0.61393100  1
  O  O80  1  0.74886700  0.58468900  0.11393100  1
  O  O81  1  0.74886700  0.91531100  0.11393100  1
  O  O82  1  0.88331500  0.25000000  0.88344200  1
  O  O83  1  0.89839100  0.90055000  0.38991100  1
  O  O84  1  0.89839100  0.59945000  0.38991100  1
  O  O85  1  0.93796600  0.90364000  0.87856900  1
  O  O86  1  0.93796600  0.59636000  0.87856900  1
  O  O87  1  0.93960600  0.25000000  0.35647900  1
