# generated using pymatgen
data_ScGa2Os
_symmetry_space_group_name_H-M   'P 1'
_cell_length_a   10.79695745
_cell_length_b   10.79695745
_cell_length_c   10.79695745
_cell_angle_alpha   122.63123542
_cell_angle_beta   116.39071259
_cell_angle_gamma   90.93281884
_symmetry_Int_Tables_number   1
_chemical_formula_structural   ScGa2Os
_chemical_formula_sum   'Sc1 Ga2 Os1'
_cell_volume   893.18817535
_cell_formula_units_Z   1
loop_
 _symmetry_equiv_pos_site_id
 _symmetry_equiv_pos_as_xyz
  1  'x, y, z'
loop_
 _atom_site_type_symbol
 _atom_site_label
 _atom_site_symmetry_multiplicity
 _atom_site_fract_x
 _atom_site_fract_y
 _atom_site_fract_z
 _atom_site_occupancy
  Sc  Sc0  1  0.00000000  0.00000000  0.00000000  1
  Ga  Ga1  1  0.00000000  0.26746600  0.26746600  1
  Ga  Ga2  1  0.00000000  0.73253400  0.73253400  1
  Os  Os3  1  0.00000000  0.50000000  0.50000000  1
