# generated using pymatgen
data_Fe2C2O7
_symmetry_space_group_name_H-M   'P 1'
_cell_length_a   7.74008400
_cell_length_b   8.05520000
_cell_length_c   11.56095332
_cell_angle_alpha   75.53434877
_cell_angle_beta   90.00000000
_cell_angle_gamma   90.00000000
_symmetry_Int_Tables_number   1
_chemical_formula_structural   Fe2C2O7
_chemical_formula_sum   'Fe8 C8 O28'
_cell_volume   697.95028851
_cell_formula_units_Z   4
loop_
 _symmetry_equiv_pos_site_id
 _symmetry_equiv_pos_as_xyz
  1  'x, y, z'
loop_
 _atom_site_type_symbol
 _atom_site_label
 _atom_site_symmetry_multiplicity
 _atom_site_fract_x
 _atom_site_fract_y
 _atom_site_fract_z
 _atom_site_occupancy
  Fe  Fe0  1  0.58348400  0.79478300  0.62794400  1
  Fe  Fe1  1  0.63783800  0.36204900  0.11827800  1
  Fe  Fe2  1  0.86216200  0.36204900  0.61827800  1
  Fe  Fe3  1  0.08348400  0.20521700  0.87205600  1
  Fe  Fe4  1  0.91651600  0.79478300  0.12794400  1
  Fe  Fe5  1  0.13783800  0.63795100  0.38172200  1
  Fe  Fe6  1  0.36216200  0.63795100  0.88172200  1
  Fe  Fe7  1  0.41651600  0.20521700  0.37205600  1
  C  C8  1  0.89435300  0.73975800  0.54419400  1
  C  C9  1  0.39435300  0.26024200  0.95580600  1
  C  C10  1  0.92599400  0.16712700  0.10121200  1
  C  C11  1  0.42599400  0.83287300  0.39878800  1
  C  C12  1  0.57400600  0.16712700  0.60121200  1
  C  C13  1  0.07400600  0.83287300  0.89878800  1
  C  C14  1  0.60564700  0.73975800  0.04419400  1
  C  C15  1  0.10564700  0.26024200  0.45580600  1
  O  O16  1  0.82481600  0.86381500  0.57995100  1
  O  O17  1  0.53251300  0.64467600  0.77126900  1
  O  O18  1  0.44070700  0.73317300  0.50489300  1
  O  O19  1  0.79859800  0.60082700  0.55567700  1
  O  O20  1  0.29859800  0.39917300  0.94432300  1
  O  O21  1  0.83326700  0.21653600  0.17974300  1
  O  O22  1  0.94070700  0.26682700  0.99510700  1
  O  O23  1  0.03251300  0.35532400  0.72873100  1
  O  O24  1  0.54579100  0.24900400  0.00115200  1
  O  O25  1  0.50398600  0.98013900  0.36995200  1
  O  O26  1  0.00398600  0.01986100  0.13004800  1
  O  O27  1  0.32481600  0.13618500  0.92004900  1
  O  O28  1  0.66673300  0.21653600  0.67974300  1
  O  O29  1  0.04579100  0.75099600  0.49884800  1
  O  O30  1  0.95420900  0.24900400  0.50115200  1
  O  O31  1  0.33326700  0.78346400  0.32025700  1
  O  O32  1  0.67518400  0.86381500  0.07995100  1
  O  O33  1  0.99601400  0.98013900  0.86995200  1
  O  O34  1  0.49601400  0.01986100  0.63004800  1
  O  O35  1  0.45420900  0.75099600  0.99884800  1
  O  O36  1  0.96748700  0.64467600  0.27126900  1
  O  O37  1  0.05929300  0.73317300  0.00489300  1
  O  O38  1  0.16673300  0.78346400  0.82025700  1
  O  O39  1  0.70140200  0.60082700  0.05567700  1
  O  O40  1  0.20140200  0.39917300  0.44432300  1
  O  O41  1  0.55929300  0.26682700  0.49510700  1
  O  O42  1  0.46748700  0.35532400  0.22873100  1
  O  O43  1  0.17518400  0.13618500  0.42004900  1
