# generated using pymatgen
data_Ti6Co3O16
_symmetry_space_group_name_H-M   'P 1'
_cell_length_a   8.47557100
_cell_length_b   8.39405600
_cell_length_c   8.42659638
_cell_angle_alpha   89.83872487
_cell_angle_beta   90.00000000
_cell_angle_gamma   90.00000000
_symmetry_Int_Tables_number   1
_chemical_formula_structural   Ti6Co3O16
_chemical_formula_sum   'Ti12 Co6 O32'
_cell_volume   599.50291706
_cell_formula_units_Z   2
loop_
 _symmetry_equiv_pos_site_id
 _symmetry_equiv_pos_as_xyz
  1  'x, y, z'
loop_
 _atom_site_type_symbol
 _atom_site_label
 _atom_site_symmetry_multiplicity
 _atom_site_fract_x
 _atom_site_fract_y
 _atom_site_fract_z
 _atom_site_occupancy
  Ti  Ti0  1  0.88492400  0.61006600  0.86735900  1
  Ti  Ti1  1  0.36743100  0.10924700  0.89354600  1
  Ti  Ti2  1  0.64592500  0.36376100  0.88303200  1
  Ti  Ti3  1  0.61999500  0.61089000  0.61953300  1
  Ti  Ti4  1  0.36475000  0.86447700  0.63612500  1
  Ti  Ti5  1  0.11107400  0.13162500  0.64474500  1
  Ti  Ti6  1  0.86475000  0.13552300  0.36387500  1
  Ti  Ti7  1  0.61107400  0.86837500  0.35525500  1
  Ti  Ti8  1  0.11999500  0.38911000  0.38046700  1
  Ti  Ti9  1  0.86743100  0.89075300  0.10645400  1
  Ti  Ti10  1  0.38492400  0.38993400  0.13264100  1
  Ti  Ti11  1  0.14592500  0.63623900  0.11696800  1
  Co  Co12  1  0.74256900  0.99589700  0.74501800  1
  Co  Co13  1  0.25852600  0.49219900  0.75891800  1
  Co  Co14  1  0.99430700  0.75866100  0.49942200  1
  Co  Co15  1  0.49430700  0.24133900  0.50057800  1
  Co  Co16  1  0.75852600  0.50780100  0.24108200  1
  Co  Co17  1  0.24256900  0.00410300  0.25498200  1
  O  O18  1  0.61010900  0.13518600  0.85170600  1
  O  O19  1  0.85729900  0.86470400  0.88684700  1
  O  O20  1  0.64912300  0.59729300  0.84712200  1
  O  O21  1  0.14800700  0.12715600  0.85320000  1
  O  O22  1  0.85951200  0.38921300  0.87958500  1
  O  O23  1  0.37750100  0.89461200  0.85021100  1
  O  O24  1  0.11204600  0.61446400  0.89113400  1
  O  O25  1  0.39155500  0.35641700  0.89778300  1
  O  O26  1  0.88972300  0.09985000  0.61700300  1
  O  O27  1  0.86531200  0.64663600  0.63624900  1
  O  O28  1  0.60886600  0.86244700  0.61417300  1
  O  O29  1  0.60376100  0.38608100  0.63187400  1
  O  O30  1  0.36172100  0.11440400  0.63278300  1
  O  O31  1  0.14265100  0.88662700  0.60335300  1
  O  O32  1  0.39244900  0.64075300  0.63333700  1
  O  O33  1  0.14086400  0.35824600  0.60698200  1
  O  O34  1  0.86172100  0.88559600  0.36721700  1
  O  O35  1  0.64265100  0.11337300  0.39664700  1
  O  O36  1  0.64086400  0.64175400  0.39301800  1
  O  O37  1  0.38972300  0.90015000  0.38299700  1
  O  O38  1  0.89244900  0.35924700  0.36666300  1
  O  O39  1  0.36531200  0.35336400  0.36375100  1
  O  O40  1  0.10886600  0.13755300  0.38582700  1
  O  O41  1  0.10376100  0.61391900  0.36812600  1
  O  O42  1  0.87750100  0.10538800  0.14978900  1
  O  O43  1  0.89155500  0.64358300  0.10221700  1
  O  O44  1  0.64800700  0.87284400  0.14680000  1
  O  O45  1  0.35729900  0.13529600  0.11315300  1
  O  O46  1  0.35951200  0.61078700  0.12041500  1
  O  O47  1  0.61204600  0.38553600  0.10886600  1
  O  O48  1  0.11010900  0.86481400  0.14829400  1
  O  O49  1  0.14912300  0.40270700  0.15287800  1
