# generated using pymatgen
data_Mn3(Ni17O20)2
_symmetry_space_group_name_H-M   'P 1'
_cell_length_a   5.96249833
_cell_length_b   5.96249833
_cell_length_c   21.47797525
_cell_angle_alpha   97.97869945
_cell_angle_beta   97.97869945
_cell_angle_gamma   90.00000000
_symmetry_Int_Tables_number   1
_chemical_formula_structural   Mn3(Ni17O20)2
_chemical_formula_sum   'Mn3 Ni34 O40'
_cell_volume   748.71567956
_cell_formula_units_Z   1
loop_
 _symmetry_equiv_pos_site_id
 _symmetry_equiv_pos_as_xyz
  1  'x, y, z'
loop_
 _atom_site_type_symbol
 _atom_site_label
 _atom_site_symmetry_multiplicity
 _atom_site_fract_x
 _atom_site_fract_y
 _atom_site_fract_z
 _atom_site_occupancy
  Mn  Mn0  1  0.59966500  0.59966500  0.19932900  1
  Mn  Mn1  1  0.20000000  0.20000000  0.40000000  1
  Mn  Mn2  1  0.80033500  0.80033500  0.60067100  1
  Ni  Ni3  1  0.50017700  0.00017700  0.00035400  1
  Ni  Ni4  1  0.99932400  0.99932400  0.99864800  1
  Ni  Ni5  1  0.00017700  0.50017700  0.00035400  1
  Ni  Ni6  1  0.49993600  0.49993600  0.99987100  1
  Ni  Ni7  1  0.80718300  0.80718300  0.10106600  1
  Ni  Ni8  1  0.29388400  0.80718300  0.10106600  1
  Ni  Ni9  1  0.80718300  0.29388400  0.10106600  1
  Ni  Ni10  1  0.29388400  0.29388400  0.10106600  1
  Ni  Ni11  1  0.10020700  0.60020700  0.20041400  1
  Ni  Ni12  1  0.60020700  0.10020700  0.20041400  1
  Ni  Ni13  1  0.39976900  0.39976900  0.29993300  1
  Ni  Ni14  1  0.90016500  0.39976900  0.29993300  1
  Ni  Ni15  1  0.90016500  0.90016500  0.29993300  1
  Ni  Ni16  1  0.39976900  0.90016500  0.29993300  1
  Ni  Ni17  1  0.70000000  0.20000000  0.40000000  1
  Ni  Ni18  1  0.20000000  0.70000000  0.40000000  1
  Ni  Ni19  1  0.49983500  0.49983500  0.50006700  1
  Ni  Ni20  1  0.00023100  0.00023100  0.50006700  1
  Ni  Ni21  1  0.00023100  0.49983500  0.50006700  1
  Ni  Ni22  1  0.49983500  0.00023100  0.50006700  1
  Ni  Ni23  1  0.29979300  0.79979300  0.59958600  1
  Ni  Ni24  1  0.79979300  0.29979300  0.59958600  1
  Ni  Ni25  1  0.59281700  0.10611600  0.69893400  1
  Ni  Ni26  1  0.59281700  0.59281700  0.69893400  1
  Ni  Ni27  1  0.10611600  0.10611600  0.69893400  1
  Ni  Ni28  1  0.10611600  0.59281700  0.69893400  1
  Ni  Ni29  1  0.39982300  0.89982300  0.79964600  1
  Ni  Ni30  1  0.90006400  0.90006400  0.80012900  1
  Ni  Ni31  1  0.40067600  0.40067600  0.80135200  1
  Ni  Ni32  1  0.89982300  0.39982300  0.79964600  1
  Ni  Ni33  1  0.70000000  0.20000000  0.90000000  1
  Ni  Ni34  1  0.70000000  0.70000000  0.90000000  1
  Ni  Ni35  1  0.20000000  0.20000000  0.90000000  1
  Ni  Ni36  1  0.20000000  0.70000000  0.90000000  1
  O  O37  1  0.74755500  0.25270800  0.00026300  1
  O  O38  1  0.25270800  0.25270800  0.00026300  1
  O  O39  1  0.25270800  0.74755500  0.00026300  1
  O  O40  1  0.74755500  0.74755500  0.00026300  1
  O  O41  1  0.04684100  0.04684100  0.09368300  1
  O  O42  1  0.55044900  0.05044900  0.10089800  1
  O  O43  1  0.05044900  0.55044900  0.10089800  1
  O  O44  1  0.55262000  0.55262000  0.10523900  1
  O  O45  1  0.37095300  0.82961500  0.20056800  1
  O  O46  1  0.82961500  0.82961500  0.20056800  1
  O  O47  1  0.82961500  0.37095300  0.20056800  1
  O  O48  1  0.37095300  0.37095300  0.20056800  1
  O  O49  1  0.64520300  0.64520300  0.29040600  1
  O  O50  1  0.15020500  0.65020500  0.30041000  1
  O  O51  1  0.65020500  0.15020500  0.30041000  1
  O  O52  1  0.15416000  0.15416000  0.30832100  1
  O  O53  1  0.97045100  0.42954900  0.40000000  1
  O  O54  1  0.42954900  0.42954900  0.40000000  1
  O  O55  1  0.42954900  0.97045100  0.40000000  1
  O  O56  1  0.97045100  0.97045100  0.40000000  1
  O  O57  1  0.24584000  0.24584000  0.49167900  1
  O  O58  1  0.74979500  0.24979500  0.49959000  1
  O  O59  1  0.24979500  0.74979500  0.49959000  1
  O  O60  1  0.75479700  0.75479700  0.50959400  1
  O  O61  1  0.57038500  0.02904700  0.59943200  1
  O  O62  1  0.02904700  0.02904700  0.59943200  1
  O  O63  1  0.57038500  0.57038500  0.59943200  1
  O  O64  1  0.02904700  0.57038500  0.59943200  1
  O  O65  1  0.84738000  0.84738000  0.69476100  1
  O  O66  1  0.34955100  0.84955100  0.69910200  1
  O  O67  1  0.84955100  0.34955100  0.69910200  1
  O  O68  1  0.35315900  0.35315900  0.70631700  1
  O  O69  1  0.14729200  0.65244500  0.79973700  1
  O  O70  1  0.65244500  0.14729200  0.79973700  1
  O  O71  1  0.14729200  0.14729200  0.79973700  1
  O  O72  1  0.65244500  0.65244500  0.79973700  1
  O  O73  1  0.45008000  0.45008000  0.90016100  1
  O  O74  1  0.95000000  0.45000000  0.90000000  1
  O  O75  1  0.45000000  0.95000000  0.90000000  1
  O  O76  1  0.94992000  0.94992000  0.89983900  1
