# generated using pymatgen
data_Ca2PdPt
_symmetry_space_group_name_H-M   'P 1'
_cell_length_a   11.61364442
_cell_length_b   11.61364442
_cell_length_c   11.61364442
_cell_angle_alpha   127.51501197
_cell_angle_beta   117.62369785
_cell_angle_gamma   85.83483636
_symmetry_Int_Tables_number   1
_chemical_formula_structural   Ca2PdPt
_chemical_formula_sum   'Ca2 Pd1 Pt1'
_cell_volume   1050.67988596
_cell_formula_units_Z   1
loop_
 _symmetry_equiv_pos_site_id
 _symmetry_equiv_pos_as_xyz
  1  'x, y, z'
loop_
 _atom_site_type_symbol
 _atom_site_label
 _atom_site_symmetry_multiplicity
 _atom_site_fract_x
 _atom_site_fract_y
 _atom_site_fract_z
 _atom_site_occupancy
  Ca  Ca0  1  0.00000000  0.25096900  0.25096900  1
  Ca  Ca1  1  0.00000000  0.74903100  0.74903100  1
  Pd  Pd2  1  0.00000000  0.00000000  0.00000000  1
  Pt  Pt3  1  0.00000000  0.50000000  0.50000000  1
