# generated using pymatgen
data_Ba2CdGa
_symmetry_space_group_name_H-M   'P 1'
_cell_length_a   13.93397236
_cell_length_b   13.93397236
_cell_length_c   13.93397236
_cell_angle_alpha   119.91873611
_cell_angle_beta   119.90367799
_cell_angle_gamma   90.15386331
_symmetry_Int_Tables_number   1
_chemical_formula_structural   Ba2CdGa
_chemical_formula_sum   'Ba2 Cd1 Ga1'
_cell_volume   1915.53728151
_cell_formula_units_Z   1
loop_
 _symmetry_equiv_pos_site_id
 _symmetry_equiv_pos_as_xyz
  1  'x, y, z'
loop_
 _atom_site_type_symbol
 _atom_site_label
 _atom_site_symmetry_multiplicity
 _atom_site_fract_x
 _atom_site_fract_y
 _atom_site_fract_z
 _atom_site_occupancy
  Ba  Ba0  1  0.00000000  0.22971400  0.22971400  1
  Ba  Ba1  1  0.00000000  0.77028600  0.77028600  1
  Cd  Cd2  1  0.00000000  0.50000000  0.50000000  1
  Ga  Ga3  1  0.00000000  0.00000000  0.00000000  1
