# generated using pymatgen
data_FeOF
_symmetry_space_group_name_H-M   'P 1'
_cell_length_a   3.11601600
_cell_length_b   9.46673000
_cell_length_c   14.25577989
_cell_angle_alpha   89.79880213
_cell_angle_beta   90.00000000
_cell_angle_gamma   90.00000000
_symmetry_Int_Tables_number   1
_chemical_formula_structural   FeOF
_chemical_formula_sum   'Fe12 O12 F12'
_cell_volume   420.52127596
_cell_formula_units_Z   12
loop_
 _symmetry_equiv_pos_site_id
 _symmetry_equiv_pos_as_xyz
  1  'x, y, z'
loop_
 _atom_site_type_symbol
 _atom_site_label
 _atom_site_symmetry_multiplicity
 _atom_site_fract_x
 _atom_site_fract_y
 _atom_site_fract_z
 _atom_site_occupancy
  Fe  Fe0  1  0.00000000  0.98493600  0.99992700  1
  Fe  Fe1  1  0.00000000  0.97825300  0.32486700  1
  Fe  Fe2  1  0.00000000  0.99725100  0.67335700  1
  Fe  Fe3  1  0.50000000  0.76705000  0.16246700  1
  Fe  Fe4  1  0.50000000  0.78510000  0.50114600  1
  Fe  Fe5  1  0.50000000  0.77966300  0.83382000  1
  Fe  Fe6  1  0.00000000  0.48697500  0.33030200  1
  Fe  Fe7  1  0.00000000  0.47673900  0.98926300  1
  Fe  Fe8  1  0.00000000  0.49608300  0.67363700  1
  Fe  Fe9  1  0.50000000  0.23845400  0.18675800  1
  Fe  Fe10  1  0.50000000  0.25774000  0.48786700  1
  Fe  Fe11  1  0.50000000  0.25012200  0.82239400  1
  O  O12  1  0.50000000  0.89390800  0.26783200  1
  O  O13  1  0.50000000  0.91095900  0.60370900  1
  O  O14  1  0.50000000  0.90670500  0.93839200  1
  O  O15  1  0.00000000  0.84606200  0.10088400  1
  O  O16  1  0.00000000  0.84322600  0.76990500  1
  O  O17  1  0.00000000  0.85109700  0.43466700  1
  O  O18  1  0.50000000  0.40563500  0.26793300  1
  O  O19  1  0.50000000  0.39476900  0.93136200  1
  O  O20  1  0.00000000  0.35024000  0.43635900  1
  O  O21  1  0.00000000  0.35308900  0.76282300  1
  O  O22  1  0.00000000  0.14473200  0.23635300  1
  O  O23  1  0.50000000  0.10186500  0.73337500  1
  F  F24  1  0.00000000  0.64965700  0.23066200  1
  F  F25  1  0.00000000  0.64736600  0.57018000  1
  F  F26  1  0.00000000  0.64927600  0.90017000  1
  F  F27  1  0.50000000  0.58808700  0.06335800  1
  F  F28  1  0.50000000  0.60067600  0.39902500  1
  F  F29  1  0.50000000  0.59955600  0.73288700  1
  F  F30  1  0.50000000  0.40650800  0.60058200  1
  F  F31  1  0.00000000  0.34304700  0.10303400  1
  F  F32  1  0.00000000  0.15168500  0.90113300  1
  F  F33  1  0.00000000  0.16288500  0.56255600  1
  F  F34  1  0.50000000  0.10467700  0.06603700  1
  F  F35  1  0.50000000  0.09591900  0.40097700  1
