# generated using pymatgen
data_FeB18H32(C4S)2
_symmetry_space_group_name_H-M   'P 1'
_cell_length_a   8.23932600
_cell_length_b   10.69944900
_cell_length_c   13.42080900
_cell_angle_alpha   90.00000000
_cell_angle_beta   90.00000000
_cell_angle_gamma   90.00000000
_symmetry_Int_Tables_number   1
_chemical_formula_structural   FeB18H32(C4S)2
_chemical_formula_sum   'Fe2 B36 H64 C16 S4'
_cell_volume   1183.12817101
_cell_formula_units_Z   2
loop_
 _symmetry_equiv_pos_site_id
 _symmetry_equiv_pos_as_xyz
  1  'x, y, z'
loop_
 _atom_site_type_symbol
 _atom_site_label
 _atom_site_symmetry_multiplicity
 _atom_site_fract_x
 _atom_site_fract_y
 _atom_site_fract_z
 _atom_site_occupancy
  Fe  Fe0  1  0.15104900  0.00000000  0.00000000  1
  Fe  Fe1  1  0.84895100  0.50000000  0.50000000  1
  B  B2  1  0.02982200  0.69886700  0.00756300  1
  B  B3  1  0.24324600  0.69454700  0.00977500  1
  B  B4  1  0.31873800  0.85226300  0.01694300  1
  B  B5  1  0.13024900  0.66065800  0.11895400  1
  B  B6  1  0.96167800  0.76455200  0.11991800  1
  B  B7  1  0.30815600  0.75399800  0.12612900  1
  B  B8  1  0.03598600  0.92218400  0.12744700  1
  B  B9  1  0.24980400  0.91386600  0.13193800  1
  B  B10  1  0.13203900  0.79683000  0.19467400  1
  B  B11  1  0.86796100  0.29683000  0.30532600  1
  B  B12  1  0.75019600  0.41386600  0.36806200  1
  B  B13  1  0.96401400  0.42218400  0.37255300  1
  B  B14  1  0.69184400  0.25399800  0.37387100  1
  B  B15  1  0.03832200  0.26455200  0.38008200  1
  B  B16  1  0.86975100  0.16065800  0.38104600  1
  B  B17  1  0.68126200  0.35226300  0.48305700  1
  B  B18  1  0.75675400  0.19454700  0.49022500  1
  B  B19  1  0.97017800  0.19886700  0.49243700  1
  B  B20  1  0.97017800  0.80113300  0.50756300  1
  B  B21  1  0.75675400  0.80545300  0.50977500  1
  B  B22  1  0.68126200  0.64773700  0.51694300  1
  B  B23  1  0.86975100  0.83934200  0.61895400  1
  B  B24  1  0.03832200  0.73544800  0.61991800  1
  B  B25  1  0.69184400  0.74600200  0.62612900  1
  B  B26  1  0.96401400  0.57781600  0.62744700  1
  B  B27  1  0.75019600  0.58613400  0.63193800  1
  B  B28  1  0.86796100  0.70317000  0.69467400  1
  B  B29  1  0.13203900  0.20317000  0.80532600  1
  B  B30  1  0.24980400  0.08613400  0.86806200  1
  B  B31  1  0.03598600  0.07781600  0.87255300  1
  B  B32  1  0.30815600  0.24600200  0.87387100  1
  B  B33  1  0.96167800  0.23544800  0.88008200  1
  B  B34  1  0.13024900  0.33934200  0.88104600  1
  B  B35  1  0.31873800  0.14773700  0.98305700  1
  B  B36  1  0.24324600  0.30545300  0.99022500  1
  B  B37  1  0.02982200  0.30113300  0.99243700  1
  H  H38  1  0.55283300  0.52371100  0.11276500  1
  H  H39  1  0.60651900  0.99842100  0.10861200  1
  H  H40  1  0.76147300  0.48162300  0.13302000  1
  H  H41  1  0.60395700  0.36836200  0.15554000  1
  H  H42  1  0.60550600  0.88321200  0.20586200  1
  H  H43  1  0.66581800  0.04212300  0.23281200  1
  H  H44  1  0.33418200  0.54212300  0.26718800  1
  H  H45  1  0.39449400  0.38321200  0.29413800  1
  H  H46  1  0.39604300  0.86836200  0.34446000  1
  H  H47  1  0.23852700  0.98162300  0.36698000  1
  H  H48  1  0.39348100  0.49842100  0.39138800  1
  H  H49  1  0.44716700  0.02371100  0.38723500  1
  H  H50  1  0.44716700  0.97628900  0.61276500  1
  H  H51  1  0.39348100  0.50157900  0.60861200  1
  H  H52  1  0.23852700  0.01837700  0.63302000  1
  H  H53  1  0.39604300  0.13163800  0.65554000  1
  H  H54  1  0.39449400  0.61678800  0.70586200  1
  H  H55  1  0.33418200  0.45787700  0.73281200  1
  H  H56  1  0.66581800  0.95787700  0.76718800  1
  H  H57  1  0.60550600  0.11678800  0.79413800  1
  H  H58  1  0.60395700  0.63163800  0.84446000  1
  H  H59  1  0.76147300  0.51837700  0.86698000  1
  H  H60  1  0.60651900  0.00157900  0.89138800  1
  H  H61  1  0.55283300  0.47628900  0.88723500  1
  H  H62  1  0.87689700  0.12243300  0.02439000  1
  H  H63  1  0.44776900  0.13847800  0.02344900  1
  H  H64  1  0.31104700  0.37980500  0.04164500  1
  H  H65  1  0.94781300  0.36323700  0.04585500  1
  H  H66  1  0.13485900  0.18921800  0.12617800  1
  H  H67  1  0.82689400  0.74152900  0.14735400  1
  H  H68  1  0.12171300  0.55670500  0.15126600  1
  H  H69  1  0.43043500  0.71847900  0.16549400  1
  H  H70  1  0.94649100  0.99222100  0.16982900  1
  H  H71  1  0.87721300  0.28882500  0.21664900  1
  H  H72  1  0.12278700  0.78882500  0.28335100  1
  H  H73  1  0.05350900  0.49222100  0.33017100  1
  H  H74  1  0.56956500  0.21847900  0.33450600  1
  H  H75  1  0.87828700  0.05670500  0.34873400  1
  H  H76  1  0.17310600  0.24152900  0.35264600  1
  H  H77  1  0.86514100  0.68921800  0.37382200  1
  H  H78  1  0.05218700  0.86323700  0.45414500  1
  H  H79  1  0.68895300  0.87980500  0.45835500  1
  H  H80  1  0.55223100  0.63847800  0.47655100  1
  H  H81  1  0.12310300  0.62243300  0.47561000  1
  H  H82  1  0.12310300  0.37756700  0.52439000  1
  H  H83  1  0.55223100  0.36152200  0.52344900  1
  H  H84  1  0.68895300  0.12019500  0.54164500  1
  H  H85  1  0.05218700  0.13676300  0.54585500  1
  H  H86  1  0.86514100  0.31078200  0.62617800  1
  H  H87  1  0.17310600  0.75847100  0.64735400  1
  H  H88  1  0.87828700  0.94329500  0.65126600  1
  H  H89  1  0.56956500  0.78152100  0.66549400  1
  H  H90  1  0.05350900  0.50777900  0.66982900  1
  H  H91  1  0.12278700  0.21117500  0.71664900  1
  H  H92  1  0.87721300  0.71117500  0.78335100  1
  H  H93  1  0.94649100  0.00777900  0.83017100  1
  H  H94  1  0.43043500  0.28152100  0.83450600  1
  H  H95  1  0.12171300  0.44329500  0.84873400  1
  H  H96  1  0.82689400  0.25847100  0.85264600  1
  H  H97  1  0.13485900  0.81078200  0.87382200  1
  H  H98  1  0.94781300  0.63676300  0.95414500  1
  H  H99  1  0.31104700  0.62019500  0.95835500  1
  H  H100  1  0.44776900  0.86152200  0.97655100  1
  H  H101  1  0.87689700  0.87756700  0.97561000  1
  C  C102  1  0.98703000  0.85638500  0.01686800  1
  C  C103  1  0.14535500  0.18314300  0.04564400  1
  C  C104  1  0.85464500  0.68314300  0.45435600  1
  C  C105  1  0.01297000  0.35638500  0.48313200  1
  C  C106  1  0.01297000  0.64361500  0.51686800  1
  C  C107  1  0.85464500  0.31685700  0.54564400  1
  C  C108  1  0.14535500  0.81685700  0.95435600  1
  C  C109  1  0.98703000  0.14361500  0.98313200  1
  C  C110  1  0.63639200  0.46773300  0.15822200  1
  C  C111  1  0.58621100  0.98213200  0.18805600  1
  C  C112  1  0.41378900  0.48213200  0.31194400  1
  C  C113  1  0.36360800  0.96773300  0.34177800  1
  C  C114  1  0.36360800  0.03226700  0.65822200  1
  C  C115  1  0.41378900  0.51786800  0.68805600  1
  C  C116  1  0.58621100  0.01786800  0.81194400  1
  C  C117  1  0.63639200  0.53226700  0.84177800  1
  S  S118  1  0.37835200  0.02370900  0.21501700  1
  S  S119  1  0.62164800  0.52370900  0.28498300  1
  S  S120  1  0.62164800  0.47629100  0.71501700  1
  S  S121  1  0.37835200  0.97629100  0.78498300  1
