data_image0
_chemical_formula_structural       Ga2In2Se4
_chemical_formula_sum              "Ga2 In2 Se4"
_cell_length_a       6.5677
_cell_length_b       6.5677
_cell_length_c       6.5677
_cell_angle_alpha    103.735
_cell_angle_beta     121.678
_cell_angle_gamma    103.735

_space_group_name_H-M_alt    "P 1"
_space_group_IT_number       1

loop_
  _space_group_symop_operation_xyz
  'x, y, z'

loop_
  _atom_site_type_symbol
  _atom_site_label
  _atom_site_symmetry_multiplicity
  _atom_site_fract_x
  _atom_site_fract_y
  _atom_site_fract_z
  _atom_site_occupancy
  Ga  Ga1       1.0  0.75000  0.50000  0.25000  1.0000
  Ga  Ga2       1.0  0.25000  0.50000  0.75000  1.0000
  In  In1       1.0  0.25000  0.00000  0.25000  1.0000
  In  In2       1.0  0.75000  0.00000  0.75000  1.0000
  Se  Se1       1.0  0.66300  0.82700  0.16300  1.0000
  Se  Se2       1.0  0.16300  0.50000  0.33700  1.0000
  Se  Se3       1.0  0.83700  0.50000  0.66300  1.0000
  Se  Se4       1.0  0.33700  0.17300  0.83700  1.0000
