# generated using pymatgen
data_ScAl2Tc
_symmetry_space_group_name_H-M   'P 1'
_cell_length_a   11.09824768
_cell_length_b   11.09824768
_cell_length_c   11.09824768
_cell_angle_alpha   123.10476429
_cell_angle_beta   118.54530441
_cell_angle_gamma   88.62332961
_symmetry_Int_Tables_number   1
_chemical_formula_structural   ScAl2Tc
_chemical_formula_sum   'Sc1 Al2 Tc1'
_cell_volume   952.30387798
_cell_formula_units_Z   1
loop_
 _symmetry_equiv_pos_site_id
 _symmetry_equiv_pos_as_xyz
  1  'x, y, z'
loop_
 _atom_site_type_symbol
 _atom_site_label
 _atom_site_symmetry_multiplicity
 _atom_site_fract_x
 _atom_site_fract_y
 _atom_site_fract_z
 _atom_site_occupancy
  Sc  Sc0  1  0.00000000  0.00000000  0.00000000  1
  Al  Al1  1  0.00000000  0.26848000  0.26848000  1
  Al  Al2  1  0.00000000  0.73152000  0.73152000  1
  Tc  Tc3  1  0.00000000  0.50000000  0.50000000  1
