# generated using pymatgen
data_Mn6O5F7
_symmetry_space_group_name_H-M   'P 1'
_cell_length_a   5.09247300
_cell_length_b   5.69664359
_cell_length_c   14.79817402
_cell_angle_alpha   92.40111343
_cell_angle_beta   95.11505814
_cell_angle_gamma   89.88440547
_symmetry_Int_Tables_number   1
_chemical_formula_structural   Mn6O5F7
_chemical_formula_sum   'Mn12 O10 F14'
_cell_volume   427.20943801
_cell_formula_units_Z   2
loop_
 _symmetry_equiv_pos_site_id
 _symmetry_equiv_pos_as_xyz
  1  'x, y, z'
loop_
 _atom_site_type_symbol
 _atom_site_label
 _atom_site_symmetry_multiplicity
 _atom_site_fract_x
 _atom_site_fract_y
 _atom_site_fract_z
 _atom_site_occupancy
  Mn  Mn0  1  0.04302900  0.90718800  0.99895900  1
  Mn  Mn1  1  0.50842600  0.14506900  0.83235800  1
  Mn  Mn2  1  0.96461600  0.90933800  0.65969600  1
  Mn  Mn3  1  0.46486100  0.91605200  0.50359300  1
  Mn  Mn4  1  0.03724000  0.98182300  0.32812200  1
  Mn  Mn5  1  0.49237700  0.88753300  0.15895100  1
  Mn  Mn6  1  0.00546000  0.43443800  0.83770100  1
  Mn  Mn7  1  0.55693400  0.60405500  0.98834800  1
  Mn  Mn8  1  0.48322000  0.57625600  0.33564700  1
  Mn  Mn9  1  0.99241900  0.47129200  0.50112300  1
  Mn  Mn10  1  0.48612500  0.58105700  0.67256500  1
  Mn  Mn11  1  0.04942700  0.48170900  0.15963800  1
  O  O12  1  0.28316500  0.82179000  0.60294500  1
  O  O13  1  0.73298600  0.84128800  0.06963400  1
  O  O14  1  0.26634700  0.77060300  0.24817300  1
  O  O15  1  0.86920500  0.65223300  0.92297200  1
  O  O16  1  0.24870400  0.69395200  0.42720700  1
  O  O17  1  0.26478800  0.68334100  0.06827500  1
  O  O18  1  0.77289700  0.65344800  0.58973300  1
  O  O19  1  0.72692900  0.41736700  0.41144500  1
  O  O20  1  0.67103100  0.38096200  0.76350600  1
  O  O21  1  0.34909800  0.38955100  0.90300500  1
  F  F22  1  0.66411100  0.89513800  0.74849200  1
  F  F23  1  0.36778600  0.90801400  0.91147200  1
  F  F24  1  0.70631300  0.91268400  0.40759300  1
  F  F25  1  0.17049200  0.64600800  0.74847300  1
  F  F26  1  0.74729500  0.60533600  0.24497400  1
  F  F27  1  0.73671000  0.37095200  0.07359500  1
  F  F28  1  0.23183000  0.35264900  0.60043200  1
  F  F29  1  0.23558600  0.29853100  0.26928300  1
  F  F30  1  0.71684800  0.12422900  0.57777500  1
  F  F31  1  0.87246800  0.13842800  0.91539700  1
  F  F32  1  0.73475800  0.08503300  0.23548400  1
  F  F33  1  0.19804100  0.17789000  0.44293000  1
  F  F34  1  0.21344600  0.14199900  0.08726300  1
  F  F35  1  0.13503400  0.14276600  0.75323600  1
