# generated using pymatgen
data_Li2Mn2(PO4)3
_symmetry_space_group_name_H-M   'P 1'
_cell_length_a   9.12565175
_cell_length_b   8.31778691
_cell_length_c   8.25233199
_cell_angle_alpha   60.97370564
_cell_angle_beta   61.69517142
_cell_angle_gamma   91.91344057
_symmetry_Int_Tables_number   1
_chemical_formula_structural   Li2Mn2(PO4)3
_chemical_formula_sum   'Li4 Mn4 P6 O24'
_cell_volume   453.11435995
_cell_formula_units_Z   2
loop_
 _symmetry_equiv_pos_site_id
 _symmetry_equiv_pos_as_xyz
  1  'x, y, z'
loop_
 _atom_site_type_symbol
 _atom_site_label
 _atom_site_symmetry_multiplicity
 _atom_site_fract_x
 _atom_site_fract_y
 _atom_site_fract_z
 _atom_site_occupancy
  Li  Li0  1  0.86101700  0.25658000  0.82095800  1
  Li  Li1  1  0.87216600  0.93316700  0.38951700  1
  Li  Li2  1  0.12783400  0.06683300  0.61048300  1
  Li  Li3  1  0.13898300  0.74342000  0.17904200  1
  Mn  Mn4  1  0.95686800  0.64842300  0.70036900  1
  Mn  Mn5  1  0.43311500  0.14819200  0.71211900  1
  Mn  Mn6  1  0.56688500  0.85180800  0.28788100  1
  Mn  Mn7  1  0.04313200  0.35157700  0.29963100  1
  P  P8  1  0.74710100  0.95108900  0.79205000  1
  P  P9  1  0.75750800  0.53536100  0.50457400  1
  P  P10  1  0.74813000  0.25355700  0.21541100  1
  P  P11  1  0.25187000  0.74644300  0.78458900  1
  P  P12  1  0.24249200  0.46463900  0.49542600  1
  P  P13  1  0.25289900  0.04891100  0.20795000  1
  O  O14  1  0.90615700  0.15899700  0.62773900  1
  O  O15  1  0.80274500  0.49357400  0.67995900  1
  O  O16  1  0.81379300  0.82323900  0.70238600  1
  O  O17  1  0.91422600  0.53011500  0.31052400  1
  O  O18  1  0.88896700  0.21030800  0.27643600  1
  O  O19  1  0.75320000  0.74210500  0.38923500  1
  O  O20  1  0.58216100  0.97502300  0.80073300  1
  O  O21  1  0.58231900  0.38095800  0.62690000  1
  O  O22  1  0.80681100  0.46749400  0.02253200  1
  O  O23  1  0.73778100  0.11397300  0.14395200  1
  O  O24  1  0.56866800  0.20470100  0.41578500  1
  O  O25  1  0.73505200  0.87597900  0.01089600  1
  O  O26  1  0.26494800  0.12402100  0.98910400  1
  O  O27  1  0.43133200  0.79529900  0.58421500  1
  O  O28  1  0.26221900  0.88602700  0.85604800  1
  O  O29  1  0.19318900  0.53250600  0.97746800  1
  O  O30  1  0.41768100  0.61904200  0.37310000  1
  O  O31  1  0.41783900  0.02497700  0.19926700  1
  O  O32  1  0.24680000  0.25789500  0.61076500  1
  O  O33  1  0.11103300  0.78969200  0.72356400  1
  O  O34  1  0.08577400  0.46988500  0.68947600  1
  O  O35  1  0.18620700  0.17676100  0.29761400  1
  O  O36  1  0.19725500  0.50642600  0.32004100  1
  O  O37  1  0.09384300  0.84100300  0.37226100  1
