# generated using pymatgen
data_La2H22S6N6O23
_symmetry_space_group_name_H-M   'P 1'
_cell_length_a   11.37983737
_cell_length_b   11.37983737
_cell_length_c   14.27475151
_cell_angle_alpha   66.85885379
_cell_angle_beta   66.85885379
_cell_angle_gamma   48.89349317
_symmetry_Int_Tables_number   1
_chemical_formula_structural   La2H22S6N6O23
_chemical_formula_sum   'La4 H44 S12 N12 O46'
_cell_volume   1256.41178192
_cell_formula_units_Z   2
loop_
 _symmetry_equiv_pos_site_id
 _symmetry_equiv_pos_as_xyz
  1  'x, y, z'
loop_
 _atom_site_type_symbol
 _atom_site_label
 _atom_site_symmetry_multiplicity
 _atom_site_fract_x
 _atom_site_fract_y
 _atom_site_fract_z
 _atom_site_occupancy
  La  La0  1  0.80490900  0.74028700  0.39100700  1
  La  La1  1  0.74028700  0.80490900  0.89100700  1
  La  La2  1  0.25971300  0.19509100  0.10899300  1
  La  La3  1  0.19509100  0.25971300  0.60899300  1
  H  H4  1  0.52400000  0.35380700  0.40416400  1
  H  H5  1  0.10343500  0.02828500  0.26389500  1
  H  H6  1  0.47822200  0.69446700  0.23721000  1
  H  H7  1  0.55254000  0.23451300  0.34386300  1
  H  H8  1  0.83724700  0.10632700  0.30663400  1
  H  H9  1  0.89367300  0.16275300  0.19336600  1
  H  H10  1  0.76548700  0.44746000  0.15613700  1
  H  H11  1  0.02526300  0.15756800  0.47516000  1
  H  H12  1  0.30553300  0.52177800  0.26279000  1
  H  H13  1  0.97171500  0.89656500  0.23610500  1
  H  H14  1  0.84765200  0.20723200  0.47837800  1
  H  H15  1  0.52904400  0.06364400  0.28501900  1
  H  H16  1  0.64619300  0.47600000  0.09583600  1
  H  H17  1  0.67905200  0.04476900  0.20490000  1
  H  H18  1  0.03687400  0.76240300  0.17691000  1
  H  H19  1  0.32865400  0.46288800  0.16115700  1
  H  H20  1  0.53711200  0.67134600  0.33884300  1
  H  H21  1  0.23759700  0.96312600  0.32309000  1
  H  H22  1  0.95523100  0.32094800  0.29510000  1
  H  H23  1  0.15756800  0.02526300  0.97516000  1
  H  H24  1  0.93635600  0.47095600  0.21498100  1
  H  H25  1  0.79276800  0.15234800  0.02162200  1
  H  H26  1  0.20723200  0.84765200  0.97837800  1
  H  H27  1  0.06364400  0.52904400  0.78501900  1
  H  H28  1  0.84243200  0.97473700  0.02484000  1
  H  H29  1  0.04476900  0.67905200  0.70490000  1
  H  H30  1  0.76240300  0.03687400  0.67691000  1
  H  H31  1  0.46288800  0.32865400  0.66115700  1
  H  H32  1  0.67134600  0.53711200  0.83884300  1
  H  H33  1  0.96312600  0.23759700  0.82309000  1
  H  H34  1  0.32094800  0.95523100  0.79510000  1
  H  H35  1  0.35380700  0.52400000  0.90416400  1
  H  H36  1  0.47095600  0.93635600  0.71498100  1
  H  H37  1  0.15234800  0.79276800  0.52162200  1
  H  H38  1  0.02828500  0.10343500  0.76389500  1
  H  H39  1  0.69446700  0.47822200  0.73721000  1
  H  H40  1  0.97473700  0.84243200  0.52484000  1
  H  H41  1  0.23451300  0.55254000  0.84386300  1
  H  H42  1  0.10632700  0.83724700  0.80663400  1
  H  H43  1  0.16275300  0.89367300  0.69336600  1
  H  H44  1  0.44746000  0.76548700  0.65613700  1
  H  H45  1  0.52177800  0.30553300  0.76279000  1
  H  H46  1  0.89656500  0.97171500  0.73610500  1
  H  H47  1  0.47600000  0.64619300  0.59583600  1
  S  S48  1  0.63953000  0.10433400  0.49391000  1
  S  S49  1  0.17442400  0.60997300  0.47725500  1
  S  S50  1  0.22618500  0.36740500  0.31063900  1
  S  S51  1  0.39002700  0.82557600  0.02274500  1
  S  S52  1  0.89566600  0.36047000  0.00609000  1
  S  S53  1  0.63259500  0.77381500  0.18936100  1
  S  S54  1  0.36740500  0.22618500  0.81063900  1
  S  S55  1  0.10433400  0.63953000  0.99391000  1
  S  S56  1  0.60997300  0.17442400  0.97725500  1
  S  S57  1  0.77381500  0.63259500  0.68936100  1
  S  S58  1  0.82557600  0.39002700  0.52274500  1
  S  S59  1  0.36047000  0.89566600  0.50609000  1
  N  N60  1  0.56967900  0.66420500  0.26233200  1
  N  N61  1  0.60171700  0.24262700  0.38608900  1
  N  N62  1  0.91494100  0.24791200  0.45653800  1
  N  N63  1  0.75737300  0.39828300  0.11391100  1
  N  N64  1  0.33579500  0.43032100  0.23766800  1
  N  N65  1  0.24791200  0.91494100  0.95653800  1
  N  N66  1  0.75208800  0.08505900  0.04346200  1
  N  N67  1  0.66420500  0.56967900  0.76233200  1
  N  N68  1  0.24262700  0.60171700  0.88608900  1
  N  N69  1  0.08505900  0.75208800  0.54346200  1
  N  N70  1  0.39828300  0.75737300  0.61391100  1
  N  N71  1  0.43032100  0.33579500  0.73766800  1
  O  O72  1  0.76309200  0.95392300  0.45548600  1
  O  O73  1  0.04161100  0.63145100  0.45965100  1
  O  O74  1  0.28026700  0.62698400  0.38336400  1
  O  O75  1  0.19175100  0.02920100  0.26008000  1
  O  O76  1  0.26907000  0.30467000  0.41261400  1
  O  O77  1  0.93151200  0.06848800  0.25000000  1
  O  O78  1  0.50299000  0.88736400  0.44312100  1
  O  O79  1  0.73755300  0.54242100  0.45051300  1
  O  O80  1  0.30014200  0.86343600  0.45242400  1
  O  O81  1  0.05495800  0.49508800  0.31357800  1
  O  O82  1  0.63607700  0.02822600  0.28024400  1
  O  O83  1  0.97079900  0.80824900  0.23992000  1
  O  O84  1  0.37301600  0.71973300  0.11663600  1
  O  O85  1  0.36854900  0.95838900  0.04034900  1
  O  O86  1  0.04607700  0.23690800  0.04451400  1
  O  O87  1  0.28150000  0.24139000  0.26263400  1
  O  O88  1  0.30467000  0.26907000  0.91261400  1
  O  O89  1  0.75861000  0.71850000  0.23736600  1
  O  O90  1  0.88736400  0.50299000  0.94312100  1
  O  O91  1  0.54242100  0.73755300  0.95051300  1
  O  O92  1  0.97177400  0.36392300  0.21975600  1
  O  O93  1  0.50491200  0.94504200  0.18642200  1
  O  O94  1  0.86343600  0.30014200  0.95242400  1
  O  O95  1  0.13656400  0.69985800  0.04757600  1
  O  O96  1  0.49508800  0.05495800  0.81357800  1
  O  O97  1  0.02822600  0.63607700  0.78024400  1
  O  O98  1  0.45757900  0.26244700  0.04948700  1
  O  O99  1  0.11263600  0.49701000  0.05687900  1
  O  O100  1  0.24139000  0.28150000  0.76263400  1
  O  O101  1  0.69533000  0.73093000  0.08738600  1
  O  O102  1  0.71850000  0.75861000  0.73736600  1
  O  O103  1  0.95392300  0.76309200  0.95548600  1
  O  O104  1  0.63145100  0.04161100  0.95965100  1
  O  O105  1  0.62698400  0.28026700  0.88336400  1
  O  O106  1  0.02920100  0.19175100  0.76008000  1
  O  O107  1  0.36392300  0.97177400  0.71975600  1
  O  O108  1  0.94504200  0.50491200  0.68642200  1
  O  O109  1  0.69985800  0.13656400  0.54757600  1
  O  O110  1  0.26244700  0.45757900  0.54948700  1
  O  O111  1  0.49701000  0.11263600  0.55687900  1
  O  O112  1  0.06848800  0.93151200  0.75000000  1
  O  O113  1  0.73093000  0.69533000  0.58738600  1
  O  O114  1  0.80824900  0.97079900  0.73992000  1
  O  O115  1  0.71973300  0.37301600  0.61663600  1
  O  O116  1  0.95838900  0.36854900  0.54034900  1
  O  O117  1  0.23690800  0.04607700  0.54451400  1
