# generated using pymatgen
data_Al2CuTc
_symmetry_space_group_name_H-M   'P 1'
_cell_length_a   9.59159388
_cell_length_b   9.59159388
_cell_length_c   9.59159388
_cell_angle_alpha   120.03616714
_cell_angle_beta   119.21945139
_cell_angle_gamma   90.64731017
_symmetry_Int_Tables_number   1
_chemical_formula_structural   Al2CuTc
_chemical_formula_sum   'Al2 Cu1 Tc1'
_cell_volume   627.38840473
_cell_formula_units_Z   1
loop_
 _symmetry_equiv_pos_site_id
 _symmetry_equiv_pos_as_xyz
  1  'x, y, z'
loop_
 _atom_site_type_symbol
 _atom_site_label
 _atom_site_symmetry_multiplicity
 _atom_site_fract_x
 _atom_site_fract_y
 _atom_site_fract_z
 _atom_site_occupancy
  Al  Al0  1  0.24719200  0.00000000  0.24719200  1
  Al  Al1  1  0.75280800  0.00000000  0.75280800  1
  Cu  Cu2  1  0.00000000  0.00000000  0.00000000  1
  Tc  Tc3  1  0.50000000  0.00000000  0.50000000  1
