# generated using pymatgen
data_FeOF
_symmetry_space_group_name_H-M   'P 1'
_cell_length_a   3.08953900
_cell_length_b   14.21079700
_cell_length_c   14.24318404
_cell_angle_alpha   89.60818384
_cell_angle_beta   90.00000000
_cell_angle_gamma   90.00000000
_symmetry_Int_Tables_number   1
_chemical_formula_structural   FeOF
_chemical_formula_sum   'Fe18 O18 F18'
_cell_volume   625.32968913
_cell_formula_units_Z   18
loop_
 _symmetry_equiv_pos_site_id
 _symmetry_equiv_pos_as_xyz
  1  'x, y, z'
loop_
 _atom_site_type_symbol
 _atom_site_label
 _atom_site_symmetry_multiplicity
 _atom_site_fract_x
 _atom_site_fract_y
 _atom_site_fract_z
 _atom_site_occupancy
  Fe  Fe0  1  0.00000000  0.98662600  0.99876600  1
  Fe  Fe1  1  0.00000000  0.00447100  0.33610800  1
  Fe  Fe2  1  0.00000000  0.98872100  0.66263200  1
  Fe  Fe3  1  0.50000000  0.85623500  0.17457000  1
  Fe  Fe4  1  0.50000000  0.82984300  0.51487700  1
  Fe  Fe5  1  0.50000000  0.84747300  0.82988200  1
  Fe  Fe6  1  0.00000000  0.66184500  0.00567400  1
  Fe  Fe7  1  0.00000000  0.65383400  0.32981000  1
  Fe  Fe8  1  0.00000000  0.66079800  0.65700300  1
  Fe  Fe9  1  0.50000000  0.51168600  0.49819000  1
  Fe  Fe10  1  0.50000000  0.50996900  0.16440900  1
  Fe  Fe11  1  0.50000000  0.48034300  0.83423600  1
  Fe  Fe12  1  0.00000000  0.32635800  0.99116300  1
  Fe  Fe13  1  0.00000000  0.31870100  0.33320500  1
  Fe  Fe14  1  0.00000000  0.33242000  0.67655600  1
  Fe  Fe15  1  0.50000000  0.18507700  0.15999100  1
  Fe  Fe16  1  0.50000000  0.16638800  0.48686500  1
  Fe  Fe17  1  0.50000000  0.17883100  0.83092400  1
  O  O18  1  0.50000000  0.93891300  0.27537400  1
  O  O19  1  0.50000000  0.93838800  0.59741900  1
  O  O20  1  0.50000000  0.93359400  0.93452400  1
  O  O21  1  0.00000000  0.89781700  0.10328200  1
  O  O22  1  0.00000000  0.89627800  0.76683900  1
  O  O23  1  0.00000000  0.76530000  0.56816600  1
  O  O24  1  0.50000000  0.60109100  0.26509600  1
  O  O25  1  0.50000000  0.59422200  0.60814000  1
  O  O26  1  0.00000000  0.56658500  0.09714200  1
  O  O27  1  0.00000000  0.56652700  0.43581800  1
  O  O28  1  0.00000000  0.43837100  0.90367500  1
  O  O29  1  0.50000000  0.39920600  0.72703700  1
  O  O30  1  0.50000000  0.27032300  0.26792200  1
  O  O31  1  0.50000000  0.26873900  0.93176200  1
  O  O32  1  0.00000000  0.23629000  0.09756100  1
  O  O33  1  0.00000000  0.23493600  0.44008800  1
  O  O34  1  0.00000000  0.22745700  0.76436900  1
  O  O35  1  0.50000000  0.06450200  0.40107600  1
  F  F36  1  0.00000000  0.89173200  0.43726500  1
  F  F37  1  0.00000000  0.76746500  0.23101200  1
  F  F38  1  0.00000000  0.76299500  0.90249400  1
  F  F39  1  0.50000000  0.73075400  0.06354000  1
  F  F40  1  0.50000000  0.72776900  0.73854600  1
  F  F41  1  0.50000000  0.73340400  0.39396100  1
  F  F42  1  0.50000000  0.60720900  0.93413200  1
  F  F43  1  0.00000000  0.56822900  0.77555500  1
  F  F44  1  0.00000000  0.43666700  0.23176900  1
  F  F45  1  0.00000000  0.42850900  0.55925700  1
  F  F46  1  0.50000000  0.40112100  0.06890800  1
  F  F47  1  0.50000000  0.40051700  0.39754800  1
  F  F48  1  0.50000000  0.26685800  0.60226000  1
  F  F49  1  0.00000000  0.10481800  0.22527800  1
  F  F50  1  0.00000000  0.10505000  0.57226900  1
  F  F51  1  0.00000000  0.09965400  0.89987500  1
  F  F52  1  0.50000000  0.06568700  0.06339500  1
  F  F53  1  0.50000000  0.06340600  0.73279100  1
