# generated using pymatgen
data_VO2F
_symmetry_space_group_name_H-M   'P 1'
_cell_length_a   5.27332207
_cell_length_b   5.27332207
_cell_length_c   13.08492725
_cell_angle_alpha   88.45360676
_cell_angle_beta   88.45360676
_cell_angle_gamma   58.62673191
_symmetry_Int_Tables_number   1
_chemical_formula_structural   VO2F
_chemical_formula_sum   'V6 O12 F6'
_cell_volume   310.51658464
_cell_formula_units_Z   6
loop_
 _symmetry_equiv_pos_site_id
 _symmetry_equiv_pos_as_xyz
  1  'x, y, z'
loop_
 _atom_site_type_symbol
 _atom_site_label
 _atom_site_symmetry_multiplicity
 _atom_site_fract_x
 _atom_site_fract_y
 _atom_site_fract_z
 _atom_site_occupancy
  V  V0  1  0.06971600  0.98608800  0.50506500  1
  V  V1  1  0.98608800  0.06971600  0.00506500  1
  V  V2  1  0.34125900  0.37091000  0.16995000  1
  V  V3  1  0.72785000  0.64746400  0.33848000  1
  V  V4  1  0.37091000  0.34125900  0.66995000  1
  V  V5  1  0.64746400  0.72785000  0.83848000  1
  O  O6  1  0.99048800  0.42442600  0.24855500  1
  O  O7  1  0.88962200  0.34255900  0.91606800  1
  O  O8  1  0.64211300  0.24757600  0.08263700  1
  O  O9  1  0.42442600  0.99048800  0.74855500  1
  O  O10  1  0.21680500  0.09742200  0.08129200  1
  O  O11  1  0.91393500  0.73803000  0.41269700  1
  O  O12  1  0.57203400  0.40650400  0.74643300  1
  O  O13  1  0.40650400  0.57203400  0.24643300  1
  O  O14  1  0.09742200  0.21680500  0.58129200  1
  O  O15  1  0.73803000  0.91393500  0.91269700  1
  O  O16  1  0.24757600  0.64211300  0.58263700  1
  O  O17  1  0.34255900  0.88962200  0.41606800  1
  F  F18  1  0.56671400  0.99619900  0.24886000  1
  F  F19  1  0.67439000  0.06492900  0.58278400  1
  F  F20  1  0.75393800  0.31903000  0.41717900  1
  F  F21  1  0.99619900  0.56671400  0.74886000  1
  F  F22  1  0.31903000  0.75393800  0.91717900  1
  F  F23  1  0.06492900  0.67439000  0.08278400  1
