# generated using pymatgen
data_Fe3Co2Te(PO4)6
_symmetry_space_group_name_H-M   'P 1'
_cell_length_a   8.59776242
_cell_length_b   8.73260734
_cell_length_c   8.73260862
_cell_angle_alpha   60.00000295
_cell_angle_beta   59.47981526
_cell_angle_gamma   59.47981185
_symmetry_Int_Tables_number   1
_chemical_formula_structural   Fe3Co2Te(PO4)6
_chemical_formula_sum   'Fe3 Co2 Te1 P6 O24'
_cell_volume   459.93722730
_cell_formula_units_Z   1
loop_
 _symmetry_equiv_pos_site_id
 _symmetry_equiv_pos_as_xyz
  1  'x, y, z'
loop_
 _atom_site_type_symbol
 _atom_site_label
 _atom_site_symmetry_multiplicity
 _atom_site_fract_x
 _atom_site_fract_y
 _atom_site_fract_z
 _atom_site_occupancy
  Fe  Fe0  1  0.06206100  0.64597900  0.64597900  1
  Fe  Fe1  1  0.43261800  0.85579300  0.85579300  1
  Fe  Fe2  1  0.93354100  0.35548700  0.35548700  1
  Co  Co3  1  0.00567600  0.99810800  0.99810800  1
  Co  Co4  1  0.49579300  0.50140200  0.50140200  1
  Te  Te5  1  0.56164100  0.14612000  0.14612000  1
  P  P6  1  0.24499600  0.25364900  0.55266400  1
  P  P7  1  0.24499600  0.94869000  0.25364900  1
  P  P8  1  0.24499600  0.55266400  0.94869000  1
  P  P9  1  0.74694600  0.46194000  0.04649500  1
  P  P10  1  0.74694600  0.04649500  0.74462000  1
  P  P11  1  0.74694600  0.74462000  0.46194000  1
  O  O12  1  0.07721900  0.11118100  0.31602300  1
  O  O13  1  0.07721900  0.49557800  0.11118100  1
  O  O14  1  0.07721900  0.31602300  0.49557800  1
  O  O15  1  0.22670900  0.09127000  0.74311000  1
  O  O16  1  0.44124100  0.18839700  0.39727800  1
  O  O17  1  0.27033800  0.41136000  0.56502300  1
  O  O18  1  0.22670900  0.93891100  0.09127000  1
  O  O19  1  0.27033800  0.75328000  0.41136000  1
  O  O20  1  0.56518800  0.61012600  0.00506900  1
  O  O21  1  0.27033800  0.56502300  0.75328000  1
  O  O22  1  0.77569100  0.25874200  0.05839700  1
  O  O23  1  0.56518800  0.00506900  0.81961700  1
  O  O24  1  0.44124100  0.97308400  0.18839700  1
  O  O25  1  0.22670900  0.74311000  0.93891100  1
  O  O26  1  0.72467000  0.43934500  0.24502400  1
  O  O27  1  0.44124100  0.39727800  0.97308400  1
  O  O28  1  0.72467000  0.24502400  0.59096300  1
  O  O29  1  0.77569100  0.05839700  0.90717000  1
  O  O30  1  0.72467000  0.59096300  0.43934500  1
  O  O31  1  0.56518800  0.81961700  0.61012600  1
  O  O32  1  0.77569100  0.90717000  0.25874200  1
  O  O33  1  0.92989400  0.68204900  0.49688000  1
  O  O34  1  0.92989400  0.49688000  0.89117700  1
  O  O35  1  0.92989400  0.89117700  0.68204900  1
