# generated using pymatgen
data_V4O7F5
_symmetry_space_group_name_H-M   'P 1'
_cell_length_a   5.18539800
_cell_length_b   5.35148214
_cell_length_c   7.40601689
_cell_angle_alpha   92.77054414
_cell_angle_beta   90.24242801
_cell_angle_gamma   90.56385756
_symmetry_Int_Tables_number   1
_chemical_formula_structural   V4O7F5
_chemical_formula_sum   'V4 O7 F5'
_cell_volume   205.26130505
_cell_formula_units_Z   1
loop_
 _symmetry_equiv_pos_site_id
 _symmetry_equiv_pos_as_xyz
  1  'x, y, z'
loop_
 _atom_site_type_symbol
 _atom_site_label
 _atom_site_symmetry_multiplicity
 _atom_site_fract_x
 _atom_site_fract_y
 _atom_site_fract_z
 _atom_site_occupancy
  V  V0  1  0.53474700  0.47119000  0.51939400  1
  V  V1  1  0.46680400  0.47320100  0.02373300  1
  V  V2  1  0.97133000  0.97329300  0.51320900  1
  V  V3  1  0.96986600  0.98293200  0.00290700  1
  O  O4  1  0.29461800  0.21760500  0.95808100  1
  O  O5  1  0.41622900  0.50468700  0.24521500  1
  O  O6  1  0.58701900  0.49826800  0.74054500  1
  O  O7  1  0.71808700  0.21568200  0.45386800  1
  O  O8  1  0.71658700  0.79742900  0.03459600  1
  O  O9  1  0.78667800  0.71716900  0.45293400  1
  O  O10  1  0.92422300  0.00259700  0.73775100  1
  F  F11  1  0.09575400  0.00728700  0.25334200  1
  F  F12  1  0.21078800  0.30967500  0.53634000  1
  F  F13  1  0.21778200  0.71056400  0.94670500  1
  F  F14  1  0.29331800  0.80873000  0.53550600  1
  F  F15  1  0.79616900  0.30969200  0.04587500  1
