# generated using pymatgen
data_FeOF
_symmetry_space_group_name_H-M   'P 1'
_cell_length_a   3.08528500
_cell_length_b   9.46383000
_cell_length_c   14.25668376
_cell_angle_alpha   89.95318818
_cell_angle_beta   90.00000000
_cell_angle_gamma   90.00000000
_symmetry_Int_Tables_number   1
_chemical_formula_structural   FeOF
_chemical_formula_sum   'Fe12 O12 F12'
_cell_volume   416.27524910
_cell_formula_units_Z   12
loop_
 _symmetry_equiv_pos_site_id
 _symmetry_equiv_pos_as_xyz
  1  'x, y, z'
loop_
 _atom_site_type_symbol
 _atom_site_label
 _atom_site_symmetry_multiplicity
 _atom_site_fract_x
 _atom_site_fract_y
 _atom_site_fract_z
 _atom_site_occupancy
  Fe  Fe0  1  0.00000000  0.98060800  0.99944100  1
  Fe  Fe1  1  0.00000000  0.99495600  0.33486900  1
  Fe  Fe2  1  0.00000000  0.98337000  0.66175200  1
  Fe  Fe3  1  0.50000000  0.74407200  0.14868400  1
  Fe  Fe4  1  0.50000000  0.77284900  0.49528400  1
  Fe  Fe5  1  0.50000000  0.77405100  0.82915100  1
  Fe  Fe6  1  0.00000000  0.48121500  0.33128600  1
  Fe  Fe7  1  0.00000000  0.49374800  0.00190900  1
  Fe  Fe8  1  0.00000000  0.48317900  0.66511100  1
  Fe  Fe9  1  0.50000000  0.23778300  0.18615900  1
  Fe  Fe10  1  0.50000000  0.27523100  0.50004900  1
  Fe  Fe11  1  0.50000000  0.27529200  0.83455100  1
  O  O12  1  0.50000000  0.91109100  0.59481700  1
  O  O13  1  0.50000000  0.90300600  0.93621300  1
  O  O14  1  0.00000000  0.85205500  0.10757300  1
  O  O15  1  0.00000000  0.84939100  0.76509700  1
  O  O16  1  0.00000000  0.85060500  0.42917700  1
  O  O17  1  0.50000000  0.58921800  0.06623400  1
  O  O18  1  0.50000000  0.40199100  0.26916700  1
  O  O19  1  0.50000000  0.39889800  0.94018900  1
  O  O20  1  0.50000000  0.41108300  0.59940600  1
  O  O21  1  0.00000000  0.34699600  0.43448300  1
  O  O22  1  0.00000000  0.34964000  0.76770000  1
  O  O23  1  0.00000000  0.13949300  0.23971300  1
  F  F24  1  0.50000000  0.89533900  0.27244400  1
  F  F25  1  0.00000000  0.65529500  0.23790400  1
  F  F26  1  0.00000000  0.65944900  0.56279100  1
  F  F27  1  0.00000000  0.65253100  0.89206200  1
  F  F28  1  0.50000000  0.60044300  0.39905400  1
  F  F29  1  0.50000000  0.60299200  0.72764600  1
  F  F30  1  0.00000000  0.33010800  0.10908200  1
  F  F31  1  0.00000000  0.15044400  0.89808800  1
  F  F32  1  0.00000000  0.15631300  0.56577500  1
  F  F33  1  0.50000000  0.10089900  0.06601000  1
  F  F34  1  0.50000000  0.09654700  0.40415900  1
  F  F35  1  0.50000000  0.09981600  0.72696500  1
