data_image0
_chemical_formula_structural       C2Cr4Ge2
_chemical_formula_sum              "C2 Cr4 Ge2"
_cell_length_a       2.93618
_cell_length_b       2.93566
_cell_length_c       12.0195
_cell_angle_alpha    90
_cell_angle_beta     90
_cell_angle_gamma    120.006

_space_group_name_H-M_alt    "P 1"
_space_group_IT_number       1

loop_
  _space_group_symop_operation_xyz
  'x, y, z'

loop_
  _atom_site_type_symbol
  _atom_site_label
  _atom_site_symmetry_multiplicity
  _atom_site_fract_x
  _atom_site_fract_y
  _atom_site_fract_z
  _atom_site_occupancy
  C   C1        1.0  0.00000  0.00000  0.00000  1.0000
  C   C2        1.0  0.00000  0.00000  0.50000  1.0000
  Cr  Cr1       1.0  0.33300  0.66700  0.08520  1.0000
  Cr  Cr2       1.0  0.33300  0.66700  0.41500  1.0000
  Cr  Cr3       1.0  0.66700  0.33300  0.58500  1.0000
  Cr  Cr4       1.0  0.66700  0.33300  0.91500  1.0000
  Ge  Ge1       1.0  0.66700  0.33300  0.25000  1.0000
  Ge  Ge2       1.0  0.33300  0.66700  0.75000  1.0000
