# generated using pymatgen
data_Sr20V15O49
_symmetry_space_group_name_H-M   'P 1'
_cell_length_a   15.47747799
_cell_length_b   15.47747799
_cell_length_c   15.47747799
_cell_angle_alpha   147.06920573
_cell_angle_beta   147.06920573
_cell_angle_gamma   47.26132276
_symmetry_Int_Tables_number   1
_chemical_formula_structural   Sr20V15O49
_chemical_formula_sum   'Sr20 V15 O49'
_cell_volume   1091.53359293
_cell_formula_units_Z   1
loop_
 _symmetry_equiv_pos_site_id
 _symmetry_equiv_pos_as_xyz
  1  'x, y, z'
loop_
 _atom_site_type_symbol
 _atom_site_label
 _atom_site_symmetry_multiplicity
 _atom_site_fract_x
 _atom_site_fract_y
 _atom_site_fract_z
 _atom_site_occupancy
  Sr  Sr0  1  0.24177600  0.03333800  0.41328100  1
  Sr  Sr1  1  0.82849500  0.24177600  0.20843700  1
  Sr  Sr2  1  0.03333800  0.62005700  0.79156300  1
  Sr  Sr3  1  0.69682000  0.09824800  0.20089100  1
  Sr  Sr4  1  0.43274300  0.43274300  0.00000000  1
  Sr  Sr5  1  0.30009500  0.30009500  0.00000000  1
  Sr  Sr6  1  0.51093400  0.30528500  0.41169300  1
  Sr  Sr7  1  0.37786700  0.17208300  0.41355500  1
  Sr  Sr8  1  0.09924100  0.51093400  0.20564900  1
  Sr  Sr9  1  0.89359300  0.09924100  0.58830700  1
  Sr  Sr10  1  0.49592900  0.69682000  0.59857200  1
  Sr  Sr11  1  0.62005700  0.82849500  0.58671900  1
  Sr  Sr12  1  0.09824800  0.89735600  0.40142800  1
  Sr  Sr13  1  0.89735600  0.49592900  0.79910900  1
  Sr  Sr14  1  0.30528500  0.89359300  0.79435100  1
  Sr  Sr15  1  0.17208300  0.75852800  0.79421500  1
  Sr  Sr16  1  0.96431300  0.37786700  0.20578500  1
  Sr  Sr17  1  0.56773700  0.56773700  0.00000000  1
  Sr  Sr18  1  0.70226900  0.70226900  0.00000000  1
  Sr  Sr19  1  0.75852800  0.96431300  0.58644500  1
  V  V20  1  0.99205400  0.99205400  0.00000000  1
  V  V21  1  0.05932200  0.25708600  0.59719800  1
  V  V22  1  0.20070900  0.40105400  0.60185800  1
  V  V23  1  0.46212500  0.05932200  0.80223700  1
  V  V24  1  0.59885100  0.20070900  0.79965500  1
  V  V25  1  0.14942700  0.14942700  0.00000000  1
  V  V26  1  0.25708600  0.65988800  0.19776300  1
  V  V27  1  0.79919600  0.59885100  0.39814200  1
  V  V28  1  0.40105400  0.79919600  0.20034500  1
  V  V29  1  0.65988800  0.46212500  0.40280200  1
  V  V30  1  0.74225800  0.33984600  0.80397400  1
  V  V31  1  0.33984600  0.53587200  0.59758700  1
  V  V32  1  0.85874100  0.85874100  0.00000000  1
  V  V33  1  0.53587200  0.93828500  0.19602600  1
  V  V34  1  0.93828500  0.74225800  0.40241300  1
  O  O35  1  0.09951100  0.19142400  0.28080900  1
  O  O36  1  0.50064800  0.00064800  0.50000000  1
  O  O37  1  0.00064800  0.50064800  0.50000000  1
  O  O38  1  0.12991600  0.32278600  0.58470500  1
  O  O39  1  0.27150600  0.16023700  0.70549700  1
  O  O40  1  0.54521100  0.12991600  0.80713000  1
  O  O41  1  0.40038900  0.29728400  0.69912800  1
  O  O42  1  0.81870200  0.09951100  0.90808700  1
  O  O43  1  0.56600900  0.27150600  0.11126800  1
  O  O44  1  0.32637700  0.03957600  0.09728900  1
  O  O45  1  0.60541900  0.01611000  0.20337100  1
  O  O46  1  0.96556000  0.06429900  0.30711100  1
  O  O47  1  0.70126100  0.40038900  0.10310600  1
  O  O48  1  0.29728400  0.59815600  0.89689400  1
  O  O49  1  0.16023700  0.45474000  0.88873200  1
  O  O50  1  0.21173100  0.21173100  0.00000000  1
  O  O51  1  0.22908800  0.32637700  0.28680100  1
  O  O52  1  0.06429900  0.75718800  0.09873900  1
  O  O53  1  0.45474000  0.56600900  0.29450300  1
  O  O54  1  0.73808100  0.54521100  0.41529500  1
  O  O55  1  0.59815600  0.70126100  0.30087200  1
  O  O56  1  0.63707900  0.13707900  0.50000000  1
  O  O57  1  0.58716900  0.39069600  0.39799900  1
  O  O58  1  0.99269800  0.18917100  0.60200100  1
  O  O59  1  0.86239200  0.36239200  0.50000000  1
  O  O60  1  0.19142400  0.91061500  0.09191300  1
  O  O61  1  0.18917100  0.58716900  0.19647300  1
  O  O62  1  0.32278600  0.73808100  0.19287000  1
  O  O63  1  0.01611000  0.81274000  0.41069100  1
  O  O64  1  0.13707900  0.63707900  0.50000000  1
  O  O65  1  0.40204800  0.60541900  0.58930900  1
  O  O66  1  0.75718800  0.65844900  0.69288900  1
  O  O67  1  0.26889400  0.46914200  0.60350400  1
  O  O68  1  0.81274000  0.40204800  0.79662900  1
  O  O69  1  0.36239200  0.86239200  0.50000000  1
  O  O70  1  0.91061500  0.81870200  0.71919100  1
  O  O71  1  0.53356100  0.44052900  0.69686700  1
  O  O72  1  0.66539000  0.26889400  0.79975200  1
  O  O73  1  0.94228700  0.22908800  0.90271100  1
  O  O74  1  0.39069600  0.99269800  0.80352700  1
  O  O75  1  0.03957600  0.94228700  0.71319900  1
  O  O76  1  0.83669400  0.53356100  0.09303300  1
  O  O77  1  0.44052900  0.74366100  0.90696700  1
  O  O78  1  0.93129800  0.93129800  0.00000000  1
  O  O79  1  0.65844900  0.96556000  0.90126100  1
  O  O80  1  0.78731100  0.78731100  0.00000000  1
  O  O81  1  0.46914200  0.86563800  0.20024800  1
  O  O82  1  0.86563800  0.66539000  0.39649600  1
  O  O83  1  0.74366100  0.83669400  0.30313300  1
