# generated using pymatgen
data_Sb7(O2F3)3
_symmetry_space_group_name_H-M   'P 1'
_cell_length_a   22.37485537
_cell_length_b   22.37485537
_cell_length_c   5.82519800
_cell_angle_alpha   90.00000000
_cell_angle_beta   90.00000000
_cell_angle_gamma   164.36337649
_symmetry_Int_Tables_number   1
_chemical_formula_structural   Sb7(O2F3)3
_chemical_formula_sum   'Sb14 O12 F18'
_cell_volume   786.04427603
_cell_formula_units_Z   2
loop_
 _symmetry_equiv_pos_site_id
 _symmetry_equiv_pos_as_xyz
  1  'x, y, z'
loop_
 _atom_site_type_symbol
 _atom_site_label
 _atom_site_symmetry_multiplicity
 _atom_site_fract_x
 _atom_site_fract_y
 _atom_site_fract_z
 _atom_site_occupancy
  Sb  Sb0  1  0.46841300  0.81453000  0.30439000  1
  Sb  Sb1  1  0.31453000  0.96841300  0.30439000  1
  Sb  Sb2  1  0.64567600  0.69721100  0.25053900  1
  Sb  Sb3  1  0.19721100  0.14567600  0.25053900  1
  Sb  Sb4  1  0.01760500  0.51760500  0.27119900  1
  Sb  Sb5  1  0.25562100  0.46450600  0.31687100  1
  Sb  Sb6  1  0.96450600  0.75562100  0.31687100  1
  Sb  Sb7  1  0.46450600  0.25562100  0.68312900  1
  Sb  Sb8  1  0.75562100  0.96450600  0.68312900  1
  Sb  Sb9  1  0.51760500  0.01760500  0.72880100  1
  Sb  Sb10  1  0.14567600  0.19721100  0.74946100  1
  Sb  Sb11  1  0.69721100  0.64567600  0.74946100  1
  Sb  Sb12  1  0.96841300  0.31453000  0.69561000  1
  Sb  Sb13  1  0.81453000  0.46841300  0.69561000  1
  O  O14  1  0.04220300  0.04220300  0.00000000  1
  O  O15  1  0.54220300  0.54220300  0.00000000  1
  O  O16  1  0.76916000  0.06279100  0.53375300  1
  O  O17  1  0.56279100  0.26916000  0.53375300  1
  O  O18  1  0.05423600  0.23258900  0.55189100  1
  O  O19  1  0.73258900  0.55423600  0.55189100  1
  O  O20  1  0.53592900  0.53592900  0.50000000  1
  O  O21  1  0.03592900  0.03592900  0.50000000  1
  O  O22  1  0.23258900  0.05423600  0.44810900  1
  O  O23  1  0.55423600  0.73258900  0.44810900  1
  O  O24  1  0.26916000  0.56279100  0.46624700  1
  O  O25  1  0.06279100  0.76916000  0.46624700  1
  F  F26  1  0.32435100  0.41544800  0.23150700  1
  F  F27  1  0.91544800  0.82435100  0.23150700  1
  F  F28  1  0.51880700  0.79995800  0.07328000  1
  F  F29  1  0.29995800  0.01880700  0.07328000  1
  F  F30  1  0.37380300  0.87380300  0.02935900  1
  F  F31  1  0.07823700  0.68920900  0.13587200  1
  F  F32  1  0.18920900  0.57823700  0.13587200  1
  F  F33  1  0.82248500  0.26276000  0.39067200  1
  F  F34  1  0.76276000  0.32248500  0.39067200  1
  F  F35  1  0.32248500  0.76276000  0.60932800  1
  F  F36  1  0.26276000  0.82248500  0.60932800  1
  F  F37  1  0.68920900  0.07823700  0.86412800  1
  F  F38  1  0.57823700  0.18920900  0.86412800  1
  F  F39  1  0.87380300  0.37380300  0.97064100  1
  F  F40  1  0.01880700  0.29995800  0.92672000  1
  F  F41  1  0.79995800  0.51880700  0.92672000  1
  F  F42  1  0.82435100  0.91544800  0.76849300  1
  F  F43  1  0.41544800  0.32435100  0.76849300  1
