# generated using pymatgen
data_Fe(Bi5O8)5
_symmetry_space_group_name_H-M   'P 1'
_cell_length_a   10.36248500
_cell_length_b   10.36248500
_cell_length_c   10.36248500
_cell_angle_alpha   90.00000000
_cell_angle_beta   90.00000000
_cell_angle_gamma   90.00000000
_symmetry_Int_Tables_number   1
_chemical_formula_structural   Fe(Bi5O8)5
_chemical_formula_sum   'Fe1 Bi25 O40'
_cell_volume   1112.73499011
_cell_formula_units_Z   1
loop_
 _symmetry_equiv_pos_site_id
 _symmetry_equiv_pos_as_xyz
  1  'x, y, z'
loop_
 _atom_site_type_symbol
 _atom_site_label
 _atom_site_symmetry_multiplicity
 _atom_site_fract_x
 _atom_site_fract_y
 _atom_site_fract_z
 _atom_site_occupancy
  Fe  Fe0  1  0.00000000  0.00000000  0.00000000  1
  Bi  Bi1  1  0.98687200  0.31467700  0.17452000  1
  Bi  Bi2  1  0.98687200  0.68532300  0.82548000  1
  Bi  Bi3  1  0.82548000  0.01312800  0.31467700  1
  Bi  Bi4  1  0.82548000  0.98687200  0.68532300  1
  Bi  Bi5  1  0.82369000  0.68072200  0.48487100  1
  Bi  Bi6  1  0.82369000  0.31927800  0.51512900  1
  Bi  Bi7  1  0.68532300  0.17452000  0.01312800  1
  Bi  Bi8  1  0.68532300  0.82548000  0.98687200  1
  Bi  Bi9  1  0.68072200  0.51512900  0.17631000  1
  Bi  Bi10  1  0.68072200  0.48487100  0.82369000  1
  Bi  Bi11  1  0.51512900  0.17631000  0.68072200  1
  Bi  Bi12  1  0.51512900  0.82369000  0.31927800  1
  Bi  Bi13  1  0.50000000  0.50000000  0.50000000  1
  Bi  Bi14  1  0.48487100  0.82369000  0.68072200  1
  Bi  Bi15  1  0.48487100  0.17631000  0.31927800  1
  Bi  Bi16  1  0.31927800  0.51512900  0.82369000  1
  Bi  Bi17  1  0.31927800  0.48487100  0.17631000  1
  Bi  Bi18  1  0.31467700  0.82548000  0.01312800  1
  Bi  Bi19  1  0.31467700  0.17452000  0.98687200  1
  Bi  Bi20  1  0.17631000  0.31927800  0.48487100  1
  Bi  Bi21  1  0.17631000  0.68072200  0.51512900  1
  Bi  Bi22  1  0.17452000  0.98687200  0.31467700  1
  Bi  Bi23  1  0.17452000  0.01312800  0.68532300  1
  Bi  Bi24  1  0.01312800  0.68532300  0.17452000  1
  Bi  Bi25  1  0.01312800  0.31467700  0.82548000  1
  O  O26  1  0.98944800  0.24769000  0.63291200  1
  O  O27  1  0.98944800  0.75231000  0.36708800  1
  O  O28  1  0.89228900  0.89228900  0.10771100  1
  O  O29  1  0.89228900  0.10771100  0.89228900  1
  O  O30  1  0.86927200  0.48844400  0.24663500  1
  O  O31  1  0.86927200  0.51155600  0.75336500  1
  O  O32  1  0.80892800  0.80892800  0.80892800  1
  O  O33  1  0.80892800  0.19107200  0.19107200  1
  O  O34  1  0.75231000  0.63291200  0.01055200  1
  O  O35  1  0.75231000  0.36708800  0.98944800  1
  O  O36  1  0.75336500  0.13072800  0.48844400  1
  O  O37  1  0.75336500  0.86927200  0.51155600  1
  O  O38  1  0.68567600  0.68567600  0.31432400  1
  O  O39  1  0.68567600  0.31432400  0.68567600  1
  O  O40  1  0.63291200  0.98944800  0.24769000  1
  O  O41  1  0.63291200  0.01055200  0.75231000  1
  O  O42  1  0.61385800  0.38614200  0.38614200  1
  O  O43  1  0.61385800  0.61385800  0.61385800  1
  O  O44  1  0.51155600  0.24663500  0.13072800  1
  O  O45  1  0.51155600  0.75336500  0.86927200  1
  O  O46  1  0.48844400  0.75336500  0.13072800  1
  O  O47  1  0.48844400  0.24663500  0.86927200  1
  O  O48  1  0.38614200  0.61385800  0.38614200  1
  O  O49  1  0.38614200  0.38614200  0.61385800  1
  O  O50  1  0.36708800  0.98944800  0.75231000  1
  O  O51  1  0.36708800  0.01055200  0.24769000  1
  O  O52  1  0.31432400  0.31432400  0.31432400  1
  O  O53  1  0.31432400  0.68567600  0.68567600  1
  O  O54  1  0.24663500  0.13072800  0.51155600  1
  O  O55  1  0.24663500  0.86927200  0.48844400  1
  O  O56  1  0.24769000  0.36708800  0.01055200  1
  O  O57  1  0.24769000  0.63291200  0.98944800  1
  O  O58  1  0.19107200  0.80892800  0.19107200  1
  O  O59  1  0.19107200  0.19107200  0.80892800  1
  O  O60  1  0.13072800  0.51155600  0.24663500  1
  O  O61  1  0.13072800  0.48844400  0.75336500  1
  O  O62  1  0.10771100  0.10771100  0.10771100  1
  O  O63  1  0.10771100  0.89228900  0.89228900  1
  O  O64  1  0.01055200  0.75231000  0.63291200  1
  O  O65  1  0.01055200  0.24769000  0.36708800  1
