data_image0
_chemical_formula_structural       CdNa2S4Sn
_chemical_formula_sum              "Cd1 Na2 S4 Sn1"
_cell_length_a       6.61545
_cell_length_b       6.58921
_cell_length_c       6.73221
_cell_angle_alpha    119.331
_cell_angle_beta     119.459
_cell_angle_gamma    89.9446

_space_group_name_H-M_alt    "P 1"
_space_group_IT_number       1

loop_
  _space_group_symop_operation_xyz
  'x, y, z'

loop_
  _atom_site_type_symbol
  _atom_site_label
  _atom_site_symmetry_multiplicity
  _atom_site_fract_x
  _atom_site_fract_y
  _atom_site_fract_z
  _atom_site_occupancy
  Cd  Cd1       1.0  0.01350  0.51300  0.02700  1.0000
  Na  Na1       1.0  0.51500  0.01500  0.03000  1.0000
  Na  Na2       1.0  0.76400  0.76400  0.52700  1.0000
  S   S1        1.0  0.92700  0.37400  0.27800  1.0000
  S   S2        1.0  0.35100  0.90500  0.27800  1.0000
  S   S3        1.0  0.15500  0.17600  0.77800  1.0000
  S   S4        1.0  0.62400  0.60200  0.77800  1.0000
  Sn  Sn1       1.0  0.26400  0.26400  0.52900  1.0000
