# generated using pymatgen
data_Mn6O5F7
_symmetry_space_group_name_H-M   'P 1'
_cell_length_a   4.72802758
_cell_length_b   5.72468670
_cell_length_c   15.63151851
_cell_angle_alpha   90.40068868
_cell_angle_beta   91.15181672
_cell_angle_gamma   86.64902480
_symmetry_Int_Tables_number   1
_chemical_formula_structural   Mn6O5F7
_chemical_formula_sum   'Mn12 O10 F14'
_cell_volume   422.27421610
_cell_formula_units_Z   2
loop_
 _symmetry_equiv_pos_site_id
 _symmetry_equiv_pos_as_xyz
  1  'x, y, z'
loop_
 _atom_site_type_symbol
 _atom_site_label
 _atom_site_symmetry_multiplicity
 _atom_site_fract_x
 _atom_site_fract_y
 _atom_site_fract_z
 _atom_site_occupancy
  Mn  Mn0  1  0.01883100  0.16809800  0.41666800  1
  Mn  Mn1  1  0.98247100  0.82545900  0.23691300  1
  Mn  Mn2  1  0.99317700  0.15020400  0.08006400  1
  Mn  Mn3  1  0.03464800  0.16478700  0.75927600  1
  Mn  Mn4  1  0.02698700  0.83727000  0.58021500  1
  Mn  Mn5  1  0.03120900  0.82932700  0.91315800  1
  Mn  Mn6  1  0.47602400  0.35231700  0.58081700  1
  Mn  Mn7  1  0.50507700  0.36393400  0.92191600  1
  Mn  Mn8  1  0.51859100  0.35909600  0.25432900  1
  Mn  Mn9  1  0.49099400  0.64813500  0.08386900  1
  Mn  Mn10  1  0.49020700  0.64940700  0.42003600  1
  Mn  Mn11  1  0.46851900  0.64844900  0.75062100  1
  O  O12  1  0.20898400  0.88449600  0.13205200  1
  O  O13  1  0.23032100  0.88953800  0.47241800  1
  O  O14  1  0.23183900  0.88148200  0.81137000  1
  O  O15  1  0.27061100  0.39213100  0.47432000  1
  O  O16  1  0.27353700  0.60961000  0.63683700  1
  O  O17  1  0.29575400  0.39406100  0.81222500  1
  O  O18  1  0.28422100  0.61572200  0.97454800  1
  O  O19  1  0.72437700  0.38450800  0.02944900  1
  O  O20  1  0.69678200  0.61128200  0.19404400  1
  O  O21  1  0.72594000  0.39740600  0.36502300  1
  F  F22  1  0.23523500  0.11617000  0.29853300  1
  F  F23  1  0.24081600  0.10844700  0.64360000  1
  F  F24  1  0.23050900  0.11918100  0.97480300  1
  F  F25  1  0.24777500  0.37794200  0.14845600  1
  F  F26  1  0.24614900  0.61669300  0.31022800  1
  F  F27  1  0.74040400  0.61349900  0.52906100  1
  F  F28  1  0.74876000  0.61790700  0.85273800  1
  F  F29  1  0.73055300  0.37810000  0.69221800  1
  F  F30  1  0.74906100  0.11295700  0.18421400  1
  F  F31  1  0.76272200  0.11101000  0.53417700  1
  F  F32  1  0.76720300  0.89862900  0.35801000  1
  F  F33  1  0.77849600  0.87966100  0.01428400  1
  F  F34  1  0.76669700  0.11627300  0.86726400  1
  F  F35  1  0.77651600  0.87681300  0.69225000  1
