# generated using pymatgen
data_Ta2ReTc
_symmetry_space_group_name_H-M   'P 1'
_cell_length_a   10.72293972
_cell_length_b   10.72293972
_cell_length_c   10.72293972
_cell_angle_alpha   129.19129973
_cell_angle_beta   117.47987830
_cell_angle_gamma   84.64371527
_symmetry_Int_Tables_number   1
_chemical_formula_structural   Ta2ReTc
_chemical_formula_sum   'Ta2 Re1 Tc1'
_cell_volume   811.76480312
_cell_formula_units_Z   1
loop_
 _symmetry_equiv_pos_site_id
 _symmetry_equiv_pos_as_xyz
  1  'x, y, z'
loop_
 _atom_site_type_symbol
 _atom_site_label
 _atom_site_symmetry_multiplicity
 _atom_site_fract_x
 _atom_site_fract_y
 _atom_site_fract_z
 _atom_site_occupancy
  Ta  Ta0  1  0.00000000  0.24682000  0.24682000  1
  Ta  Ta1  1  0.00000000  0.75318000  0.75318000  1
  Re  Re2  1  0.00000000  0.50000000  0.50000000  1
  Tc  Tc3  1  0.00000000  0.00000000  0.00000000  1
