# generated using pymatgen
data_V3O5F3
_symmetry_space_group_name_H-M   'P 1'
_cell_length_a   7.31190074
_cell_length_b   7.31190074
_cell_length_c   5.00073584
_cell_angle_alpha   89.73599262
_cell_angle_beta   89.73599262
_cell_angle_gamma   102.61402079
_symmetry_Int_Tables_number   1
_chemical_formula_structural   V3O5F3
_chemical_formula_sum   'V6 O10 F6'
_cell_volume   260.89857024
_cell_formula_units_Z   2
loop_
 _symmetry_equiv_pos_site_id
 _symmetry_equiv_pos_as_xyz
  1  'x, y, z'
loop_
 _atom_site_type_symbol
 _atom_site_label
 _atom_site_symmetry_multiplicity
 _atom_site_fract_x
 _atom_site_fract_y
 _atom_site_fract_z
 _atom_site_occupancy
  V  V0  1  0.31304000  0.17573100  0.24012700  1
  V  V1  1  0.66781500  0.33001200  0.73758500  1
  V  V2  1  0.17573100  0.31304000  0.74012700  1
  V  V3  1  0.83934300  0.65145900  0.22663000  1
  V  V4  1  0.33001200  0.66781500  0.23758500  1
  V  V5  1  0.65145900  0.83934300  0.72663000  1
  O  O6  1  0.67846100  0.06799200  0.63686100  1
  O  O7  1  0.19137500  0.09695300  0.95892500  1
  O  O8  1  0.09695300  0.19137500  0.45892500  1
  O  O9  1  0.43718100  0.30568700  0.59523600  1
  O  O10  1  0.79326800  0.45198700  0.42238700  1
  O  O11  1  0.30568700  0.43718100  0.09523600  1
  O  O12  1  0.70926500  0.56376100  0.91840900  1
  O  O13  1  0.56376100  0.70926500  0.41840900  1
  O  O14  1  0.06799200  0.67846100  0.13686100  1
  O  O15  1  0.45198700  0.79326800  0.92238700  1
  F  F16  1  0.56667000  0.20778900  0.08297600  1
  F  F17  1  0.92913600  0.32336900  0.88032200  1
  F  F18  1  0.20778900  0.56667000  0.58297600  1
  F  F19  1  0.89395000  0.81137600  0.54308000  1
  F  F20  1  0.81137600  0.89395000  0.04308000  1
  F  F21  1  0.32336900  0.92913600  0.38032200  1
