# generated using pymatgen
data_NbSe2
_symmetry_space_group_name_H-M   'P 1'
_cell_length_a   7.25321158
_cell_length_b   7.25321158
_cell_length_c   7.25321124
_cell_angle_alpha   27.85374523
_cell_angle_beta   27.85374523
_cell_angle_gamma   27.85374719
_symmetry_Int_Tables_number   1
_chemical_formula_structural   NbSe2
_chemical_formula_sum   'Nb1 Se2'
_cell_volume   73.55605563
_cell_formula_units_Z   1
loop_
 _symmetry_equiv_pos_site_id
 _symmetry_equiv_pos_as_xyz
  1  'x, y, z'
loop_
 _atom_site_type_symbol
 _atom_site_label
 _atom_site_symmetry_multiplicity
 _atom_site_fract_x
 _atom_site_fract_y
 _atom_site_fract_z
 _atom_site_occupancy
  Nb  Nb0  1  0.66747400  0.66747400  0.66747400  1
  Se  Se1  1  0.41470900  0.41470900  0.41470900  1
  Se  Se2  1  0.25348400  0.25348400  0.25348400  1
