# generated using pymatgen
data_Sb4O5F2
_symmetry_space_group_name_H-M   'P 1'
_cell_length_a   5.62215500
_cell_length_b   10.94087800
_cell_length_c   14.12911746
_cell_angle_alpha   81.85231974
_cell_angle_beta   90.00000000
_cell_angle_gamma   90.00000000
_symmetry_Int_Tables_number   1
_chemical_formula_structural   Sb4O5F2
_chemical_formula_sum   'Sb16 O20 F8'
_cell_volume   860.32790311
_cell_formula_units_Z   4
loop_
 _symmetry_equiv_pos_site_id
 _symmetry_equiv_pos_as_xyz
  1  'x, y, z'
loop_
 _atom_site_type_symbol
 _atom_site_label
 _atom_site_symmetry_multiplicity
 _atom_site_fract_x
 _atom_site_fract_y
 _atom_site_fract_z
 _atom_site_occupancy
  Sb  Sb0  1  0.63810000  0.60461800  0.03975900  1
  Sb  Sb1  1  0.67870200  0.26712200  0.09308000  1
  Sb  Sb2  1  0.27087800  0.79269600  0.17927400  1
  Sb  Sb3  1  0.17153000  0.41689200  0.22557500  1
  Sb  Sb4  1  0.23001700  0.09882700  0.29564400  1
  Sb  Sb5  1  0.76727700  0.64353800  0.30997400  1
  Sb  Sb6  1  0.68192700  0.30243400  0.37261300  1
  Sb  Sb7  1  0.72907500  0.93412300  0.42412000  1
  Sb  Sb8  1  0.22907500  0.06587700  0.57588000  1
  Sb  Sb9  1  0.18192700  0.69756600  0.62738700  1
  Sb  Sb10  1  0.26727700  0.35646200  0.69002600  1
  Sb  Sb11  1  0.73001700  0.90117300  0.70435600  1
  Sb  Sb12  1  0.67153000  0.58310800  0.77442500  1
  Sb  Sb13  1  0.77087800  0.20730400  0.82072600  1
  Sb  Sb14  1  0.17870200  0.73287800  0.90692000  1
  Sb  Sb15  1  0.13810000  0.39538200  0.96024100  1
  O  O16  1  0.31138400  0.69681200  0.04450000  1
  O  O17  1  0.99823100  0.39222700  0.10000600  1
  O  O18  1  0.49296700  0.42853900  0.07945000  1
  O  O19  1  0.00887200  0.67412200  0.20773400  1
  O  O20  1  0.52076500  0.66282800  0.20912600  1
  O  O21  1  0.01033100  0.25445300  0.28840000  1
  O  O22  1  0.46416000  0.26821800  0.26379900  1
  O  O23  1  0.81526900  0.46349800  0.29466200  1
  O  O24  1  0.02094100  0.03992600  0.41409400  1
  O  O25  1  0.49999600  0.07540700  0.39609400  1
  O  O26  1  0.99999600  0.92459300  0.60390600  1
  O  O27  1  0.52094100  0.96007400  0.58590600  1
  O  O28  1  0.31526900  0.53650200  0.70533800  1
  O  O29  1  0.96416000  0.73178200  0.73620100  1
  O  O30  1  0.51033100  0.74554700  0.71160000  1
  O  O31  1  0.02076500  0.33717200  0.79087400  1
  O  O32  1  0.50887200  0.32587800  0.79226600  1
  O  O33  1  0.99296700  0.57146100  0.92055000  1
  O  O34  1  0.49823100  0.60777300  0.89999400  1
  O  O35  1  0.81138400  0.30318800  0.95550000  1
  F  F36  1  0.36141500  0.19784600  0.04291300  1
  F  F37  1  0.75301100  0.92029400  0.28103700  1
  F  F38  1  0.27976900  0.80924700  0.32395300  1
  F  F39  1  0.40770000  0.41842800  0.40462100  1
  F  F40  1  0.90770000  0.58157200  0.59537900  1
  F  F41  1  0.77976900  0.19075300  0.67604700  1
  F  F42  1  0.25301100  0.07970600  0.71896300  1
  F  F43  1  0.86141500  0.80215400  0.95708700  1
