# generated using pymatgen
data_Cr(Bi7O12)2
_symmetry_space_group_name_H-M   'P 1'
_cell_length_a   8.75503003
_cell_length_b   8.78258842
_cell_length_c   10.60825300
_cell_angle_alpha   65.80455965
_cell_angle_beta   65.88693641
_cell_angle_gamma   90.56933304
_symmetry_Int_Tables_number   1
_chemical_formula_structural   Cr(Bi7O12)2
_chemical_formula_sum   'Cr1 Bi14 O24'
_cell_volume   663.51716677
_cell_formula_units_Z   1
loop_
 _symmetry_equiv_pos_site_id
 _symmetry_equiv_pos_as_xyz
  1  'x, y, z'
loop_
 _atom_site_type_symbol
 _atom_site_label
 _atom_site_symmetry_multiplicity
 _atom_site_fract_x
 _atom_site_fract_y
 _atom_site_fract_z
 _atom_site_occupancy
  Cr  Cr0  1  0.99417000  0.99417000  0.01166000  1
  Bi  Bi1  1  0.44315100  0.21627500  0.99939500  1
  Bi  Bi2  1  0.93892000  0.12502800  0.33620900  1
  Bi  Bi3  1  0.46296900  0.06054900  0.66194400  1
  Bi  Bi4  1  0.79200200  0.43540800  0.00362800  1
  Bi  Bi5  1  0.34002200  0.34002200  0.31995500  1
  Bi  Bi6  1  0.20436900  0.56096300  0.00362800  1
  Bi  Bi7  1  0.87508600  0.27750700  0.66194400  1
  Bi  Bi8  1  0.72487100  0.53876300  0.33620900  1
  Bi  Bi9  1  0.55745300  0.78432900  0.99939500  1
  Bi  Bi10  1  0.27730800  0.46420500  0.66327100  1
  Bi  Bi11  1  0.12445400  0.72136600  0.33771400  1
  Bi  Bi12  1  0.65884100  0.65884100  0.68231900  1
  Bi  Bi13  1  0.53783300  0.94092000  0.33771400  1
  Bi  Bi14  1  0.05942100  0.87252300  0.66327100  1
  O  O15  1  0.90421700  0.16216600  0.04234300  1
  O  O16  1  0.33421400  0.00792100  0.49331800  1
  O  O17  1  0.54335000  0.23887900  0.15798000  1
  O  O18  1  0.23533900  0.29414000  0.15988000  1
  O  O19  1  0.00616900  0.17352200  0.49356900  1
  O  O20  1  0.09502000  0.09502000  0.80996200  1
  O  O21  1  0.61795000  0.11795000  0.76410000  1
  O  O22  1  0.88147700  0.38147700  0.23704600  1
  O  O23  1  0.50026200  0.33291000  0.49356900  1
  O  O24  1  0.60478000  0.54598000  0.15988000  1
  O  O25  1  0.29866900  0.60314100  0.15798000  1
  O  O26  1  0.82788900  0.49950200  0.50780400  1
  O  O27  1  0.17246800  0.49876100  0.49331800  1
  O  O28  1  0.70302000  0.39396600  0.84374000  1
  O  O29  1  0.05344000  0.79549100  0.04234300  1
  O  O30  1  0.39694800  0.45433600  0.84039800  1
  O  O31  1  0.50028600  0.66717800  0.50598900  1
  O  O32  1  0.38237900  0.88237900  0.23524100  1
  O  O33  1  0.11856200  0.61856200  0.76287400  1
  O  O34  1  0.88311100  0.88311100  0.23377900  1
  O  O35  1  0.99372600  0.82683300  0.50598900  1
  O  O36  1  0.76265500  0.70526600  0.84039800  1
  O  O37  1  0.45324000  0.76229500  0.84374000  1
  O  O38  1  0.66430600  0.99269400  0.50780400  1
