# generated using pymatgen
data_Ti3(SnO5)2
_symmetry_space_group_name_H-M   'P 1'
_cell_length_a   4.72613942
_cell_length_b   4.72613942
_cell_length_c   15.43283900
_cell_angle_alpha   90.00000000
_cell_angle_beta   90.00000000
_cell_angle_gamma   90.04258755
_symmetry_Int_Tables_number   1
_chemical_formula_structural   Ti3(SnO5)2
_chemical_formula_sum   'Ti6 Sn4 O20'
_cell_volume   344.71387400
_cell_formula_units_Z   2
loop_
 _symmetry_equiv_pos_site_id
 _symmetry_equiv_pos_as_xyz
  1  'x, y, z'
loop_
 _atom_site_type_symbol
 _atom_site_label
 _atom_site_symmetry_multiplicity
 _atom_site_fract_x
 _atom_site_fract_y
 _atom_site_fract_z
 _atom_site_occupancy
  Ti  Ti0  1  0.00000000  0.00000000  0.80765500  1
  Ti  Ti1  1  0.00000000  0.00000000  0.99926900  1
  Ti  Ti2  1  0.00000000  0.00000000  0.39918100  1
  Ti  Ti3  1  0.00000000  0.00000000  0.19964500  1
  Ti  Ti4  1  0.50000000  0.50000000  0.49732100  1
  Ti  Ti5  1  0.50000000  0.50000000  0.89942300  1
  Sn  Sn6  1  0.00000000  0.00000000  0.59840900  1
  Sn  Sn7  1  0.50000000  0.50000000  0.30137600  1
  Sn  Sn8  1  0.50000000  0.50000000  0.70243000  1
  Sn  Sn9  1  0.50000000  0.50000000  0.09741000  1
  O  O10  1  0.80061400  0.19938600  0.49325800  1
  O  O11  1  0.80690600  0.19309400  0.90096200  1
  O  O12  1  0.80954000  0.19046000  0.70584500  1
  O  O13  1  0.81337500  0.18662500  0.29923000  1
  O  O14  1  0.81376100  0.18623900  0.09859300  1
  O  O15  1  0.30016500  0.30016500  0.99428700  1
  O  O16  1  0.30132500  0.30132500  0.80760500  1
  O  O17  1  0.29661000  0.29661000  0.19948400  1
  O  O18  1  0.30949100  0.30949100  0.59548800  1
  O  O19  1  0.29980500  0.29980500  0.40418900  1
  O  O20  1  0.69983500  0.69983500  0.99428700  1
  O  O21  1  0.69867500  0.69867500  0.80760500  1
  O  O22  1  0.69050900  0.69050900  0.59548800  1
  O  O23  1  0.70019500  0.70019500  0.40418900  1
  O  O24  1  0.70339000  0.70339000  0.19948400  1
  O  O25  1  0.19309400  0.80690600  0.90096200  1
  O  O26  1  0.19938600  0.80061400  0.49325800  1
  O  O27  1  0.19046000  0.80954000  0.70584500  1
  O  O28  1  0.18662500  0.81337500  0.29923000  1
  O  O29  1  0.18623900  0.81376100  0.09859300  1
