# generated using pymatgen
data_Co7(SbO6)2
_symmetry_space_group_name_H-M   'P 1'
_cell_length_a   6.11421463
_cell_length_b   6.11421463
_cell_length_c   15.12143045
_cell_angle_alpha   89.74757563
_cell_angle_beta   89.74757563
_cell_angle_gamma   60.39447215
_symmetry_Int_Tables_number   1
_chemical_formula_structural   Co7(SbO6)2
_chemical_formula_sum   'Co14 Sb4 O24'
_cell_volume   491.48678242
_cell_formula_units_Z   2
loop_
 _symmetry_equiv_pos_site_id
 _symmetry_equiv_pos_as_xyz
  1  'x, y, z'
loop_
 _atom_site_type_symbol
 _atom_site_label
 _atom_site_symmetry_multiplicity
 _atom_site_fract_x
 _atom_site_fract_y
 _atom_site_fract_z
 _atom_site_occupancy
  Co  Co0  1  0.18085600  0.49695200  0.54171400  1
  Co  Co1  1  0.66595300  0.00568000  0.66183500  1
  Co  Co2  1  0.15458000  0.50542400  0.80119400  1
  Co  Co3  1  0.81450500  0.18549500  0.50000000  1
  Co  Co4  1  0.66553600  0.49596800  0.66176400  1
  Co  Co5  1  0.49457600  0.84542000  0.19880600  1
  Co  Co6  1  0.50403200  0.33446400  0.33823600  1
  Co  Co7  1  0.99432000  0.33404700  0.33816500  1
  Co  Co8  1  0.50304800  0.81914400  0.45828600  1
  Co  Co9  1  0.33415600  0.16616900  0.99939100  1
  Co  Co10  1  0.84156900  0.16362000  0.87167900  1
  Co  Co11  1  0.83383100  0.66584400  0.00060900  1
  Co  Co12  1  0.33454400  0.66545600  0.00000000  1
  Co  Co13  1  0.83638000  0.15843100  0.12832100  1
  Sb  Sb14  1  0.50910100  0.82875300  0.83536200  1
  Sb  Sb15  1  0.99574800  0.83856600  0.33829300  1
  Sb  Sb16  1  0.16143400  0.00425200  0.66170700  1
  Sb  Sb17  1  0.17124700  0.49089900  0.16463800  1
  O  O18  1  0.79862800  0.68451400  0.74959100  1
  O  O19  1  0.33680400  0.13700900  0.74832300  1
  O  O20  1  0.85224400  0.15622800  0.73733800  1
  O  O21  1  0.00104800  0.85581100  0.58722400  1
  O  O22  1  0.52252900  0.32216800  0.58733000  1
  O  O23  1  0.30648100  0.66385800  0.25200700  1
  O  O24  1  0.00239700  0.31806400  0.58933300  1
  O  O25  1  0.33614200  0.69351900  0.74799300  1
  O  O26  1  0.14418900  0.99895200  0.41277600  1
  O  O27  1  0.67783200  0.47747100  0.41267000  1
  O  O28  1  0.84377200  0.14775600  0.26266200  1
  O  O29  1  0.48472700  0.84284500  0.59339100  1
  O  O30  1  0.31548600  0.20137200  0.25040900  1
  O  O31  1  0.15715500  0.51527300  0.40660900  1
  O  O32  1  0.50058700  0.83424500  0.07143900  1
  O  O33  1  0.65384900  0.98914500  0.91184500  1
  O  O34  1  0.86299100  0.66319600  0.25167700  1
  O  O35  1  0.47615900  0.34653900  0.08810000  1
  O  O36  1  0.01085500  0.34615100  0.08815500  1
  O  O37  1  0.68193600  0.99760300  0.41066700  1
  O  O38  1  0.01801200  0.79846300  0.08794200  1
  O  O39  1  0.16575500  0.49941300  0.92856100  1
  O  O40  1  0.65346100  0.52384100  0.91190000  1
  O  O41  1  0.20153700  0.98198800  0.91205800  1
