# generated using pymatgen
data_W(OF)2
_symmetry_space_group_name_H-M   'P 1'
_cell_length_a   3.88079692
_cell_length_b   3.88079692
_cell_length_c   9.49349200
_cell_angle_alpha   90.00000000
_cell_angle_beta   90.00000000
_cell_angle_gamma   90.11235173
_symmetry_Int_Tables_number   1
_chemical_formula_structural   W(OF)2
_chemical_formula_sum   'W2 O4 F4'
_cell_volume   142.97726585
_cell_formula_units_Z   2
loop_
 _symmetry_equiv_pos_site_id
 _symmetry_equiv_pos_as_xyz
  1  'x, y, z'
loop_
 _atom_site_type_symbol
 _atom_site_label
 _atom_site_symmetry_multiplicity
 _atom_site_fract_x
 _atom_site_fract_y
 _atom_site_fract_z
 _atom_site_occupancy
  W  W0  1  0.27981600  0.27981600  0.25000000  1
  W  W1  1  0.72018400  0.72018400  0.75000000  1
  O  O2  1  0.74323400  0.24593900  0.75000000  1
  O  O3  1  0.75406100  0.25676600  0.25000000  1
  O  O4  1  0.24593900  0.74323400  0.75000000  1
  O  O5  1  0.25676600  0.75406100  0.25000000  1
  F  F6  1  0.24121500  0.24121500  0.05155100  1
  F  F7  1  0.24121500  0.24121500  0.44844900  1
  F  F8  1  0.75878500  0.75878500  0.55155100  1
  F  F9  1  0.75878500  0.75878500  0.94844900  1
