# generated using pymatgen
data_Na3Fe2(PO4)3
_symmetry_space_group_name_H-M   'P 1'
_cell_length_a   8.98167900
_cell_length_b   8.80610100
_cell_length_c   15.52537730
_cell_angle_alpha   55.72231374
_cell_angle_beta   90.00000000
_cell_angle_gamma   90.00000000
_symmetry_Int_Tables_number   1
_chemical_formula_structural   Na3Fe2(PO4)3
_chemical_formula_sum   'Na12 Fe8 P12 O48'
_cell_volume   1014.68305670
_cell_formula_units_Z   4
loop_
 _symmetry_equiv_pos_site_id
 _symmetry_equiv_pos_as_xyz
  1  'x, y, z'
loop_
 _atom_site_type_symbol
 _atom_site_label
 _atom_site_symmetry_multiplicity
 _atom_site_fract_x
 _atom_site_fract_y
 _atom_site_fract_z
 _atom_site_occupancy
  Na  Na0  1  0.93372800  0.38228000  0.69320000  1
  Na  Na1  1  0.29702100  0.33610700  0.76191600  1
  Na  Na2  1  0.21273700  0.03693500  0.17264500  1
  Na  Na3  1  0.71273700  0.96306500  0.32735500  1
  Na  Na4  1  0.79702100  0.66389300  0.73808400  1
  Na  Na5  1  0.43372800  0.61772000  0.80680000  1
  Na  Na6  1  0.56627200  0.38228000  0.19320000  1
  Na  Na7  1  0.20297900  0.33610700  0.26191600  1
  Na  Na8  1  0.28726300  0.03693500  0.67264500  1
  Na  Na9  1  0.78726300  0.96306500  0.82735500  1
  Na  Na10  1  0.70297900  0.66389300  0.23808400  1
  Na  Na11  1  0.06627200  0.61772000  0.30680000  1
  Fe  Fe12  1  0.47402900  0.65356600  0.59526300  1
  Fe  Fe13  1  0.97402900  0.34643400  0.90473700  1
  Fe  Fe14  1  0.53908100  0.13996100  0.10052000  1
  Fe  Fe15  1  0.03908100  0.86003900  0.39948000  1
  Fe  Fe16  1  0.96091900  0.13996100  0.60052000  1
  Fe  Fe17  1  0.46091900  0.86003900  0.89948000  1
  Fe  Fe18  1  0.02597100  0.65356600  0.09526300  1
  Fe  Fe19  1  0.52597100  0.34643400  0.40473700  1
  P  P20  1  0.75050200  0.53204500  0.49631500  1
  P  P21  1  0.61786300  0.25231800  0.85406400  1
  P  P22  1  0.89620800  0.96436900  0.14702500  1
  P  P23  1  0.11786300  0.74768200  0.64593600  1
  P  P24  1  0.39620800  0.03563100  0.35297500  1
  P  P25  1  0.25050200  0.46795500  0.00368500  1
  P  P26  1  0.74949800  0.53204500  0.99631500  1
  P  P27  1  0.60379200  0.96436900  0.64702500  1
  P  P28  1  0.88213700  0.25231800  0.35406400  1
  P  P29  1  0.10379200  0.03563100  0.85297500  1
  P  P30  1  0.38213700  0.74768200  0.14593600  1
  P  P31  1  0.24949800  0.46795500  0.50368500  1
  O  O32  1  0.14906100  0.63698900  0.43353500  1
  O  O33  1  0.09468700  0.20313600  0.86246400  1
  O  O34  1  0.33178200  0.48432400  0.58629700  1
  O  O35  1  0.41740600  0.90860600  0.15717000  1
  O  O36  1  0.64344300  0.54324300  0.57033000  1
  O  O37  1  0.78783000  0.30115300  0.83406900  1
  O  O38  1  0.57528500  0.19261400  0.96444000  1
  O  O39  1  0.99219200  0.91571500  0.24296400  1
  O  O40  1  0.73019600  0.98271200  0.16930100  1
  O  O41  1  0.84565700  0.71008200  0.43733900  1
  O  O42  1  0.95763500  0.13829000  0.04917100  1
  O  O43  1  0.52430000  0.42338300  0.77249100  1
  O  O44  1  0.02430000  0.57661700  0.72750900  1
  O  O45  1  0.45763500  0.86171000  0.45082900  1
  O  O46  1  0.34565700  0.28991800  0.06266100  1
  O  O47  1  0.23019600  0.01728800  0.33069900  1
  O  O48  1  0.07528500  0.80738600  0.53556000  1
  O  O49  1  0.49219200  0.08428500  0.25703600  1
  O  O50  1  0.28783000  0.69884700  0.66593100  1
  O  O51  1  0.14344300  0.45675700  0.92967000  1
  O  O52  1  0.83178200  0.51567600  0.91370300  1
  O  O53  1  0.59468700  0.79686400  0.63753600  1
  O  O54  1  0.91740600  0.09139400  0.34283000  1
  O  O55  1  0.64906100  0.36301100  0.06646500  1
  O  O56  1  0.35093900  0.63698900  0.93353500  1
  O  O57  1  0.08259400  0.90860600  0.65717000  1
  O  O58  1  0.40531300  0.20313600  0.36246400  1
  O  O59  1  0.16821800  0.48432400  0.08629700  1
  O  O60  1  0.85655700  0.54324300  0.07033000  1
  O  O61  1  0.71217000  0.30115300  0.33406900  1
  O  O62  1  0.50780800  0.91571500  0.74296400  1
  O  O63  1  0.92471500  0.19261400  0.46444000  1
  O  O64  1  0.76980400  0.98271200  0.66930100  1
  O  O65  1  0.65434300  0.71008200  0.93733900  1
  O  O66  1  0.54236500  0.13829000  0.54917100  1
  O  O67  1  0.97570000  0.42338300  0.27249100  1
  O  O68  1  0.47570000  0.57661700  0.22750900  1
  O  O69  1  0.04236500  0.86171000  0.95082900  1
  O  O70  1  0.15434300  0.28991800  0.56266100  1
  O  O71  1  0.26980400  0.01728800  0.83069900  1
  O  O72  1  0.00780800  0.08428500  0.75703600  1
  O  O73  1  0.42471500  0.80738600  0.03556000  1
  O  O74  1  0.21217000  0.69884700  0.16593100  1
  O  O75  1  0.35655700  0.45675700  0.42967000  1
  O  O76  1  0.58259400  0.09139400  0.84283000  1
  O  O77  1  0.66821800  0.51567600  0.41370300  1
  O  O78  1  0.90531300  0.79686400  0.13753600  1
  O  O79  1  0.85093900  0.36301100  0.56646500  1
