# generated using pymatgen
data_Bi3O2F5
_symmetry_space_group_name_H-M   'P 1'
_cell_length_a   5.95869600
_cell_length_b   8.42330800
_cell_length_c   13.54419890
_cell_angle_alpha   71.68027953
_cell_angle_beta   90.00000000
_cell_angle_gamma   90.00000000
_symmetry_Int_Tables_number   1
_chemical_formula_structural   Bi3O2F5
_chemical_formula_sum   'Bi12 O8 F20'
_cell_volume   645.35495830
_cell_formula_units_Z   4
loop_
 _symmetry_equiv_pos_site_id
 _symmetry_equiv_pos_as_xyz
  1  'x, y, z'
loop_
 _atom_site_type_symbol
 _atom_site_label
 _atom_site_symmetry_multiplicity
 _atom_site_fract_x
 _atom_site_fract_y
 _atom_site_fract_z
 _atom_site_occupancy
  Bi  Bi0  1  0.42599900  0.25000000  0.00000000  1
  Bi  Bi1  1  0.57400100  0.75000000  0.00000000  1
  Bi  Bi2  1  0.02517200  0.42452900  0.14330600  1
  Bi  Bi3  1  0.45792500  0.12257300  0.29424000  1
  Bi  Bi4  1  0.97482800  0.92452900  0.14330600  1
  Bi  Bi5  1  0.54207500  0.62257300  0.29424000  1
  Bi  Bi6  1  0.00092300  0.25000000  0.50000000  1
  Bi  Bi7  1  0.99907700  0.75000000  0.50000000  1
  Bi  Bi8  1  0.45792500  0.37742700  0.70576000  1
  Bi  Bi9  1  0.02517200  0.07547100  0.85669400  1
  Bi  Bi10  1  0.54207500  0.87742700  0.70576000  1
  Bi  Bi11  1  0.97482800  0.57547100  0.85669400  1
  O  O12  1  0.21557700  0.03014900  0.00276400  1
  O  O13  1  0.78442300  0.53014900  0.00276400  1
  O  O14  1  0.24375000  0.17854700  0.15803200  1
  O  O15  1  0.75625000  0.67854700  0.15803200  1
  O  O16  1  0.24375000  0.32145300  0.84196800  1
  O  O17  1  0.75625000  0.82145300  0.84196800  1
  O  O18  1  0.21557700  0.46985100  0.99723600  1
  O  O19  1  0.78442300  0.96985100  0.99723600  1
  F  F20  1  0.77073700  0.21139800  0.16328700  1
  F  F21  1  0.22926300  0.71139800  0.16328700  1
  F  F22  1  0.42807300  0.42665200  0.21885500  1
  F  F23  1  0.12502900  0.21463600  0.34707700  1
  F  F24  1  0.57192700  0.92665200  0.21885500  1
  F  F25  1  0.72857500  0.38052600  0.36733800  1
  F  F26  1  0.87497100  0.71463600  0.34707700  1
  F  F27  1  0.27142500  0.88052600  0.36733800  1
  F  F28  1  0.23463300  0.46491600  0.45068700  1
  F  F29  1  0.23463300  0.03508400  0.54931300  1
  F  F30  1  0.76536700  0.96491600  0.45068700  1
  F  F31  1  0.76536700  0.53508400  0.54931300  1
  F  F32  1  0.72857500  0.11947400  0.63266200  1
  F  F33  1  0.12502900  0.28536400  0.65292300  1
  F  F34  1  0.27142500  0.61947400  0.63266200  1
  F  F35  1  0.42807300  0.07334800  0.78114500  1
  F  F36  1  0.87497100  0.78536400  0.65292300  1
  F  F37  1  0.57192700  0.57334800  0.78114500  1
  F  F38  1  0.77073700  0.28860200  0.83671300  1
  F  F39  1  0.22926300  0.78860200  0.83671300  1
