# generated using pymatgen
data_V3O5F
_symmetry_space_group_name_H-M   'P 1'
_cell_length_a   5.52878500
_cell_length_b   5.53492337
_cell_length_c   7.24441507
_cell_angle_alpha   70.94830287
_cell_angle_beta   70.86440208
_cell_angle_gamma   73.67542685
_symmetry_Int_Tables_number   1
_chemical_formula_structural   V3O5F
_chemical_formula_sum   'V6 O10 F2'
_cell_volume   194.16995647
_cell_formula_units_Z   2
loop_
 _symmetry_equiv_pos_site_id
 _symmetry_equiv_pos_as_xyz
  1  'x, y, z'
loop_
 _atom_site_type_symbol
 _atom_site_label
 _atom_site_symmetry_multiplicity
 _atom_site_fract_x
 _atom_site_fract_y
 _atom_site_fract_z
 _atom_site_occupancy
  V  V0  1  0.64598100  0.66393300  0.84775200  1
  V  V1  1  0.36240400  0.31132700  0.66793900  1
  V  V2  1  0.64355100  0.65213500  0.34128300  1
  V  V3  1  0.32995700  0.33196700  0.16439700  1
  V  V4  1  0.00979600  0.02936200  0.49660200  1
  V  V5  1  0.00285200  0.01116400  0.98206000  1
  O  O6  1  0.35281500  0.95430100  0.34440000  1
  O  O7  1  0.22393100  0.22418400  0.97293700  1
  O  O8  1  0.57471200  0.57315800  0.62955900  1
  O  O9  1  0.10213800  0.10091100  0.69704000  1
  O  O10  1  0.76714300  0.77340800  0.04247500  1
  O  O11  1  0.43280000  0.43153400  0.36257000  1
  O  O12  1  0.30113300  0.71165500  0.99193100  1
  O  O13  1  0.65304000  0.01824900  0.66564500  1
  O  O14  1  0.95227000  0.36596200  0.34005700  1
  O  O15  1  0.70875400  0.31107700  0.98805900  1
  F  F16  1  0.03873800  0.63309500  0.66649400  1
  F  F17  1  0.89798500  0.90257800  0.29879700  1
