# generated using pymatgen
data_Cd3(Pt3O4)10
_symmetry_space_group_name_H-M   'P 1'
_cell_length_a   5.71540200
_cell_length_b   8.11311800
_cell_length_c   20.69356867
_cell_angle_alpha   78.76990715
_cell_angle_beta   90.00000000
_cell_angle_gamma   90.00000000
_symmetry_Int_Tables_number   1
_chemical_formula_structural   Cd3(Pt3O4)10
_chemical_formula_sum   'Cd3 Pt30 O40'
_cell_volume   941.18260997
_cell_formula_units_Z   1
loop_
 _symmetry_equiv_pos_site_id
 _symmetry_equiv_pos_as_xyz
  1  'x, y, z'
loop_
 _atom_site_type_symbol
 _atom_site_label
 _atom_site_symmetry_multiplicity
 _atom_site_fract_x
 _atom_site_fract_y
 _atom_site_fract_z
 _atom_site_occupancy
  Cd  Cd0  1  0.50000000  0.50000000  0.50000000  1
  Cd  Cd1  1  0.50000000  0.69893900  0.10123600  1
  Cd  Cd2  1  0.50000000  0.30106100  0.89876400  1
  Pt  Pt3  1  0.24642200  0.09781200  0.79754800  1
  Pt  Pt4  1  0.24652200  0.29717600  0.39875500  1
  Pt  Pt5  1  0.24652200  0.70282400  0.60124500  1
  Pt  Pt6  1  0.24257200  0.50000000  0.00000000  1
  Pt  Pt7  1  0.24642200  0.90218800  0.20245200  1
  Pt  Pt8  1  0.50000000  0.70618000  0.84855900  1
  Pt  Pt9  1  0.50000000  0.70183000  0.34792600  1
  Pt  Pt10  1  0.50000000  0.29382000  0.15144100  1
  Pt  Pt11  1  0.50000000  0.29817000  0.65207400  1
  Pt  Pt12  1  0.50000000  0.09402100  0.55050000  1
  Pt  Pt13  1  0.50000000  0.89672300  0.94784400  1
  Pt  Pt14  1  0.50000000  0.90597900  0.44950000  1
  Pt  Pt15  1  0.50000000  0.10327700  0.05215600  1
  Pt  Pt16  1  0.50000000  0.50289100  0.74712700  1
  Pt  Pt17  1  0.50000000  0.49710900  0.25287300  1
  Pt  Pt18  1  0.75347800  0.70282400  0.60124500  1
  Pt  Pt19  1  0.75357800  0.90218800  0.20245200  1
  Pt  Pt20  1  0.75357800  0.09781200  0.79754800  1
  Pt  Pt21  1  0.75347800  0.29717600  0.39875500  1
  Pt  Pt22  1  0.75742800  0.50000000  0.00000000  1
  Pt  Pt23  1  0.00000000  0.85481300  0.04958500  1
  Pt  Pt24  1  0.00000000  0.54512300  0.15273400  1
  Pt  Pt25  1  0.00000000  0.34501600  0.55157500  1
  Pt  Pt26  1  0.00000000  0.75067400  0.74932800  1
  Pt  Pt27  1  0.00000000  0.24932600  0.25067200  1
  Pt  Pt28  1  0.00000000  0.45487700  0.84726600  1
  Pt  Pt29  1  0.00000000  0.04910800  0.64988600  1
  Pt  Pt30  1  0.00000000  0.14518700  0.95041500  1
  Pt  Pt31  1  0.00000000  0.95089200  0.35011400  1
  Pt  Pt32  1  0.00000000  0.65498400  0.44842500  1
  O  O33  1  0.25934100  0.45137300  0.59738500  1
  O  O34  1  0.24755600  0.14948000  0.69934000  1
  O  O35  1  0.25934100  0.54862700  0.40261500  1
  O  O36  1  0.25947600  0.25632300  0.50000500  1
  O  O37  1  0.25981000  0.65100900  0.19822700  1
  O  O38  1  0.25919000  0.94207100  0.10149600  1
  O  O39  1  0.25919000  0.05792900  0.89850400  1
  O  O40  1  0.25840800  0.74849200  0.00364300  1
  O  O41  1  0.24598400  0.84999100  0.79971300  1
  O  O42  1  0.24742600  0.65077800  0.69974800  1
  O  O43  1  0.24763000  0.94987900  0.60022200  1
  O  O44  1  0.24742600  0.34922200  0.30025200  1
  O  O45  1  0.24763000  0.05012100  0.39977800  1
  O  O46  1  0.25947600  0.74367700  0.49999500  1
  O  O47  1  0.25847200  0.45626000  0.10097800  1
  O  O48  1  0.24598400  0.15000900  0.20028700  1
  O  O49  1  0.24755600  0.85052000  0.30066000  1
  O  O50  1  0.25840800  0.25150800  0.99635700  1
  O  O51  1  0.25847200  0.54374000  0.89902200  1
  O  O52  1  0.25981000  0.34899100  0.80177300  1
  O  O53  1  0.74081000  0.94207100  0.10149600  1
  O  O54  1  0.74159200  0.74849200  0.00364300  1
  O  O55  1  0.75401600  0.15000900  0.20028700  1
  O  O56  1  0.74065900  0.45137300  0.59738500  1
  O  O57  1  0.74065900  0.54862700  0.40261500  1
  O  O58  1  0.75257400  0.34922200  0.30025200  1
  O  O59  1  0.74052400  0.74367700  0.49999500  1
  O  O60  1  0.75244400  0.14948000  0.69934000  1
  O  O61  1  0.74052400  0.25632300  0.50000500  1
  O  O62  1  0.75237000  0.94987900  0.60022200  1
  O  O63  1  0.74019000  0.34899100  0.80177300  1
  O  O64  1  0.74081000  0.05792900  0.89850400  1
  O  O65  1  0.74019000  0.65100900  0.19822700  1
  O  O66  1  0.75401600  0.84999100  0.79971300  1
  O  O67  1  0.74152800  0.45626000  0.10097800  1
  O  O68  1  0.75244400  0.85052000  0.30066000  1
  O  O69  1  0.74152800  0.54374000  0.89902200  1
  O  O70  1  0.74159200  0.25150800  0.99635700  1
  O  O71  1  0.75257400  0.65077800  0.69974800  1
  O  O72  1  0.75237000  0.05012100  0.39977800  1
