# generated using pymatgen
data_V2O2F3
_symmetry_space_group_name_H-M   'P 1'
_cell_length_a   5.54615512
_cell_length_b   5.54615512
_cell_length_c   7.09677102
_cell_angle_alpha   71.16589263
_cell_angle_beta   71.16589263
_cell_angle_gamma   54.33175950
_symmetry_Int_Tables_number   1
_chemical_formula_structural   V2O2F3
_chemical_formula_sum   'V4 O4 F6'
_cell_volume   165.25785343
_cell_formula_units_Z   2
loop_
 _symmetry_equiv_pos_site_id
 _symmetry_equiv_pos_as_xyz
  1  'x, y, z'
loop_
 _atom_site_type_symbol
 _atom_site_label
 _atom_site_symmetry_multiplicity
 _atom_site_fract_x
 _atom_site_fract_y
 _atom_site_fract_z
 _atom_site_occupancy
  V  V0  1  0.78084500  0.81250400  0.88200500  1
  V  V1  1  0.18749600  0.21915500  0.61799500  1
  V  V2  1  0.81250400  0.78084500  0.38200500  1
  V  V3  1  0.21915500  0.18749600  0.11799500  1
  O  O4  1  0.38262900  0.04962900  0.84844900  1
  O  O5  1  0.04962900  0.38262900  0.34844900  1
  O  O6  1  0.95037100  0.61737100  0.65155100  1
  O  O7  1  0.61737100  0.95037100  0.15155100  1
  F  F8  1  0.19713800  0.55801700  0.96012200  1
  F  F9  1  0.55801700  0.19713800  0.46012200  1
  F  F10  1  0.88187100  0.11812900  0.75000000  1
  F  F11  1  0.11812900  0.88187100  0.25000000  1
  F  F12  1  0.44198300  0.80286200  0.53987800  1
  F  F13  1  0.80286200  0.44198300  0.03987800  1
