# generated using pymatgen
data_Ba2NaSn
_symmetry_space_group_name_H-M   'P 1'
_cell_length_a   14.41880450
_cell_length_b   14.41880450
_cell_length_c   14.41880450
_cell_angle_alpha   121.63222725
_cell_angle_beta   119.36693524
_cell_angle_gamma   89.14822106
_symmetry_Int_Tables_number   1
_chemical_formula_structural   Ba2NaSn
_chemical_formula_sum   'Ba2 Na1 Sn1'
_cell_volume   2102.38709876
_cell_formula_units_Z   1
loop_
 _symmetry_equiv_pos_site_id
 _symmetry_equiv_pos_as_xyz
  1  'x, y, z'
loop_
 _atom_site_type_symbol
 _atom_site_label
 _atom_site_symmetry_multiplicity
 _atom_site_fract_x
 _atom_site_fract_y
 _atom_site_fract_z
 _atom_site_occupancy
  Ba  Ba0  1  0.00000000  0.27268800  0.27268800  1
  Ba  Ba1  1  0.00000000  0.72731200  0.72731200  1
  Na  Na2  1  0.00000000  0.00000000  0.00000000  1
  Sn  Sn3  1  0.00000000  0.50000000  0.50000000  1
