# generated using pymatgen
data_VF4
_symmetry_space_group_name_H-M   'P 1'
_cell_length_a   5.61235000
_cell_length_b   9.05994100
_cell_length_c   10.88927300
_cell_angle_alpha   90.00000000
_cell_angle_beta   90.00000000
_cell_angle_gamma   90.00000000
_symmetry_Int_Tables_number   1
_chemical_formula_structural   VF4
_chemical_formula_sum   'V8 F32'
_cell_volume   553.69296082
_cell_formula_units_Z   8
loop_
 _symmetry_equiv_pos_site_id
 _symmetry_equiv_pos_as_xyz
  1  'x, y, z'
loop_
 _atom_site_type_symbol
 _atom_site_label
 _atom_site_symmetry_multiplicity
 _atom_site_fract_x
 _atom_site_fract_y
 _atom_site_fract_z
 _atom_site_occupancy
  V  V0  1  0.79214300  0.10032600  0.04892900  1
  V  V1  1  0.31328500  0.31209400  0.20156200  1
  V  V2  1  0.81328500  0.81209400  0.29843800  1
  V  V3  1  0.29214300  0.60032600  0.45107100  1
  V  V4  1  0.70785700  0.10032600  0.54892900  1
  V  V5  1  0.18671500  0.31209400  0.70156200  1
  V  V6  1  0.68671500  0.81209400  0.79843800  1
  V  V7  1  0.20785700  0.60032600  0.95107100  1
  F  F8  1  0.93865900  0.50565000  0.97004400  1
  F  F9  1  0.34297300  0.44025700  0.04912500  1
  F  F10  1  0.25303100  0.72497900  0.07098300  1
  F  F11  1  0.45745200  0.16326200  0.09820200  1
  F  F12  1  0.98613500  0.25048100  0.13726400  1
  F  F13  1  0.75101100  0.69116200  0.17637800  1
  F  F14  1  0.70870600  0.98431300  0.20517400  1
  F  F15  1  0.10331000  0.87265500  0.26426100  1
  F  F16  1  0.60331000  0.37265500  0.23573900  1
  F  F17  1  0.20870600  0.48431300  0.29482600  1
  F  F18  1  0.25101100  0.19116200  0.32362200  1
  F  F19  1  0.48613500  0.75048100  0.36273600  1
  F  F20  1  0.95745200  0.66326200  0.40179800  1
  F  F21  1  0.75303100  0.22497900  0.42901700  1
  F  F22  1  0.84297300  0.94025700  0.45087500  1
  F  F23  1  0.43865900  0.00565000  0.52995600  1
  F  F24  1  0.56134100  0.50565000  0.47004400  1
  F  F25  1  0.15702700  0.44025700  0.54912500  1
  F  F26  1  0.24696900  0.72497900  0.57098300  1
  F  F27  1  0.04254800  0.16326200  0.59820200  1
  F  F28  1  0.51386500  0.25048100  0.63726400  1
  F  F29  1  0.74898900  0.69116200  0.67637800  1
  F  F30  1  0.79129400  0.98431300  0.70517400  1
  F  F31  1  0.39669000  0.87265500  0.76426100  1
  F  F32  1  0.89669000  0.37265500  0.73573900  1
  F  F33  1  0.29129400  0.48431300  0.79482600  1
  F  F34  1  0.24898900  0.19116200  0.82362200  1
  F  F35  1  0.01386500  0.75048100  0.86273600  1
  F  F36  1  0.54254800  0.66326200  0.90179800  1
  F  F37  1  0.74696900  0.22497900  0.92901700  1
  F  F38  1  0.65702700  0.94025700  0.95087500  1
  F  F39  1  0.06134100  0.00565000  0.02995600  1
