# generated using pymatgen
data_Ti2Mn(PO4)3
_symmetry_space_group_name_H-M   'P 1'
_cell_length_a   8.67012522
_cell_length_b   8.67012522
_cell_length_c   8.67012574
_cell_angle_alpha   60.05991985
_cell_angle_beta   60.05991985
_cell_angle_gamma   60.05991631
_symmetry_Int_Tables_number   1
_chemical_formula_structural   Ti2Mn(PO4)3
_chemical_formula_sum   'Ti4 Mn2 P6 O24'
_cell_volume   461.47747319
_cell_formula_units_Z   2
loop_
 _symmetry_equiv_pos_site_id
 _symmetry_equiv_pos_as_xyz
  1  'x, y, z'
loop_
 _atom_site_type_symbol
 _atom_site_label
 _atom_site_symmetry_multiplicity
 _atom_site_fract_x
 _atom_site_fract_y
 _atom_site_fract_z
 _atom_site_occupancy
  Ti  Ti0  1  0.14543700  0.14543700  0.14543700  1
  Ti  Ti1  1  0.35456300  0.35456300  0.35456300  1
  Ti  Ti2  1  0.64543700  0.64543700  0.64543700  1
  Ti  Ti3  1  0.85456300  0.85456300  0.85456300  1
  Mn  Mn4  1  0.00000000  0.00000000  0.00000000  1
  Mn  Mn5  1  0.50000000  0.50000000  0.50000000  1
  P  P6  1  0.75000000  0.04336400  0.45663600  1
  P  P7  1  0.04336400  0.45663600  0.75000000  1
  P  P8  1  0.45663600  0.75000000  0.04336400  1
  P  P9  1  0.54336400  0.25000000  0.95663600  1
  P  P10  1  0.95663600  0.54336400  0.25000000  1
  P  P11  1  0.25000000  0.95663600  0.54336400  1
  O  O12  1  0.30928700  0.11701700  0.50297000  1
  O  O13  1  0.50297000  0.30928700  0.11701700  1
  O  O14  1  0.91376900  0.05865900  0.26401400  1
  O  O15  1  0.11701700  0.50297000  0.30928700  1
  O  O16  1  0.80928700  0.00297000  0.61701700  1
  O  O17  1  0.58623100  0.23598600  0.44134100  1
  O  O18  1  0.05865900  0.26401400  0.91376900  1
  O  O19  1  0.23598600  0.44134100  0.58623100  1
  O  O20  1  0.38298300  0.19071300  0.99703000  1
  O  O21  1  0.44134100  0.58623100  0.23598600  1
  O  O22  1  0.73598600  0.08623100  0.94134100  1
  O  O23  1  0.99703000  0.38298300  0.19071300  1
  O  O24  1  0.00297000  0.61701700  0.80928700  1
  O  O25  1  0.26401400  0.91376900  0.05865900  1
  O  O26  1  0.55865900  0.41376900  0.76401400  1
  O  O27  1  0.61701700  0.80928700  0.00297000  1
  O  O28  1  0.76401400  0.55865900  0.41376900  1
  O  O29  1  0.94134100  0.73598600  0.08623100  1
  O  O30  1  0.41376900  0.76401400  0.55865900  1
  O  O31  1  0.19071300  0.99703000  0.38298300  1
  O  O32  1  0.88298300  0.49703000  0.69071300  1
  O  O33  1  0.08623100  0.94134100  0.73598600  1
  O  O34  1  0.49703000  0.69071300  0.88298300  1
  O  O35  1  0.69071300  0.88298300  0.49703000  1
