# generated using pymatgen
data_FeOF
_symmetry_space_group_name_H-M   'P 1'
_cell_length_a   3.11190300
_cell_length_b   9.46062500
_cell_length_c   14.24690663
_cell_angle_alpha   89.94904595
_cell_angle_beta   90.00000000
_cell_angle_gamma   90.00000000
_symmetry_Int_Tables_number   1
_chemical_formula_structural   FeOF
_chemical_formula_sum   'Fe12 O12 F12'
_cell_volume   419.43656304
_cell_formula_units_Z   12
loop_
 _symmetry_equiv_pos_site_id
 _symmetry_equiv_pos_as_xyz
  1  'x, y, z'
loop_
 _atom_site_type_symbol
 _atom_site_label
 _atom_site_symmetry_multiplicity
 _atom_site_fract_x
 _atom_site_fract_y
 _atom_site_fract_z
 _atom_site_occupancy
  Fe  Fe0  1  0.00000000  0.98103500  0.99824500  1
  Fe  Fe1  1  0.00000000  0.98738800  0.32859400  1
  Fe  Fe2  1  0.00000000  0.98107400  0.66150700  1
  Fe  Fe3  1  0.50000000  0.77249700  0.16687600  1
  Fe  Fe4  1  0.50000000  0.77189000  0.49384900  1
  Fe  Fe5  1  0.50000000  0.77285900  0.82963900  1
  Fe  Fe6  1  0.00000000  0.48051900  0.32985700  1
  Fe  Fe7  1  0.00000000  0.48464200  0.99564900  1
  Fe  Fe8  1  0.00000000  0.48385200  0.66216400  1
  Fe  Fe9  1  0.50000000  0.23804700  0.18550500  1
  Fe  Fe10  1  0.50000000  0.27032400  0.49694400  1
  Fe  Fe11  1  0.50000000  0.26936200  0.82916500  1
  O  O12  1  0.50000000  0.89977300  0.27055400  1
  O  O13  1  0.50000000  0.90434000  0.60030600  1
  O  O14  1  0.50000000  0.90293900  0.93532900  1
  O  O15  1  0.00000000  0.84756300  0.10184800  1
  O  O16  1  0.00000000  0.84845600  0.76789700  1
  O  O17  1  0.00000000  0.84878700  0.43349900  1
  O  O18  1  0.50000000  0.40458600  0.26603600  1
  O  O19  1  0.50000000  0.39984500  0.93909800  1
  O  O20  1  0.50000000  0.40484000  0.60164700  1
  O  O21  1  0.00000000  0.34871300  0.43494100  1
  O  O22  1  0.00000000  0.35082600  0.76904100  1
  O  O23  1  0.00000000  0.14715000  0.23559100  1
  F  F24  1  0.00000000  0.65220800  0.23285100  1
  F  F25  1  0.00000000  0.65308200  0.56468200  1
  F  F26  1  0.00000000  0.65024000  0.90065000  1
  F  F27  1  0.50000000  0.59202800  0.06752900  1
  F  F28  1  0.50000000  0.59812500  0.39780500  1
  F  F29  1  0.50000000  0.60044200  0.73258500  1
  F  F30  1  0.00000000  0.34443500  0.10359100  1
  F  F31  1  0.00000000  0.15300600  0.89828400  1
  F  F32  1  0.00000000  0.15426200  0.56755700  1
  F  F33  1  0.50000000  0.10286100  0.06330800  1
  F  F34  1  0.50000000  0.09877300  0.40464800  1
  F  F35  1  0.50000000  0.09923500  0.73272900  1
