# generated using pymatgen
data_Bi7(O2F3)3
_symmetry_space_group_name_H-M   'P 1'
_cell_length_a   20.27979802
_cell_length_b   20.27979802
_cell_length_c   11.78279800
_cell_angle_alpha   90.00000000
_cell_angle_beta   90.00000000
_cell_angle_gamma   163.67078695
_symmetry_Int_Tables_number   1
_chemical_formula_structural   Bi7(O2F3)3
_chemical_formula_sum   'Bi28 O24 F36'
_cell_volume   1362.45794060
_cell_formula_units_Z   4
loop_
 _symmetry_equiv_pos_site_id
 _symmetry_equiv_pos_as_xyz
  1  'x, y, z'
loop_
 _atom_site_type_symbol
 _atom_site_label
 _atom_site_symmetry_multiplicity
 _atom_site_fract_x
 _atom_site_fract_y
 _atom_site_fract_z
 _atom_site_occupancy
  Bi  Bi0  1  0.70435400  0.77478400  0.89265500  1
  Bi  Bi1  1  0.27389300  0.20312700  0.89320200  1
  Bi  Bi2  1  0.38631800  0.03100300  0.89733400  1
  Bi  Bi3  1  0.56295300  0.91666400  0.89202500  1
  Bi  Bi4  1  0.05361700  0.55447600  0.88633900  1
  Bi  Bi5  1  0.17856900  0.39184700  0.89821200  1
  Bi  Bi6  1  0.88459200  0.67165200  0.89657400  1
  Bi  Bi7  1  0.39184700  0.17856900  0.10178800  1
  Bi  Bi8  1  0.67165200  0.88459200  0.10342600  1
  Bi  Bi9  1  0.55447600  0.05361700  0.11366100  1
  Bi  Bi10  1  0.03100300  0.38631800  0.10266600  1
  Bi  Bi11  1  0.91666400  0.56295300  0.10797500  1
  Bi  Bi12  1  0.77478400  0.70435400  0.10734500  1
  Bi  Bi13  1  0.20312700  0.27389300  0.10679800  1
  Bi  Bi14  1  0.70312700  0.77389300  0.39320200  1
  Bi  Bi15  1  0.27478400  0.20435400  0.39265500  1
  Bi  Bi16  1  0.41666400  0.06295300  0.39202500  1
  Bi  Bi17  1  0.53100300  0.88631800  0.39733400  1
  Bi  Bi18  1  0.05447600  0.55361700  0.38633900  1
  Bi  Bi19  1  0.89184700  0.67856900  0.39821200  1
  Bi  Bi20  1  0.17165200  0.38459200  0.39657400  1
  Bi  Bi21  1  0.38459200  0.17165200  0.60342600  1
  Bi  Bi22  1  0.67856900  0.89184700  0.60178800  1
  Bi  Bi23  1  0.55361700  0.05447600  0.61366100  1
  Bi  Bi24  1  0.06295300  0.41666400  0.60797500  1
  Bi  Bi25  1  0.88631800  0.53100300  0.60266600  1
  Bi  Bi26  1  0.20435400  0.27478400  0.60734500  1
  Bi  Bi27  1  0.77389300  0.70312700  0.60679800  1
  O  O28  1  0.80034800  0.23223700  0.98899200  1
  O  O29  1  0.94715900  0.09219900  0.99567000  1
  O  O30  1  0.59212700  0.44806900  0.99414500  1
  O  O31  1  0.85133400  0.13866000  0.98882300  1
  O  O32  1  0.64321400  0.35254100  0.99401700  1
  O  O33  1  0.49168600  0.49168600  0.00000000  1
  O  O34  1  0.99106100  0.99106100  0.00000000  1
  O  O35  1  0.35254100  0.64321400  0.00598300  1
  O  O36  1  0.13866000  0.85133400  0.01117700  1
  O  O37  1  0.09219900  0.94715900  0.00433000  1
  O  O38  1  0.44806900  0.59212700  0.00585500  1
  O  O39  1  0.23223700  0.80034800  0.01100800  1
  O  O40  1  0.73223700  0.30034800  0.48899200  1
  O  O41  1  0.94806900  0.09212700  0.49414500  1
  O  O42  1  0.59219900  0.44715900  0.49567000  1
  O  O43  1  0.85254100  0.14321400  0.49401700  1
  O  O44  1  0.63866000  0.35133400  0.48882300  1
  O  O45  1  0.49106100  0.49106100  0.50000000  1
  O  O46  1  0.99168600  0.99168600  0.50000000  1
  O  O47  1  0.35133400  0.63866000  0.51117700  1
  O  O48  1  0.14321400  0.85254100  0.50598300  1
  O  O49  1  0.44715900  0.59219900  0.50433000  1
  O  O50  1  0.09212700  0.94806900  0.50585500  1
  O  O51  1  0.30034800  0.73223700  0.51100800  1
  F  F52  1  0.06460400  0.06480700  0.75044600  1
  F  F53  1  0.56460400  0.56480700  0.74955400  1
  F  F54  1  0.36475800  0.49337300  0.77318400  1
  F  F55  1  0.98856600  0.85987600  0.77229400  1
  F  F56  1  0.50787900  0.76820300  0.78694600  1
  F  F57  1  0.24611000  0.98701800  0.79140700  1
  F  F58  1  0.17337500  0.56005500  0.81042900  1
  F  F59  1  0.04111500  0.65486200  0.80715800  1
  F  F60  1  0.42544200  0.92442600  0.81123200  1
  F  F61  1  0.73247600  0.30269400  0.98277000  1
  F  F62  1  0.30269400  0.73247600  0.01723000  1
  F  F63  1  0.92442600  0.42544200  0.18876800  1
  F  F64  1  0.65486200  0.04111500  0.19284200  1
  F  F65  1  0.56005500  0.17337500  0.18957100  1
  F  F66  1  0.98701800  0.24611000  0.20859300  1
  F  F67  1  0.76820300  0.50787900  0.21305400  1
  F  F68  1  0.85987600  0.98856600  0.22770600  1
  F  F69  1  0.49337300  0.36475800  0.22681600  1
  F  F70  1  0.06480700  0.06460400  0.24955400  1
  F  F71  1  0.56480700  0.56460400  0.25044600  1
  F  F72  1  0.99337300  0.86475800  0.27318400  1
  F  F73  1  0.35987600  0.48856600  0.27229400  1
  F  F74  1  0.48701800  0.74611000  0.29140700  1
  F  F75  1  0.26820300  0.00787900  0.28694600  1
  F  F76  1  0.06005500  0.67337500  0.31042900  1
  F  F77  1  0.15486200  0.54111500  0.30715800  1
  F  F78  1  0.42442600  0.92544200  0.31123200  1
  F  F79  1  0.80269400  0.23247600  0.48277000  1
  F  F80  1  0.23247600  0.80269400  0.51723000  1
  F  F81  1  0.92544200  0.42442600  0.68876800  1
  F  F82  1  0.54111500  0.15486200  0.69284200  1
  F  F83  1  0.67337500  0.06005500  0.68957100  1
  F  F84  1  0.00787900  0.26820300  0.71305400  1
  F  F85  1  0.74611000  0.48701800  0.70859300  1
  F  F86  1  0.48856600  0.35987600  0.72770600  1
  F  F87  1  0.86475800  0.99337300  0.72681600  1
