# generated using pymatgen
data_WOF4
_symmetry_space_group_name_H-M   'P 1'
_cell_length_a   10.26231513
_cell_length_b   10.26231513
_cell_length_c   15.24578744
_cell_angle_alpha   67.49811338
_cell_angle_beta   67.49811338
_cell_angle_gamma   32.80697227
_symmetry_Int_Tables_number   1
_chemical_formula_structural   WOF4
_chemical_formula_sum   'W8 O8 F32'
_cell_volume   797.70781713
_cell_formula_units_Z   8
loop_
 _symmetry_equiv_pos_site_id
 _symmetry_equiv_pos_as_xyz
  1  'x, y, z'
loop_
 _atom_site_type_symbol
 _atom_site_label
 _atom_site_symmetry_multiplicity
 _atom_site_fract_x
 _atom_site_fract_y
 _atom_site_fract_z
 _atom_site_occupancy
  W  W0  1  0.47927300  0.29931800  0.18174100  1
  W  W1  1  0.03828200  0.22866500  0.61227600  1
  W  W2  1  0.70068200  0.52072700  0.31825900  1
  W  W3  1  0.22866500  0.03828200  0.11227600  1
  W  W4  1  0.77133500  0.96171800  0.88772400  1
  W  W5  1  0.29931800  0.47927300  0.68174100  1
  W  W6  1  0.96171800  0.77133500  0.38772400  1
  W  W7  1  0.52072700  0.70068200  0.81825900  1
  O  O8  1  0.24879400  0.49056000  0.11710600  1
  O  O9  1  0.27855200  0.06792800  0.52436500  1
  O  O10  1  0.50944000  0.75120600  0.38289400  1
  O  O11  1  0.06792800  0.27855200  0.02436500  1
  O  O12  1  0.93207200  0.72144800  0.97563500  1
  O  O13  1  0.49056000  0.24879400  0.61710600  1
  O  O14  1  0.72144800  0.93207200  0.47563500  1
  O  O15  1  0.75120600  0.50944000  0.88289400  1
  F  F16  1  0.72706000  0.01676300  0.12304800  1
  F  F17  1  0.92136400  0.66754000  0.33559600  1
  F  F18  1  0.42337700  0.17159700  0.28666100  1
  F  F19  1  0.80158000  0.53421100  0.54043100  1
  F  F20  1  0.69572500  0.47058400  0.73286700  1
  F  F21  1  0.20532300  0.96472100  0.72028300  1
  F  F22  1  0.37698600  0.63870200  0.88608700  1
  F  F23  1  0.82840300  0.57662300  0.21333900  1
  F  F24  1  0.33246000  0.07863600  0.16440400  1
  F  F25  1  0.98323700  0.27294000  0.37695200  1
  F  F26  1  0.82500300  0.09754500  0.88822600  1
  F  F27  1  0.90245500  0.17499700  0.61177400  1
  F  F28  1  0.36129800  0.62301400  0.61391300  1
  F  F29  1  0.53421100  0.80158000  0.04043100  1
  F  F30  1  0.03527900  0.79467700  0.77971700  1
  F  F31  1  0.52941600  0.30427500  0.76713300  1
  F  F32  1  0.47058400  0.69572500  0.23286700  1
  F  F33  1  0.96472100  0.20532300  0.22028300  1
  F  F34  1  0.46578900  0.19842000  0.95956900  1
  F  F35  1  0.63870200  0.37698600  0.38608700  1
  F  F36  1  0.09754500  0.82500300  0.38822600  1
  F  F37  1  0.17499700  0.90245500  0.11177400  1
  F  F38  1  0.01676300  0.72706000  0.62304800  1
  F  F39  1  0.66754000  0.92136400  0.83559600  1
  F  F40  1  0.17159700  0.42337700  0.78666100  1
  F  F41  1  0.62301400  0.36129800  0.11391300  1
  F  F42  1  0.79467700  0.03527900  0.27971700  1
  F  F43  1  0.30427500  0.52941600  0.26713300  1
  F  F44  1  0.19842000  0.46578900  0.45956900  1
  F  F45  1  0.57662300  0.82840300  0.71333900  1
  F  F46  1  0.07863600  0.33246000  0.66440400  1
  F  F47  1  0.27294000  0.98323700  0.87695200  1
