# generated using pymatgen
data_SiTc2Ge
_symmetry_space_group_name_H-M   'P 1'
_cell_length_a   10.11962066
_cell_length_b   10.11962066
_cell_length_c   10.11962066
_cell_angle_alpha   124.72200504
_cell_angle_beta   118.46961430
_cell_angle_gamma   87.34695278
_symmetry_Int_Tables_number   1
_chemical_formula_structural   SiTc2Ge
_chemical_formula_sum   'Si1 Tc2 Ge1'
_cell_volume   711.45961298
_cell_formula_units_Z   1
loop_
 _symmetry_equiv_pos_site_id
 _symmetry_equiv_pos_as_xyz
  1  'x, y, z'
loop_
 _atom_site_type_symbol
 _atom_site_label
 _atom_site_symmetry_multiplicity
 _atom_site_fract_x
 _atom_site_fract_y
 _atom_site_fract_z
 _atom_site_occupancy
  Si  Si0  1  0.00000000  0.00000000  0.00000000  1
  Tc  Tc1  1  0.00000000  0.24481000  0.24481000  1
  Tc  Tc2  1  0.00000000  0.75519000  0.75519000  1
  Ge  Ge3  1  0.00000000  0.50000000  0.50000000  1
