# generated using pymatgen
data_Cu2OF2
_symmetry_space_group_name_H-M   'P 1'
_cell_length_a   8.44075627
_cell_length_b   8.44355770
_cell_length_c   8.39366468
_cell_angle_alpha   108.67234938
_cell_angle_beta   108.71162027
_cell_angle_gamma   109.91915556
_symmetry_Int_Tables_number   1
_chemical_formula_structural   Cu2OF2
_chemical_formula_sum   'Cu16 O8 F16'
_cell_volume   466.65812975
_cell_formula_units_Z   8
loop_
 _symmetry_equiv_pos_site_id
 _symmetry_equiv_pos_as_xyz
  1  'x, y, z'
loop_
 _atom_site_type_symbol
 _atom_site_label
 _atom_site_symmetry_multiplicity
 _atom_site_fract_x
 _atom_site_fract_y
 _atom_site_fract_z
 _atom_site_occupancy
  Cu  Cu0  1  0.82076600  0.32313500  0.05200400  1
  Cu  Cu1  1  0.03583800  0.02570300  0.03575300  1
  Cu  Cu2  1  0.51858300  0.00516600  0.49624100  1
  Cu  Cu3  1  0.47421000  0.51313700  0.98785300  1
  Cu  Cu4  1  0.51918000  0.27665700  0.24886400  1
  Cu  Cu5  1  0.93977000  0.18757400  0.75058000  1
  Cu  Cu6  1  0.73028400  0.45293200  0.66618000  1
  Cu  Cu7  1  0.75982000  0.96901000  0.24407000  1
  Cu  Cu8  1  0.29661900  0.24982800  0.49446000  1
  Cu  Cu9  1  0.72627600  0.74564200  0.47676900  1
  Cu  Cu10  1  0.27035100  0.04143100  0.80775600  1
  Cu  Cu11  1  0.21997300  0.52237500  0.25920700  1
  Cu  Cu12  1  0.04442700  0.79479500  0.27259700  1
  Cu  Cu13  1  0.98141600  0.50004900  0.48079500  1
  Cu  Cu14  1  0.47266900  0.74452100  0.78111200  1
  Cu  Cu15  1  0.20904200  0.72001800  0.95401300  1
  O  O16  1  0.74279300  0.98968600  0.47934000  1
  O  O17  1  0.27836600  0.06499000  0.04544800  1
  O  O18  1  0.01422800  0.56537100  0.28985800  1
  O  O19  1  0.50384500  0.21618100  0.44495600  1
  O  O20  1  0.02440900  0.27962700  0.02662900  1
  O  O21  1  0.44726800  0.72970200  0.99362300  1
  O  O22  1  0.75002400  0.52176700  0.46446800  1
  O  O23  1  0.07619900  0.03146200  0.27535400  1
  F  F24  1  0.75634700  0.19580900  0.25014900  1
  F  F25  1  0.78106700  0.73216700  0.22125800  1
  F  F26  1  0.44413800  0.53579900  0.23116200  1
  F  F27  1  0.71729000  0.25781200  0.77851400  1
  F  F28  1  0.93605400  0.91930000  0.74522700  1
  F  F29  1  0.19827600  0.43591500  0.49096000  1
  F  F30  1  0.57828500  0.33053000  0.04158000  1
  F  F31  1  0.27048500  0.79349000  0.22999400  1
  F  F32  1  0.94726200  0.68015600  0.90987200  1
  F  F33  1  0.51337300  0.47542000  0.74834100  1
  F  F34  1  0.48196300  0.77061400  0.56105400  1
  F  F35  1  0.21428800  0.24612700  0.78710200  1
  F  F36  1  0.75689600  0.92798700  0.97342600  1
  F  F37  1  0.01020900  0.43550100  0.69430300  1
  F  F38  1  0.30973500  0.01207100  0.58330100  1
  F  F39  1  0.22798000  0.78054300  0.72582600  1
