# generated using pymatgen
data_VP6(WO8)3
_symmetry_space_group_name_H-M   'P 1'
_cell_length_a   8.92477576
_cell_length_b   8.92477576
_cell_length_c   8.92477640
_cell_angle_alpha   58.98266933
_cell_angle_beta   58.98266933
_cell_angle_gamma   58.98266901
_symmetry_Int_Tables_number   1
_chemical_formula_structural   VP6(WO8)3
_chemical_formula_sum   'V1 P6 W3 O24'
_cell_volume   490.99718733
_cell_formula_units_Z   1
loop_
 _symmetry_equiv_pos_site_id
 _symmetry_equiv_pos_as_xyz
  1  'x, y, z'
loop_
 _atom_site_type_symbol
 _atom_site_label
 _atom_site_symmetry_multiplicity
 _atom_site_fract_x
 _atom_site_fract_y
 _atom_site_fract_z
 _atom_site_occupancy
  V  V0  1  0.85838200  0.85838200  0.85838200  1
  P  P1  1  0.75083300  0.03504300  0.46788400  1
  P  P2  1  0.03504300  0.46788400  0.75083300  1
  P  P3  1  0.46788400  0.75083300  0.03504300  1
  P  P4  1  0.54004300  0.24636900  0.96324200  1
  P  P5  1  0.96324200  0.54004300  0.24636900  1
  P  P6  1  0.24636900  0.96324200  0.54004300  1
  W  W7  1  0.14236700  0.14236700  0.14236700  1
  W  W8  1  0.35723100  0.35723100  0.35723100  1
  W  W9  1  0.64233000  0.64233000  0.64233000  1
  O  O10  1  0.28570700  0.13136400  0.50407700  1
  O  O11  1  0.50407700  0.28570700  0.13136400  1
  O  O12  1  0.92014600  0.06317000  0.28605500  1
  O  O13  1  0.13136400  0.50407700  0.28570700  1
  O  O14  1  0.58107800  0.21245100  0.43245100  1
  O  O15  1  0.77589700  0.00879500  0.63443500  1
  O  O16  1  0.06317000  0.28605500  0.92014600  1
  O  O17  1  0.21245100  0.43245100  0.58107800  1
  O  O18  1  0.43245100  0.58107800  0.21245100  1
  O  O19  1  0.36516500  0.22199800  0.99231100  1
  O  O20  1  0.71216200  0.08017700  0.94106200  1
  O  O21  1  0.99231100  0.36516500  0.22199800  1
  O  O22  1  0.00879500  0.63443500  0.77589700  1
  O  O23  1  0.28605500  0.92014600  0.06317000  1
  O  O24  1  0.63443500  0.77589700  0.00879500  1
  O  O25  1  0.55878500  0.42320300  0.78880500  1
  O  O26  1  0.78880500  0.55878500  0.42320300  1
  O  O27  1  0.94106200  0.71216200  0.08017700  1
  O  O28  1  0.22199800  0.99231100  0.36516500  1
  O  O29  1  0.42320300  0.78880500  0.55878500  1
  O  O30  1  0.86704000  0.49014200  0.71979900  1
  O  O31  1  0.08017700  0.94106200  0.71216200  1
  O  O32  1  0.49014200  0.71979900  0.86704000  1
  O  O33  1  0.71979900  0.86704000  0.49014200  1
