# generated using pymatgen
data_V7(O2F3)3
_symmetry_space_group_name_H-M   'P 1'
_cell_length_a   9.95238400
_cell_length_b   18.14584984
_cell_length_c   5.09632400
_cell_angle_alpha   81.92746112
_cell_angle_beta   90.00000000
_cell_angle_gamma   90.00000000
_symmetry_Int_Tables_number   1
_chemical_formula_structural   V7(O2F3)3
_chemical_formula_sum   'V28 O24 F36'
_cell_volume   911.24805406
_cell_formula_units_Z   4
loop_
 _symmetry_equiv_pos_site_id
 _symmetry_equiv_pos_as_xyz
  1  'x, y, z'
loop_
 _atom_site_type_symbol
 _atom_site_label
 _atom_site_symmetry_multiplicity
 _atom_site_fract_x
 _atom_site_fract_y
 _atom_site_fract_z
 _atom_site_occupancy
  V  V0  1  0.14858500  0.07161100  0.68686800  1
  V  V1  1  0.14811700  0.92913500  0.25719400  1
  V  V2  1  0.14668400  0.34780300  0.56311600  1
  V  V3  1  0.14218600  0.65364200  0.38113600  1
  V  V4  1  0.14465400  0.49179100  0.04615500  1
  V  V5  1  0.14973600  0.21032100  0.18644900  1
  V  V6  1  0.14842000  0.79116400  0.89421500  1
  V  V7  1  0.35026400  0.78967900  0.39677000  1
  V  V8  1  0.35158000  0.20883600  0.68537900  1
  V  V9  1  0.35534600  0.50820900  0.53794700  1
  V  V10  1  0.35781400  0.34635800  0.03477700  1
  V  V11  1  0.35331600  0.65219700  0.91091800  1
  V  V12  1  0.35141500  0.92838900  0.75847900  1
  V  V13  1  0.35188300  0.07086500  0.18632900  1
  V  V14  1  0.64811700  0.07086500  0.68632900  1
  V  V15  1  0.64858500  0.92838900  0.25847900  1
  V  V16  1  0.64218600  0.34635800  0.53477700  1
  V  V17  1  0.64668400  0.65219700  0.41091800  1
  V  V18  1  0.64465400  0.50820900  0.03794700  1
  V  V19  1  0.64973600  0.78967900  0.89677000  1
  V  V20  1  0.64842000  0.20883600  0.18537900  1
  V  V21  1  0.85158000  0.79116400  0.39421500  1
  V  V22  1  0.85026400  0.21032100  0.68644900  1
  V  V23  1  0.85534600  0.49179100  0.54615500  1
  V  V24  1  0.85781400  0.65364200  0.88113600  1
  V  V25  1  0.85331600  0.34780300  0.06311600  1
  V  V26  1  0.85141500  0.07161100  0.18686800  1
  V  V27  1  0.85188300  0.92913500  0.75719400  1
  O  O28  1  0.23618000  0.42830900  0.79222000  1
  O  O29  1  0.23054100  0.14231600  0.94344200  1
  O  O30  1  0.23037300  0.85652200  0.58438300  1
  O  O31  1  0.23056900  0.28244900  0.86371500  1
  O  O32  1  0.23178500  0.71212100  0.65046400  1
  O  O33  1  0.25000000  0.00000000  0.46953000  1
  O  O34  1  0.25000000  0.00000000  0.96804200  1
  O  O35  1  0.26821500  0.28787900  0.36258600  1
  O  O36  1  0.26943100  0.71755100  0.14616500  1
  O  O37  1  0.26945900  0.85768400  0.08575700  1
  O  O38  1  0.26962700  0.14347800  0.44090400  1
  O  O39  1  0.26382000  0.57169100  0.22052900  1
  O  O40  1  0.73618000  0.57169100  0.72052900  1
  O  O41  1  0.73054100  0.85768400  0.58575700  1
  O  O42  1  0.73037300  0.14347800  0.94090400  1
  O  O43  1  0.73056900  0.71755100  0.64616500  1
  O  O44  1  0.73178500  0.28787900  0.86258600  1
  O  O45  1  0.75000000  0.00000000  0.46804200  1
  O  O46  1  0.75000000  0.00000000  0.96953000  1
  O  O47  1  0.76943100  0.28244900  0.36371500  1
  O  O48  1  0.76821500  0.71212100  0.15046400  1
  O  O49  1  0.76945900  0.14231600  0.44344200  1
  O  O50  1  0.76962700  0.85652200  0.08438300  1
  O  O51  1  0.76382000  0.42830900  0.29222000  1
  F  F52  1  0.00160900  0.00197000  0.14848900  1
  F  F53  1  0.99839100  0.00197000  0.64848900  1
  F  F54  1  0.02553400  0.12608400  0.34411000  1
  F  F55  1  0.02700600  0.87854000  0.96222100  1
  F  F56  1  0.03016800  0.25663100  0.50806900  1
  F  F57  1  0.03462800  0.75245700  0.25335000  1
  F  F58  1  0.04660800  0.38482500  0.19788600  1
  F  F59  1  0.03301800  0.62890200  0.06397900  1
  F  F60  1  0.03564800  0.50416700  0.37985500  1
  F  F61  1  0.21533100  0.56957100  0.72779500  1
  F  F62  1  0.28466900  0.43042900  0.29736500  1
  F  F63  1  0.46435200  0.49583300  0.88402300  1
  F  F64  1  0.46698200  0.37109800  0.69288000  1
  F  F65  1  0.45339200  0.61517500  0.58271100  1
  F  F66  1  0.46537200  0.24754300  0.00580700  1
  F  F67  1  0.46983200  0.74336900  0.76469900  1
  F  F68  1  0.47299400  0.12146000  0.84075900  1
  F  F69  1  0.47446600  0.87391600  0.47019300  1
  F  F70  1  0.49839100  0.99803000  0.15045900  1
  F  F71  1  0.50160900  0.99803000  0.65045900  1
  F  F72  1  0.52553400  0.87391600  0.97019300  1
  F  F73  1  0.52700600  0.12146000  0.34075900  1
  F  F74  1  0.53016800  0.74336900  0.26469900  1
  F  F75  1  0.53462800  0.24754300  0.50580700  1
  F  F76  1  0.54660800  0.61517500  0.08271100  1
  F  F77  1  0.53301800  0.37109800  0.19288000  1
  F  F78  1  0.53564800  0.49583300  0.38402300  1
  F  F79  1  0.71533100  0.43042900  0.79736500  1
  F  F80  1  0.78466900  0.56957100  0.22779500  1
  F  F81  1  0.96435200  0.50416700  0.87985500  1
  F  F82  1  0.96698200  0.62890200  0.56397900  1
  F  F83  1  0.95339200  0.38482500  0.69788600  1
  F  F84  1  0.96983200  0.25663100  0.00806900  1
  F  F85  1  0.96537200  0.75245700  0.75335000  1
  F  F86  1  0.97299400  0.87854000  0.46222100  1
  F  F87  1  0.97446600  0.12608400  0.84411000  1
