# generated using pymatgen
data_Be2IrOs
_symmetry_space_group_name_H-M   'P 1'
_cell_length_a   9.19760229
_cell_length_b   9.19760229
_cell_length_c   9.19760229
_cell_angle_alpha   125.36388295
_cell_angle_beta   118.06489280
_cell_angle_gamma   87.17769977
_symmetry_Int_Tables_number   1
_chemical_formula_structural   Be2IrOs
_chemical_formula_sum   'Be2 Ir1 Os1'
_cell_volume   532.33107830
_cell_formula_units_Z   1
loop_
 _symmetry_equiv_pos_site_id
 _symmetry_equiv_pos_as_xyz
  1  'x, y, z'
loop_
 _atom_site_type_symbol
 _atom_site_label
 _atom_site_symmetry_multiplicity
 _atom_site_fract_x
 _atom_site_fract_y
 _atom_site_fract_z
 _atom_site_occupancy
  Be  Be0  1  0.00000000  0.25037400  0.25037400  1
  Be  Be1  1  0.00000000  0.74962600  0.74962600  1
  Ir  Ir2  1  0.00000000  0.50000000  0.50000000  1
  Os  Os3  1  0.00000000  0.00000000  0.00000000  1
