# generated using pymatgen
data_V5F11
_symmetry_space_group_name_H-M   'P 1'
_cell_length_a   14.59916800
_cell_length_b   8.11800400
_cell_length_c   10.85534556
_cell_angle_alpha   50.74294515
_cell_angle_beta   90.00000000
_cell_angle_gamma   90.00000000
_symmetry_Int_Tables_number   1
_chemical_formula_structural   V5F11
_chemical_formula_sum   'V20 F44'
_cell_volume   996.18166229
_cell_formula_units_Z   4
loop_
 _symmetry_equiv_pos_site_id
 _symmetry_equiv_pos_as_xyz
  1  'x, y, z'
loop_
 _atom_site_type_symbol
 _atom_site_label
 _atom_site_symmetry_multiplicity
 _atom_site_fract_x
 _atom_site_fract_y
 _atom_site_fract_z
 _atom_site_occupancy
  V  V0  1  0.83179100  0.73131900  0.54742600  1
  V  V1  1  0.32854900  0.49381300  0.57438400  1
  V  V2  1  0.17604800  0.75179000  0.69685500  1
  V  V3  1  0.50412500  0.53545600  0.73524800  1
  V  V4  1  0.66234100  0.98886300  0.65817400  1
  V  V5  1  0.00412500  0.46454400  0.76475200  1
  V  V6  1  0.67604800  0.24821000  0.80314500  1
  V  V7  1  0.82854900  0.50618700  0.92561600  1
  V  V8  1  0.16234100  0.01113700  0.84182600  1
  V  V9  1  0.33179100  0.26868100  0.95257400  1
  V  V10  1  0.66820900  0.73131900  0.04742600  1
  V  V11  1  0.83765900  0.98886300  0.15817400  1
  V  V12  1  0.17145100  0.49381300  0.07438400  1
  V  V13  1  0.32395200  0.75179000  0.19685500  1
  V  V14  1  0.99587500  0.53545600  0.23524800  1
  V  V15  1  0.33765900  0.01113700  0.34182600  1
  V  V16  1  0.49587500  0.46454400  0.26475200  1
  V  V17  1  0.82395200  0.24821000  0.30314500  1
  V  V18  1  0.67145100  0.50618700  0.42561600  1
  V  V19  1  0.16820900  0.26868100  0.45257400  1
  F  F20  1  0.41685300  0.73072800  0.53977400  1
  F  F21  1  0.07907100  0.69006400  0.59179300  1
  F  F22  1  0.24985700  0.01289800  0.49773700  1
  F  F23  1  0.59540500  0.49818500  0.60222500  1
  F  F24  1  0.91853500  0.48189400  0.61933400  1
  F  F25  1  0.57245100  0.77263500  0.68407400  1
  F  F26  1  0.23958200  0.25286700  0.63089600  1
  F  F27  1  0.73922900  0.23918400  0.62842300  1
  F  F28  1  0.91750100  0.69614900  0.72676100  1
  F  F29  1  0.25761600  0.50372500  0.74074100  1
  F  F30  1  0.10341800  0.00625500  0.66370900  1
  F  F31  1  0.75761600  0.49627500  0.75925900  1
  F  F32  1  0.41750100  0.30385100  0.77323900  1
  F  F33  1  0.07245100  0.22736500  0.81592600  1
  F  F34  1  0.41853500  0.51810600  0.88066600  1
  F  F35  1  0.09540500  0.50181500  0.89777500  1
  F  F36  1  0.60341800  0.99374500  0.83629100  1
  F  F37  1  0.57907100  0.30993600  0.90820700  1
  F  F38  1  0.23922900  0.76081600  0.87157700  1
  F  F39  1  0.73958200  0.74713300  0.86910400  1
  F  F40  1  0.91685300  0.26927200  0.96022600  1
  F  F41  1  0.25014300  0.01289800  0.99773700  1
  F  F42  1  0.74985700  0.98710200  0.00226300  1
  F  F43  1  0.08314700  0.73072800  0.03977400  1
  F  F44  1  0.26041800  0.25286700  0.13089600  1
  F  F45  1  0.76077100  0.23918400  0.12842300  1
  F  F46  1  0.42092900  0.69006400  0.09179300  1
  F  F47  1  0.39658200  0.00625500  0.16370900  1
  F  F48  1  0.90459500  0.49818500  0.10222500  1
  F  F49  1  0.58146500  0.48189400  0.11933400  1
  F  F50  1  0.92754900  0.77263500  0.18407400  1
  F  F51  1  0.58249900  0.69614900  0.22676100  1
  F  F52  1  0.24238400  0.50372500  0.24074100  1
  F  F53  1  0.89658200  0.99374500  0.33629100  1
  F  F54  1  0.74238400  0.49627500  0.25925900  1
  F  F55  1  0.08249900  0.30385100  0.27323900  1
  F  F56  1  0.26077100  0.76081600  0.37157700  1
  F  F57  1  0.76041800  0.74713300  0.36910400  1
  F  F58  1  0.42754900  0.22736500  0.31592600  1
  F  F59  1  0.08146500  0.51810600  0.38066600  1
  F  F60  1  0.40459500  0.50181500  0.39777500  1
  F  F61  1  0.75014300  0.98710200  0.50226300  1
  F  F62  1  0.92092900  0.30993600  0.40820700  1
  F  F63  1  0.58314700  0.26927200  0.46022600  1
