# generated using pymatgen
data_Na6CoO4
_symmetry_space_group_name_H-M   'P 1'
_cell_length_a   9.26945299
_cell_length_b   9.26945179
_cell_length_c   9.26944088
_cell_angle_alpha   107.58647287
_cell_angle_beta   69.57853648
_cell_angle_gamma   69.57812243
_symmetry_Int_Tables_number   1
_chemical_formula_structural   Na6CoO4
_chemical_formula_sum   'Na24 Co4 O16'
_cell_volume   612.61742157
_cell_formula_units_Z   4
loop_
 _symmetry_equiv_pos_site_id
 _symmetry_equiv_pos_as_xyz
  1  'x, y, z'
loop_
 _atom_site_type_symbol
 _atom_site_label
 _atom_site_symmetry_multiplicity
 _atom_site_fract_x
 _atom_site_fract_y
 _atom_site_fract_z
 _atom_site_occupancy
  Na  Na0  1  0.25002200  0.33065600  0.08064700  1
  Na  Na1  1  0.25002200  0.83065600  0.58064700  1
  Na  Na2  1  0.25001000  0.08066000  0.83065900  1
  Na  Na3  1  0.25001000  0.58066000  0.33065900  1
  Na  Na4  1  0.75000000  0.16934300  0.41933400  1
  Na  Na5  1  0.75000000  0.66934300  0.91933400  1
  Na  Na6  1  0.75000400  0.41934200  0.66933500  1
  Na  Na7  1  0.75000400  0.91934200  0.16933500  1
  Na  Na8  1  0.03725300  0.62500300  0.08774400  1
  Na  Na9  1  0.03725300  0.12500300  0.58774400  1
  Na  Na10  1  0.03725900  0.83775200  0.87499000  1
  Na  Na11  1  0.03725900  0.33775200  0.37499000  1
  Na  Na12  1  0.46276200  0.41224600  0.87499100  1
  Na  Na13  1  0.46276200  0.91224600  0.37499100  1
  Na  Na14  1  0.46277800  0.62499800  0.66222100  1
  Na  Na15  1  0.46277800  0.12499800  0.16222100  1
  Na  Na16  1  0.53725300  0.87499500  0.83774700  1
  Na  Na17  1  0.53725300  0.37499500  0.33774700  1
  Na  Na18  1  0.53724700  0.08775300  0.62499400  1
  Na  Na19  1  0.53724700  0.58775300  0.12499400  1
  Na  Na20  1  0.96275900  0.66224900  0.62499300  1
  Na  Na21  1  0.96275900  0.16224900  0.12499300  1
  Na  Na22  1  0.96275400  0.87500400  0.41224600  1
  Na  Na23  1  0.96275400  0.37500400  0.91224600  1
  Co  Co24  1  0.25000000  0.87500000  0.12499700  1
  Co  Co25  1  0.75002300  0.62499600  0.37498200  1
  Co  Co26  1  0.25000000  0.37500000  0.62499700  1
  Co  Co27  1  0.75002300  0.12499600  0.87498200  1
  O  O28  1  0.99475100  0.09246700  0.84245600  1
  O  O29  1  0.99475100  0.59246700  0.34245600  1
  O  O30  1  0.25000900  0.58720400  0.59245200  1
  O  O31  1  0.25000900  0.08720400  0.09245200  1
  O  O32  1  0.25000200  0.34246000  0.83720100  1
  O  O33  1  0.25000200  0.84246000  0.33720100  1
  O  O34  1  0.50527500  0.33720600  0.08719700  1
  O  O35  1  0.50527500  0.83720600  0.58719700  1
  O  O36  1  0.49475000  0.16279400  0.41278800  1
  O  O37  1  0.49475000  0.66279400  0.91278800  1
  O  O38  1  0.75000900  0.91279300  0.90752000  1
  O  O39  1  0.75000900  0.41279300  0.40752000  1
  O  O40  1  0.75000300  0.15753600  0.66278700  1
  O  O41  1  0.75000300  0.65753600  0.16278700  1
  O  O42  1  0.00525700  0.40754400  0.65753700  1
  O  O43  1  0.00525700  0.90754400  0.15753700  1
