# generated using pymatgen
data_Na4Ti5O12
_symmetry_space_group_name_H-M   'P 1'
_cell_length_a   6.19543198
_cell_length_b   6.19543198
_cell_length_c   14.05543179
_cell_angle_alpha   79.30286962
_cell_angle_beta   79.30286962
_cell_angle_gamma   90.17250870
_symmetry_Int_Tables_number   1
_chemical_formula_structural   Na4Ti5O12
_chemical_formula_sum   'Na8 Ti10 O24'
_cell_volume   520.51500541
_cell_formula_units_Z   2
loop_
 _symmetry_equiv_pos_site_id
 _symmetry_equiv_pos_as_xyz
  1  'x, y, z'
loop_
 _atom_site_type_symbol
 _atom_site_label
 _atom_site_symmetry_multiplicity
 _atom_site_fract_x
 _atom_site_fract_y
 _atom_site_fract_z
 _atom_site_occupancy
  Na  Na0  1  0.46335600  0.19200100  0.58004000  1
  Na  Na1  1  0.00000000  0.00000000  0.50000000  1
  Na  Na2  1  0.53664400  0.80799900  0.41996000  1
  Na  Na3  1  0.10910800  0.89089200  0.25000000  1
  Na  Na4  1  0.19200100  0.46335600  0.08004000  1
  Na  Na5  1  0.00000000  0.00000000  0.00000000  1
  Na  Na6  1  0.80799900  0.53664400  0.91996000  1
  Na  Na7  1  0.89089200  0.10910800  0.75000000  1
  Ti  Ti8  1  0.00000000  0.50000000  0.50000000  1
  Ti  Ti9  1  0.83745300  0.35813900  0.33668900  1
  Ti  Ti10  1  0.33891700  0.34637200  0.33492500  1
  Ti  Ti11  1  0.64186100  0.16254700  0.16331100  1
  Ti  Ti12  1  0.65362800  0.66108300  0.16507500  1
  Ti  Ti13  1  0.50000000  0.00000000  0.00000000  1
  Ti  Ti14  1  0.35813900  0.83745300  0.83668900  1
  Ti  Ti15  1  0.34637200  0.33891700  0.83492500  1
  Ti  Ti16  1  0.66108300  0.65362800  0.66507500  1
  Ti  Ti17  1  0.16254700  0.64186100  0.66331100  1
  O  O18  1  0.76105300  0.70248600  0.52742600  1
  O  O19  1  0.21676600  0.70776400  0.52641300  1
  O  O20  1  0.23894700  0.29751400  0.47257400  1
  O  O21  1  0.78323400  0.29223600  0.47358700  1
  O  O22  1  0.05123600  0.57556400  0.35272200  1
  O  O23  1  0.07708900  0.17999900  0.31977900  1
  O  O24  1  0.57209900  0.15082900  0.32341900  1
  O  O25  1  0.57282200  0.57354400  0.31772800  1
  O  O26  1  0.42645600  0.42717800  0.18227200  1
  O  O27  1  0.84917100  0.42790100  0.17658100  1
  O  O28  1  0.82000100  0.92291100  0.18022100  1
  O  O29  1  0.42443600  0.94876400  0.14727800  1
  O  O30  1  0.70248600  0.76105300  0.02742600  1
  O  O31  1  0.70776400  0.21676600  0.02641300  1
  O  O32  1  0.29223600  0.78323400  0.97358700  1
  O  O33  1  0.29751400  0.23894700  0.97257400  1
  O  O34  1  0.57556400  0.05123600  0.85272200  1
  O  O35  1  0.17999900  0.07708900  0.81977900  1
  O  O36  1  0.15082900  0.57209900  0.82341900  1
  O  O37  1  0.57354400  0.57282200  0.81772800  1
  O  O38  1  0.42790100  0.84917100  0.67658100  1
  O  O39  1  0.42717800  0.42645600  0.68227200  1
  O  O40  1  0.92291100  0.82000100  0.68022100  1
  O  O41  1  0.94876400  0.42443600  0.64727800  1
