# generated using pymatgen
data_Cu3(OF)2
_symmetry_space_group_name_H-M   'P 1'
_cell_length_a   8.03926325
_cell_length_b   8.20420100
_cell_length_c   10.37122846
_cell_angle_alpha   90.00000000
_cell_angle_beta   72.59729091
_cell_angle_gamma   90.00000000
_symmetry_Int_Tables_number   1
_chemical_formula_structural   Cu3(OF)2
_chemical_formula_sum   'Cu24 O16 F16'
_cell_volume   652.73075218
_cell_formula_units_Z   8
loop_
 _symmetry_equiv_pos_site_id
 _symmetry_equiv_pos_as_xyz
  1  'x, y, z'
loop_
 _atom_site_type_symbol
 _atom_site_label
 _atom_site_symmetry_multiplicity
 _atom_site_fract_x
 _atom_site_fract_y
 _atom_site_fract_z
 _atom_site_occupancy
  Cu  Cu0  1  0.07522700  0.79110900  0.35557900  1
  Cu  Cu1  1  0.10511400  0.41937000  0.38057900  1
  Cu  Cu2  1  0.23297100  0.18029400  0.16596200  1
  Cu  Cu3  1  0.07522700  0.70889100  0.85557900  1
  Cu  Cu4  1  0.30771400  0.51323200  0.06982300  1
  Cu  Cu5  1  0.10511400  0.08063000  0.88057900  1
  Cu  Cu6  1  0.23297100  0.31970600  0.66596200  1
  Cu  Cu7  1  0.45006900  0.92763100  0.26812700  1
  Cu  Cu8  1  0.30771400  0.98676800  0.56982300  1
  Cu  Cu9  1  0.59432400  0.15339400  0.00713800  1
  Cu  Cu10  1  0.40567600  0.65339400  0.49286300  1
  Cu  Cu11  1  0.54993100  0.42763100  0.23187300  1
  Cu  Cu12  1  0.45006900  0.57236900  0.76812700  1
  Cu  Cu13  1  0.59432400  0.34660600  0.50713700  1
  Cu  Cu14  1  0.40567600  0.84660600  0.99286300  1
  Cu  Cu15  1  0.69228600  0.01323200  0.43017700  1
  Cu  Cu16  1  0.54993100  0.07236900  0.73187300  1
  Cu  Cu17  1  0.76702900  0.68029400  0.33403800  1
  Cu  Cu18  1  0.89488600  0.91937000  0.11942100  1
  Cu  Cu19  1  0.69228600  0.48676800  0.93017700  1
  Cu  Cu20  1  0.92477300  0.29110900  0.14442100  1
  Cu  Cu21  1  0.76702900  0.81970600  0.83403800  1
  Cu  Cu22  1  0.89488600  0.58063000  0.61942100  1
  Cu  Cu23  1  0.92477300  0.20889100  0.64442100  1
  O  O24  1  0.06169200  0.09868500  0.07466100  1
  O  O25  1  0.12322200  0.38622600  0.19027300  1
  O  O26  1  0.06169200  0.40131500  0.57466100  1
  O  O27  1  0.12322200  0.11377400  0.69027300  1
  O  O28  1  0.40165800  0.02025900  0.11643800  1
  O  O29  1  0.50410100  0.37368200  0.06724700  1
  O  O30  1  0.49589900  0.87368200  0.43275300  1
  O  O31  1  0.40165800  0.47974100  0.61643800  1
  O  O32  1  0.59834200  0.52025800  0.38356200  1
  O  O33  1  0.50410100  0.12631800  0.56724700  1
  O  O34  1  0.49589900  0.62631800  0.93275300  1
  O  O35  1  0.59834200  0.97974200  0.88356200  1
  O  O36  1  0.87677800  0.88622600  0.30972700  1
  O  O37  1  0.93830800  0.59868500  0.42533900  1
  O  O38  1  0.87677800  0.61377400  0.80972700  1
  O  O39  1  0.93830800  0.90131500  0.92533900  1
  F  F40  1  0.18883800  0.72947200  0.09450700  1
  F  F41  1  0.19824700  0.99272800  0.36627900  1
  F  F42  1  0.18883800  0.77052800  0.59450700  1
  F  F43  1  0.29468800  0.66481500  0.32145000  1
  F  F44  1  0.19824700  0.50727200  0.86627900  1
  F  F45  1  0.33367400  0.30532600  0.33516100  1
  F  F46  1  0.29468800  0.83518500  0.82145000  1
  F  F47  1  0.66632600  0.80532600  0.16483900  1
  F  F48  1  0.33367400  0.19467400  0.83516100  1
  F  F49  1  0.70531200  0.16481500  0.17855000  1
  F  F50  1  0.66632600  0.69467400  0.66483900  1
  F  F51  1  0.80175300  0.49272800  0.13372100  1
  F  F52  1  0.70531200  0.33518500  0.67855000  1
  F  F53  1  0.81116200  0.22947200  0.40549300  1
  F  F54  1  0.80175300  0.00727200  0.63372100  1
  F  F55  1  0.81116200  0.27052800  0.90549300  1
