# generated using pymatgen
data_La9Mn10O30
_symmetry_space_group_name_H-M   'P 1'
_cell_length_a   5.50986049
_cell_length_b   5.50986049
_cell_length_c   22.99508608
_cell_angle_alpha   83.04662403
_cell_angle_beta   83.04662403
_cell_angle_gamma   60.86100400
_symmetry_Int_Tables_number   1
_chemical_formula_structural   La9Mn10O30
_chemical_formula_sum   'La9 Mn10 O30'
_cell_volume   603.70733333
_cell_formula_units_Z   1
loop_
 _symmetry_equiv_pos_site_id
 _symmetry_equiv_pos_as_xyz
  1  'x, y, z'
loop_
 _atom_site_type_symbol
 _atom_site_label
 _atom_site_symmetry_multiplicity
 _atom_site_fract_x
 _atom_site_fract_y
 _atom_site_fract_z
 _atom_site_occupancy
  La  La0  1  0.44794600  0.74646100  0.20442100  1
  La  La1  1  0.55191600  0.85069600  0.89803800  1
  La  La2  1  0.65593600  0.95776100  0.58909700  1
  La  La3  1  0.25353900  0.55205400  0.79557900  1
  La  La4  1  0.04223900  0.34406400  0.41090300  1
  La  La5  1  0.14930400  0.44808400  0.10196200  1
  La  La6  1  0.75312700  0.04139200  0.30670100  1
  La  La7  1  0.84976600  0.15023400  0.00000000  1
  La  La8  1  0.95860800  0.24687300  0.69329900  1
  Mn  Mn9  1  0.39590300  0.70148400  0.35400900  1
  Mn  Mn10  1  0.50028200  0.79969400  0.05028500  1
  Mn  Mn11  1  0.60359900  0.89698300  0.74825900  1
  Mn  Mn12  1  0.29851600  0.60409700  0.64599100  1
  Mn  Mn13  1  0.10301700  0.39640100  0.25174100  1
  Mn  Mn14  1  0.20030500  0.49971800  0.94971500  1
  Mn  Mn15  1  0.79879900  0.10057800  0.15088300  1
  Mn  Mn16  1  0.89942200  0.20120100  0.84911700  1
  Mn  Mn17  1  0.00407800  0.29896200  0.54783100  1
  Mn  Mn18  1  0.70103800  0.99592200  0.45216900  1
  O  O19  1  0.02406600  0.88876300  0.91338400  1
  O  O20  1  0.38770500  0.79873700  0.70277000  1
  O  O21  1  0.61940900  0.80289600  0.39369400  1
  O  O22  1  0.80915700  0.98291800  0.80137000  1
  O  O23  1  0.15398200  0.94103800  0.59629300  1
  O  O24  1  0.05896200  0.84601800  0.40370700  1
  O  O25  1  0.11123700  0.97593400  0.08661600  1
  O  O26  1  0.71655900  0.57204300  0.28744700  1
  O  O27  1  0.88883200  0.62396500  0.01354700  1
  O  O28  1  0.91747600  0.76944100  0.68769800  1
  O  O29  1  0.20126300  0.61229500  0.29723000  1
  O  O30  1  0.62441800  0.48813300  0.11351800  1
  O  O31  1  0.98347200  0.41316300  0.90095500  1
  O  O32  1  0.42795700  0.28344100  0.71255300  1
  O  O33  1  0.82839600  0.68144300  0.50917400  1
  O  O34  1  0.57051200  0.31662500  0.38827300  1
  O  O35  1  0.97508900  0.71347300  0.18713300  1
  O  O36  1  0.41559500  0.58440500  0.00000000  1
  O  O37  1  0.77467500  0.51509900  0.78738700  1
  O  O38  1  0.19710400  0.38059100  0.60630600  1
  O  O39  1  0.48490100  0.22532500  0.21261300  1
  O  O40  1  0.51186700  0.37558200  0.88648200  1
  O  O41  1  0.28652700  0.02491100  0.81286700  1
  O  O42  1  0.68337500  0.42948800  0.61172700  1
  O  O43  1  0.31855700  0.17160400  0.49082600  1
  O  O44  1  0.23055900  0.08252400  0.31230200  1
  O  O45  1  0.58683700  0.01652800  0.09904500  1
  O  O46  1  0.80173900  0.19826100  0.50000000  1
  O  O47  1  0.01708200  0.19084300  0.19863000  1
  O  O48  1  0.37603500  0.11116800  0.98645300  1
