# generated using pymatgen
data_Sr5Nb5O16
_symmetry_space_group_name_H-M   'P 1'
_cell_length_a   4.04835200
_cell_length_b   5.74999900
_cell_length_c   33.20085300
_cell_angle_alpha   90.00000000
_cell_angle_beta   90.00000000
_cell_angle_gamma   90.00000000
_symmetry_Int_Tables_number   1
_chemical_formula_structural   Sr5Nb5O16
_chemical_formula_sum   'Sr10 Nb10 O32'
_cell_volume   772.85011855
_cell_formula_units_Z   2
loop_
 _symmetry_equiv_pos_site_id
 _symmetry_equiv_pos_as_xyz
  1  'x, y, z'
loop_
 _atom_site_type_symbol
 _atom_site_label
 _atom_site_symmetry_multiplicity
 _atom_site_fract_x
 _atom_site_fract_y
 _atom_site_fract_z
 _atom_site_occupancy
  Sr  Sr0  1  0.00000000  0.02369300  0.52968800  1
  Sr  Sr1  1  0.00000000  0.07481100  0.75140200  1
  Sr  Sr2  1  0.00000000  0.56943000  0.66469500  1
  Sr  Sr3  1  0.00000000  0.56490300  0.84185900  1
  Sr  Sr4  1  0.00000000  0.12927700  0.96763600  1
  Sr  Sr5  1  0.50000000  0.62927700  0.03236400  1
  Sr  Sr6  1  0.50000000  0.06490300  0.15814100  1
  Sr  Sr7  1  0.50000000  0.57481100  0.24859800  1
  Sr  Sr8  1  0.50000000  0.06943000  0.33530500  1
  Sr  Sr9  1  0.50000000  0.52369300  0.47031200  1
  Nb  Nb10  1  0.00000000  0.09951900  0.07295700  1
  Nb  Nb11  1  0.00000000  0.57486400  0.15933500  1
  Nb  Nb12  1  0.00000000  0.07416100  0.24806600  1
  Nb  Nb13  1  0.00000000  0.04507300  0.42348400  1
  Nb  Nb14  1  0.00000000  0.56438200  0.33803300  1
  Nb  Nb15  1  0.50000000  0.54507300  0.57651600  1
  Nb  Nb16  1  0.50000000  0.06438200  0.66196700  1
  Nb  Nb17  1  0.50000000  0.57416100  0.75193400  1
  Nb  Nb18  1  0.50000000  0.07486400  0.84066500  1
  Nb  Nb19  1  0.50000000  0.59951900  0.92704300  1
  O  O20  1  0.00000000  0.36327400  0.04017000  1
  O  O21  1  0.00000000  0.27893200  0.12899000  1
  O  O22  1  0.00000000  0.88013300  0.02979200  1
  O  O23  1  0.00000000  0.79914400  0.11744900  1
  O  O24  1  0.00000000  0.36246100  0.21291500  1
  O  O25  1  0.00000000  0.29685000  0.29659500  1
  O  O26  1  0.00000000  0.85450000  0.20068000  1
  O  O27  1  0.00000000  0.32822500  0.38104800  1
  O  O28  1  0.00000000  0.79454200  0.28660400  1
  O  O29  1  0.00000000  0.26443600  0.46654500  1
  O  O30  1  0.00000000  0.86479600  0.37044200  1
  O  O31  1  0.00000000  0.78545700  0.45821600  1
  O  O32  1  0.00000000  0.07444900  0.66610700  1
  O  O33  1  0.00000000  0.06661400  0.83440000  1
  O  O34  1  0.00000000  0.57367400  0.75157000  1
  O  O35  1  0.00000000  0.57302900  0.91965500  1
  O  O36  1  0.50000000  0.07302900  0.08034500  1
  O  O37  1  0.50000000  0.56661400  0.16560000  1
  O  O38  1  0.50000000  0.07367400  0.24843000  1
  O  O39  1  0.50000000  0.57444900  0.33389300  1
  O  O40  1  0.50000000  0.28545700  0.54178400  1
  O  O41  1  0.50000000  0.76443600  0.53345500  1
  O  O42  1  0.50000000  0.29454200  0.71339600  1
  O  O43  1  0.50000000  0.82822500  0.61895200  1
  O  O44  1  0.50000000  0.36479600  0.62955800  1
  O  O45  1  0.50000000  0.79685000  0.70340500  1
  O  O46  1  0.50000000  0.86246100  0.78708500  1
  O  O47  1  0.50000000  0.35450000  0.79932000  1
  O  O48  1  0.50000000  0.29914400  0.88255100  1
  O  O49  1  0.50000000  0.77893200  0.87101000  1
  O  O50  1  0.50000000  0.38013300  0.97020800  1
  O  O51  1  0.50000000  0.86327400  0.95983000  1
