# generated using pymatgen
data_Mn6O5F7
_symmetry_space_group_name_H-M   'P 1'
_cell_length_a   5.12678700
_cell_length_b   5.79640676
_cell_length_c   14.47441373
_cell_angle_alpha   93.20005926
_cell_angle_beta   91.94610287
_cell_angle_gamma   89.94406244
_symmetry_Int_Tables_number   1
_chemical_formula_structural   Mn6O5F7
_chemical_formula_sum   'Mn12 O10 F14'
_cell_volume   429.21672675
_cell_formula_units_Z   2
loop_
 _symmetry_equiv_pos_site_id
 _symmetry_equiv_pos_as_xyz
  1  'x, y, z'
loop_
 _atom_site_type_symbol
 _atom_site_label
 _atom_site_symmetry_multiplicity
 _atom_site_fract_x
 _atom_site_fract_y
 _atom_site_fract_z
 _atom_site_occupancy
  Mn  Mn0  1  0.97029000  0.87975400  0.00522700  1
  Mn  Mn1  1  0.48191200  0.16088900  0.16821700  1
  Mn  Mn2  1  0.98386000  0.92236500  0.33021800  1
  Mn  Mn3  1  0.53428700  0.09615200  0.49866200  1
  Mn  Mn4  1  0.02635400  0.87429600  0.66697500  1
  Mn  Mn5  1  0.46381800  0.93208000  0.83122300  1
  Mn  Mn6  1  0.98170700  0.44846000  0.16818900  1
  Mn  Mn7  1  0.43846900  0.56818000  0.01030200  1
  Mn  Mn8  1  0.54479700  0.58206300  0.66023800  1
  Mn  Mn9  1  0.04974600  0.42326100  0.50709400  1
  Mn  Mn10  1  0.51839700  0.62474700  0.32486900  1
  Mn  Mn11  1  0.02667900  0.44948800  0.82523700  1
  O  O12  1  0.68295600  0.87621800  0.40207400  1
  O  O13  1  0.25662300  0.78391400  0.92894100  1
  O  O14  1  0.71754200  0.82936300  0.73647100  1
  O  O15  1  0.13712800  0.65240200  0.08144700  1
  O  O16  1  0.82432400  0.67062300  0.25628300  1
  O  O17  1  0.87448700  0.62642300  0.59231600  1
  O  O18  1  0.23929300  0.67519400  0.73943600  1
  O  O19  1  0.36930300  0.37115100  0.57169100  1
  O  O20  1  0.31589700  0.40784200  0.23896900  1
  O  O21  1  0.65093600  0.38822900  0.09837700  1
  F  F22  1  0.31102600  0.92632500  0.25217500  1
  F  F23  1  0.64595200  0.90484400  0.08582600  1
  F  F24  1  0.34242300  0.87190000  0.58240200  1
  F  F25  1  0.74565300  0.59011600  0.92979200  1
  F  F26  1  0.21263100  0.64694300  0.40480800  1
  F  F27  1  0.28387000  0.30261900  0.91759600  1
  F  F28  1  0.72101600  0.37907800  0.42896500  1
  F  F29  1  0.69119300  0.35125400  0.75291500  1
  F  F30  1  0.17331100  0.15017400  0.42024100  1
  F  F31  1  0.12889900  0.16232200  0.08966300  1
  F  F32  1  0.17599100  0.12267500  0.74899200  1
  F  F33  1  0.87414100  0.10838800  0.58208300  1
  F  F34  1  0.77212200  0.05504800  0.91351400  1
  F  F35  1  0.83296500  0.18522300  0.24857600  1
