# generated using pymatgen
data_TaAlO4
_symmetry_space_group_name_H-M   'P 1'
_cell_length_a   5.50194449
_cell_length_b   5.50194449
_cell_length_c   5.50194449
_cell_angle_alpha   107.10388662
_cell_angle_beta   107.10388662
_cell_angle_gamma   114.31730937
_symmetry_Int_Tables_number   1
_chemical_formula_structural   TaAlO4
_chemical_formula_sum   'Ta2 Al2 O8'
_cell_volume   127.51754341
_cell_formula_units_Z   2
loop_
 _symmetry_equiv_pos_site_id
 _symmetry_equiv_pos_as_xyz
  1  'x, y, z'
loop_
 _atom_site_type_symbol
 _atom_site_label
 _atom_site_symmetry_multiplicity
 _atom_site_fract_x
 _atom_site_fract_y
 _atom_site_fract_z
 _atom_site_occupancy
  Ta  Ta0  1  0.26173300  0.76173300  0.50000000  1
  Ta  Ta1  1  0.01173300  0.01173300  0.00000000  1
  Al  Al2  1  0.75138500  0.25138500  0.50000000  1
  Al  Al3  1  0.50138500  0.50138500  0.00000000  1
  O  O4  1  0.93386000  0.74025900  0.19360100  1
  O  O5  1  0.45275600  0.25318200  0.19957400  1
  O  O6  1  0.99025900  0.29665900  0.30639900  1
  O  O7  1  0.50318200  0.80360700  0.30042600  1
  O  O8  1  0.99025900  0.68386000  0.69360100  1
  O  O9  1  0.50318200  0.20275600  0.69957400  1
  O  O10  1  0.05360700  0.25318200  0.80042600  1
  O  O11  1  0.54665900  0.74025900  0.80639900  1
