# generated using pymatgen
data_NaV4O10
_symmetry_space_group_name_H-M   'P 1'
_cell_length_a   8.35465000
_cell_length_b   10.63516190
_cell_length_c   14.58207786
_cell_angle_alpha   89.98684945
_cell_angle_beta   102.53799371
_cell_angle_gamma   105.82449954
_symmetry_Int_Tables_number   1
_chemical_formula_structural   NaV4O10
_chemical_formula_sum   'Na6 V24 O60'
_cell_volume   1214.42991721
_cell_formula_units_Z   6
loop_
 _symmetry_equiv_pos_site_id
 _symmetry_equiv_pos_as_xyz
  1  'x, y, z'
loop_
 _atom_site_type_symbol
 _atom_site_label
 _atom_site_symmetry_multiplicity
 _atom_site_fract_x
 _atom_site_fract_y
 _atom_site_fract_z
 _atom_site_occupancy
  Na  Na0  1  0.89961400  0.66239800  0.49431600  1
  Na  Na1  1  0.89693300  0.66244300  0.97680100  1
  Na  Na2  1  0.89025200  0.66692100  0.23627400  1
  Na  Na3  1  0.10038600  0.33760200  0.50568400  1
  Na  Na4  1  0.10974800  0.33307900  0.76372600  1
  Na  Na5  1  0.10306700  0.33755700  0.02319900  1
  V  V6  1  0.35065600  0.89601000  0.54274500  1
  V  V7  1  0.33031800  0.89128100  0.79169600  1
  V  V8  1  0.34661400  0.89747500  0.04465800  1
  V  V9  1  0.34632500  0.89024100  0.29379500  1
  V  V10  1  0.75411100  0.88894000  0.09275600  1
  V  V11  1  0.76709000  0.89642800  0.59768800  1
  V  V12  1  0.78716100  0.90908800  0.34921000  1
  V  V13  1  0.79308900  0.91104000  0.84818500  1
  V  V14  1  0.44047200  0.60141000  0.80477600  1
  V  V15  1  0.43895200  0.59553300  0.05499500  1
  V  V16  1  0.43697600  0.59451700  0.55508000  1
  V  V17  1  0.43158300  0.59019200  0.30285900  1
  V  V18  1  0.56302400  0.40548300  0.44492000  1
  V  V19  1  0.56841700  0.40980800  0.69714100  1
  V  V20  1  0.55952800  0.39859000  0.19522400  1
  V  V21  1  0.56104800  0.40446700  0.94500500  1
  V  V22  1  0.23291000  0.10357200  0.40231200  1
  V  V23  1  0.21283900  0.09091200  0.65079000  1
  V  V24  1  0.24588900  0.11106000  0.90724400  1
  V  V25  1  0.20691100  0.08896000  0.15181500  1
  V  V26  1  0.66968200  0.10871900  0.20830400  1
  V  V27  1  0.65338600  0.10252500  0.95534200  1
  V  V28  1  0.65367500  0.10975900  0.70620500  1
  V  V29  1  0.64934400  0.10399000  0.45725500  1
  O  O30  1  0.36630600  0.95126600  0.67042200  1
  O  O31  1  0.38469600  0.95209700  0.42170300  1
  O  O32  1  0.37284500  0.95124100  0.91992700  1
  O  O33  1  0.37170900  0.94930600  0.17526500  1
  O  O34  1  0.16234500  0.79152400  0.51424400  1
  O  O35  1  0.16129200  0.78953500  0.02146600  1
  O  O36  1  0.15621000  0.78852300  0.27367800  1
  O  O37  1  0.14350000  0.78833400  0.77020300  1
  O  O38  1  0.73076500  0.93742200  0.96197400  1
  O  O39  1  0.73387600  0.93486600  0.46861100  1
  O  O40  1  0.73755200  0.93855400  0.71483700  1
  O  O41  1  0.74209300  0.93567200  0.22241300  1
  O  O42  1  0.49060400  0.79158800  0.56228200  1
  O  O43  1  0.46693900  0.77982900  0.80668700  1
  O  O44  1  0.48967700  0.79253500  0.06177300  1
  O  O45  1  0.47552800  0.77642400  0.30952700  1
  O  O46  1  0.78764800  0.74760700  0.60103100  1
  O  O47  1  0.78912400  0.75515200  0.84734800  1
  O  O48  1  0.78401200  0.73882600  0.09468700  1
  O  O49  1  0.79793900  0.75508500  0.35308100  1
  O  O50  1  0.23273900  0.54745300  0.78034600  1
  O  O51  1  0.22922100  0.55196700  0.02636000  1
  O  O52  1  0.22537000  0.54065500  0.27754400  1
  O  O53  1  0.22750300  0.55099100  0.52942600  1
  O  O54  1  0.50866000  0.58016500  0.93391900  1
  O  O55  1  0.50588000  0.58251500  0.69199500  1
  O  O56  1  0.50312000  0.57737300  0.43363200  1
  O  O57  1  0.50602900  0.58122300  0.19223600  1
  O  O58  1  0.49688000  0.42262700  0.56636800  1
  O  O59  1  0.49397100  0.41877700  0.80776400  1
  O  O60  1  0.49134000  0.41983500  0.06608100  1
  O  O61  1  0.49412000  0.41748500  0.30800500  1
  O  O62  1  0.77463000  0.45934500  0.72245600  1
  O  O63  1  0.77249700  0.44900900  0.47057400  1
  O  O64  1  0.76726100  0.45254700  0.21965400  1
  O  O65  1  0.77077900  0.44803300  0.97364000  1
  O  O66  1  0.21235200  0.25239300  0.39896900  1
  O  O67  1  0.21087600  0.24484800  0.15265200  1
  O  O68  1  0.21598800  0.26117400  0.90531300  1
  O  O69  1  0.20206100  0.24491500  0.64691900  1
  O  O70  1  0.52447200  0.22357600  0.69047300  1
  O  O71  1  0.51032300  0.20746500  0.93822700  1
  O  O72  1  0.50939600  0.20841200  0.43771800  1
  O  O73  1  0.53306100  0.22017100  0.19331300  1
  O  O74  1  0.26612400  0.06513400  0.53138900  1
  O  O75  1  0.25790700  0.06432800  0.77758700  1
  O  O76  1  0.26923500  0.06257800  0.03802600  1
  O  O77  1  0.26244800  0.06144600  0.28516300  1
  O  O78  1  0.84379000  0.21147700  0.72632200  1
  O  O79  1  0.83870800  0.21046500  0.97853400  1
  O  O80  1  0.85650000  0.21166600  0.22979700  1
  O  O81  1  0.83765500  0.20847600  0.48575600  1
  O  O82  1  0.99537500  0.99600100  0.62145500  1
  O  O83  1  0.00457400  0.00029300  0.87558700  1
  O  O84  1  0.00462500  0.00399900  0.37854500  1
  O  O85  1  0.99542600  0.99970700  0.12441300  1
  O  O86  1  0.62715500  0.04875900  0.08007300  1
  O  O87  1  0.61530400  0.04790300  0.57829700  1
  O  O88  1  0.62829100  0.05069400  0.82473500  1
  O  O89  1  0.63369400  0.04873400  0.32957800  1
