# generated using pymatgen
data_Li4Ti3VO8
_symmetry_space_group_name_H-M   'P 1'
_cell_length_a   6.03633305
_cell_length_b   6.03633305
_cell_length_c   6.03633276
_cell_angle_alpha   58.64900169
_cell_angle_beta   58.64900169
_cell_angle_gamma   58.64899657
_symmetry_Int_Tables_number   1
_chemical_formula_structural   Li4Ti3VO8
_chemical_formula_sum   'Li4 Ti3 V1 O8'
_cell_volume   150.72400774
_cell_formula_units_Z   1
loop_
 _symmetry_equiv_pos_site_id
 _symmetry_equiv_pos_as_xyz
  1  'x, y, z'
loop_
 _atom_site_type_symbol
 _atom_site_label
 _atom_site_symmetry_multiplicity
 _atom_site_fract_x
 _atom_site_fract_y
 _atom_site_fract_z
 _atom_site_occupancy
  Li  Li0  1  0.50000000  0.50000000  0.00000000  1
  Li  Li1  1  0.00000000  0.50000000  0.50000000  1
  Li  Li2  1  0.50000000  0.00000000  0.50000000  1
  Li  Li3  1  0.00000000  0.00000000  0.00000000  1
  Ti  Ti4  1  0.50000000  0.00000000  0.00000000  1
  Ti  Ti5  1  0.00000000  0.00000000  0.50000000  1
  Ti  Ti6  1  0.00000000  0.50000000  0.00000000  1
  V  V7  1  0.50000000  0.50000000  0.50000000  1
  O  O8  1  0.24948300  0.76681100  0.24948300  1
  O  O9  1  0.75051700  0.75051700  0.23318900  1
  O  O10  1  0.24483100  0.24483100  0.24483100  1
  O  O11  1  0.76681100  0.24948300  0.24948300  1
  O  O12  1  0.23318900  0.75051700  0.75051700  1
  O  O13  1  0.24948300  0.24948300  0.76681100  1
  O  O14  1  0.75051700  0.23318900  0.75051700  1
  O  O15  1  0.75516900  0.75516900  0.75516900  1
