# generated using pymatgen
data_VF5
_symmetry_space_group_name_H-M   'P 1'
_cell_length_a   18.17793700
_cell_length_b   5.34282200
_cell_length_c   9.43007591
_cell_angle_alpha   55.58543140
_cell_angle_beta   90.00000000
_cell_angle_gamma   90.00000000
_symmetry_Int_Tables_number   1
_chemical_formula_structural   VF5
_chemical_formula_sum   'V8 F40'
_cell_volume   755.55928643
_cell_formula_units_Z   8
loop_
 _symmetry_equiv_pos_site_id
 _symmetry_equiv_pos_as_xyz
  1  'x, y, z'
loop_
 _atom_site_type_symbol
 _atom_site_label
 _atom_site_symmetry_multiplicity
 _atom_site_fract_x
 _atom_site_fract_y
 _atom_site_fract_z
 _atom_site_occupancy
  V  V0  1  0.12101700  0.11604800  0.12130900  1
  V  V1  1  0.37507000  0.26529600  0.97319500  1
  V  V2  1  0.62101700  0.88395200  0.37869100  1
  V  V3  1  0.87507000  0.73470400  0.52680500  1
  V  V4  1  0.12493000  0.26529600  0.47319500  1
  V  V5  1  0.37898300  0.11604800  0.62130900  1
  V  V6  1  0.62493000  0.73470400  0.02680500  1
  V  V7  1  0.87898300  0.88395200  0.87869100  1
  F  F8  1  0.35529600  0.49661700  0.52383300  1
  F  F9  1  0.14951600  0.45707500  0.56674900  1
  F  F10  1  0.13696100  0.11281200  0.94064600  1
  F  F11  1  0.35671400  0.90286200  0.15233000  1
  F  F12  1  0.59743100  0.88831400  0.16461800  1
  F  F13  1  0.90402400  0.31517500  0.74101400  1
  F  F14  1  0.28938800  0.33469800  0.86721800  1
  F  F15  1  0.20813000  0.97997800  0.22078300  1
  F  F16  1  0.52491200  0.82806700  0.40740400  1
  F  F17  1  0.97039100  0.74688500  0.48943400  1
  F  F18  1  0.47039100  0.25311500  0.01056600  1
  F  F19  1  0.02491200  0.17193300  0.09259600  1
  F  F20  1  0.70813000  0.02002200  0.27921700  1
  F  F21  1  0.78938800  0.66530200  0.63278200  1
  F  F22  1  0.40402400  0.68482500  0.75898600  1
  F  F23  1  0.09743100  0.11168600  0.33538200  1
  F  F24  1  0.85671400  0.09713800  0.34767000  1
  F  F25  1  0.63696100  0.88718800  0.55935400  1
  F  F26  1  0.64951600  0.54292500  0.93325100  1
  F  F27  1  0.85529600  0.50338300  0.97616700  1
  F  F28  1  0.14470400  0.49661700  0.02383300  1
  F  F29  1  0.35048400  0.45707500  0.06674900  1
  F  F30  1  0.36303900  0.11281200  0.44064600  1
  F  F31  1  0.14328600  0.90286200  0.65233000  1
  F  F32  1  0.90256900  0.88831400  0.66461800  1
  F  F33  1  0.59597600  0.31517500  0.24101400  1
  F  F34  1  0.21061200  0.33469800  0.36721800  1
  F  F35  1  0.29187000  0.97997800  0.72078300  1
  F  F36  1  0.97508800  0.82806700  0.90740400  1
  F  F37  1  0.52960900  0.74688500  0.98943400  1
  F  F38  1  0.02960900  0.25311500  0.51056600  1
  F  F39  1  0.47508800  0.17193300  0.59259600  1
  F  F40  1  0.79187000  0.02002200  0.77921700  1
  F  F41  1  0.71061200  0.66530200  0.13278200  1
  F  F42  1  0.09597600  0.68482500  0.25898600  1
  F  F43  1  0.40256900  0.11168600  0.83538200  1
  F  F44  1  0.64328600  0.09713800  0.84767000  1
  F  F45  1  0.86303900  0.88718800  0.05935400  1
  F  F46  1  0.85048400  0.54292500  0.43325100  1
  F  F47  1  0.64470400  0.50338300  0.47616700  1
