# generated using pymatgen
data_VF5
_symmetry_space_group_name_H-M   'P 1'
_cell_length_a   7.80584700
_cell_length_b   9.30640600
_cell_length_c   13.58852189
_cell_angle_alpha   51.39771538
_cell_angle_beta   90.00000000
_cell_angle_gamma   90.00000000
_symmetry_Int_Tables_number   1
_chemical_formula_structural   VF5
_chemical_formula_sum   'V8 F40'
_cell_volume   771.43756404
_cell_formula_units_Z   8
loop_
 _symmetry_equiv_pos_site_id
 _symmetry_equiv_pos_as_xyz
  1  'x, y, z'
loop_
 _atom_site_type_symbol
 _atom_site_label
 _atom_site_symmetry_multiplicity
 _atom_site_fract_x
 _atom_site_fract_y
 _atom_site_fract_z
 _atom_site_occupancy
  V  V0  1  0.20695500  0.20243800  0.81716900  1
  V  V1  1  0.22454800  0.78219900  0.33697800  1
  V  V2  1  0.72454800  0.21780100  0.16302200  1
  V  V3  1  0.70695500  0.79756200  0.68283100  1
  V  V4  1  0.29304500  0.20243800  0.31716900  1
  V  V5  1  0.27545200  0.78219900  0.83697800  1
  V  V6  1  0.77545200  0.21780100  0.66302200  1
  V  V7  1  0.79304500  0.79756200  0.18283100  1
  F  F8  1  0.23771000  0.37977300  0.65356700  1
  F  F9  1  0.77678600  0.43628900  0.62171700  1
  F  F10  1  0.40432400  0.24104200  0.85624400  1
  F  F11  1  0.82748200  0.01077500  0.03233200  1
  F  F12  1  0.01676400  0.84428600  0.23425200  1
  F  F13  1  0.33016900  0.89856600  0.19073000  1
  F  F14  1  0.08372700  0.33025300  0.84481600  1
  F  F15  1  0.41074400  0.74874700  0.41990800  1
  F  F16  1  0.08086900  0.73659200  0.45377000  1
  F  F17  1  0.70484000  0.95530100  0.22150400  1
  F  F18  1  0.58372700  0.66974700  0.65518400  1
  F  F19  1  0.20484000  0.04469900  0.27849600  1
  F  F20  1  0.58086900  0.26340800  0.04623000  1
  F  F21  1  0.91074400  0.25125300  0.08009200  1
  F  F22  1  0.90432400  0.75895800  0.64375600  1
  F  F23  1  0.27678600  0.56371100  0.87828300  1
  F  F24  1  0.73771000  0.62022700  0.84643300  1
  F  F25  1  0.83016900  0.10143400  0.30927000  1
  F  F26  1  0.51676400  0.15571400  0.26574800  1
  F  F27  1  0.32748200  0.98922500  0.46766800  1
  F  F28  1  0.67251800  0.01077500  0.53233200  1
  F  F29  1  0.48323600  0.84428600  0.73425200  1
  F  F30  1  0.16983100  0.89856600  0.69073000  1
  F  F31  1  0.26229000  0.37977300  0.15356700  1
  F  F32  1  0.72321400  0.43628900  0.12171700  1
  F  F33  1  0.09567600  0.24104200  0.35624400  1
  F  F34  1  0.08925600  0.74874700  0.91990800  1
  F  F35  1  0.41913100  0.73659200  0.95377000  1
  F  F36  1  0.79516000  0.95530100  0.72150400  1
  F  F37  1  0.41627300  0.33025300  0.34481600  1
  F  F38  1  0.29516000  0.04469900  0.77849600  1
  F  F39  1  0.91913100  0.26340800  0.54623000  1
  F  F40  1  0.58925600  0.25125300  0.58009200  1
  F  F41  1  0.91627300  0.66974700  0.15518400  1
  F  F42  1  0.66983100  0.10143400  0.80927000  1
  F  F43  1  0.98323600  0.15571400  0.76574800  1
  F  F44  1  0.17251800  0.98922500  0.96766800  1
  F  F45  1  0.59567600  0.75895800  0.14375600  1
  F  F46  1  0.22321400  0.56371100  0.37828300  1
  F  F47  1  0.76229000  0.62022700  0.34643300  1
