# generated using pymatgen
data_Li4V3Ni3(TeO8)2
_symmetry_space_group_name_H-M   'P 1'
_cell_length_a   5.95699027
_cell_length_b   5.95699027
_cell_length_c   10.28488582
_cell_angle_alpha   89.58431904
_cell_angle_beta   89.58431904
_cell_angle_gamma   58.28552290
_symmetry_Int_Tables_number   1
_chemical_formula_structural   Li4V3Ni3(TeO8)2
_chemical_formula_sum   'Li4 V3 Ni3 Te2 O16'
_cell_volume   310.45855578
_cell_formula_units_Z   1
loop_
 _symmetry_equiv_pos_site_id
 _symmetry_equiv_pos_as_xyz
  1  'x, y, z'
loop_
 _atom_site_type_symbol
 _atom_site_label
 _atom_site_symmetry_multiplicity
 _atom_site_fract_x
 _atom_site_fract_y
 _atom_site_fract_z
 _atom_site_occupancy
  Li  Li0  1  0.65861300  0.65861300  0.90203200  1
  Li  Li1  1  0.00510500  0.00510500  0.98663200  1
  Li  Li2  1  0.00141200  0.00141200  0.49388500  1
  Li  Li3  1  0.33495800  0.33495800  0.40612800  1
  V  V4  1  0.35739900  0.83805800  0.22093400  1
  V  V5  1  0.83805800  0.35739900  0.22093400  1
  V  V6  1  0.18311700  0.18311700  0.73400800  1
  Ni  Ni7  1  0.83031000  0.83031000  0.20682100  1
  Ni  Ni8  1  0.16914000  0.65609300  0.71656100  1
  Ni  Ni9  1  0.65609300  0.16914000  0.71656100  1
  Te  Te10  1  0.66769500  0.66769500  0.51593300  1
  Te  Te11  1  0.35116700  0.35116700  0.99716600  1
  O  O12  1  0.32971500  0.83659000  0.60331000  1
  O  O13  1  0.51147700  0.51147700  0.32298400  1
  O  O14  1  0.65670700  0.65670700  0.10158700  1
  O  O15  1  0.00200700  0.00200700  0.30417500  1
  O  O16  1  0.01343200  0.01343200  0.79958100  1
  O  O17  1  0.83659000  0.32971500  0.60331000  1
  O  O18  1  0.48491800  0.98454700  0.31713500  1
  O  O19  1  0.98454700  0.48491800  0.31713500  1
  O  O20  1  0.14704700  0.14704700  0.11079500  1
  O  O21  1  0.83833300  0.83833300  0.59885300  1
  O  O22  1  0.01609700  0.47213800  0.83102500  1
  O  O23  1  0.47213800  0.01609700  0.83102500  1
  O  O24  1  0.31343700  0.31343700  0.60784200  1
  O  O25  1  0.17416300  0.68354700  0.09568000  1
  O  O26  1  0.48040900  0.48040900  0.84999700  1
  O  O27  1  0.68354700  0.17416300  0.09568000  1
