# generated using pymatgen
data_Na2CrO4
_symmetry_space_group_name_H-M   'P 1'
_cell_length_a   5.56375200
_cell_length_b   5.76456975
_cell_length_c   8.81328477
_cell_angle_alpha   83.07431096
_cell_angle_beta   73.02047543
_cell_angle_gamma   65.75508501
_symmetry_Int_Tables_number   1
_chemical_formula_structural   Na2CrO4
_chemical_formula_sum   'Na4 Cr2 O8'
_cell_volume   246.49887599
_cell_formula_units_Z   2
loop_
 _symmetry_equiv_pos_site_id
 _symmetry_equiv_pos_as_xyz
  1  'x, y, z'
loop_
 _atom_site_type_symbol
 _atom_site_label
 _atom_site_symmetry_multiplicity
 _atom_site_fract_x
 _atom_site_fract_y
 _atom_site_fract_z
 _atom_site_occupancy
  Na  Na0  1  0.59698000  0.72001700  0.14524700  1
  Na  Na1  1  0.77196700  0.24629500  0.43725100  1
  Na  Na2  1  0.22803300  0.75370500  0.56274900  1
  Na  Na3  1  0.40302000  0.27998300  0.85475300  1
  Cr  Cr4  1  0.29714200  0.29602900  0.25419800  1
  Cr  Cr5  1  0.70285800  0.70397100  0.74580200  1
  O  O6  1  0.54141000  0.18360300  0.08894500  1
  O  O7  1  0.99764500  0.46332800  0.21538100  1
  O  O8  1  0.26942700  0.04900700  0.36797500  1
  O  O9  1  0.38303500  0.47617800  0.34712700  1
  O  O10  1  0.61696500  0.52382200  0.65287300  1
  O  O11  1  0.73057300  0.95099300  0.63202500  1
  O  O12  1  0.00235500  0.53667200  0.78461900  1
  O  O13  1  0.45859000  0.81639700  0.91105500  1
