# generated using pymatgen
data_V6O5F19
_symmetry_space_group_name_H-M   'P 1'
_cell_length_a   5.39191600
_cell_length_b   5.55645265
_cell_length_c   14.85956211
_cell_angle_alpha   100.64274120
_cell_angle_beta   89.48300094
_cell_angle_gamma   92.89731271
_symmetry_Int_Tables_number   1
_chemical_formula_structural   V6O5F19
_chemical_formula_sum   'V6 O5 F19'
_cell_volume   436.97382502
_cell_formula_units_Z   1
loop_
 _symmetry_equiv_pos_site_id
 _symmetry_equiv_pos_as_xyz
  1  'x, y, z'
loop_
 _atom_site_type_symbol
 _atom_site_label
 _atom_site_symmetry_multiplicity
 _atom_site_fract_x
 _atom_site_fract_y
 _atom_site_fract_z
 _atom_site_occupancy
  V  V0  1  0.03498000  0.95347700  0.99621800  1
  V  V1  1  0.43781100  0.86020300  0.66074400  1
  V  V2  1  0.96238600  0.72474900  0.33745000  1
  V  V3  1  0.54272300  0.46496400  0.00357100  1
  V  V4  1  0.94580500  0.32016700  0.67246400  1
  V  V5  1  0.48820900  0.18177900  0.33193900  1
  O  O6  1  0.79492000  0.96570600  0.35766400  1
  O  O7  1  0.76795900  0.30008400  0.02068000  1
  O  O8  1  0.20518900  0.72040200  0.97895500  1
  O  O9  1  0.71433400  0.12412100  0.68742400  1
  O  O10  1  0.21598000  0.03751100  0.64305600  1
  F  F11  1  0.72639500  0.78705600  0.02723600  1
  F  F12  1  0.27722100  0.86971500  0.30879600  1
  F  F13  1  0.90961100  0.95687400  0.88636300  1
  F  F14  1  0.59742500  0.78434100  0.55482300  1
  F  F15  1  0.92595300  0.60782700  0.21959000  1
  F  F16  1  0.44159400  0.88407300  0.78107300  1
  F  F17  1  0.08927100  0.69543700  0.44393400  1
  F  F18  1  0.40711500  0.54742600  0.11345100  1
  F  F19  1  0.79633500  0.60569700  0.69302000  1
  F  F20  1  0.70156900  0.48518600  0.35736200  1
  F  F21  1  0.28657500  0.55295400  0.64428300  1
  F  F22  1  0.21760300  0.34377600  0.30776300  1
  F  F23  1  0.56613800  0.47851200  0.88540900  1
  F  F24  1  0.95002800  0.28699900  0.55186600  1
  F  F25  1  0.60059300  0.11071900  0.21843900  1
  F  F26  1  0.10022300  0.37264000  0.77948800  1
  F  F27  1  0.43659300  0.19657400  0.45056500  1
  F  F28  1  0.07383800  0.07697000  0.11425100  1
  F  F29  1  0.28562400  0.20405900  0.97212100  1
