# generated using pymatgen
data_Li3Fe2(SiO4)2
_symmetry_space_group_name_H-M   'P 1'
_cell_length_a   6.58835000
_cell_length_b   5.23290900
_cell_length_c   10.61690662
_cell_angle_alpha   89.41276892
_cell_angle_beta   90.00000000
_cell_angle_gamma   90.00000000
_symmetry_Int_Tables_number   1
_chemical_formula_structural   Li3Fe2(SiO4)2
_chemical_formula_sum   'Li6 Fe4 Si4 O16'
_cell_volume   366.01175369
_cell_formula_units_Z   2
loop_
 _symmetry_equiv_pos_site_id
 _symmetry_equiv_pos_as_xyz
  1  'x, y, z'
loop_
 _atom_site_type_symbol
 _atom_site_label
 _atom_site_symmetry_multiplicity
 _atom_site_fract_x
 _atom_site_fract_y
 _atom_site_fract_z
 _atom_site_occupancy
  Li  Li0  1  0.50015300  0.63295600  0.91684900  1
  Li  Li1  1  0.74818100  0.23413200  0.84115400  1
  Li  Li2  1  0.25249100  0.75750800  0.65926500  1
  Li  Li3  1  0.49984700  0.63295600  0.41684900  1
  Li  Li4  1  0.25181900  0.23413200  0.34115400  1
  Li  Li5  1  0.74750900  0.75750800  0.15926500  1
  Fe  Fe6  1  0.23248500  0.24710500  0.82701700  1
  Fe  Fe7  1  0.76744600  0.75261200  0.66648500  1
  Fe  Fe8  1  0.76751500  0.24710500  0.32701700  1
  Fe  Fe9  1  0.23255400  0.75261200  0.16648500  1
  Si  Si10  1  0.00275400  0.74857100  0.91017900  1
  Si  Si11  1  0.50845300  0.25200200  0.59242700  1
  Si  Si12  1  0.99724600  0.74857100  0.41017900  1
  Si  Si13  1  0.49154700  0.25200200  0.09242700  1
  O  O14  1  0.48239200  0.21120900  0.93667300  1
  O  O15  1  0.00132900  0.05821800  0.88445900  1
  O  O16  1  0.79166500  0.62815300  0.84443800  1
  O  O17  1  0.21025800  0.62927200  0.84195100  1
  O  O18  1  0.70183600  0.11356000  0.66560600  1
  O  O19  1  0.29871400  0.14281200  0.65572700  1
  O  O20  1  0.51863500  0.57094500  0.60902400  1
  O  O21  1  0.99947600  0.68252100  0.56302700  1
  O  O22  1  0.51760800  0.21120900  0.43667300  1
  O  O23  1  0.99867100  0.05821800  0.38445900  1
  O  O24  1  0.20833500  0.62815300  0.34443800  1
  O  O25  1  0.78974200  0.62927200  0.34195100  1
  O  O26  1  0.29816400  0.11356000  0.16560600  1
  O  O27  1  0.70128600  0.14281200  0.15572700  1
  O  O28  1  0.48136500  0.57094500  0.10902400  1
  O  O29  1  0.00052400  0.68252100  0.06302700  1
