# generated using pymatgen
data_Sr2TlPb
_symmetry_space_group_name_H-M   'P 1'
_cell_length_a   13.68686211
_cell_length_b   13.68686211
_cell_length_c   13.68686211
_cell_angle_alpha   122.35878028
_cell_angle_beta   119.23745893
_cell_angle_gamma   88.64485796
_symmetry_Int_Tables_number   1
_chemical_formula_structural   Sr2TlPb
_chemical_formula_sum   'Sr2 Tl1 Pb1'
_cell_volume   1788.87012288
_cell_formula_units_Z   1
loop_
 _symmetry_equiv_pos_site_id
 _symmetry_equiv_pos_as_xyz
  1  'x, y, z'
loop_
 _atom_site_type_symbol
 _atom_site_label
 _atom_site_symmetry_multiplicity
 _atom_site_fract_x
 _atom_site_fract_y
 _atom_site_fract_z
 _atom_site_occupancy
  Sr  Sr0  1  0.00000000  0.25141300  0.25141300  1
  Sr  Sr1  1  0.00000000  0.74858700  0.74858700  1
  Tl  Tl2  1  0.00000000  0.00000000  0.00000000  1
  Pb  Pb3  1  0.00000000  0.50000000  0.50000000  1
