# generated using pymatgen
data_Nb2CoTc
_symmetry_space_group_name_H-M   'P 1'
_cell_length_a   9.90404045
_cell_length_b   9.90404045
_cell_length_c   9.90404045
_cell_angle_alpha   127.96229926
_cell_angle_beta   116.91818206
_cell_angle_gamma   86.10888847
_symmetry_Int_Tables_number   1
_chemical_formula_structural   Nb2CoTc
_chemical_formula_sum   'Nb2 Co1 Tc1'
_cell_volume   651.57584545
_cell_formula_units_Z   1
loop_
 _symmetry_equiv_pos_site_id
 _symmetry_equiv_pos_as_xyz
  1  'x, y, z'
loop_
 _atom_site_type_symbol
 _atom_site_label
 _atom_site_symmetry_multiplicity
 _atom_site_fract_x
 _atom_site_fract_y
 _atom_site_fract_z
 _atom_site_occupancy
  Nb  Nb0  1  0.00000000  0.24697200  0.24697100  1
  Nb  Nb1  1  0.00000000  0.75302800  0.75302800  1
  Co  Co2  1  0.00000000  0.00000000  0.00000000  1
  Tc  Tc3  1  0.00000000  0.50000000  0.50000000  1
