# generated using pymatgen
data_Yb2TiO5
_symmetry_space_group_name_H-M   'P 1'
_cell_length_a   6.05389405
_cell_length_b   6.05389405
_cell_length_c   10.17403700
_cell_angle_alpha   90.00000000
_cell_angle_beta   90.00000000
_cell_angle_gamma   140.66238030
_symmetry_Int_Tables_number   1
_chemical_formula_structural   Yb2TiO5
_chemical_formula_sum   'Yb4 Ti2 O10'
_cell_volume   236.36112215
_cell_formula_units_Z   2
loop_
 _symmetry_equiv_pos_site_id
 _symmetry_equiv_pos_as_xyz
  1  'x, y, z'
loop_
 _atom_site_type_symbol
 _atom_site_label
 _atom_site_symmetry_multiplicity
 _atom_site_fract_x
 _atom_site_fract_y
 _atom_site_fract_z
 _atom_site_occupancy
  Yb  Yb0  1  0.14074200  0.85925800  0.93213500  1
  Yb  Yb1  1  0.14074200  0.85925800  0.56786500  1
  Yb  Yb2  1  0.85925800  0.14074200  0.06786500  1
  Yb  Yb3  1  0.85925800  0.14074200  0.43213500  1
  Ti  Ti4  1  0.19407100  0.80592900  0.25000000  1
  Ti  Ti5  1  0.80592900  0.19407100  0.75000000  1
  O  O6  1  0.05115900  0.94884100  0.35895100  1
  O  O7  1  0.05115900  0.94884100  0.14104900  1
  O  O8  1  0.71434600  0.28565400  0.90667200  1
  O  O9  1  0.71434600  0.28565400  0.59332800  1
  O  O10  1  0.26827200  0.73172800  0.75000000  1
  O  O11  1  0.73172800  0.26827200  0.25000000  1
  O  O12  1  0.28565400  0.71434600  0.09332800  1
  O  O13  1  0.28565400  0.71434600  0.40667200  1
  O  O14  1  0.94884100  0.05115900  0.64104900  1
  O  O15  1  0.94884100  0.05115900  0.85895100  1
