# generated using pymatgen
data_V2OF5
_symmetry_space_group_name_H-M   'P 1'
_cell_length_a   8.43354412
_cell_length_b   8.45883632
_cell_length_c   4.56902689
_cell_angle_alpha   90.45054166
_cell_angle_beta   90.25856530
_cell_angle_gamma   59.97670418
_symmetry_Int_Tables_number   1
_chemical_formula_structural   V2OF5
_chemical_formula_sum   'V6 O3 F15'
_cell_volume   282.20166322
_cell_formula_units_Z   3
loop_
 _symmetry_equiv_pos_site_id
 _symmetry_equiv_pos_as_xyz
  1  'x, y, z'
loop_
 _atom_site_type_symbol
 _atom_site_label
 _atom_site_symmetry_multiplicity
 _atom_site_fract_x
 _atom_site_fract_y
 _atom_site_fract_z
 _atom_site_occupancy
  V  V0  1  0.00593500  0.65363000  0.98278700  1
  V  V1  1  0.34005500  0.98569100  0.98433200  1
  V  V2  1  0.34068100  0.67378600  0.51701100  1
  V  V3  1  0.00663900  0.34048800  0.51743700  1
  V  V4  1  0.66272400  0.32416500  0.01846500  1
  V  V5  1  0.66271500  0.01339000  0.47963900  1
  O  O6  1  0.41215700  0.79386400  0.74924200  1
  O  O7  1  0.07730500  0.46111700  0.74983700  1
  O  O8  1  0.59226000  0.20385200  0.25103700  1
  F  F9  1  0.23391200  0.88227000  0.24885600  1
  F  F10  1  0.11934400  0.76033900  0.74951500  1
  F  F11  1  0.21076400  0.57798900  0.24894800  1
  F  F12  1  0.54711600  0.90137900  0.25086500  1
  F  F13  1  0.54455800  0.54984600  0.24814300  1
  F  F14  1  0.45272000  0.44923700  0.75134100  1
  F  F15  1  0.11848900  0.11930600  0.74846300  1
  F  F16  1  0.21390100  0.21156100  0.25218300  1
  F  F17  1  0.78708700  0.79330400  0.74736400  1
  F  F18  1  0.88174000  0.87442900  0.24917600  1
  F  F19  1  0.90332600  0.54758200  0.24748900  1
  F  F20  1  0.78248900  0.42381300  0.74526300  1
  F  F21  1  0.45586100  0.09453400  0.75187000  1
  F  F22  1  0.88134500  0.24641500  0.24921300  1
  F  F23  1  0.76915800  0.11534000  0.75126200  1
