# generated using pymatgen
data_Sr2Fe23O38
_symmetry_space_group_name_H-M   'P 1'
_cell_length_a   5.99367166
_cell_length_b   5.99267652
_cell_length_c   23.43471857
_cell_angle_alpha   90.11402515
_cell_angle_beta   89.85013580
_cell_angle_gamma   120.07025877
_symmetry_Int_Tables_number   1
_chemical_formula_structural   Sr2Fe23O38
_chemical_formula_sum   'Sr2 Fe23 O38'
_cell_volume   728.44142163
_cell_formula_units_Z   1
loop_
 _symmetry_equiv_pos_site_id
 _symmetry_equiv_pos_as_xyz
  1  'x, y, z'
loop_
 _atom_site_type_symbol
 _atom_site_label
 _atom_site_symmetry_multiplicity
 _atom_site_fract_x
 _atom_site_fract_y
 _atom_site_fract_z
 _atom_site_occupancy
  Sr  Sr0  1  0.32783600  0.66295500  0.74950300  1
  Sr  Sr1  1  0.64732100  0.32826000  0.25039500  1
  Fe  Fe2  1  0.17107500  0.83262700  0.60912400  1
  Fe  Fe3  1  0.16608300  0.83078400  0.88927400  1
  Fe  Fe4  1  0.32823400  0.66910000  0.19518700  1
  Fe  Fe5  1  0.33357400  0.66681700  0.02606500  1
  Fe  Fe6  1  0.17146100  0.33908800  0.60911200  1
  Fe  Fe7  1  0.33104200  0.66618000  0.30973700  1
  Fe  Fe8  1  0.00084500  0.99999800  0.99936700  1
  Fe  Fe9  1  0.00245100  0.00095200  0.50108200  1
  Fe  Fe10  1  0.99722700  0.99867300  0.74546800  1
  Fe  Fe11  1  0.33533800  0.66756200  0.47376700  1
  Fe  Fe12  1  0.16604800  0.33566900  0.88934300  1
  Fe  Fe13  1  0.66201900  0.83125200  0.88962500  1
  Fe  Fe14  1  0.66617200  0.83338300  0.60961000  1
  Fe  Fe15  1  0.33541000  0.16813600  0.10951400  1
  Fe  Fe16  1  0.33625800  0.16734600  0.39267700  1
  Fe  Fe17  1  0.66627000  0.33337400  0.69026000  1
  Fe  Fe18  1  0.66621300  0.33293700  0.97288100  1
  Fe  Fe19  1  0.67043900  0.33482000  0.52854000  1
  Fe  Fe20  1  0.66330400  0.33159800  0.80786600  1
  Fe  Fe21  1  0.83295700  0.66448900  0.39234100  1
  Fe  Fe22  1  0.83208800  0.66534800  0.10964300  1
  Fe  Fe23  1  0.83325600  0.16721100  0.10930700  1
  Fe  Fe24  1  0.83376800  0.16668100  0.39223300  1
  O  O25  1  0.15666600  0.84390600  0.05209000  1
  O  O26  1  0.15751300  0.84362800  0.44917900  1
  O  O27  1  0.01003500  0.50484600  0.84682900  1
  O  O28  1  0.01333300  0.50691300  0.65100700  1
  O  O29  1  0.19814500  0.81118600  0.24725500  1
  O  O30  1  0.33183000  0.66619400  0.94290600  1
  O  O31  1  0.33741900  0.66890100  0.55632200  1
  O  O32  1  0.15706400  0.31269000  0.05202100  1
  O  O33  1  0.99999700  0.00057800  0.14671800  1
  O  O34  1  0.00166100  0.99971500  0.35484800  1
  O  O35  1  0.00287200  0.00183000  0.65211900  1
  O  O36  1  0.15801800  0.31287800  0.44906900  1
  O  O37  1  0.99839300  0.99914000  0.84755400  1
  O  O38  1  0.19954100  0.39506100  0.24936800  1
  O  O39  1  0.49549400  0.98908900  0.65106500  1
  O  O40  1  0.49284700  0.98744400  0.84728200  1
  O  O41  1  0.60219700  0.79908700  0.25036800  1
  O  O42  1  0.31419100  0.15720400  0.55352800  1
  O  O43  1  0.31214900  0.15613900  0.94633300  1
  O  O44  1  0.49577400  0.50720500  0.65109900  1
  O  O45  1  0.49261300  0.50537400  0.84727500  1
  O  O46  1  0.50662300  0.49309500  0.34983800  1
  O  O47  1  0.50139800  0.49856000  0.15254500  1
  O  O48  1  0.68766200  0.84344500  0.05199600  1
  O  O49  1  0.69009200  0.84432700  0.44913900  1
  O  O50  1  0.36250100  0.18177800  0.74859200  1
  O  O51  1  0.50242400  0.00315700  0.15227200  1
  O  O52  1  0.50361700  0.00489800  0.34994500  1
  O  O53  1  0.66978800  0.33311900  0.44557700  1
  O  O54  1  0.66720500  0.33316600  0.05692400  1
  O  O55  1  0.81471000  0.63350500  0.74854800  1
  O  O56  1  0.84340300  0.68743500  0.94645400  1
  O  O57  1  0.84767000  0.69049800  0.55386700  1
  O  O58  1  0.81478200  0.18132800  0.74848300  1
  O  O59  1  0.99631300  0.49788800  0.15225200  1
  O  O60  1  0.99566700  0.49686500  0.34953700  1
  O  O61  1  0.84370900  0.15577300  0.94655000  1
  O  O62  1  0.84800200  0.15732200  0.55385900  1
