# generated using pymatgen
data_NaTiO2
_symmetry_space_group_name_H-M   'P 1'
_cell_length_a   6.23480091
_cell_length_b   6.23480091
_cell_length_c   6.23480091
_cell_angle_alpha   60.00000000
_cell_angle_beta   60.00000000
_cell_angle_gamma   60.00000000
_symmetry_Int_Tables_number   1
_chemical_formula_structural   NaTiO2
_chemical_formula_sum   'Na4 Ti4 O8'
_cell_volume   171.37709296
_cell_formula_units_Z   4
loop_
 _symmetry_equiv_pos_site_id
 _symmetry_equiv_pos_as_xyz
  1  'x, y, z'
loop_
 _atom_site_type_symbol
 _atom_site_label
 _atom_site_symmetry_multiplicity
 _atom_site_fract_x
 _atom_site_fract_y
 _atom_site_fract_z
 _atom_site_occupancy
  Na  Na0  1  0.62500000  0.62500000  0.12500000  1
  Na  Na1  1  0.62500000  0.62500000  0.62500000  1
  Na  Na2  1  0.62500000  0.12500000  0.62500000  1
  Na  Na3  1  0.12500000  0.62500000  0.62500000  1
  Ti  Ti4  1  0.62500000  0.12500000  0.12500000  1
  Ti  Ti5  1  0.12500000  0.12500000  0.12500000  1
  Ti  Ti6  1  0.12500000  0.62500000  0.12500000  1
  Ti  Ti7  1  0.12500000  0.12500000  0.62500000  1
  O  O8  1  0.91629900  0.36123400  0.36123400  1
  O  O9  1  0.88876600  0.88876600  0.33370100  1
  O  O10  1  0.36123400  0.91629900  0.36123400  1
  O  O11  1  0.36123400  0.36123400  0.36123400  1
  O  O12  1  0.88876600  0.88876600  0.88876600  1
  O  O13  1  0.88876600  0.33370100  0.88876600  1
  O  O14  1  0.36123400  0.36123400  0.91629900  1
  O  O15  1  0.33370100  0.88876600  0.88876600  1
