# generated using pymatgen
data_ZrScTl2
_symmetry_space_group_name_H-M   'P 1'
_cell_length_a   12.55655649
_cell_length_b   12.55655649
_cell_length_c   12.55655649
_cell_angle_alpha   124.21268185
_cell_angle_beta   119.62832166
_cell_angle_gamma   86.75314225
_symmetry_Int_Tables_number   1
_chemical_formula_structural   ZrScTl2
_chemical_formula_sum   'Zr1 Sc1 Tl2'
_cell_volume   1353.97435072
_cell_formula_units_Z   1
loop_
 _symmetry_equiv_pos_site_id
 _symmetry_equiv_pos_as_xyz
  1  'x, y, z'
loop_
 _atom_site_type_symbol
 _atom_site_label
 _atom_site_symmetry_multiplicity
 _atom_site_fract_x
 _atom_site_fract_y
 _atom_site_fract_z
 _atom_site_occupancy
  Zr  Zr0  1  0.00000000  0.50000000  0.50000000  1
  Sc  Sc1  1  0.00000000  0.00000000  0.00000000  1
  Tl  Tl2  1  0.00000000  0.24929100  0.24929100  1
  Tl  Tl3  1  0.00000000  0.75070900  0.75070900  1
