# generated using pymatgen
data_Ti7Sn3O20
_symmetry_space_group_name_H-M   'P 1'
_cell_length_a   4.70743188
_cell_length_b   4.70743188
_cell_length_c   15.28502000
_cell_angle_alpha   90.00000000
_cell_angle_beta   90.00000000
_cell_angle_gamma   90.00523272
_symmetry_Int_Tables_number   1
_chemical_formula_structural   Ti7Sn3O20
_chemical_formula_sum   'Ti7 Sn3 O20'
_cell_volume   338.71474093
_cell_formula_units_Z   1
loop_
 _symmetry_equiv_pos_site_id
 _symmetry_equiv_pos_as_xyz
  1  'x, y, z'
loop_
 _atom_site_type_symbol
 _atom_site_label
 _atom_site_symmetry_multiplicity
 _atom_site_fract_x
 _atom_site_fract_y
 _atom_site_fract_z
 _atom_site_occupancy
  Ti  Ti0  1  0.00000000  0.00000000  0.20166200  1
  Ti  Ti1  1  0.00000000  0.00000000  0.79833800  1
  Ti  Ti2  1  0.00000000  0.00000000  0.40305500  1
  Ti  Ti3  1  0.00000000  0.00000000  0.59694500  1
  Ti  Ti4  1  0.50000000  0.50000000  0.50000000  1
  Ti  Ti5  1  0.50000000  0.50000000  0.90062900  1
  Ti  Ti6  1  0.50000000  0.50000000  0.09937100  1
  Sn  Sn7  1  0.00000000  0.00000000  0.00000000  1
  Sn  Sn8  1  0.50000000  0.50000000  0.29967300  1
  Sn  Sn9  1  0.50000000  0.50000000  0.70032700  1
  O  O10  1  0.20026000  0.20026000  0.89522400  1
  O  O11  1  0.18689700  0.18689700  0.30143900  1
  O  O12  1  0.20026000  0.20026000  0.10477600  1
  O  O13  1  0.19354100  0.19354100  0.50000000  1
  O  O14  1  0.18689700  0.18689700  0.69856100  1
  O  O15  1  0.70066500  0.29933500  0.80434600  1
  O  O16  1  0.68687000  0.31313000  0.00000000  1
  O  O17  1  0.69934800  0.30065200  0.59465000  1
  O  O18  1  0.70066500  0.29933500  0.19565400  1
  O  O19  1  0.69934800  0.30065200  0.40535000  1
  O  O20  1  0.29933500  0.70066500  0.80434600  1
  O  O21  1  0.31313000  0.68687000  0.00000000  1
  O  O22  1  0.29933500  0.70066500  0.19565400  1
  O  O23  1  0.30065200  0.69934800  0.40535000  1
  O  O24  1  0.30065200  0.69934800  0.59465000  1
  O  O25  1  0.79974000  0.79974000  0.89522400  1
  O  O26  1  0.81310300  0.81310300  0.30143900  1
  O  O27  1  0.80645900  0.80645900  0.50000000  1
  O  O28  1  0.79974000  0.79974000  0.10477600  1
  O  O29  1  0.81310300  0.81310300  0.69856100  1
