# generated using pymatgen
data_Na3Fe2(PO4)3
_symmetry_space_group_name_H-M   'P 1'
_cell_length_a   9.03714500
_cell_length_b   8.85236700
_cell_length_c   15.33479921
_cell_angle_alpha   55.07295816
_cell_angle_beta   90.00000000
_cell_angle_gamma   90.00000000
_symmetry_Int_Tables_number   1
_chemical_formula_structural   Na3Fe2(PO4)3
_chemical_formula_sum   'Na12 Fe8 P12 O48'
_cell_volume   1005.81932118
_cell_formula_units_Z   4
loop_
 _symmetry_equiv_pos_site_id
 _symmetry_equiv_pos_as_xyz
  1  'x, y, z'
loop_
 _atom_site_type_symbol
 _atom_site_label
 _atom_site_symmetry_multiplicity
 _atom_site_fract_x
 _atom_site_fract_y
 _atom_site_fract_z
 _atom_site_occupancy
  Na  Na0  1  0.97086200  0.37011000  0.69315900  1
  Na  Na1  1  0.20858300  0.04812700  0.17104700  1
  Na  Na2  1  0.28084300  0.36113900  0.82082400  1
  Na  Na3  1  0.78084300  0.63886100  0.67917600  1
  Na  Na4  1  0.70858300  0.95187300  0.32895300  1
  Na  Na5  1  0.47086200  0.62989000  0.80684100  1
  Na  Na6  1  0.52913800  0.37011000  0.19315900  1
  Na  Na7  1  0.29141700  0.04812700  0.67104700  1
  Na  Na8  1  0.21915700  0.36113900  0.32082400  1
  Na  Na9  1  0.71915700  0.63886100  0.17917600  1
  Na  Na10  1  0.79141700  0.95187300  0.82895300  1
  Na  Na11  1  0.02913800  0.62989000  0.30684100  1
  Fe  Fe12  1  0.46217600  0.63817600  0.59968900  1
  Fe  Fe13  1  0.96217600  0.36182400  0.90031100  1
  Fe  Fe14  1  0.53937900  0.13439600  0.10329400  1
  Fe  Fe15  1  0.03937900  0.86560400  0.39670600  1
  Fe  Fe16  1  0.96062100  0.13439600  0.60329400  1
  Fe  Fe17  1  0.46062100  0.86560400  0.89670600  1
  Fe  Fe18  1  0.03782400  0.63817600  0.09968900  1
  Fe  Fe19  1  0.53782400  0.36182400  0.40031100  1
  P  P20  1  0.75261600  0.53226100  0.50041700  1
  P  P21  1  0.61696900  0.25615500  0.85036100  1
  P  P22  1  0.89253300  0.97050700  0.14532300  1
  P  P23  1  0.39253300  0.02949300  0.35467700  1
  P  P24  1  0.11696900  0.74384500  0.64963900  1
  P  P25  1  0.25261600  0.46773900  0.99958300  1
  P  P26  1  0.74738400  0.53226100  0.00041700  1
  P  P27  1  0.88303100  0.25615500  0.35036100  1
  P  P28  1  0.60746700  0.97050700  0.64532300  1
  P  P29  1  0.10746700  0.02949300  0.85467700  1
  P  P30  1  0.38303100  0.74384500  0.14963900  1
  P  P31  1  0.24738400  0.46773900  0.49958300  1
  O  O32  1  0.15167500  0.64154200  0.42756900  1
  O  O33  1  0.33309400  0.47555300  0.58431400  1
  O  O34  1  0.08403000  0.19364100  0.86420900  1
  O  O35  1  0.40899000  0.90901800  0.15659600  1
  O  O36  1  0.65082900  0.55223100  0.57490200  1
  O  O37  1  0.56975800  0.20112000  0.96123500  1
  O  O38  1  0.78348800  0.31524800  0.82769300  1
  O  O39  1  0.98678700  0.92877300  0.24205700  1
  O  O40  1  0.85167100  0.70690200  0.44013200  1
  O  O41  1  0.72586000  0.97991700  0.16707100  1
  O  O42  1  0.94962200  0.15053900  0.04608800  1
  O  O43  1  0.51848700  0.42461000  0.76782500  1
  O  O44  1  0.01848700  0.57539000  0.73217500  1
  O  O45  1  0.44962200  0.84946100  0.45391200  1
  O  O46  1  0.22586000  0.02008300  0.33292900  1
  O  O47  1  0.35167100  0.29309800  0.05986800  1
  O  O48  1  0.48678700  0.07122700  0.25794300  1
  O  O49  1  0.28348800  0.68475200  0.67230700  1
  O  O50  1  0.06975800  0.79888000  0.53876500  1
  O  O51  1  0.15082900  0.44776900  0.92509800  1
  O  O52  1  0.58403000  0.80635900  0.63579100  1
  O  O53  1  0.90899000  0.09098200  0.34340400  1
  O  O54  1  0.83309400  0.52444700  0.91568600  1
  O  O55  1  0.65167500  0.35845800  0.07243100  1
  O  O56  1  0.34832500  0.64154200  0.92756900  1
  O  O57  1  0.16690600  0.47555300  0.08431400  1
  O  O58  1  0.09101000  0.90901800  0.65659600  1
  O  O59  1  0.41597000  0.19364100  0.36420900  1
  O  O60  1  0.84917100  0.55223100  0.07490200  1
  O  O61  1  0.93024200  0.20112000  0.46123500  1
  O  O62  1  0.71651200  0.31524800  0.32769300  1
  O  O63  1  0.51321300  0.92877300  0.74205700  1
  O  O64  1  0.64832900  0.70690200  0.94013200  1
  O  O65  1  0.77414000  0.97991700  0.66707100  1
  O  O66  1  0.55037800  0.15053900  0.54608800  1
  O  O67  1  0.98151300  0.42461000  0.26782500  1
  O  O68  1  0.48151300  0.57539000  0.23217500  1
  O  O69  1  0.05037800  0.84946100  0.95391200  1
  O  O70  1  0.27414000  0.02008300  0.83292900  1
  O  O71  1  0.14832900  0.29309800  0.55986800  1
  O  O72  1  0.01321300  0.07122700  0.75794300  1
  O  O73  1  0.21651200  0.68475200  0.17230700  1
  O  O74  1  0.43024200  0.79888000  0.03876500  1
  O  O75  1  0.34917100  0.44776900  0.42509800  1
  O  O76  1  0.59101000  0.09098200  0.84340400  1
  O  O77  1  0.91597000  0.80635900  0.13579100  1
  O  O78  1  0.66690600  0.52444700  0.41568600  1
  O  O79  1  0.84832500  0.35845800  0.57243100  1
