# generated using pymatgen
data_Na2CrO4
_symmetry_space_group_name_H-M   'P 1'
_cell_length_a   9.71780863
_cell_length_b   9.71780863
_cell_length_c   9.71780917
_cell_angle_alpha   107.55987964
_cell_angle_beta   107.55987964
_cell_angle_gamma   107.55988068
_symmetry_Int_Tables_number   1
_chemical_formula_structural   Na2CrO4
_chemical_formula_sum   'Na12 Cr6 O24'
_cell_volume   752.29904096
_cell_formula_units_Z   6
loop_
 _symmetry_equiv_pos_site_id
 _symmetry_equiv_pos_as_xyz
  1  'x, y, z'
loop_
 _atom_site_type_symbol
 _atom_site_label
 _atom_site_symmetry_multiplicity
 _atom_site_fract_x
 _atom_site_fract_y
 _atom_site_fract_z
 _atom_site_occupancy
  Na  Na0  1  0.94074000  0.11227100  0.70576900  1
  Na  Na1  1  0.88772900  0.29423100  0.05926000  1
  Na  Na2  1  0.77470200  0.37765500  0.60396600  1
  Na  Na3  1  0.29423100  0.05926000  0.88772900  1
  Na  Na4  1  0.62234500  0.39603500  0.22529800  1
  Na  Na5  1  0.39603400  0.22529800  0.62234500  1
  Na  Na6  1  0.60396500  0.77470200  0.37765500  1
  Na  Na7  1  0.37765500  0.60396600  0.77470200  1
  Na  Na8  1  0.70576900  0.94074000  0.11227100  1
  Na  Na9  1  0.22529800  0.62234500  0.39603400  1
  Na  Na10  1  0.11227100  0.70576900  0.94074000  1
  Na  Na11  1  0.05926000  0.88772900  0.29423100  1
  Cr  Cr12  1  0.44747200  0.03989700  0.26543400  1
  Cr  Cr13  1  0.96010300  0.73456600  0.55252800  1
  Cr  Cr14  1  0.73456600  0.55252800  0.96010300  1
  Cr  Cr15  1  0.26543400  0.44747200  0.03989700  1
  Cr  Cr16  1  0.03989700  0.26543400  0.44747200  1
  Cr  Cr17  1  0.55252800  0.96010300  0.73456600  1
  O  O18  1  0.91373600  0.19927900  0.25635000  1
  O  O19  1  0.93877800  0.26072500  0.55834700  1
  O  O20  1  0.74365000  0.08626400  0.80072100  1
  O  O21  1  0.44165300  0.06122200  0.73927500  1
  O  O22  1  0.51574700  0.17756200  0.45117300  1
  O  O23  1  0.85348400  0.53695600  0.86905400  1
  O  O24  1  0.46304400  0.13094600  0.14651600  1
  O  O25  1  0.73927500  0.44165300  0.06122200  1
  O  O26  1  0.82243800  0.54882700  0.48425300  1
  O  O27  1  0.54882700  0.48425300  0.82243800  1
  O  O28  1  0.80072100  0.74365000  0.08626400  1
  O  O29  1  0.13094600  0.14651600  0.46304400  1
  O  O30  1  0.86905400  0.85348400  0.53695600  1
  O  O31  1  0.19927900  0.25635000  0.91373600  1
  O  O32  1  0.45117300  0.51574700  0.17756200  1
  O  O33  1  0.17756200  0.45117300  0.51574700  1
  O  O34  1  0.26072500  0.55834700  0.93877800  1
  O  O35  1  0.53695600  0.86905400  0.85348400  1
  O  O36  1  0.14651600  0.46304400  0.13094600  1
  O  O37  1  0.48425300  0.82243800  0.54882700  1
  O  O38  1  0.55834700  0.93877800  0.26072500  1
  O  O39  1  0.25635000  0.91373600  0.19927900  1
  O  O40  1  0.06122200  0.73927500  0.44165300  1
  O  O41  1  0.08626400  0.80072100  0.74365000  1
