data_image0
_chemical_formula_structural       Os8Sc22
_chemical_formula_sum              "Os8 Sc22"
_cell_length_a       9.28932
_cell_length_b       9.28932
_cell_length_c       9.28932
_cell_angle_alpha    60
_cell_angle_beta     60
_cell_angle_gamma    60

_space_group_name_H-M_alt    "P 1"
_space_group_IT_number       1

loop_
  _space_group_symop_operation_xyz
  'x, y, z'

loop_
  _atom_site_type_symbol
  _atom_site_label
  _atom_site_symmetry_multiplicity
  _atom_site_fract_x
  _atom_site_fract_y
  _atom_site_fract_z
  _atom_site_occupancy
  Os  Os1       1.0  0.00000  0.00000  0.00000  1.0000
  Os  Os2       1.0  0.50000  0.00000  0.00000  1.0000
  Os  Os3       1.0  0.00000  0.50000  0.50000  1.0000
  Os  Os4       1.0  0.00000  0.50000  0.00000  1.0000
  Os  Os5       1.0  1.00000  1.00000  0.50000  1.0000
  Os  Os6       1.0  0.50000  0.00000  0.50000  1.0000
  Os  Os7       1.0  0.50000  0.50000  0.00000  1.0000
  Os  Os8       1.0  0.50000  0.50000  0.50000  1.0000
  Sc  Sc1       1.0  0.79900  0.20100  0.20100  1.0000
  Sc  Sc2       1.0  0.20100  0.79900  0.79900  1.0000
  Sc  Sc3       1.0  0.20100  0.79900  0.20100  1.0000
  Sc  Sc4       1.0  0.20100  0.20100  0.79900  1.0000
  Sc  Sc5       1.0  0.79900  0.20100  0.79900  1.0000
  Sc  Sc6       1.0  0.79900  0.79900  0.20100  1.0000
  Sc  Sc7       1.0  0.15500  0.15500  0.15500  1.0000
  Sc  Sc8       1.0  0.15500  0.15500  0.53600  1.0000
  Sc  Sc9       1.0  0.53600  0.15500  0.15500  1.0000
  Sc  Sc10      1.0  0.15500  0.53600  0.15500  1.0000
  Sc  Sc11      1.0  0.84500  0.84500  0.84500  1.0000
  Sc  Sc12      1.0  0.84500  0.84500  0.46400  1.0000
  Sc  Sc13      1.0  0.84500  0.46400  0.84500  1.0000
  Sc  Sc14      1.0  0.46400  0.84500  0.84500  1.0000
  Sc  Sc15      1.0  0.38200  0.38200  0.38200  1.0000
  Sc  Sc16      1.0  0.38200  0.38200  0.85300  1.0000
  Sc  Sc17      1.0  0.85300  0.38200  0.38200  1.0000
  Sc  Sc18      1.0  0.38200  0.85300  0.38200  1.0000
  Sc  Sc19      1.0  0.61800  0.61800  0.61800  1.0000
  Sc  Sc20      1.0  0.61800  0.61800  0.14700  1.0000
  Sc  Sc21      1.0  0.61800  0.14700  0.61800  1.0000
  Sc  Sc22      1.0  0.14700  0.61800  0.61800  1.0000
