# generated using pymatgen
data_WOF4
_symmetry_space_group_name_H-M   'P 1'
_cell_length_a   10.64669800
_cell_length_b   7.75180900
_cell_length_c   10.42844998
_cell_angle_alpha   68.37913618
_cell_angle_beta   90.00000000
_cell_angle_gamma   90.00000000
_symmetry_Int_Tables_number   1
_chemical_formula_structural   WOF4
_chemical_formula_sum   'W8 O8 F32'
_cell_volume   800.11732116
_cell_formula_units_Z   8
loop_
 _symmetry_equiv_pos_site_id
 _symmetry_equiv_pos_as_xyz
  1  'x, y, z'
loop_
 _atom_site_type_symbol
 _atom_site_label
 _atom_site_symmetry_multiplicity
 _atom_site_fract_x
 _atom_site_fract_y
 _atom_site_fract_z
 _atom_site_occupancy
  W  W0  1  0.40893400  0.37111400  0.83970900  1
  W  W1  1  0.90893400  0.62888600  0.66029100  1
  W  W2  1  0.85750100  0.05289200  0.07565300  1
  W  W3  1  0.35750100  0.94710800  0.42434700  1
  W  W4  1  0.64249900  0.05289200  0.57565300  1
  W  W5  1  0.14249900  0.94710800  0.92434700  1
  W  W6  1  0.09106600  0.37111400  0.33970900  1
  W  W7  1  0.59106600  0.62888600  0.16029100  1
  O  O8  1  0.04058000  0.50623300  0.73554700  1
  O  O9  1  0.54058000  0.49376700  0.76445300  1
  O  O10  1  0.29230600  0.98609100  0.26642500  1
  O  O11  1  0.79230600  0.01390900  0.23357500  1
  O  O12  1  0.20769400  0.98609100  0.76642500  1
  O  O13  1  0.70769400  0.01390900  0.73357500  1
  O  O14  1  0.45942000  0.50623300  0.23554700  1
  O  O15  1  0.95942000  0.49376700  0.26445300  1
  F  F16  1  0.20018300  0.16793900  0.95022600  1
  F  F17  1  0.73454300  0.18728100  0.95097000  1
  F  F18  1  0.31050600  0.38543300  0.68515700  1
  F  F19  1  0.80497400  0.44299600  0.63959300  1
  F  F20  1  0.94382800  0.70863200  0.46903600  1
  F  F21  1  0.44657700  0.72675800  0.45324700  1
  F  F22  1  0.55088400  0.87452400  0.14577300  1
  F  F23  1  0.02032500  0.92324500  0.12632700  1
  F  F24  1  0.30497400  0.55700400  0.86040700  1
  F  F25  1  0.81050600  0.61456700  0.81484300  1
  F  F26  1  0.23454300  0.81271900  0.54903000  1
  F  F27  1  0.70018300  0.83206100  0.54977400  1
  F  F28  1  0.55617200  0.70863200  0.96903600  1
  F  F29  1  0.05342300  0.72675800  0.95324700  1
  F  F30  1  0.94911600  0.87452400  0.64577300  1
  F  F31  1  0.47967500  0.92324500  0.62632700  1
  F  F32  1  0.52032500  0.07675500  0.37367300  1
  F  F33  1  0.05088400  0.12547600  0.35422700  1
  F  F34  1  0.94657700  0.27324200  0.04675300  1
  F  F35  1  0.44382800  0.29136800  0.03096400  1
  F  F36  1  0.29981700  0.16793900  0.45022600  1
  F  F37  1  0.76545700  0.18728100  0.45097000  1
  F  F38  1  0.18949400  0.38543300  0.18515700  1
  F  F39  1  0.69502600  0.44299600  0.13959300  1
  F  F40  1  0.97967500  0.07675500  0.87367300  1
  F  F41  1  0.44911600  0.12547600  0.85422700  1
  F  F42  1  0.55342300  0.27324200  0.54675300  1
  F  F43  1  0.05617200  0.29136800  0.53096400  1
  F  F44  1  0.19502600  0.55700400  0.36040700  1
  F  F45  1  0.68949400  0.61456700  0.31484300  1
  F  F46  1  0.26545700  0.81271900  0.04903000  1
  F  F47  1  0.79981700  0.83206100  0.04977400  1
