# generated using pymatgen
data_VOF3
_symmetry_space_group_name_H-M   'P 1'
_cell_length_a   6.38242700
_cell_length_b   6.41910100
_cell_length_c   10.78271376
_cell_angle_alpha   67.33637657
_cell_angle_beta   90.00000000
_cell_angle_gamma   90.00000000
_symmetry_Int_Tables_number   1
_chemical_formula_structural   VOF3
_chemical_formula_sum   'V4 O4 F12'
_cell_volume   407.65022403
_cell_formula_units_Z   4
loop_
 _symmetry_equiv_pos_site_id
 _symmetry_equiv_pos_as_xyz
  1  'x, y, z'
loop_
 _atom_site_type_symbol
 _atom_site_label
 _atom_site_symmetry_multiplicity
 _atom_site_fract_x
 _atom_site_fract_y
 _atom_site_fract_z
 _atom_site_occupancy
  V  V0  1  0.50595800  0.90857400  0.99787300  1
  V  V1  1  0.97671300  0.39999100  0.00036100  1
  V  V2  1  0.49404200  0.90857400  0.49787300  1
  V  V3  1  0.02328700  0.39999100  0.50036100  1
  O  O4  1  0.09201400  0.43049800  0.12409900  1
  O  O5  1  0.38071700  0.74770300  0.94071300  1
  O  O6  1  0.61928300  0.74770300  0.44071300  1
  O  O7  1  0.90798600  0.43049800  0.62409900  1
  F  F8  1  0.06680300  0.66279400  0.36994900  1
  F  F9  1  0.74337500  0.77090600  0.06467300  1
  F  F10  1  0.56019200  0.15932100  0.85935500  1
  F  F11  1  0.26032000  0.25570100  0.56330700  1
  F  F12  1  0.86280000  0.23672700  0.43880500  1
  F  F13  1  0.43980800  0.15932100  0.35935500  1
  F  F14  1  0.73968000  0.25570100  0.06330700  1
  F  F15  1  0.63660300  0.92453800  0.63360700  1
  F  F16  1  0.93319700  0.66279400  0.86994900  1
  F  F17  1  0.25662500  0.77090600  0.56467300  1
  F  F18  1  0.36339700  0.92453800  0.13360700  1
  F  F19  1  0.13720000  0.23672700  0.93880500  1
