# generated using pymatgen
data_Na4Ti7O16
_symmetry_space_group_name_H-M   'P 1'
_cell_length_a   6.03373400
_cell_length_b   5.51814500
_cell_length_c   9.58328672
_cell_angle_alpha   88.77096210
_cell_angle_beta   90.00000000
_cell_angle_gamma   90.00000000
_symmetry_Int_Tables_number   1
_chemical_formula_structural   Na4Ti7O16
_chemical_formula_sum   'Na4 Ti7 O16'
_cell_volume   319.00230822
_cell_formula_units_Z   1
loop_
 _symmetry_equiv_pos_site_id
 _symmetry_equiv_pos_as_xyz
  1  'x, y, z'
loop_
 _atom_site_type_symbol
 _atom_site_label
 _atom_site_symmetry_multiplicity
 _atom_site_fract_x
 _atom_site_fract_y
 _atom_site_fract_z
 _atom_site_occupancy
  Na  Na0  1  0.50000000  0.56647000  0.96007900  1
  Na  Na1  1  0.50000000  0.52674200  0.65466600  1
  Na  Na2  1  0.25660600  0.04447400  0.54438000  1
  Na  Na3  1  0.74339400  0.04447400  0.54438000  1
  Ti  Ti4  1  0.00000000  0.95767200  0.13592900  1
  Ti  Ti5  1  0.50000000  0.99411900  0.15942100  1
  Ti  Ti6  1  0.00000000  0.54253600  0.65081700  1
  Ti  Ti7  1  0.24839700  0.48158100  0.36050000  1
  Ti  Ti8  1  0.75160300  0.48158100  0.36050000  1
  Ti  Ti9  1  0.25291000  0.04803900  0.86230900  1
  Ti  Ti10  1  0.74709000  0.04803900  0.86230900  1
  O  O11  1  0.00000000  0.82546100  0.76587700  1
  O  O12  1  0.50000000  0.88037300  0.77433700  1
  O  O13  1  0.25314700  0.82894800  0.04063800  1
  O  O14  1  0.74685300  0.82894800  0.04063800  1
  O  O15  1  0.77585400  0.66159800  0.52389600  1
  O  O16  1  0.22414600  0.66159800  0.52389600  1
  O  O17  1  0.50000000  0.68565300  0.27249700  1
  O  O18  1  0.00000000  0.66190900  0.26398300  1
  O  O19  1  0.21768800  0.30542800  0.73552600  1
  O  O20  1  0.78231200  0.30542800  0.73552600  1
  O  O21  1  0.00000000  0.30395500  0.45241700  1
  O  O22  1  0.50000000  0.31098200  0.43915400  1
  O  O23  1  0.50000000  0.18467900  0.97011500  1
  O  O24  1  0.00000000  0.17214000  0.96916700  1
  O  O25  1  0.24884700  0.16064400  0.22795700  1
  O  O26  1  0.75115300  0.16064400  0.22795700  1
