# generated using pymatgen
data_U6O11
_symmetry_space_group_name_H-M   'P 1'
_cell_length_a   6.66172553
_cell_length_b   6.66172553
_cell_length_c   6.66442667
_cell_angle_alpha   80.41095915
_cell_angle_beta   80.41095915
_cell_angle_gamma   119.98821651
_symmetry_Int_Tables_number   1
_chemical_formula_structural   U6O11
_chemical_formula_sum   'U6 O11'
_cell_volume   241.53496902
_cell_formula_units_Z   1
loop_
 _symmetry_equiv_pos_site_id
 _symmetry_equiv_pos_as_xyz
  1  'x, y, z'
loop_
 _atom_site_type_symbol
 _atom_site_label
 _atom_site_symmetry_multiplicity
 _atom_site_fract_x
 _atom_site_fract_y
 _atom_site_fract_z
 _atom_site_occupancy
  U  U0  1  0.16664700  0.83434100  0.49762400  1
  U  U1  1  0.83434100  0.16664700  0.49762400  1
  U  U2  1  0.31827200  0.66961600  0.99660500  1
  U  U3  1  0.01484500  0.01484500  0.99608900  1
  U  U4  1  0.49616600  0.49616600  0.51458300  1
  U  U5  1  0.66961600  0.31827200  0.99660500  1
  O  O6  1  0.45381800  0.79726700  0.62496900  1
  O  O7  1  0.02310100  0.70422000  0.88688600  1
  O  O8  1  0.70422000  0.02310100  0.88688600  1
  O  O9  1  0.79726700  0.45381800  0.62496900  1
  O  O10  1  0.86271000  0.86271000  0.36530800  1
  O  O11  1  0.29100900  0.95898200  0.12555500  1
  O  O12  1  0.22750300  0.54588500  0.36347500  1
  O  O13  1  0.38626100  0.38626100  0.88381200  1
  O  O14  1  0.54588500  0.22750300  0.36347500  1
  O  O15  1  0.95898200  0.29100900  0.12555500  1
  O  O16  1  0.12435900  0.12435900  0.62498300  1
