# generated using pymatgen
data_Ti9SnO20
_symmetry_space_group_name_H-M   'P 1'
_cell_length_a   7.59857912
_cell_length_b   7.59857912
_cell_length_c   7.25883794
_cell_angle_alpha   85.96741131
_cell_angle_beta   85.96741131
_cell_angle_gamma   51.56466035
_symmetry_Int_Tables_number   1
_chemical_formula_structural   Ti9SnO20
_chemical_formula_sum   'Ti9 Sn1 O20'
_cell_volume   327.29332162
_cell_formula_units_Z   1
loop_
 _symmetry_equiv_pos_site_id
 _symmetry_equiv_pos_as_xyz
  1  'x, y, z'
loop_
 _atom_site_type_symbol
 _atom_site_label
 _atom_site_symmetry_multiplicity
 _atom_site_fract_x
 _atom_site_fract_y
 _atom_site_fract_z
 _atom_site_occupancy
  Ti  Ti0  1  0.29765000  0.29765000  0.69815900  1
  Ti  Ti1  1  0.29560900  0.29560900  0.20416000  1
  Ti  Ti2  1  0.70235000  0.70235000  0.30184100  1
  Ti  Ti3  1  0.50000000  0.50000000  0.50000000  1
  Ti  Ti4  1  0.70439100  0.70439100  0.79584000  1
  Ti  Ti5  1  0.09898800  0.09898800  0.40237400  1
  Ti  Ti6  1  0.90101200  0.90101200  0.59762600  1
  Ti  Ti7  1  0.10024400  0.10024400  0.90208300  1
  Ti  Ti8  1  0.89975600  0.89975600  0.09791700  1
  Sn  Sn9  1  0.50000000  0.50000000  0.00000000  1
  O  O10  1  0.60669400  0.99554500  0.69902000  1
  O  O11  1  0.99554500  0.60669400  0.69902000  1
  O  O12  1  0.39330600  0.00445500  0.30098000  1
  O  O13  1  0.63893100  0.63893100  0.55631900  1
  O  O14  1  0.76002300  0.76002300  0.04690600  1
  O  O15  1  0.56271900  0.56271900  0.25022400  1
  O  O16  1  0.16166400  0.16166400  0.64059000  1
  O  O17  1  0.36106900  0.36106900  0.44368100  1
  O  O18  1  0.00445500  0.39330600  0.30098000  1
  O  O19  1  0.80599100  0.19400900  0.50000000  1
  O  O20  1  0.40460500  0.80709600  0.89366500  1
  O  O21  1  0.80709600  0.40460500  0.89366500  1
  O  O22  1  0.19400900  0.80599100  0.50000000  1
  O  O23  1  0.59539500  0.19290400  0.10633500  1
  O  O24  1  0.23997700  0.23997700  0.95309400  1
  O  O25  1  0.83833600  0.83833600  0.35941000  1
  O  O26  1  0.43728100  0.43728100  0.74977600  1
  O  O27  1  0.03894300  0.03894300  0.15474500  1
  O  O28  1  0.96105700  0.96105700  0.84525500  1
  O  O29  1  0.19290400  0.59539500  0.10633500  1
