# generated using pymatgen
data_NaNi4H9(CO5)3
_symmetry_space_group_name_H-M   'P 1'
_cell_length_a   10.44682179
_cell_length_b   10.44682179
_cell_length_c   6.09409700
_cell_angle_alpha   90.00000000
_cell_angle_beta   90.00000000
_cell_angle_gamma   119.99999868
_symmetry_Int_Tables_number   1
_chemical_formula_structural   NaNi4H9(CO5)3
_chemical_formula_sum   'Na2 Ni8 H18 C6 O30'
_cell_volume   575.98128540
_cell_formula_units_Z   2
loop_
 _symmetry_equiv_pos_site_id
 _symmetry_equiv_pos_as_xyz
  1  'x, y, z'
loop_
 _atom_site_type_symbol
 _atom_site_label
 _atom_site_symmetry_multiplicity
 _atom_site_fract_x
 _atom_site_fract_y
 _atom_site_fract_z
 _atom_site_occupancy
  Na  Na0  1  0.00000000  0.00000000  0.36847900  1
  Na  Na1  1  0.00000000  0.00000000  0.86847900  1
  Ni  Ni2  1  0.00245000  0.51564600  0.25303000  1
  Ni  Ni3  1  0.33333300  0.66666700  0.13742400  1
  Ni  Ni4  1  0.51319600  0.99755000  0.25303000  1
  Ni  Ni5  1  0.48435400  0.48680400  0.25303000  1
  Ni  Ni6  1  0.51564600  0.51319600  0.75303000  1
  Ni  Ni7  1  0.48680400  0.00245000  0.75303000  1
  Ni  Ni8  1  0.66666700  0.33333300  0.63742400  1
  Ni  Ni9  1  0.99755000  0.48435400  0.75303000  1
  H  H10  1  0.04945200  0.79557100  0.16670300  1
  H  H11  1  0.20120800  0.93787700  0.10812100  1
  H  H12  1  0.16249300  0.71629600  0.93505500  1
  H  H13  1  0.06212300  0.26333100  0.10812100  1
  H  H14  1  0.20442900  0.25388100  0.16670300  1
  H  H15  1  0.28370400  0.44619600  0.93505500  1
  H  H16  1  0.55380400  0.83750700  0.93505500  1
  H  H17  1  0.26333100  0.20120800  0.60812100  1
  H  H18  1  0.25388100  0.04945200  0.66670300  1
  H  H19  1  0.74611900  0.95054800  0.16670300  1
  H  H20  1  0.73666900  0.79879200  0.10812100  1
  H  H21  1  0.44619600  0.16249300  0.43505500  1
  H  H22  1  0.71629600  0.55380400  0.43505500  1
  H  H23  1  0.79557100  0.74611900  0.66670300  1
  H  H24  1  0.93787700  0.73666900  0.60812100  1
  H  H25  1  0.83750700  0.28370400  0.43505500  1
  H  H26  1  0.79879200  0.06212300  0.60812100  1
  H  H27  1  0.95054800  0.20442900  0.66670300  1
  C  C28  1  0.22078000  0.78313300  0.50883700  1
  C  C29  1  0.21686700  0.43764600  0.50883700  1
  C  C30  1  0.56235400  0.77922000  0.50883700  1
  C  C31  1  0.43764600  0.22078000  0.00883700  1
  C  C32  1  0.78313300  0.56235400  0.00883700  1
  C  C33  1  0.77922000  0.21686700  0.00883700  1
  O  O34  1  0.09458200  0.89906100  0.12149700  1
  O  O35  1  0.08584500  0.66998700  0.50681100  1
  O  O36  1  0.13724600  0.61838600  0.98987600  1
  O  O37  1  0.26860400  0.85977600  0.68517300  1
  O  O38  1  0.30078700  0.81649500  0.33192900  1
  O  O39  1  0.14022400  0.40882700  0.68517300  1
  O  O40  1  0.18350500  0.48429200  0.33192900  1
  O  O41  1  0.10093900  0.19552100  0.12149700  1
  O  O42  1  0.48114000  0.86275400  0.98987600  1
  O  O43  1  0.38161400  0.51886000  0.98987600  1
  O  O44  1  0.58414200  0.91415500  0.50681100  1
  O  O45  1  0.33001300  0.41585800  0.50681100  1
  O  O46  1  0.19552100  0.09458200  0.62149700  1
  O  O47  1  0.51570800  0.69921300  0.33192900  1
  O  O48  1  0.59117300  0.73139600  0.68517300  1
  O  O49  1  0.40882700  0.26860400  0.18517300  1
  O  O50  1  0.48429200  0.30078700  0.83192900  1
  O  O51  1  0.80447900  0.90541800  0.12149700  1
  O  O52  1  0.66998700  0.58414200  0.00681100  1
  O  O53  1  0.41585800  0.08584500  0.00681100  1
  O  O54  1  0.61838600  0.48114000  0.48987600  1
  O  O55  1  0.51886000  0.13724600  0.48987600  1
  O  O56  1  0.89906100  0.80447900  0.62149700  1
  O  O57  1  0.81649500  0.51570800  0.83192900  1
  O  O58  1  0.85977600  0.59117300  0.18517300  1
  O  O59  1  0.69921300  0.18350500  0.83192900  1
  O  O60  1  0.73139600  0.14022400  0.18517300  1
  O  O61  1  0.86275400  0.38161400  0.48987600  1
  O  O62  1  0.91415500  0.33001300  0.00681100  1
  O  O63  1  0.90541800  0.10093900  0.62149700  1
