# generated using pymatgen
data_TiP2O7
_symmetry_space_group_name_H-M   'P 1'
_cell_length_a   8.00716100
_cell_length_b   7.41859000
_cell_length_c   9.56877341
_cell_angle_alpha   68.87141030
_cell_angle_beta   90.00000000
_cell_angle_gamma   90.00000000
_symmetry_Int_Tables_number   1
_chemical_formula_structural   TiP2O7
_chemical_formula_sum   'Ti4 P8 O28'
_cell_volume   530.19122269
_cell_formula_units_Z   4
loop_
 _symmetry_equiv_pos_site_id
 _symmetry_equiv_pos_as_xyz
  1  'x, y, z'
loop_
 _atom_site_type_symbol
 _atom_site_label
 _atom_site_symmetry_multiplicity
 _atom_site_fract_x
 _atom_site_fract_y
 _atom_site_fract_z
 _atom_site_occupancy
  Ti  Ti0  1  0.51282000  0.73332000  0.74855700  1
  Ti  Ti1  1  0.98718000  0.73332000  0.24855700  1
  Ti  Ti2  1  0.01282000  0.26668000  0.75144300  1
  Ti  Ti3  1  0.48718000  0.26668000  0.25144300  1
  P  P4  1  0.75532500  0.93367000  0.94903800  1
  P  P5  1  0.74467500  0.93367000  0.44903800  1
  P  P6  1  0.20779600  0.67727300  0.54684100  1
  P  P7  1  0.70779600  0.32272700  0.95315900  1
  P  P8  1  0.29220400  0.67727300  0.04684100  1
  P  P9  1  0.79220400  0.32272700  0.45315900  1
  P  P10  1  0.25532500  0.06633000  0.55096200  1
  P  P11  1  0.24467500  0.06633000  0.05096200  1
  O  O12  1  0.91166800  0.00858500  0.85393000  1
  O  O13  1  0.63699900  0.82338400  0.88449900  1
  O  O14  1  0.58833200  0.00858500  0.35393000  1
  O  O15  1  0.14777700  0.88273700  0.55178000  1
  O  O16  1  0.31042800  0.68758600  0.88535200  1
  O  O17  1  0.70166100  0.81113700  0.61171800  1
  O  O18  1  0.86300100  0.82338400  0.38449900  1
  O  O19  1  0.38732700  0.64895400  0.60617900  1
  O  O20  1  0.35222300  0.88273700  0.05178000  1
  O  O21  1  0.18957200  0.68758600  0.38535200  1
  O  O22  1  0.58961700  0.47288500  0.84761500  1
  O  O23  1  0.79833900  0.81113700  0.11171800  1
  O  O24  1  0.08961700  0.52711500  0.65238500  1
  O  O25  1  0.88732600  0.35104600  0.89382100  1
  O  O26  1  0.11267300  0.64895400  0.10617900  1
  O  O27  1  0.91038300  0.47288500  0.34761500  1
  O  O28  1  0.20166100  0.18886300  0.88828200  1
  O  O29  1  0.41038300  0.52711500  0.15238500  1
  O  O30  1  0.81042800  0.31241400  0.61464800  1
  O  O31  1  0.64777700  0.11726300  0.94822000  1
  O  O32  1  0.61267300  0.35104600  0.39382100  1
  O  O33  1  0.13699900  0.17661600  0.61550100  1
  O  O34  1  0.29833900  0.18886300  0.38828200  1
  O  O35  1  0.68957200  0.31241400  0.11464800  1
  O  O36  1  0.85222300  0.11726300  0.44822000  1
  O  O37  1  0.41166800  0.99141500  0.64607000  1
  O  O38  1  0.36300100  0.17661600  0.11550100  1
  O  O39  1  0.08833200  0.99141500  0.14607000  1
