# generated using pymatgen
data_YCdCu2
_symmetry_space_group_name_H-M   'P 1'
_cell_length_a   11.36347104
_cell_length_b   11.36347104
_cell_length_c   11.36347104
_cell_angle_alpha   123.15919517
_cell_angle_beta   119.14767313
_cell_angle_gamma   88.04988274
_symmetry_Int_Tables_number   1
_chemical_formula_structural   YCdCu2
_chemical_formula_sum   'Y1 Cd1 Cu2'
_cell_volume   1017.21240566
_cell_formula_units_Z   1
loop_
 _symmetry_equiv_pos_site_id
 _symmetry_equiv_pos_as_xyz
  1  'x, y, z'
loop_
 _atom_site_type_symbol
 _atom_site_label
 _atom_site_symmetry_multiplicity
 _atom_site_fract_x
 _atom_site_fract_y
 _atom_site_fract_z
 _atom_site_occupancy
  Y  Y0  1  0.00000000  0.00000000  0.00000000  1
  Cd  Cd1  1  0.00000000  0.50000000  0.50000000  1
  Cu  Cu2  1  0.00000000  0.24785300  0.24785300  1
  Cu  Cu3  1  0.00000000  0.75214700  0.75214700  1
