# generated using pymatgen
data_Na5V36O88
_symmetry_space_group_name_H-M   'P 1'
_cell_length_a   3.67549600
_cell_length_b   20.69595400
_cell_length_c   22.23769729
_cell_angle_alpha   74.18464481
_cell_angle_beta   90.00000000
_cell_angle_gamma   90.00000000
_symmetry_Int_Tables_number   1
_chemical_formula_structural   Na5V36O88
_chemical_formula_sum   'Na5 V36 O88'
_cell_volume   1627.54026234
_cell_formula_units_Z   1
loop_
 _symmetry_equiv_pos_site_id
 _symmetry_equiv_pos_as_xyz
  1  'x, y, z'
loop_
 _atom_site_type_symbol
 _atom_site_label
 _atom_site_symmetry_multiplicity
 _atom_site_fract_x
 _atom_site_fract_y
 _atom_site_fract_z
 _atom_site_occupancy
  Na  Na0  1  0.00000000  0.32748100  0.17632200  1
  Na  Na1  1  0.00000000  0.82755300  0.17572600  1
  Na  Na2  1  0.50000000  0.15697000  0.82086000  1
  Na  Na3  1  0.50000000  0.30175800  0.83371200  1
  Na  Na4  1  0.50000000  0.67322900  0.82424600  1
  V  V5  1  0.50000000  0.29845300  0.02567000  1
  V  V6  1  0.00000000  0.06879600  0.09084500  1
  V  V7  1  0.50000000  0.45615400  0.06023700  1
  V  V8  1  0.50000000  0.79777500  0.02527200  1
  V  V9  1  0.00000000  0.56952600  0.09033200  1
  V  V10  1  0.50000000  0.95641300  0.05866400  1
  V  V11  1  0.50000000  0.08623700  0.28483400  1
  V  V12  1  0.00000000  0.47447100  0.25374700  1
  V  V13  1  0.50000000  0.24400700  0.31739600  1
  V  V14  1  0.50000000  0.58624300  0.28500600  1
  V  V15  1  0.00000000  0.33805200  0.36813700  1
  V  V16  1  0.50000000  0.10909600  0.42982100  1
  V  V17  1  0.00000000  0.97427300  0.25413800  1
  V  V18  1  0.50000000  0.74400400  0.31731800  1
  V  V19  1  0.00000000  0.49268100  0.40769200  1
  V  V20  1  0.00000000  0.83799800  0.36812400  1
  V  V21  1  0.50000000  0.60853100  0.43036000  1
  V  V22  1  0.50000000  0.00710400  0.59248400  1
  V  V23  1  0.00000000  0.99321400  0.40721900  1
  V  V24  1  0.00000000  0.39016400  0.57067600  1
  V  V25  1  0.50000000  0.16152200  0.63258800  1
  V  V26  1  0.50000000  0.50685700  0.59336800  1
  V  V27  1  0.00000000  0.25593300  0.68389700  1
  V  V28  1  0.50000000  0.02345600  0.74605800  1
  V  V29  1  0.00000000  0.89105000  0.56988800  1
  V  V30  1  0.50000000  0.66190700  0.63179300  1
  V  V31  1  0.00000000  0.41738200  0.71236100  1
  V  V32  1  0.00000000  0.75577500  0.68261700  1
  V  V33  1  0.50000000  0.52627300  0.74687500  1
  V  V34  1  0.00000000  0.91302500  0.71525000  1
  V  V35  1  0.00000000  0.04313600  0.94114400  1
  V  V36  1  0.50000000  0.43399800  0.91149800  1
  V  V37  1  0.00000000  0.20200900  0.97552900  1
  V  V38  1  0.00000000  0.54518800  0.94112900  1
  V  V39  1  0.50000000  0.93050000  0.91045700  1
  V  V40  1  0.00000000  0.70272800  0.97484200  1
  O  O41  1  0.00000000  0.28585500  0.00564200  1
  O  O42  1  0.50000000  0.04537000  0.08018500  1
  O  O43  1  0.50000000  0.38994400  0.01015700  1
  O  O44  1  0.00000000  0.14638100  0.09391700  1
  O  O45  1  0.00000000  0.47741700  0.04402200  1
  O  O46  1  0.50000000  0.27620500  0.10136700  1
  O  O47  1  0.00000000  0.02105100  0.17286700  1
  O  O48  1  0.00000000  0.78699000  0.00449700  1
  O  O49  1  0.50000000  0.54567700  0.08072000  1
  O  O50  1  0.50000000  0.88976900  0.00785200  1
  O  O51  1  0.50000000  0.40111100  0.12945600  1
  O  O52  1  0.50000000  0.13692800  0.21583500  1
  O  O53  1  0.00000000  0.64611500  0.09537600  1
  O  O54  1  0.00000000  0.97804100  0.04260700  1
  O  O55  1  0.50000000  0.77650800  0.10097300  1
  O  O56  1  0.00000000  0.52026200  0.17309000  1
  O  O57  1  0.50000000  0.26872300  0.24107000  1
  O  O58  1  0.00000000  0.06139800  0.30164300  1
  O  O59  1  0.00000000  0.39611800  0.25024200  1
  O  O60  1  0.50000000  0.90089800  0.12779900  1
  O  O61  1  0.50000000  0.14992700  0.33343800  1
  O  O62  1  0.50000000  0.63685800  0.21599300  1
  O  O63  1  0.50000000  0.49658100  0.26544900  1
  O  O64  1  0.50000000  0.01575600  0.39084700  1
  O  O65  1  0.00000000  0.25217800  0.33610400  1
  O  O66  1  0.50000000  0.32667800  0.34515600  1
  O  O67  1  0.50000000  0.76872200  0.24106000  1
  O  O68  1  0.00000000  0.56130900  0.30162200  1
  O  O69  1  0.00000000  0.08320400  0.42579600  1
  O  O70  1  0.00000000  0.42893300  0.35549000  1
  O  O71  1  0.00000000  0.89623600  0.24970600  1
  O  O72  1  0.50000000  0.18637500  0.43429900  1
  O  O73  1  0.50000000  0.64981200  0.33362600  1
  O  O74  1  0.50000000  0.99677400  0.26516200  1
  O  O75  1  0.00000000  0.30943000  0.44230500  1
  O  O76  1  0.50000000  0.51600700  0.39104500  1
  O  O77  1  0.00000000  0.75209800  0.33623400  1
  O  O78  1  0.50000000  0.05949300  0.51908700  1
  O  O79  1  0.50000000  0.82668800  0.34520600  1
  O  O80  1  0.00000000  0.58335600  0.42593400  1
  O  O81  1  0.00000000  0.92900200  0.35518400  1
  O  O82  1  0.00000000  0.44041300  0.48111600  1
  O  O83  1  0.50000000  0.19075200  0.55825900  1
  O  O84  1  0.50000000  0.68575300  0.43453300  1
  O  O85  1  0.00000000  0.31366300  0.56478800  1
  O  O86  1  0.00000000  0.80965200  0.44231800  1
  O  O87  1  0.50000000  0.55910400  0.51893600  1
  O  O88  1  0.50000000  0.07067500  0.64343800  1
  O  O89  1  0.50000000  0.41578200  0.57392000  1
  O  O90  1  0.00000000  0.17352600  0.65509800  1
  O  O91  1  0.00000000  0.94052100  0.48056800  1
  O  O92  1  0.50000000  0.24683400  0.66552100  1
  O  O93  1  0.00000000  0.48110500  0.61150600  1
  O  O94  1  0.50000000  0.69037300  0.55753300  1
  O  O95  1  0.00000000  0.00221000  0.73422500  1
  O  O96  1  0.00000000  0.34899300  0.66533100  1
  O  O97  1  0.00000000  0.81373700  0.56555100  1
  O  O98  1  0.50000000  0.10300400  0.74677000  1
  O  O99  1  0.50000000  0.57152300  0.64511800  1
  O  O100  1  0.50000000  0.91673900  0.57412300  1
  O  O101  1  0.50000000  0.43955300  0.69699500  1
  O  O102  1  0.00000000  0.23275600  0.76151800  1
  O  O103  1  0.00000000  0.67340400  0.65486400  1
  O  O104  1  0.50000000  0.74797300  0.66385700  1
  O  O105  1  0.00000000  0.98441600  0.60865300  1
  O  O106  1  0.00000000  0.50475300  0.73501100  1
  O  O107  1  0.00000000  0.36276400  0.78250500  1
  O  O108  1  0.00000000  0.85008300  0.66640500  1
  O  O109  1  0.00000000  0.09893900  0.87171900  1
  O  O110  1  0.50000000  0.60426000  0.75103900  1
  O  O111  1  0.50000000  0.93855900  0.69882300  1
  O  O112  1  0.00000000  0.73125400  0.75890900  1
  O  O113  1  0.50000000  0.47941800  0.82760700  1
  O  O114  1  0.00000000  0.22793600  0.89837500  1
  O  O115  1  0.50000000  0.02230600  0.95727100  1
  O  O116  1  0.50000000  0.35513100  0.90873200  1
  O  O117  1  0.00000000  0.86245800  0.78433400  1
  O  O118  1  0.00000000  0.60048100  0.87195700  1
  O  O119  1  0.00000000  0.11167400  0.99078500  1
  O  O120  1  0.00000000  0.45662200  0.91954900  1
  O  O121  1  0.50000000  0.21367900  0.99470900  1
  O  O122  1  0.50000000  0.98044900  0.82659600  1
  O  O123  1  0.00000000  0.72405200  0.89912300  1
  O  O124  1  0.50000000  0.52184900  0.95705200  1
  O  O125  1  0.50000000  0.85409000  0.90465900  1
  O  O126  1  0.00000000  0.61071300  0.99231200  1
  O  O127  1  0.00000000  0.95482000  0.91893600  1
  O  O128  1  0.50000000  0.71349600  0.99557400  1
