# generated using pymatgen
data_Ti2CoRh
_symmetry_space_group_name_H-M   'P 1'
_cell_length_a   8.79221651
_cell_length_b   9.16478903
_cell_length_c   9.16478831
_cell_angle_alpha   61.79041676
_cell_angle_beta   61.33590505
_cell_angle_gamma   61.33590615
_symmetry_Int_Tables_number   1
_chemical_formula_structural   Ti2CoRh
_chemical_formula_sum   'Ti2 Co1 Rh1'
_cell_volume   539.60464126
_cell_formula_units_Z   1
loop_
 _symmetry_equiv_pos_site_id
 _symmetry_equiv_pos_as_xyz
  1  'x, y, z'
loop_
 _atom_site_type_symbol
 _atom_site_label
 _atom_site_symmetry_multiplicity
 _atom_site_fract_x
 _atom_site_fract_y
 _atom_site_fract_z
 _atom_site_occupancy
  Ti  Ti0  1  0.75539700  0.00000000  0.00000000  1
  Ti  Ti1  1  0.24460300  0.00000000  0.00000000  1
  Co  Co2  1  0.00000000  0.00000000  0.00000000  1
  Rh  Rh3  1  0.50000000  0.00000000  0.00000000  1
