# generated using pymatgen
data_ZrTaRu2
_symmetry_space_group_name_H-M   'P 1'
_cell_length_a   10.52448682
_cell_length_b   10.52448682
_cell_length_c   10.52448682
_cell_angle_alpha   129.20994560
_cell_angle_beta   117.23188790
_cell_angle_gamma   84.85039131
_symmetry_Int_Tables_number   1
_chemical_formula_structural   ZrTaRu2
_chemical_formula_sum   'Zr1 Ta1 Ru2'
_cell_volume   768.72760671
_cell_formula_units_Z   1
loop_
 _symmetry_equiv_pos_site_id
 _symmetry_equiv_pos_as_xyz
  1  'x, y, z'
loop_
 _atom_site_type_symbol
 _atom_site_label
 _atom_site_symmetry_multiplicity
 _atom_site_fract_x
 _atom_site_fract_y
 _atom_site_fract_z
 _atom_site_occupancy
  Zr  Zr0  1  0.00000000  0.00000000  0.00000000  1
  Ta  Ta1  1  0.00000000  0.50000000  0.50000000  1
  Ru  Ru2  1  0.00000000  0.25559400  0.25559400  1
  Ru  Ru3  1  0.00000000  0.74440600  0.74440600  1
