# generated using pymatgen
data_Na2Sn2O3
_symmetry_space_group_name_H-M   'P 1'
_cell_length_a   6.80735285
_cell_length_b   6.80735285
_cell_length_c   6.80735285
_cell_angle_alpha   109.47122063
_cell_angle_beta   109.47122063
_cell_angle_gamma   109.47122063
_symmetry_Int_Tables_number   1
_chemical_formula_structural   Na2Sn2O3
_chemical_formula_sum   'Na4 Sn4 O6'
_cell_volume   242.83590234
_cell_formula_units_Z   2
loop_
 _symmetry_equiv_pos_site_id
 _symmetry_equiv_pos_as_xyz
  1  'x, y, z'
loop_
 _atom_site_type_symbol
 _atom_site_label
 _atom_site_symmetry_multiplicity
 _atom_site_fract_x
 _atom_site_fract_y
 _atom_site_fract_z
 _atom_site_occupancy
  Na  Na0  1  0.50000000  0.00000000  0.45015900  1
  Na  Na1  1  0.04984100  0.04984100  0.04984100  1
  Na  Na2  1  0.45015900  0.50000000  0.00000000  1
  Na  Na3  1  0.00000000  0.45015900  0.50000000  1
  Sn  Sn4  1  0.97108900  0.50000000  0.00000000  1
  Sn  Sn5  1  0.50000000  0.00000000  0.97108900  1
  Sn  Sn6  1  0.52891100  0.52891100  0.52891100  1
  Sn  Sn7  1  0.00000000  0.97108900  0.50000000  1
  O  O8  1  0.54744300  0.29744300  0.25000000  1
  O  O9  1  0.95255700  0.20255700  0.75000000  1
  O  O10  1  0.75000000  0.95255700  0.20255700  1
  O  O11  1  0.29744300  0.25000000  0.54744300  1
  O  O12  1  0.25000000  0.54744300  0.29744300  1
  O  O13  1  0.20255700  0.75000000  0.95255700  1
