# generated using pymatgen
data_Na2Ga11O17
_symmetry_space_group_name_H-M   'P 1'
_cell_length_a   22.98938100
_cell_length_b   5.96015700
_cell_length_c   5.97368041
_cell_angle_alpha   60.17662709
_cell_angle_beta   90.00000000
_cell_angle_gamma   90.00000000
_symmetry_Int_Tables_number   1
_chemical_formula_structural   Na2Ga11O17
_chemical_formula_sum   'Na4 Ga22 O34'
_cell_volume   710.11356373
_cell_formula_units_Z   2
loop_
 _symmetry_equiv_pos_site_id
 _symmetry_equiv_pos_as_xyz
  1  'x, y, z'
loop_
 _atom_site_type_symbol
 _atom_site_label
 _atom_site_symmetry_multiplicity
 _atom_site_fract_x
 _atom_site_fract_y
 _atom_site_fract_z
 _atom_site_occupancy
  Na  Na0  1  0.25000000  0.29262400  0.13908900  1
  Na  Na1  1  0.25000000  0.61974300  0.50258600  1
  Na  Na2  1  0.75000000  0.38025700  0.49741400  1
  Na  Na3  1  0.75000000  0.70737600  0.86091100  1
  Ga  Ga4  1  0.10901800  0.33505100  0.33209100  1
  Ga  Ga5  1  0.39098200  0.33505100  0.33209100  1
  Ga  Ga6  1  0.97433500  0.16637800  0.16703300  1
  Ga  Ga7  1  0.82476100  0.16422900  0.17203600  1
  Ga  Ga8  1  0.00000000  0.50000000  0.50000000  1
  Ga  Ga9  1  0.50000000  0.50000000  0.50000000  1
  Ga  Ga10  1  0.67523900  0.16422900  0.17203600  1
  Ga  Ga11  1  0.38993100  0.83764500  0.32941500  1
  Ga  Ga12  1  0.52566500  0.16637800  0.16703300  1
  Ga  Ga13  1  0.11006900  0.83764500  0.32941500  1
  Ga  Ga14  1  0.38942000  0.33325800  0.83342100  1
  Ga  Ga15  1  0.11058000  0.33325800  0.83342100  1
  Ga  Ga16  1  0.88942000  0.66674200  0.16657900  1
  Ga  Ga17  1  0.61058000  0.66674200  0.16657900  1
  Ga  Ga18  1  0.88993100  0.16235500  0.67058500  1
  Ga  Ga19  1  0.61006900  0.16235500  0.67058500  1
  Ga  Ga20  1  0.32476100  0.83577100  0.82796400  1
  Ga  Ga21  1  0.17523900  0.83577100  0.82796400  1
  Ga  Ga22  1  0.02566500  0.83362200  0.83296700  1
  Ga  Ga23  1  0.47433500  0.83362200  0.83296700  1
  Ga  Ga24  1  0.89098200  0.66494900  0.66790900  1
  Ga  Ga25  1  0.60901800  0.66494900  0.66790900  1
  O  O26  1  0.55351000  0.34322400  0.34564800  1
  O  O27  1  0.94649000  0.34322400  0.34564800  1
  O  O28  1  0.34721400  0.01371800  0.48016600  1
  O  O29  1  0.15278600  0.01371800  0.48016600  1
  O  O30  1  0.75000000  0.24980800  0.19654200  1
  O  O31  1  0.84920500  0.49655900  0.50170000  1
  O  O32  1  0.65079500  0.49655900  0.50170000  1
  O  O33  1  0.94592400  0.81067500  0.34414400  1
  O  O34  1  0.34920500  0.50344100  0.49830000  1
  O  O35  1  0.15079500  0.50344100  0.49830000  1
  O  O36  1  0.55407600  0.81067500  0.34414400  1
  O  O37  1  0.44181700  0.16531300  0.16396700  1
  O  O38  1  0.05818300  0.16531300  0.16396700  1
  O  O39  1  0.34883100  0.48591300  0.00981500  1
  O  O40  1  0.15116900  0.48591300  0.00981500  1
  O  O41  1  0.44644000  0.65744700  0.18831700  1
  O  O42  1  0.05356000  0.65744700  0.18831700  1
  O  O43  1  0.34358500  0.00936400  0.00614000  1
  O  O44  1  0.15641500  0.00936400  0.00614000  1
  O  O45  1  0.84358500  0.99063600  0.99386000  1
  O  O46  1  0.65641500  0.99063600  0.99386000  1
  O  O47  1  0.94644000  0.34255300  0.81168300  1
  O  O48  1  0.55356000  0.34255300  0.81168300  1
  O  O49  1  0.65116900  0.51408700  0.99018500  1
  O  O50  1  0.84883100  0.51408700  0.99018500  1
  O  O51  1  0.55818300  0.83468700  0.83603300  1
  O  O52  1  0.44592400  0.18932500  0.65585600  1
  O  O53  1  0.05407600  0.18932500  0.65585600  1
  O  O54  1  0.94181700  0.83468700  0.83603300  1
  O  O55  1  0.25000000  0.75019200  0.80345800  1
  O  O56  1  0.84721400  0.98628200  0.51983400  1
  O  O57  1  0.65278600  0.98628200  0.51983400  1
  O  O58  1  0.44649000  0.65677600  0.65435200  1
  O  O59  1  0.05351000  0.65677600  0.65435200  1
