# generated using pymatgen
data_SrNiO3
_symmetry_space_group_name_H-M   'P 1'
_cell_length_a   5.50461919
_cell_length_b   5.51383529
_cell_length_c   5.51244713
_cell_angle_alpha   60.07997227
_cell_angle_beta   119.91678749
_cell_angle_gamma   119.94202108
_symmetry_Int_Tables_number   1
_chemical_formula_structural   SrNiO3
_chemical_formula_sum   'Sr2 Ni2 O6'
_cell_volume   118.50465607
_cell_formula_units_Z   2
loop_
 _symmetry_equiv_pos_site_id
 _symmetry_equiv_pos_as_xyz
  1  'x, y, z'
loop_
 _atom_site_type_symbol
 _atom_site_label
 _atom_site_symmetry_multiplicity
 _atom_site_fract_x
 _atom_site_fract_y
 _atom_site_fract_z
 _atom_site_occupancy
  Sr  Sr0  1  0.75000100  0.75000200  0.75000200  1
  Sr  Sr1  1  0.24999800  0.24999900  0.24999900  1
  Ni  Ni2  1  0.00006000  0.49984000  0.50017900  1
  Ni  Ni3  1  0.49994200  0.00015700  0.99981500  1
  O  O4  1  0.74971100  0.24971000  0.24971100  1
  O  O5  1  0.25028600  0.75028900  0.75028900  1
  O  O6  1  0.24999400  0.74998700  0.25001500  1
  O  O7  1  0.75000700  0.25001600  0.74998500  1
  O  O8  1  0.75000200  0.74999000  0.25001200  1
  O  O9  1  0.24999800  0.25001000  0.74999200  1
