# generated using pymatgen
data_ZrInRu2
_symmetry_space_group_name_H-M   'P 1'
_cell_length_a   10.63061965
_cell_length_b   10.63061965
_cell_length_c   10.63061965
_cell_angle_alpha   124.62958230
_cell_angle_beta   116.67820856
_cell_angle_gamma   89.01172200
_symmetry_Int_Tables_number   1
_chemical_formula_structural   ZrInRu2
_chemical_formula_sum   'Zr1 In1 Ru2'
_cell_volume   835.78566141
_cell_formula_units_Z   1
loop_
 _symmetry_equiv_pos_site_id
 _symmetry_equiv_pos_as_xyz
  1  'x, y, z'
loop_
 _atom_site_type_symbol
 _atom_site_label
 _atom_site_symmetry_multiplicity
 _atom_site_fract_x
 _atom_site_fract_y
 _atom_site_fract_z
 _atom_site_occupancy
  Zr  Zr0  1  0.00000000  0.00000000  0.00000000  1
  In  In1  1  0.00000000  0.50000000  0.50000000  1
  Ru  Ru2  1  0.00000000  0.22765900  0.22765900  1
  Ru  Ru3  1  0.00000000  0.77234100  0.77234100  1
