# generated using pymatgen
data_Mn(CoO3)2
_symmetry_space_group_name_H-M   'P 1'
_cell_length_a   6.44796850
_cell_length_b   6.44796850
_cell_length_c   5.77149287
_cell_angle_alpha   76.30409012
_cell_angle_beta   76.30409012
_cell_angle_gamma   25.81054333
_symmetry_Int_Tables_number   1
_chemical_formula_structural   Mn(CoO3)2
_chemical_formula_sum   'Mn1 Co2 O6'
_cell_volume   101.34758383
_cell_formula_units_Z   1
loop_
 _symmetry_equiv_pos_site_id
 _symmetry_equiv_pos_as_xyz
  1  'x, y, z'
loop_
 _atom_site_type_symbol
 _atom_site_label
 _atom_site_symmetry_multiplicity
 _atom_site_fract_x
 _atom_site_fract_y
 _atom_site_fract_z
 _atom_site_occupancy
  Mn  Mn0  1  0.50000000  0.50000000  0.00000000  1
  Co  Co1  1  0.16805300  0.16805300  0.66421000  1
  Co  Co2  1  0.83194700  0.83194700  0.33579000  1
  O  O3  1  0.65806000  0.65806000  0.88330200  1
  O  O4  1  0.98674000  0.98674000  0.22726600  1
  O  O5  1  0.32174800  0.32174800  0.55432700  1
  O  O6  1  0.01326000  0.01326000  0.77273400  1
  O  O7  1  0.34194000  0.34194000  0.11669800  1
  O  O8  1  0.67825200  0.67825200  0.44567300  1
