# generated using pymatgen
data_Sn2N2O
_symmetry_space_group_name_H-M   'P 1'
_cell_length_a   8.84809409
_cell_length_b   8.85839209
_cell_length_c   8.87024960
_cell_angle_alpha   109.59676412
_cell_angle_beta   109.54555240
_cell_angle_gamma   109.29540956
_symmetry_Int_Tables_number   1
_chemical_formula_structural   Sn2N2O
_chemical_formula_sum   'Sn16 N16 O8'
_cell_volume   535.04086978
_cell_formula_units_Z   8
loop_
 _symmetry_equiv_pos_site_id
 _symmetry_equiv_pos_as_xyz
  1  'x, y, z'
loop_
 _atom_site_type_symbol
 _atom_site_label
 _atom_site_symmetry_multiplicity
 _atom_site_fract_x
 _atom_site_fract_y
 _atom_site_fract_z
 _atom_site_occupancy
  Sn  Sn0  1  0.49942200  0.99387200  0.99150300  1
  Sn  Sn1  1  0.75798300  0.29091900  0.54266800  1
  Sn  Sn2  1  0.21631400  0.95449300  0.25037100  1
  Sn  Sn3  1  0.71660400  0.46359500  0.24960300  1
  Sn  Sn4  1  0.25015700  0.21668800  0.95807400  1
  Sn  Sn5  1  0.46692100  0.24947800  0.72364200  1
  Sn  Sn6  1  0.99281200  0.50463900  0.99693400  1
  Sn  Sn7  1  0.96938000  0.25570400  0.21865200  1
  Sn  Sn8  1  0.01109300  0.00378200  0.51213700  1
  Sn  Sn9  1  0.50381700  0.50868400  0.50863700  1
  Sn  Sn10  1  0.02589800  0.74310500  0.77471900  1
  Sn  Sn11  1  0.52602800  0.75243000  0.28044900  1
  Sn  Sn12  1  0.74494500  0.78499000  0.02279400  1
  Sn  Sn13  1  0.77979900  0.02811300  0.75097800  1
  Sn  Sn14  1  0.28227900  0.53265900  0.74840200  1
  Sn  Sn15  1  0.24807800  0.71371400  0.46334000  1
  N  N16  1  0.74249500  0.00749500  0.96734500  1
  N  N17  1  0.50692900  0.23380700  0.97422000  1
  N  N18  1  0.75918300  0.53143400  0.52238200  1
  N  N19  1  0.72270300  0.25410000  0.76116300  1
  N  N20  1  0.23569600  0.96494500  0.50397900  1
  N  N21  1  0.50555600  0.77180800  0.04551100  1
  N  N22  1  0.26573100  0.72568200  0.22205900  1
  N  N23  1  0.95146400  0.49760700  0.22705000  1
  N  N24  1  0.22896000  0.45099600  0.45395500  1
  N  N25  1  0.54458200  0.53197100  0.76861700  1
  N  N26  1  0.95853600  0.74301900  0.99900000  1
  N  N27  1  0.54358500  0.77465300  0.53817000  1
  N  N28  1  0.99455600  0.96032100  0.73669800  1
  N  N29  1  0.22769900  0.27454200  0.73635100  1
  N  N30  1  0.03634300  0.49527700  0.76686100  1
  N  N31  1  0.26439800  0.77263300  0.72764600  1
  O  O32  1  0.28025500  0.01379600  0.05705400  1
  O  O33  1  0.77224000  0.04049100  0.48664400  1
  O  O34  1  0.73393800  0.21723200  0.27943200  1
  O  O35  1  0.99728200  0.04549700  0.28273700  1
  O  O36  1  0.44902100  0.46454800  0.21827200  1
  O  O37  1  0.77436100  0.73086400  0.27871100  1
  O  O38  1  0.45577300  0.21973400  0.44015000  1
  O  O39  1  0.05719100  0.28068200  0.01309000  1
