# generated using pymatgen
data_Ca2InHg
_symmetry_space_group_name_H-M   'P 1'
_cell_length_a   14.62951956
_cell_length_b   14.62951956
_cell_length_c   14.62951956
_cell_angle_alpha   100.98252635
_cell_angle_beta   100.98252635
_cell_angle_gamma   128.24174275
_symmetry_Int_Tables_number   1
_chemical_formula_structural   Ca2InHg
_chemical_formula_sum   'Ca2 In1 Hg1'
_cell_volume   2212.53593584
_cell_formula_units_Z   1
loop_
 _symmetry_equiv_pos_site_id
 _symmetry_equiv_pos_as_xyz
  1  'x, y, z'
loop_
 _atom_site_type_symbol
 _atom_site_label
 _atom_site_symmetry_multiplicity
 _atom_site_fract_x
 _atom_site_fract_y
 _atom_site_fract_z
 _atom_site_occupancy
  Ca  Ca0  1  0.24279500  0.24279500  0.00000000  1
  Ca  Ca1  1  0.75720500  0.75720500  0.00000000  1
  In  In2  1  0.00000000  0.00000000  0.00000000  1
  Hg  Hg3  1  0.50000000  0.50000000  0.00000000  1
