# generated using pymatgen
data_K2Ti8O17
_symmetry_space_group_name_H-M   'P 1'
_cell_length_a   8.18184872
_cell_length_b   8.18184872
_cell_length_c   12.10892504
_cell_angle_alpha   84.46979741
_cell_angle_beta   84.46979741
_cell_angle_gamma   26.90778798
_symmetry_Int_Tables_number   1
_chemical_formula_structural   K2Ti8O17
_chemical_formula_sum   'K2 Ti8 O17'
_cell_volume   365.03800184
_cell_formula_units_Z   1
loop_
 _symmetry_equiv_pos_site_id
 _symmetry_equiv_pos_as_xyz
  1  'x, y, z'
loop_
 _atom_site_type_symbol
 _atom_site_label
 _atom_site_symmetry_multiplicity
 _atom_site_fract_x
 _atom_site_fract_y
 _atom_site_fract_z
 _atom_site_occupancy
  K  K0  1  0.44448200  0.44448200  0.80483900  1
  K  K1  1  0.55551800  0.55551800  0.19516100  1
  Ti  Ti2  1  0.89015500  0.89015500  0.07081400  1
  Ti  Ti3  1  0.84875600  0.84875600  0.32755600  1
  Ti  Ti4  1  0.80500600  0.80500600  0.57566100  1
  Ti  Ti5  1  0.75729600  0.75729600  0.83161600  1
  Ti  Ti6  1  0.24270400  0.24270400  0.16838400  1
  Ti  Ti7  1  0.19499400  0.19499400  0.42433900  1
  Ti  Ti8  1  0.15124400  0.15124400  0.67244400  1
  Ti  Ti9  1  0.10984500  0.10984500  0.92918600  1
  O  O10  1  0.93518000  0.93518000  0.21824700  1
  O  O11  1  0.89183100  0.89183100  0.46268400  1
  O  O12  1  0.84705800  0.84705800  0.71083300  1
  O  O13  1  0.82858200  0.82858200  0.93644800  1
  O  O14  1  0.36359400  0.36359400  0.08482500  1
  O  O15  1  0.31440700  0.31440700  0.32178500  1
  O  O16  1  0.27203500  0.27203500  0.56786300  1
  O  O17  1  0.22740200  0.22740200  0.81885000  1
  O  O18  1  0.77259800  0.77259800  0.18115000  1
  O  O19  1  0.72796500  0.72796500  0.43213700  1
  O  O20  1  0.68559300  0.68559300  0.67821500  1
  O  O21  1  0.63640600  0.63640600  0.91517500  1
  O  O22  1  0.17141800  0.17141800  0.06355200  1
  O  O23  1  0.15294200  0.15294200  0.28916700  1
  O  O24  1  0.10816900  0.10816900  0.53731600  1
  O  O25  1  0.06482000  0.06482000  0.78175300  1
  O  O26  1  0.00000000  0.00000000  0.00000000  1
