# generated using pymatgen
data_NaVO3
_symmetry_space_group_name_H-M   'P 1'
_cell_length_a   7.81697393
_cell_length_b   7.81697393
_cell_length_c   7.81697393
_cell_angle_alpha   133.04275797
_cell_angle_beta   106.85433729
_cell_angle_gamma   91.57677775
_symmetry_Int_Tables_number   1
_chemical_formula_structural   NaVO3
_chemical_formula_sum   'Na4 V4 O12'
_cell_volume   316.27260230
_cell_formula_units_Z   4
loop_
 _symmetry_equiv_pos_site_id
 _symmetry_equiv_pos_as_xyz
  1  'x, y, z'
loop_
 _atom_site_type_symbol
 _atom_site_label
 _atom_site_symmetry_multiplicity
 _atom_site_fract_x
 _atom_site_fract_y
 _atom_site_fract_z
 _atom_site_occupancy
  Na  Na0  1  0.70718900  0.75000000  0.45718900  1
  Na  Na1  1  0.29281100  0.75000000  0.04281100  1
  Na  Na2  1  0.29281100  0.25000000  0.54281100  1
  Na  Na3  1  0.70718900  0.25000000  0.95718900  1
  V  V4  1  0.13537500  0.21992400  0.91545100  1
  V  V5  1  0.30447400  0.71992400  0.58454900  1
  V  V6  1  0.69552600  0.28007600  0.41545100  1
  V  V7  1  0.86462500  0.78007600  0.08454900  1
  O  O8  1  0.16893200  0.91893200  0.75000000  1
  O  O9  1  0.16893200  0.41893200  0.25000000  1
  O  O10  1  0.59999700  0.34609300  0.25390400  1
  O  O11  1  0.26651200  0.37303100  0.89348100  1
  O  O12  1  0.09218900  0.84609300  0.24609600  1
  O  O13  1  0.47955000  0.87303100  0.60651900  1
  O  O14  1  0.52045000  0.12696900  0.39348100  1
  O  O15  1  0.90781100  0.15390700  0.75390400  1
  O  O16  1  0.73348800  0.62696900  0.10651900  1
  O  O17  1  0.40000300  0.65390700  0.74609600  1
  O  O18  1  0.83106800  0.58106800  0.75000000  1
  O  O19  1  0.83106800  0.08106800  0.25000000  1
