# generated using pymatgen
data_V3O5F
_symmetry_space_group_name_H-M   'P 1'
_cell_length_a   4.65595379
_cell_length_b   4.65595379
_cell_length_c   8.98578782
_cell_angle_alpha   89.81693443
_cell_angle_beta   89.81693443
_cell_angle_gamma   87.44550420
_symmetry_Int_Tables_number   1
_chemical_formula_structural   V3O5F
_chemical_formula_sum   'V6 O10 F2'
_cell_volume   194.59758941
_cell_formula_units_Z   2
loop_
 _symmetry_equiv_pos_site_id
 _symmetry_equiv_pos_as_xyz
  1  'x, y, z'
loop_
 _atom_site_type_symbol
 _atom_site_label
 _atom_site_symmetry_multiplicity
 _atom_site_fract_x
 _atom_site_fract_y
 _atom_site_fract_z
 _atom_site_occupancy
  V  V0  1  0.99049200  0.99049200  0.84891900  1
  V  V1  1  0.00950800  0.00950800  0.15108100  1
  V  V2  1  0.00000000  0.00000000  0.50000000  1
  V  V3  1  0.50000000  0.50000000  0.00000000  1
  V  V4  1  0.53994600  0.53994600  0.66715500  1
  V  V5  1  0.46005400  0.46005400  0.33284500  1
  O  O6  1  0.79446100  0.79446100  0.99761000  1
  O  O7  1  0.80609400  0.80609400  0.67181300  1
  O  O8  1  0.69935900  0.30760200  0.83347200  1
  O  O9  1  0.69239800  0.30064100  0.16652800  1
  O  O10  1  0.69232800  0.30767200  0.50000000  1
  O  O11  1  0.30760200  0.69935900  0.83347200  1
  O  O12  1  0.30064100  0.69239800  0.16652800  1
  O  O13  1  0.30767200  0.69232800  0.50000000  1
  O  O14  1  0.20553900  0.20553900  0.00239000  1
  O  O15  1  0.19390600  0.19390600  0.32818700  1
  F  F16  1  0.80130600  0.80130600  0.32774600  1
  F  F17  1  0.19869400  0.19869400  0.67225400  1
