# generated using pymatgen
data_Al2Zn2S5
_symmetry_space_group_name_H-M   'P 1'
_cell_length_a   3.67055759
_cell_length_b   3.67055759
_cell_length_c   15.15918600
_cell_angle_alpha   90.00000000
_cell_angle_beta   90.00000000
_cell_angle_gamma   119.99999260
_symmetry_Int_Tables_number   1
_chemical_formula_structural   Al2Zn2S5
_chemical_formula_sum   'Al2 Zn2 S5'
_cell_volume   176.87670142
_cell_formula_units_Z   1
loop_
 _symmetry_equiv_pos_site_id
 _symmetry_equiv_pos_as_xyz
  1  'x, y, z'
loop_
 _atom_site_type_symbol
 _atom_site_label
 _atom_site_symmetry_multiplicity
 _atom_site_fract_x
 _atom_site_fract_y
 _atom_site_fract_z
 _atom_site_occupancy
  Al  Al0  1  0.66666700  0.33333300  0.82747400  1
  Al  Al1  1  0.33333300  0.66666700  0.17252600  1
  Zn  Zn2  1  0.66666700  0.33333300  0.40126400  1
  Zn  Zn3  1  0.33333300  0.66666700  0.59873600  1
  S  S4  1  0.00000000  0.00000000  0.50000000  1
  S  S5  1  0.66666700  0.33333300  0.68356300  1
  S  S6  1  0.33333300  0.66666700  0.31643700  1
  S  S7  1  0.66666700  0.33333300  0.10779700  1
  S  S8  1  0.33333300  0.66666700  0.89220300  1
