# generated using pymatgen
data_V3O5F
_symmetry_space_group_name_H-M   'P 1'
_cell_length_a   5.52092451
_cell_length_b   5.52092451
_cell_length_c   7.32959265
_cell_angle_alpha   70.12253160
_cell_angle_beta   70.12253160
_cell_angle_gamma   71.83676038
_symmetry_Int_Tables_number   1
_chemical_formula_structural   V3O5F
_chemical_formula_sum   'V6 O10 F2'
_cell_volume   192.66337151
_cell_formula_units_Z   2
loop_
 _symmetry_equiv_pos_site_id
 _symmetry_equiv_pos_as_xyz
  1  'x, y, z'
loop_
 _atom_site_type_symbol
 _atom_site_label
 _atom_site_symmetry_multiplicity
 _atom_site_fract_x
 _atom_site_fract_y
 _atom_site_fract_z
 _atom_site_occupancy
  V  V0  1  0.67390600  0.67390600  0.84651600  1
  V  V1  1  0.31943000  0.31943000  0.67132600  1
  V  V2  1  0.65600600  0.65600600  0.31801700  1
  V  V3  1  0.33822000  0.33822000  0.15964100  1
  V  V4  1  0.99964500  0.99964500  0.51508400  1
  V  V5  1  0.01198800  0.01198800  0.98740900  1
  O  O6  1  0.63788700  0.03995200  0.65929600  1
  O  O7  1  0.96104100  0.36856300  0.33419100  1
  O  O8  1  0.23780200  0.23780200  0.96531200  1
  O  O9  1  0.09690800  0.09690800  0.69660800  1
  O  O10  1  0.77206600  0.77206600  0.03797000  1
  O  O11  1  0.43266500  0.43266500  0.36886000  1
  O  O12  1  0.69658200  0.29409600  0.00663600  1
  O  O13  1  0.03995200  0.63788700  0.65929600  1
  O  O14  1  0.36856300  0.96104100  0.33419100  1
  O  O15  1  0.29409600  0.69658200  0.00663600  1
  F  F16  1  0.56425700  0.56425700  0.63299300  1
  F  F17  1  0.89898800  0.89898800  0.30001800  1
