# generated using pymatgen
data_Ba2VFeO6
_symmetry_space_group_name_H-M   'P 1'
_cell_length_a   5.73003313
_cell_length_b   5.73003313
_cell_length_c   18.78027800
_cell_angle_alpha   90.00000000
_cell_angle_beta   90.00000000
_cell_angle_gamma   119.99998992
_symmetry_Int_Tables_number   1
_chemical_formula_structural   Ba2VFeO6
_chemical_formula_sum   'Ba8 V4 Fe4 O24'
_cell_volume   534.00700987
_cell_formula_units_Z   4
loop_
 _symmetry_equiv_pos_site_id
 _symmetry_equiv_pos_as_xyz
  1  'x, y, z'
loop_
 _atom_site_type_symbol
 _atom_site_label
 _atom_site_symmetry_multiplicity
 _atom_site_fract_x
 _atom_site_fract_y
 _atom_site_fract_z
 _atom_site_occupancy
  Ba  Ba0  1  0.00000000  0.00000000  0.50000000  1
  Ba  Ba1  1  0.00000000  0.00000000  0.00000000  1
  Ba  Ba2  1  0.33333300  0.66666700  0.75000000  1
  Ba  Ba3  1  0.66666700  0.33333300  0.25000000  1
  Ba  Ba4  1  0.33333300  0.66666700  0.36530800  1
  Ba  Ba5  1  0.66666700  0.33333300  0.63469200  1
  Ba  Ba6  1  0.66666700  0.33333300  0.86530800  1
  Ba  Ba7  1  0.33333300  0.66666700  0.13469200  1
  V  V8  1  0.33333300  0.66666700  0.93758000  1
  V  V9  1  0.66666700  0.33333300  0.06242000  1
  V  V10  1  0.66666700  0.33333300  0.43758000  1
  V  V11  1  0.33333300  0.66666700  0.56242000  1
  Fe  Fe12  1  0.00000000  0.00000000  0.31885300  1
  Fe  Fe13  1  0.00000000  0.00000000  0.68114700  1
  Fe  Fe14  1  0.00000000  0.00000000  0.81885300  1
  Fe  Fe15  1  0.00000000  0.00000000  0.18114700  1
  O  O16  1  0.50000000  0.50000000  0.50000000  1
  O  O17  1  0.50000000  0.00000000  0.50000000  1
  O  O18  1  0.00000000  0.50000000  0.50000000  1
  O  O19  1  0.50000000  0.50000000  0.00000000  1
  O  O20  1  0.50000000  0.00000000  0.00000000  1
  O  O21  1  0.00000000  0.50000000  0.00000000  1
  O  O22  1  0.15475300  0.84524700  0.25000000  1
  O  O23  1  0.15475300  0.30950500  0.25000000  1
  O  O24  1  0.69049500  0.84524700  0.25000000  1
  O  O25  1  0.84524700  0.15475300  0.75000000  1
  O  O26  1  0.84524700  0.69049500  0.75000000  1
  O  O27  1  0.30950500  0.15475300  0.75000000  1
  O  O28  1  0.17596700  0.82403300  0.88266500  1
  O  O29  1  0.17596700  0.35193500  0.88266500  1
  O  O30  1  0.64806500  0.82403300  0.88266500  1
  O  O31  1  0.82403300  0.17596700  0.11733500  1
  O  O32  1  0.82403300  0.64806500  0.11733500  1
  O  O33  1  0.35193500  0.17596700  0.11733500  1
  O  O34  1  0.82403300  0.17596700  0.38266500  1
  O  O35  1  0.82403300  0.64806500  0.38266500  1
  O  O36  1  0.35193500  0.17596700  0.38266500  1
  O  O37  1  0.17596700  0.82403300  0.61733500  1
  O  O38  1  0.17596700  0.35193500  0.61733500  1
  O  O39  1  0.64806500  0.82403300  0.61733500  1
