# generated using pymatgen
data_Mn(PO3)3
_symmetry_space_group_name_H-M   'P 1'
_cell_length_a   7.30005695
_cell_length_b   9.67332078
_cell_length_c   10.21772791
_cell_angle_alpha   93.60573647
_cell_angle_beta   93.24936838
_cell_angle_gamma   101.01049595
_symmetry_Int_Tables_number   1
_chemical_formula_structural   Mn(PO3)3
_chemical_formula_sum   'Mn4 P12 O36'
_cell_volume   705.10922968
_cell_formula_units_Z   4
loop_
 _symmetry_equiv_pos_site_id
 _symmetry_equiv_pos_as_xyz
  1  'x, y, z'
loop_
 _atom_site_type_symbol
 _atom_site_label
 _atom_site_symmetry_multiplicity
 _atom_site_fract_x
 _atom_site_fract_y
 _atom_site_fract_z
 _atom_site_occupancy
  Mn  Mn0  1  0.15891400  0.86524100  0.04747000  1
  Mn  Mn1  1  0.84094100  0.63472400  0.45252300  1
  Mn  Mn2  1  0.15929900  0.36549000  0.54744600  1
  Mn  Mn3  1  0.84071300  0.13464200  0.95260200  1
  P  P4  1  0.56938700  0.33047300  0.47690500  1
  P  P5  1  0.56907200  0.83035800  0.97696700  1
  P  P6  1  0.43090400  0.66964300  0.52299900  1
  P  P7  1  0.43061100  0.16951400  0.02307800  1
  P  P8  1  0.80858500  0.89219400  0.22580500  1
  P  P9  1  0.80883900  0.39226000  0.72582000  1
  P  P10  1  0.19115600  0.10771700  0.77420200  1
  P  P11  1  0.19136300  0.60779200  0.27416600  1
  P  P12  1  0.81415600  0.11871700  0.44434600  1
  P  P13  1  0.81392100  0.61866000  0.94436900  1
  P  P14  1  0.18608800  0.88135700  0.55563200  1
  P  P15  1  0.18590000  0.38128400  0.05563900  1
  O  O16  1  0.31969600  0.05067700  0.09261200  1
  O  O17  1  0.32000200  0.55078400  0.59249500  1
  O  O18  1  0.68003000  0.94923100  0.90749500  1
  O  O19  1  0.68032100  0.44931900  0.40742000  1
  O  O20  1  0.35895100  0.30918900  0.45245300  1
  O  O21  1  0.35866100  0.80914300  0.95244200  1
  O  O22  1  0.64128500  0.69087900  0.54756100  1
  O  O23  1  0.64104000  0.19079000  0.04760700  1
  O  O24  1  0.96245100  0.93873100  0.13369600  1
  O  O25  1  0.96278100  0.43880900  0.63380700  1
  O  O26  1  0.03724400  0.06118700  0.86626700  1
  O  O27  1  0.03747700  0.56128600  0.36625500  1
  O  O28  1  0.97746000  0.24001800  0.42812400  1
  O  O29  1  0.97718700  0.74004300  0.92813200  1
  O  O30  1  0.02284100  0.75997400  0.57185100  1
  O  O31  1  0.02257800  0.25999300  0.07190800  1
  O  O32  1  0.61475400  0.85216700  0.13346800  1
  O  O33  1  0.61509000  0.35227100  0.63340100  1
  O  O34  1  0.38497800  0.14767600  0.86660200  1
  O  O35  1  0.38522000  0.64784000  0.36651600  1
  O  O36  1  0.62309300  0.18582100  0.43095300  1
  O  O37  1  0.62283300  0.68573800  0.93099500  1
  O  O38  1  0.37714800  0.81425200  0.56899600  1
  O  O39  1  0.37692800  0.31415300  0.06902700  1
  O  O40  1  0.18889500  0.96815500  0.44276500  1
  O  O41  1  0.18875800  0.46808800  0.94276100  1
  O  O42  1  0.81126100  0.03187800  0.55720700  1
  O  O43  1  0.81112100  0.53187700  0.05723200  1
  O  O44  1  0.77615600  0.03199800  0.30152000  1
  O  O45  1  0.77620500  0.53201200  0.80152200  1
  O  O46  1  0.22378000  0.96794900  0.69847900  1
  O  O47  1  0.22389700  0.46802100  0.19846000  1
  O  O48  1  0.18232600  0.22599300  0.69041000  1
  O  O49  1  0.18242800  0.72604700  0.19040200  1
  O  O50  1  0.81758400  0.77395900  0.30956300  1
  O  O51  1  0.81769000  0.27398700  0.80962900  1
