data_image0
_chemical_formula_structural       Eu6F20Rb2
_chemical_formula_sum              "Eu6 F20 Rb2"
_cell_length_a       7.98358
_cell_length_b       7.98358
_cell_length_c       7.98358
_cell_angle_alpha    60
_cell_angle_beta     60
_cell_angle_gamma    60

_space_group_name_H-M_alt    "P 1"
_space_group_IT_number       1

loop_
  _space_group_symop_operation_xyz
  'x, y, z'

loop_
  _atom_site_type_symbol
  _atom_site_label
  _atom_site_symmetry_multiplicity
  _atom_site_fract_x
  _atom_site_fract_y
  _atom_site_fract_z
  _atom_site_occupancy
  Eu  Eu1       1.0  0.76700  0.23300  0.23300  1.0000
  Eu  Eu2       1.0  0.23300  0.76700  0.76700  1.0000
  Eu  Eu3       1.0  0.23300  0.76700  0.23300  1.0000
  Eu  Eu4       1.0  0.23300  0.23300  0.76700  1.0000
  Eu  Eu5       1.0  0.76700  0.23300  0.76700  1.0000
  Eu  Eu6       1.0  0.76700  0.76700  0.23300  1.0000
  F   F1        1.0  0.11400  0.11400  0.11400  1.0000
  F   F2        1.0  0.11400  0.11400  0.65700  1.0000
  F   F3        1.0  0.65700  0.11400  0.11400  1.0000
  F   F4        1.0  0.11400  0.65700  0.11400  1.0000
  F   F5        1.0  0.88600  0.88600  0.88600  1.0000
  F   F6        1.0  0.88600  0.88600  0.34300  1.0000
  F   F7        1.0  0.88600  0.34300  0.88600  1.0000
  F   F8        1.0  0.34300  0.88600  0.88600  1.0000
  F   F9        1.0  0.86500  0.50000  0.50000  1.0000
  F   F10       1.0  0.50000  0.86500  0.13500  1.0000
  F   F11       1.0  0.13500  0.50000  0.50000  1.0000
  F   F12       1.0  0.50000  0.13500  0.86500  1.0000
  F   F13       1.0  0.50000  0.86500  0.50000  1.0000
  F   F14       1.0  0.50000  0.50000  0.86500  1.0000
  F   F15       1.0  0.86500  0.50000  0.13500  1.0000
  F   F16       1.0  0.86500  0.13500  0.50000  1.0000
  F   F17       1.0  0.13500  0.50000  0.86500  1.0000
  F   F18       1.0  0.50000  0.50000  0.13500  1.0000
  F   F19       1.0  0.50000  0.13500  0.50000  1.0000
  F   F20       1.0  0.13500  0.86500  0.50000  1.0000
  Rb  Rb1       1.0  0.25000  0.25000  0.25000  1.0000
  Rb  Rb2       1.0  0.75000  0.75000  0.75000  1.0000
