# generated using pymatgen
data_NaV2(PO4)3
_symmetry_space_group_name_H-M   'P 1'
_cell_length_a   8.86015600
_cell_length_b   8.51647100
_cell_length_c   14.44866729
_cell_angle_alpha   55.84505049
_cell_angle_beta   90.00000000
_cell_angle_gamma   90.00000000
_symmetry_Int_Tables_number   1
_chemical_formula_structural   NaV2(PO4)3
_chemical_formula_sum   'Na4 V8 P12 O48'
_cell_volume   902.21184166
_cell_formula_units_Z   4
loop_
 _symmetry_equiv_pos_site_id
 _symmetry_equiv_pos_as_xyz
  1  'x, y, z'
loop_
 _atom_site_type_symbol
 _atom_site_label
 _atom_site_symmetry_multiplicity
 _atom_site_fract_x
 _atom_site_fract_y
 _atom_site_fract_z
 _atom_site_occupancy
  Na  Na0  1  0.80582700  0.97717900  0.34534400  1
  Na  Na1  1  0.30582700  0.02282100  0.15465600  1
  Na  Na2  1  0.69417300  0.97717900  0.84534400  1
  Na  Na3  1  0.19417300  0.02282100  0.65465600  1
  V  V4  1  0.53413500  0.36599100  0.88621600  1
  V  V5  1  0.96730700  0.14506500  0.10911100  1
  V  V6  1  0.03413500  0.63400900  0.61378400  1
  V  V7  1  0.46730700  0.85493500  0.39088900  1
  V  V8  1  0.53269300  0.14506500  0.60911100  1
  V  V9  1  0.96586500  0.36599100  0.38621600  1
  V  V10  1  0.03269300  0.85493500  0.89088900  1
  V  V11  1  0.46586500  0.63400900  0.11378400  1
  P  P12  1  0.25050100  0.47035900  0.00074900  1
  P  P13  1  0.38679400  0.73947500  0.65103100  1
  P  P14  1  0.12152100  0.03927800  0.35453000  1
  P  P15  1  0.62152100  0.96072200  0.14547000  1
  P  P16  1  0.88679400  0.26052500  0.84896900  1
  P  P17  1  0.75050100  0.52964100  0.49925100  1
  P  P18  1  0.24949900  0.47035900  0.50074900  1
  P  P19  1  0.11320600  0.73947500  0.15103100  1
  P  P20  1  0.37847900  0.03927800  0.85453000  1
  P  P21  1  0.87847900  0.96072200  0.64547000  1
  P  P22  1  0.61320600  0.26052500  0.34896900  1
  P  P23  1  0.74949900  0.52964100  0.99925100  1
  O  O24  1  0.85677300  0.36548100  0.07449900  1
  O  O25  1  0.89393400  0.80522800  0.62153000  1
  O  O26  1  0.57731000  0.09479300  0.33862300  1
  O  O27  1  0.67883900  0.50982000  0.90690200  1
  O  O28  1  0.37544800  0.46811700  0.92792700  1
  O  O29  1  0.21359000  0.71463100  0.66337100  1
  O  O30  1  0.43226000  0.80749200  0.52887500  1
  O  O31  1  0.01740100  0.09786400  0.25262500  1
  O  O32  1  0.16608100  0.27966700  0.05941700  1
  O  O33  1  0.28333000  0.02049400  0.32400900  1
  O  O34  1  0.05814600  0.84923900  0.45316400  1
  O  O35  1  0.48076700  0.56180700  0.72970400  1
  O  O36  1  0.98076700  0.43819300  0.77029600  1
  O  O37  1  0.55814600  0.15076100  0.04683600  1
  O  O38  1  0.78333000  0.97950600  0.17599100  1
  O  O39  1  0.66608100  0.72033300  0.44058300  1
  O  O40  1  0.93226000  0.19250800  0.97112500  1
  O  O41  1  0.51740100  0.90213600  0.24737500  1
  O  O42  1  0.71359000  0.28536900  0.83662900  1
  O  O43  1  0.87544800  0.53188300  0.57207300  1
  O  O44  1  0.17883900  0.49018000  0.59309800  1
  O  O45  1  0.39393400  0.19477200  0.87847000  1
  O  O46  1  0.07731000  0.90520700  0.16137700  1
  O  O47  1  0.35677300  0.63451900  0.42550100  1
  O  O48  1  0.64322700  0.36548100  0.57449900  1
  O  O49  1  0.92269000  0.09479300  0.83862300  1
  O  O50  1  0.60606600  0.80522800  0.12153000  1
  O  O51  1  0.82116100  0.50982000  0.40690200  1
  O  O52  1  0.12455200  0.46811700  0.42792700  1
  O  O53  1  0.28641000  0.71463100  0.16337100  1
  O  O54  1  0.48259900  0.09786400  0.75262500  1
  O  O55  1  0.06774000  0.80749200  0.02887500  1
  O  O56  1  0.33391900  0.27966700  0.55941700  1
  O  O57  1  0.21667000  0.02049400  0.82400900  1
  O  O58  1  0.44185400  0.84923900  0.95316400  1
  O  O59  1  0.01923300  0.56180700  0.22970400  1
  O  O60  1  0.51923300  0.43819300  0.27029600  1
  O  O61  1  0.94185400  0.15076100  0.54683600  1
  O  O62  1  0.71667000  0.97950600  0.67599100  1
  O  O63  1  0.83391900  0.72033300  0.94058300  1
  O  O64  1  0.98259900  0.90213600  0.74737500  1
  O  O65  1  0.56774000  0.19250800  0.47112500  1
  O  O66  1  0.78641000  0.28536900  0.33662900  1
  O  O67  1  0.62455200  0.53188300  0.07207300  1
  O  O68  1  0.32116100  0.49018000  0.09309800  1
  O  O69  1  0.42269000  0.90520700  0.66137700  1
  O  O70  1  0.10606600  0.19477200  0.37847000  1
  O  O71  1  0.14322700  0.63451900  0.92550100  1
