# generated using pymatgen
data_Li4Fe7(OF7)2
_symmetry_space_group_name_H-M   'P 1'
_cell_length_a   6.15558073
_cell_length_b   6.26946748
_cell_length_c   10.85899682
_cell_angle_alpha   90.11699470
_cell_angle_beta   72.61663799
_cell_angle_gamma   120.70671882
_symmetry_Int_Tables_number   1
_chemical_formula_structural   Li4Fe7(OF7)2
_chemical_formula_sum   'Li4 Fe7 O2 F14'
_cell_volume   338.02367807
_cell_formula_units_Z   1
loop_
 _symmetry_equiv_pos_site_id
 _symmetry_equiv_pos_as_xyz
  1  'x, y, z'
loop_
 _atom_site_type_symbol
 _atom_site_label
 _atom_site_symmetry_multiplicity
 _atom_site_fract_x
 _atom_site_fract_y
 _atom_site_fract_z
 _atom_site_occupancy
  Li  Li0  1  0.84631800  0.19608000  0.44484000  1
  Li  Li1  1  0.13506300  0.31654300  0.05704200  1
  Li  Li2  1  0.85394700  0.67372500  0.94759600  1
  Li  Li3  1  0.14412200  0.81275900  0.55808800  1
  Fe  Fe4  1  0.52126600  0.00616700  0.99073000  1
  Fe  Fe5  1  0.52269700  0.27184400  0.25209400  1
  Fe  Fe6  1  0.51395800  0.74231100  0.24260100  1
  Fe  Fe7  1  0.48919400  0.48374700  0.50297800  1
  Fe  Fe8  1  0.49207300  0.24813000  0.74961700  1
  Fe  Fe9  1  0.97827000  0.72951600  0.25232400  1
  Fe  Fe10  1  0.50514500  0.75288700  0.74841400  1
  O  O11  1  0.72864000  0.39669900  0.37602400  1
  O  O12  1  0.74116600  0.62961100  0.13773600  1
  F  F13  1  0.74382600  0.12451900  0.12087500  1
  F  F14  1  0.71391700  0.10056100  0.63732100  1
  F  F15  1  0.26995000  0.10428100  0.12926900  1
  F  F16  1  0.74551900  0.62095900  0.62996200  1
  F  F17  1  0.27248900  0.12432300  0.62918200  1
  F  F18  1  0.25827600  0.64123200  0.12217600  1
  F  F19  1  0.24086900  0.37757400  0.37872900  1
  F  F20  1  0.74326900  0.87588800  0.37566700  1
  F  F21  1  0.70550700  0.35680100  0.87588500  1
  F  F22  1  0.72296100  0.86522400  0.88134600  1
  F  F23  1  0.29303400  0.63591100  0.61304200  1
  F  F24  1  0.28411200  0.40684500  0.86760300  1
  F  F25  1  0.27371100  0.87515600  0.35360200  1
  F  F26  1  0.26070000  0.88070400  0.87525700  1
