# generated using pymatgen
data_MnFeCo(PO4)3
_symmetry_space_group_name_H-M   'P 1'
_cell_length_a   5.95322800
_cell_length_b   9.90339500
_cell_length_c   14.59200382
_cell_angle_alpha   89.94069777
_cell_angle_beta   90.00000000
_cell_angle_gamma   90.00000000
_symmetry_Int_Tables_number   1
_chemical_formula_structural   MnFeCo(PO4)3
_chemical_formula_sum   'Mn4 Fe4 Co4 P12 O48'
_cell_volume   860.30276560
_cell_formula_units_Z   4
loop_
 _symmetry_equiv_pos_site_id
 _symmetry_equiv_pos_as_xyz
  1  'x, y, z'
loop_
 _atom_site_type_symbol
 _atom_site_label
 _atom_site_symmetry_multiplicity
 _atom_site_fract_x
 _atom_site_fract_y
 _atom_site_fract_z
 _atom_site_occupancy
  Mn  Mn0  1  0.50000000  0.78066600  0.14833600  1
  Mn  Mn1  1  0.00000000  0.71711400  0.64648500  1
  Mn  Mn2  1  0.00000000  0.71648500  0.31379500  1
  Mn  Mn3  1  0.50000000  0.28053200  0.01866400  1
  Fe  Fe4  1  0.50000000  0.77834800  0.81957200  1
  Fe  Fe5  1  0.50000000  0.77660200  0.48828400  1
  Fe  Fe6  1  0.00000000  0.72686200  0.98698600  1
  Fe  Fe7  1  0.50000000  0.27357700  0.34508400  1
  Co  Co8  1  0.50000000  0.28133900  0.68445500  1
  Co  Co9  1  0.00000000  0.21339300  0.85278800  1
  Co  Co10  1  0.00000000  0.22978100  0.17804900  1
  Co  Co11  1  0.00000000  0.21898200  0.51862600  1
  P  P12  1  0.00000000  0.90341500  0.80400900  1
  P  P13  1  0.00000000  0.90093300  0.47221900  1
  P  P14  1  0.00000000  0.90452800  0.13962400  1
  P  P15  1  0.50000000  0.59936800  0.97351700  1
  P  P16  1  0.50000000  0.59584700  0.63914300  1
  P  P17  1  0.50000000  0.59788200  0.30529300  1
  P  P18  1  0.00000000  0.40182100  0.69288900  1
  P  P19  1  0.00000000  0.40084800  0.02592200  1
  P  P20  1  0.00000000  0.39985800  0.36322400  1
  P  P21  1  0.50000000  0.09787400  0.85858800  1
  P  P22  1  0.50000000  0.09817800  0.52967100  1
  P  P23  1  0.50000000  0.09863000  0.19393700  1
  O  O24  1  0.50000000  0.94931400  0.88583700  1
  O  O25  1  0.50000000  0.94876500  0.55431100  1
  O  O26  1  0.50000000  0.94607400  0.21487300  1
  O  O27  1  0.00000000  0.88382200  0.90856700  1
  O  O28  1  0.00000000  0.88127100  0.57762700  1
  O  O29  1  0.00000000  0.88184200  0.24348300  1
  O  O30  1  0.20486300  0.83015700  0.75842400  1
  O  O31  1  0.79513700  0.83015700  0.75842400  1
  O  O32  1  0.20484600  0.82892100  0.42611900  1
  O  O33  1  0.79515400  0.82892100  0.42611900  1
  O  O34  1  0.19846200  0.82981200  0.08891300  1
  O  O35  1  0.80153800  0.82981200  0.08891300  1
  O  O36  1  0.70148100  0.67262300  0.92514400  1
  O  O37  1  0.29851900  0.67262300  0.92514400  1
  O  O38  1  0.69879300  0.67130900  0.58934000  1
  O  O39  1  0.30120700  0.67130900  0.58934000  1
  O  O40  1  0.70153400  0.67142700  0.25645900  1
  O  O41  1  0.29846600  0.67142700  0.25645900  1
  O  O42  1  0.50000000  0.61765200  0.74241800  1
  O  O43  1  0.50000000  0.61925700  0.40889700  1
  O  O44  1  0.50000000  0.61789200  0.07826500  1
  O  O45  1  0.00000000  0.55276700  0.71846800  1
  O  O46  1  0.00000000  0.55128400  0.04873100  1
  O  O47  1  0.00000000  0.55209100  0.38389600  1
  O  O48  1  0.50000000  0.44751300  0.95199300  1
  O  O49  1  0.50000000  0.44675100  0.28257100  1
  O  O50  1  0.50000000  0.44555900  0.61411700  1
  O  O51  1  0.00000000  0.38024800  0.92252400  1
  O  O52  1  0.00000000  0.38536200  0.58880800  1
  O  O53  1  0.00000000  0.37684800  0.25784900  1
  O  O54  1  0.20462600  0.32865000  0.74086400  1
  O  O55  1  0.79537400  0.32865000  0.74086400  1
  O  O56  1  0.20337500  0.32795200  0.40990800  1
  O  O57  1  0.79662500  0.32795200  0.40990800  1
  O  O58  1  0.19961800  0.32631900  0.07730800  1
  O  O59  1  0.80038200  0.32631900  0.07730800  1
  O  O60  1  0.70383300  0.17362400  0.57737800  1
  O  O61  1  0.29616700  0.17362400  0.57737800  1
  O  O62  1  0.70289200  0.17403600  0.90591800  1
  O  O63  1  0.29710800  0.17403600  0.90591800  1
  O  O64  1  0.70090200  0.16987100  0.24345400  1
  O  O65  1  0.29909800  0.16987100  0.24345400  1
  O  O66  1  0.50000000  0.11465500  0.75406300  1
  O  O67  1  0.50000000  0.11891200  0.42630600  1
  O  O68  1  0.50000000  0.11690800  0.08869700  1
  O  O69  1  0.00000000  0.05442100  0.77938400  1
  O  O70  1  0.00000000  0.05271600  0.45089900  1
  O  O71  1  0.00000000  0.05649400  0.11934300  1
