# generated using pymatgen
data_Al(BiO2)2
_symmetry_space_group_name_H-M   'P 1'
_cell_length_a   8.37655400
_cell_length_b   8.37655400
_cell_length_c   6.29465700
_cell_angle_alpha   90.00000000
_cell_angle_beta   90.00000000
_cell_angle_gamma   90.00000000
_symmetry_Int_Tables_number   1
_chemical_formula_structural   Al(BiO2)2
_chemical_formula_sum   'Al4 Bi8 O16'
_cell_volume   441.67503812
_cell_formula_units_Z   4
loop_
 _symmetry_equiv_pos_site_id
 _symmetry_equiv_pos_as_xyz
  1  'x, y, z'
loop_
 _atom_site_type_symbol
 _atom_site_label
 _atom_site_symmetry_multiplicity
 _atom_site_fract_x
 _atom_site_fract_y
 _atom_site_fract_z
 _atom_site_occupancy
  Al  Al0  1  0.00000000  0.50000000  0.06911700  1
  Al  Al1  1  0.50000000  0.00000000  0.43088300  1
  Al  Al2  1  0.50000000  0.00000000  0.93088300  1
  Al  Al3  1  0.00000000  0.50000000  0.56911700  1
  Bi  Bi4  1  0.66668200  0.66668200  0.25000000  1
  Bi  Bi5  1  0.16668200  0.83331800  0.25000000  1
  Bi  Bi6  1  0.83331800  0.16668200  0.25000000  1
  Bi  Bi7  1  0.33331800  0.33331800  0.25000000  1
  Bi  Bi8  1  0.83331800  0.83331800  0.75000000  1
  Bi  Bi9  1  0.33331800  0.66668200  0.75000000  1
  Bi  Bi10  1  0.66668200  0.33331800  0.75000000  1
  Bi  Bi11  1  0.16668200  0.16668200  0.75000000  1
  O  O12  1  0.59881000  0.80073900  0.91584100  1
  O  O13  1  0.30073900  0.90119000  0.91584100  1
  O  O14  1  0.69926100  0.09881000  0.91584100  1
  O  O15  1  0.40119000  0.19926100  0.91584100  1
  O  O16  1  0.90119000  0.30073900  0.58415900  1
  O  O17  1  0.09881000  0.69926100  0.58415900  1
  O  O18  1  0.80073900  0.59881000  0.58415900  1
  O  O19  1  0.19926100  0.40119000  0.58415900  1
  O  O20  1  0.90119000  0.69926100  0.08415900  1
  O  O21  1  0.19926100  0.59881000  0.08415900  1
  O  O22  1  0.80073900  0.40119000  0.08415900  1
  O  O23  1  0.09881000  0.30073900  0.08415900  1
  O  O24  1  0.59881000  0.19926100  0.41584100  1
  O  O25  1  0.40119000  0.80073900  0.41584100  1
  O  O26  1  0.69926100  0.90119000  0.41584100  1
  O  O27  1  0.30073900  0.09881000  0.41584100  1
