# generated using pymatgen
data_MnFeCo(PO4)3
_symmetry_space_group_name_H-M   'P 1'
_cell_length_a   6.00656200
_cell_length_b   9.85508200
_cell_length_c   14.65443456
_cell_angle_alpha   89.70174023
_cell_angle_beta   90.00000000
_cell_angle_gamma   90.00000000
_symmetry_Int_Tables_number   1
_chemical_formula_structural   MnFeCo(PO4)3
_chemical_formula_sum   'Mn4 Fe4 Co4 P12 O48'
_cell_volume   867.45986006
_cell_formula_units_Z   4
loop_
 _symmetry_equiv_pos_site_id
 _symmetry_equiv_pos_as_xyz
  1  'x, y, z'
loop_
 _atom_site_type_symbol
 _atom_site_label
 _atom_site_symmetry_multiplicity
 _atom_site_fract_x
 _atom_site_fract_y
 _atom_site_fract_z
 _atom_site_occupancy
  Mn  Mn0  1  0.00000000  0.21590500  0.81226600  1
  Mn  Mn1  1  0.00000000  0.21328800  0.48041400  1
  Mn  Mn2  1  0.50000000  0.28303300  0.64604600  1
  Mn  Mn3  1  0.50000000  0.28355200  0.31324400  1
  Fe  Fe4  1  0.00000000  0.22549500  0.15393800  1
  Fe  Fe5  1  0.50000000  0.27691500  0.98510200  1
  Fe  Fe6  1  0.00000000  0.72911700  0.34410700  1
  Fe  Fe7  1  0.00000000  0.72684900  0.00887900  1
  Co  Co8  1  0.00000000  0.72644400  0.67707300  1
  Co  Co9  1  0.50000000  0.77184500  0.17652000  1
  Co  Co10  1  0.50000000  0.77412000  0.51414000  1
  Co  Co11  1  0.50000000  0.77282100  0.84062500  1
  P  P12  1  0.50000000  0.09847700  0.47275000  1
  P  P13  1  0.50000000  0.09738300  0.80531500  1
  P  P14  1  0.50000000  0.09923900  0.14034400  1
  P  P15  1  0.00000000  0.40030300  0.97057900  1
  P  P16  1  0.00000000  0.40111100  0.30732900  1
  P  P17  1  0.00000000  0.40068800  0.63951000  1
  P  P18  1  0.50000000  0.60168400  0.02761500  1
  P  P19  1  0.50000000  0.60152900  0.36241800  1
  P  P20  1  0.50000000  0.59809800  0.69603900  1
  P  P21  1  0.00000000  0.90043000  0.52968000  1
  P  P22  1  0.00000000  0.90086100  0.86037900  1
  P  P23  1  0.00000000  0.90128500  0.19490600  1
  O  O24  1  0.00000000  0.05329300  0.88242700  1
  O  O25  1  0.00000000  0.05300700  0.55368700  1
  O  O26  1  0.00000000  0.05335100  0.21646600  1
  O  O27  1  0.50000000  0.11994600  0.24441700  1
  O  O28  1  0.50000000  0.11869100  0.57668200  1
  O  O29  1  0.50000000  0.11769200  0.90845200  1
  O  O30  1  0.29970000  0.17098700  0.42444900  1
  O  O31  1  0.70030000  0.17098700  0.42444900  1
  O  O32  1  0.29891200  0.16795300  0.75659400  1
  O  O33  1  0.70108800  0.16795300  0.75659400  1
  O  O34  1  0.30032500  0.17168600  0.09155900  1
  O  O35  1  0.69967500  0.17168600  0.09155900  1
  O  O36  1  0.80198600  0.32731300  0.25706500  1
  O  O37  1  0.19801400  0.32731300  0.25706500  1
  O  O38  1  0.79567000  0.32844600  0.92514400  1
  O  O39  1  0.20433000  0.32844600  0.92514400  1
  O  O40  1  0.79945700  0.32985600  0.59112000  1
  O  O41  1  0.20054300  0.32985600  0.59112000  1
  O  O42  1  0.00000000  0.37909400  0.07465900  1
  O  O43  1  0.00000000  0.37891000  0.41084000  1
  O  O44  1  0.00000000  0.38103500  0.74366500  1
  O  O45  1  0.50000000  0.45017400  0.04895500  1
  O  O46  1  0.50000000  0.44788700  0.38317400  1
  O  O47  1  0.50000000  0.44517900  0.71754400  1
  O  O48  1  0.00000000  0.55285300  0.94938400  1
  O  O49  1  0.00000000  0.55220400  0.28648100  1
  O  O50  1  0.00000000  0.55531200  0.62080300  1
  O  O51  1  0.50000000  0.62356700  0.25765100  1
  O  O52  1  0.50000000  0.62710500  0.92368200  1
  O  O53  1  0.50000000  0.62114500  0.59111000  1
  O  O54  1  0.29788100  0.67272800  0.40971100  1
  O  O55  1  0.70211900  0.67272800  0.40971100  1
  O  O56  1  0.29874300  0.67467000  0.07579600  1
  O  O57  1  0.70125700  0.67467000  0.07579600  1
  O  O58  1  0.29895400  0.66983400  0.74365000  1
  O  O59  1  0.70104600  0.66983400  0.74365000  1
  O  O60  1  0.79879100  0.82766800  0.57812500  1
  O  O61  1  0.20120900  0.82766800  0.57812500  1
  O  O62  1  0.79997700  0.82968800  0.90957000  1
  O  O63  1  0.20002300  0.82968800  0.90957000  1
  O  O64  1  0.80087300  0.82796600  0.24498200  1
  O  O65  1  0.19912700  0.82796600  0.24498200  1
  O  O66  1  0.00000000  0.87677600  0.75628400  1
  O  O67  1  0.00000000  0.87997200  0.09190400  1
  O  O68  1  0.00000000  0.88219200  0.42625500  1
  O  O69  1  0.50000000  0.94453200  0.45267100  1
  O  O70  1  0.50000000  0.94288300  0.78470500  1
  O  O71  1  0.50000000  0.94512500  0.12260600  1
