# generated using pymatgen
data_Na5Fe11O16
_symmetry_space_group_name_H-M   'P 1'
_cell_length_a   6.20220660
_cell_length_b   6.20220660
_cell_length_c   10.95614053
_cell_angle_alpha   74.23776705
_cell_angle_beta   74.23776705
_cell_angle_gamma   59.93310090
_symmetry_Int_Tables_number   1
_chemical_formula_structural   Na5Fe11O16
_chemical_formula_sum   'Na5 Fe11 O16'
_cell_volume   346.34837685
_cell_formula_units_Z   1
loop_
 _symmetry_equiv_pos_site_id
 _symmetry_equiv_pos_as_xyz
  1  'x, y, z'
loop_
 _atom_site_type_symbol
 _atom_site_label
 _atom_site_symmetry_multiplicity
 _atom_site_fract_x
 _atom_site_fract_y
 _atom_site_fract_z
 _atom_site_occupancy
  Na  Na0  1  0.81194800  0.31544600  0.05972200  1
  Na  Na1  1  0.31544600  0.81194800  0.05972200  1
  Na  Na2  1  0.81167200  0.31441300  0.56636200  1
  Na  Na3  1  0.81187700  0.81187700  0.06364700  1
  Na  Na4  1  0.31441300  0.81167200  0.56636200  1
  Fe  Fe5  1  0.06392600  0.06392600  0.31507200  1
  Fe  Fe6  1  0.31597900  0.31597900  0.05812300  1
  Fe  Fe7  1  0.56490300  0.05934300  0.81409100  1
  Fe  Fe8  1  0.06308000  0.56641400  0.31387000  1
  Fe  Fe9  1  0.56641400  0.06308000  0.31387000  1
  Fe  Fe10  1  0.81167800  0.81167800  0.56731500  1
  Fe  Fe11  1  0.56462000  0.56462000  0.31349000  1
  Fe  Fe12  1  0.06100100  0.06100100  0.81461800  1
  Fe  Fe13  1  0.56259500  0.56259500  0.81013300  1
  Fe  Fe14  1  0.31373600  0.31373600  0.56699500  1
  Fe  Fe15  1  0.05934300  0.56490300  0.81409100  1
  O  O16  1  0.95739500  0.41664600  0.20824900  1
  O  O17  1  0.69811600  0.16795000  0.43069500  1
  O  O18  1  0.19815700  0.19815700  0.91963000  1
  O  O19  1  0.93276100  0.93276100  0.21315400  1
  O  O20  1  0.70180500  0.70180500  0.41770100  1
  O  O21  1  0.42220900  0.42220900  0.70013100  1
  O  O22  1  0.42671800  0.42671800  0.20904900  1
  O  O23  1  0.20263500  0.20263500  0.42479500  1
  O  O24  1  0.44562700  0.95237800  0.69245800  1
  O  O25  1  0.41664600  0.95739500  0.20824900  1
  O  O26  1  0.95237800  0.44562700  0.69245800  1
  O  O27  1  0.66947000  0.19111700  0.92543100  1
  O  O28  1  0.19111700  0.66947000  0.92543100  1
  O  O29  1  0.16795000  0.69811600  0.43069500  1
  O  O30  1  0.92678300  0.92678300  0.70609000  1
  O  O31  1  0.69791500  0.69791500  0.91376500  1
