# generated using pymatgen
data_Co29Ge13O56
_symmetry_space_group_name_H-M   'P 1'
_cell_length_a   10.29695725
_cell_length_b   10.29695725
_cell_length_c   10.29695653
_cell_angle_alpha   99.62237488
_cell_angle_beta   99.62237488
_cell_angle_gamma   99.62238117
_symmetry_Int_Tables_number   1
_chemical_formula_structural   Co29Ge13O56
_chemical_formula_sum   'Co29 Ge13 O56'
_cell_volume   1039.66058954
_cell_formula_units_Z   1
loop_
 _symmetry_equiv_pos_site_id
 _symmetry_equiv_pos_as_xyz
  1  'x, y, z'
loop_
 _atom_site_type_symbol
 _atom_site_label
 _atom_site_symmetry_multiplicity
 _atom_site_fract_x
 _atom_site_fract_y
 _atom_site_fract_z
 _atom_site_occupancy
  Co  Co0  1  0.80181500  0.08855100  0.73253200  1
  Co  Co1  1  0.94523400  0.16047600  0.51774600  1
  Co  Co2  1  0.66110200  0.01765900  0.94394600  1
  Co  Co3  1  0.94740500  0.66199300  0.51971200  1
  Co  Co4  1  0.66199300  0.51971200  0.94740500  1
  Co  Co5  1  0.80321500  0.08923600  0.23233600  1
  Co  Co6  1  0.87500700  0.37536000  0.37525900  1
  Co  Co7  1  0.59004900  0.23267500  0.80369500  1
  Co  Co8  1  0.75004000  0.75004000  0.75004000  1
  Co  Co9  1  0.51822700  0.44771300  0.65883700  1
  Co  Co10  1  0.37536000  0.37525900  0.87500700  1
  Co  Co11  1  0.80369500  0.59004900  0.23267500  1
  Co  Co12  1  0.94394600  0.66110200  0.01765900  1
  Co  Co13  1  0.65883700  0.51822700  0.44771300  1
  Co  Co14  1  0.30287800  0.08976400  0.23209400  1
  Co  Co15  1  0.37559300  0.37559300  0.37559300  1
  Co  Co16  1  0.73253200  0.80181500  0.08855100  1
  Co  Co17  1  0.08923600  0.23233600  0.80321500  1
  Co  Co18  1  0.16047600  0.51774600  0.94523400  1
  Co  Co19  1  0.44771300  0.65883700  0.51822700  1
  Co  Co20  1  0.51971200  0.94740500  0.66199300  1
  Co  Co21  1  0.23209400  0.30287800  0.08976400  1
  Co  Co22  1  0.08976400  0.23209400  0.30287800  1
  Co  Co23  1  0.51774600  0.94523400  0.16047600  1
  Co  Co24  1  0.23267500  0.80369500  0.59004900  1
  Co  Co25  1  0.37525900  0.87500700  0.37536000  1
  Co  Co26  1  0.08855100  0.73253200  0.80181500  1
  Co  Co27  1  0.23233600  0.80321500  0.08923600  1
  Co  Co28  1  0.01765900  0.94394600  0.66110200  1
  Ge  Ge29  1  0.85647800  0.42875800  0.71432500  1
  Ge  Ge30  1  0.32170400  0.03662300  0.89343700  1
  Ge  Ge31  1  0.89343700  0.32170400  0.03662300  1
  Ge  Ge32  1  0.60649300  0.17769000  0.46268000  1
  Ge  Ge33  1  0.57194100  0.28655100  0.14333100  1
  Ge  Ge34  1  0.42875800  0.71432500  0.85647800  1
  Ge  Ge35  1  0.71432500  0.85647800  0.42875800  1
  Ge  Ge36  1  0.28655100  0.14333100  0.57194100  1
  Ge  Ge37  1  0.99920500  0.99920500  0.99920500  1
  Ge  Ge38  1  0.46268000  0.60649300  0.17769000  1
  Ge  Ge39  1  0.17769000  0.46268000  0.60649300  1
  Ge  Ge40  1  0.14333100  0.57194100  0.28655100  1
  Ge  Ge41  1  0.03662300  0.89343700  0.32170400  1
  O  O42  1  0.98160700  0.05363500  0.84045700  1
  O  O43  1  0.76825600  0.20031300  0.91268800  1
  O  O44  1  0.98298200  0.05311300  0.33881400  1
  O  O45  1  0.98109400  0.55115300  0.83913500  1
  O  O46  1  0.90899700  0.26809800  0.69622500  1
  O  O47  1  0.69734000  0.41054500  0.76755800  1
  O  O48  1  0.83952100  0.48234800  0.55519600  1
  O  O49  1  0.98431400  0.55442600  0.34082600  1
  O  O50  1  0.55442600  0.34082600  0.98431400  1
  O  O51  1  0.92307700  0.76884300  0.69269300  1
  O  O52  1  0.91135700  0.26900800  0.19572100  1
  O  O53  1  0.62469000  0.12734900  0.62261000  1
  O  O54  1  0.76553900  0.19655400  0.40963800  1
  O  O55  1  0.76884300  0.69269300  0.92307700  1
  O  O56  1  0.48052300  0.05583700  0.83952200  1
  O  O57  1  0.55167300  0.33527100  0.47909300  1
  O  O58  1  0.61569900  0.61569900  0.61569900  1
  O  O59  1  0.83952200  0.48052300  0.05583700  1
  O  O60  1  0.48309000  0.05283900  0.33887200  1
  O  O61  1  0.26900800  0.19572100  0.91135700  1
  O  O62  1  0.91268800  0.76825600  0.20031300  1
  O  O63  1  0.69269300  0.92307700  0.76884300  1
  O  O64  1  0.69586800  0.41130300  0.26833100  1
  O  O65  1  0.48234800  0.55519600  0.83952100  1
  O  O66  1  0.83913500  0.98109400  0.55115300  1
  O  O67  1  0.62561400  0.12694900  0.12456800  1
  O  O68  1  0.55115300  0.83913500  0.98109400  1
  O  O69  1  0.76755800  0.69734000  0.41054500  1
  O  O70  1  0.41130300  0.26833100  0.69586800  1
  O  O71  1  0.84045700  0.98160700  0.05363500  1
  O  O72  1  0.12694900  0.12456800  0.62561400  1
  O  O73  1  0.41217800  0.26878300  0.19579400  1
  O  O74  1  0.26809800  0.69622500  0.90899700  1
  O  O75  1  0.55519600  0.83952100  0.48234800  1
  O  O76  1  0.69622500  0.90899700  0.26809800  1
  O  O77  1  0.26878300  0.19579400  0.41217800  1
  O  O78  1  0.41054500  0.76755800  0.69734000  1
  O  O79  1  0.19655400  0.40963800  0.76553900  1
  O  O80  1  0.05311300  0.33881400  0.98298200  1
  O  O81  1  0.47909300  0.55167300  0.33527100  1
  O  O82  1  0.62261000  0.62469000  0.12734900  1
  O  O83  1  0.33527100  0.47909300  0.55167300  1
  O  O84  1  0.33887200  0.48309000  0.05283900  1
  O  O85  1  0.12734900  0.62261000  0.62469000  1
  O  O86  1  0.40963800  0.76553900  0.19655400  1
  O  O87  1  0.05283900  0.33887200  0.48309000  1
  O  O88  1  0.20031300  0.91268800  0.76825600  1
  O  O89  1  0.34082600  0.98431400  0.55442600  1
  O  O90  1  0.19579400  0.41217800  0.26878300  1
  O  O91  1  0.12311400  0.12311400  0.12311400  1
  O  O92  1  0.26833100  0.69586800  0.41130300  1
  O  O93  1  0.05363500  0.84045700  0.98160700  1
  O  O94  1  0.12456800  0.62561400  0.12694900  1
  O  O95  1  0.33881400  0.98298200  0.05311300  1
  O  O96  1  0.05583700  0.83952200  0.48052300  1
  O  O97  1  0.19572100  0.91135700  0.26900800  1
