# generated using pymatgen
data_Al2ZnS4
_symmetry_space_group_name_H-M   'P 1'
_cell_length_a   12.37908116
_cell_length_b   12.37908116
_cell_length_c   12.37908100
_cell_angle_alpha   17.16942328
_cell_angle_beta   17.16942328
_cell_angle_gamma   17.16942245
_symmetry_Int_Tables_number   1
_chemical_formula_structural   Al2ZnS4
_chemical_formula_sum   'Al2 Zn1 S4'
_cell_volume   144.23165800
_cell_formula_units_Z   1
loop_
 _symmetry_equiv_pos_site_id
 _symmetry_equiv_pos_as_xyz
  1  'x, y, z'
loop_
 _atom_site_type_symbol
 _atom_site_label
 _atom_site_symmetry_multiplicity
 _atom_site_fract_x
 _atom_site_fract_y
 _atom_site_fract_z
 _atom_site_occupancy
  Al  Al0  1  0.76289000  0.76289000  0.76289000  1
  Al  Al1  1  0.23711000  0.23711000  0.23711000  1
  Zn  Zn2  1  0.00000000  0.00000000  0.00000000  1
  S  S3  1  0.87808100  0.87808100  0.87808100  1
  S  S4  1  0.12191900  0.12191900  0.12191900  1
  S  S5  1  0.29776000  0.29776000  0.29776000  1
  S  S6  1  0.70224000  0.70224000  0.70224000  1
