# generated using pymatgen
data_FeGeS3
_symmetry_space_group_name_H-M   'P 1'
_cell_length_a   6.04105334
_cell_length_b   7.71783707
_cell_length_c   7.71783692
_cell_angle_alpha   83.75699699
_cell_angle_beta   83.83293520
_cell_angle_gamma   83.83293161
_symmetry_Int_Tables_number   1
_chemical_formula_structural   FeGeS3
_chemical_formula_sum   'Fe4 Ge4 S12'
_cell_volume   353.95859274
_cell_formula_units_Z   4
loop_
 _symmetry_equiv_pos_site_id
 _symmetry_equiv_pos_as_xyz
  1  'x, y, z'
loop_
 _atom_site_type_symbol
 _atom_site_label
 _atom_site_symmetry_multiplicity
 _atom_site_fract_x
 _atom_site_fract_y
 _atom_site_fract_z
 _atom_site_occupancy
  Fe  Fe0  1  0.75000000  0.08525300  0.91474700  1
  Fe  Fe1  1  0.75000000  0.74451700  0.25548300  1
  Fe  Fe2  1  0.25000000  0.25548300  0.74451700  1
  Fe  Fe3  1  0.25000000  0.91474700  0.08525300  1
  Ge  Ge4  1  0.71561800  0.59531300  0.79532600  1
  Ge  Ge5  1  0.21561800  0.79532600  0.59531300  1
  Ge  Ge6  1  0.78438200  0.20467400  0.40468700  1
  Ge  Ge7  1  0.28438200  0.40468700  0.20467400  1
  S  S8  1  0.61146100  0.81998600  0.99540100  1
  S  S9  1  0.11146100  0.99540100  0.81998600  1
  S  S10  1  0.87869900  0.71803600  0.52933800  1
  S  S11  1  0.91635000  0.33743600  0.89689900  1
  S  S12  1  0.37869900  0.52933800  0.71803600  1
  S  S13  1  0.41635000  0.89689900  0.33743600  1
  S  S14  1  0.58365000  0.10310100  0.66256400  1
  S  S15  1  0.62130100  0.47066200  0.28196400  1
  S  S16  1  0.08365000  0.66256400  0.10310100  1
  S  S17  1  0.12130100  0.28196400  0.47066200  1
  S  S18  1  0.88853900  0.00459900  0.18001400  1
  S  S19  1  0.38853900  0.18001400  0.00459900  1
