# generated using pymatgen
data_FeOF
_symmetry_space_group_name_H-M   'P 1'
_cell_length_a   14.23565694
_cell_length_b   9.46607814
_cell_length_c   3.08564700
_cell_angle_alpha   90.00000000
_cell_angle_beta   90.00000000
_cell_angle_gamma   90.05805150
_symmetry_Int_Tables_number   1
_chemical_formula_structural   FeOF
_chemical_formula_sum   'Fe12 O12 F12'
_cell_volume   415.80874307
_cell_formula_units_Z   12
loop_
 _symmetry_equiv_pos_site_id
 _symmetry_equiv_pos_as_xyz
  1  'x, y, z'
loop_
 _atom_site_type_symbol
 _atom_site_label
 _atom_site_symmetry_multiplicity
 _atom_site_fract_x
 _atom_site_fract_y
 _atom_site_fract_z
 _atom_site_occupancy
  Fe  Fe0  1  0.00482600  0.00724300  0.00000000  1
  Fe  Fe1  1  0.00711900  0.49571500  0.00000000  1
  Fe  Fe2  1  0.15392100  0.25003100  0.50000000  1
  Fe  Fe3  1  0.16698100  0.71809800  0.50000000  1
  Fe  Fe4  1  0.34797200  0.99217300  0.00000000  1
  Fe  Fe5  1  0.33758500  0.51657900  0.00000000  1
  Fe  Fe6  1  0.48783200  0.74644000  0.50000000  1
  Fe  Fe7  1  0.50269700  0.22309400  0.50000000  1
  Fe  Fe8  1  0.66908000  0.00323300  0.00000000  1
  Fe  Fe9  1  0.67590900  0.50233400  0.00000000  1
  Fe  Fe10  1  0.83587900  0.28600600  0.50000000  1
  Fe  Fe11  1  0.81593100  0.75359700  0.50000000  1
  O  O12  1  0.06857000  0.40472500  0.50000000  1
  O  O13  1  0.09855500  0.14603100  0.00000000  1
  O  O14  1  0.09750400  0.65628900  0.00000000  1
  O  O15  1  0.26993500  0.58875500  0.50000000  1
  O  O16  1  0.39765400  0.89217300  0.50000000  1
  O  O17  1  0.43414200  0.15137700  0.00000000  1
  O  O18  1  0.43644600  0.65365500  0.00000000  1
  O  O19  1  0.60681200  0.09786000  0.50000000  1
  O  O20  1  0.72695800  0.40641300  0.50000000  1
  O  O21  1  0.73369700  0.91017200  0.50000000  1
  O  O22  1  0.76651100  0.65703700  0.00000000  1
  O  O23  1  0.90279000  0.35485400  0.00000000  1
  F  F24  1  0.06259500  0.90174000  0.50000000  1
  F  F25  1  0.23334400  0.33605000  0.00000000  1
  F  F26  1  0.22705700  0.84889700  0.00000000  1
  F  F27  1  0.26715400  0.09183200  0.50000000  1
  F  F28  1  0.39927400  0.39886900  0.50000000  1
  F  F29  1  0.56340500  0.35183200  0.00000000  1
  F  F30  1  0.55904900  0.84020100  0.00000000  1
  F  F31  1  0.59590000  0.60170200  0.50000000  1
  F  F32  1  0.77704400  0.15955500  0.00000000  1
  F  F33  1  0.90317600  0.85581700  0.00000000  1
  F  F34  1  0.93290800  0.09345600  0.50000000  1
  F  F35  1  0.93379000  0.60616400  0.50000000  1
