data_image0
_chemical_formula_structural       H32Li8N8O40S8
_chemical_formula_sum              "H32 Li8 N8 O40 S8"
_cell_length_a       17.469
_cell_length_b       6.78152
_cell_length_c       6.36059
_cell_angle_alpha    90
_cell_angle_beta     90
_cell_angle_gamma    90

_space_group_name_H-M_alt    "P 1"
_space_group_IT_number       1

loop_
  _space_group_symop_operation_xyz
  'x, y, z'

loop_
  _atom_site_type_symbol
  _atom_site_label
  _atom_site_symmetry_multiplicity
  _atom_site_fract_x
  _atom_site_fract_y
  _atom_site_fract_z
  _atom_site_occupancy
  H   H1        1.0  0.08720  0.84600  0.46100  1.0000
  H   H2        1.0  0.41300  0.15400  0.96100  1.0000
  H   H3        1.0  0.39000  0.47200  0.78800  1.0000
  H   H4        1.0  0.89000  0.02780  0.21200  1.0000
  H   H5        1.0  0.11000  0.52800  0.28800  1.0000
  H   H6        1.0  0.58700  0.65400  0.53900  1.0000
  H   H7        1.0  0.91300  0.34600  0.03860  1.0000
  H   H8        1.0  0.61000  0.97200  0.71200  1.0000
  H   H9        1.0  0.61000  0.52800  0.21200  1.0000
  H   H10       1.0  0.89000  0.47200  0.71200  1.0000
  H   H11       1.0  0.11000  0.97200  0.78800  1.0000
  H   H12       1.0  0.39000  0.02780  0.28800  1.0000
  H   H13       1.0  0.48900  0.48300  0.80900  1.0000
  H   H14       1.0  0.01140  0.51700  0.30900  1.0000
  H   H15       1.0  0.98900  0.01680  0.19100  1.0000
  H   H16       1.0  0.51100  0.98300  0.69100  1.0000
  H   H17       1.0  0.51100  0.51700  0.19100  1.0000
  H   H18       1.0  0.98900  0.48300  0.69100  1.0000
  H   H19       1.0  0.01140  0.98300  0.80900  1.0000
  H   H20       1.0  0.48900  0.01680  0.30900  1.0000
  H   H21       1.0  0.44300  0.62100  0.62400  1.0000
  H   H22       1.0  0.05670  0.37900  0.12400  1.0000
  H   H23       1.0  0.94300  0.87900  0.37600  1.0000
  H   H24       1.0  0.55700  0.12100  0.87600  1.0000
  H   H25       1.0  0.55700  0.37900  0.37600  1.0000
  H   H26       1.0  0.94300  0.62100  0.87600  1.0000
  H   H27       1.0  0.05670  0.12100  0.62400  1.0000
  H   H28       1.0  0.44300  0.87900  0.12400  1.0000
  H   H29       1.0  0.41300  0.34600  0.46100  1.0000
  H   H30       1.0  0.08720  0.65400  0.96100  1.0000
  H   H31       1.0  0.91300  0.15400  0.53900  1.0000
  H   H32       1.0  0.58700  0.84600  0.03860  1.0000
  Li  Li1       1.0  0.25900  0.21800  0.92700  1.0000
  Li  Li2       1.0  0.24100  0.78200  0.42700  1.0000
  Li  Li3       1.0  0.75900  0.28200  0.07320  1.0000
  Li  Li4       1.0  0.74100  0.71800  0.57300  1.0000
  Li  Li5       1.0  0.74100  0.78200  0.07320  1.0000
  Li  Li6       1.0  0.75900  0.21800  0.57300  1.0000
  Li  Li7       1.0  0.24100  0.71800  0.92700  1.0000
  Li  Li8       1.0  0.25900  0.28200  0.42700  1.0000
  N   N1        1.0  0.44200  0.48700  0.70500  1.0000
  N   N2        1.0  0.05790  0.51300  0.20500  1.0000
  N   N3        1.0  0.94200  0.01320  0.29500  1.0000
  N   N4        1.0  0.55800  0.98700  0.79500  1.0000
  N   N5        1.0  0.55800  0.51300  0.29500  1.0000
  N   N6        1.0  0.94200  0.48700  0.79500  1.0000
  N   N7        1.0  0.05790  0.98700  0.70500  1.0000
  N   N8        1.0  0.44200  0.01320  0.20500  1.0000
  O   O1        1.0  0.34500  0.06520  0.84500  1.0000
  O   O2        1.0  0.15500  0.93500  0.34500  1.0000
  O   O3        1.0  0.84500  0.43500  0.15500  1.0000
  O   O4        1.0  0.65500  0.56500  0.65500  1.0000
  O   O5        1.0  0.65500  0.93500  0.15500  1.0000
  O   O6        1.0  0.84500  0.06520  0.65500  1.0000
  O   O7        1.0  0.15500  0.56500  0.84500  1.0000
  O   O8        1.0  0.34500  0.43500  0.34500  1.0000
  O   O9        1.0  0.31800  0.45000  0.96900  1.0000
  O   O10       1.0  0.18200  0.55000  0.46900  1.0000
  O   O11       1.0  0.81800  0.05030  0.03060  1.0000
  O   O12       1.0  0.68200  0.95000  0.53100  1.0000
  O   O13       1.0  0.68200  0.55000  0.03060  1.0000
  O   O14       1.0  0.81800  0.45000  0.53100  1.0000
  O   O15       1.0  0.18200  0.95000  0.96900  1.0000
  O   O16       1.0  0.31800  0.05030  0.46900  1.0000
  O   O17       1.0  0.20000  0.26500  0.68300  1.0000
  O   O18       1.0  0.30000  0.73500  0.18300  1.0000
  O   O19       1.0  0.70000  0.23500  0.31700  1.0000
  O   O20       1.0  0.80000  0.76500  0.81700  1.0000
  O   O21       1.0  0.80000  0.73500  0.31700  1.0000
  O   O22       1.0  0.70000  0.26500  0.81700  1.0000
  O   O23       1.0  0.30000  0.76500  0.68300  1.0000
  O   O24       1.0  0.20000  0.23500  0.18300  1.0000
  O   O25       1.0  0.07220  0.37900  0.61100  1.0000
  O   O26       1.0  0.42800  0.62100  0.11100  1.0000
  O   O27       1.0  0.57200  0.12100  0.38900  1.0000
  O   O28       1.0  0.92800  0.87900  0.88900  1.0000
  O   O29       1.0  0.92800  0.62100  0.38900  1.0000
  O   O30       1.0  0.57200  0.37900  0.88900  1.0000
  O   O31       1.0  0.42800  0.87900  0.61100  1.0000
  O   O32       1.0  0.07220  0.12100  0.11100  1.0000
  O   O33       1.0  0.45400  0.32400  0.57100  1.0000
  O   O34       1.0  0.04590  0.67600  0.07120  1.0000
  O   O35       1.0  0.95400  0.17600  0.42900  1.0000
  O   O36       1.0  0.54600  0.82400  0.92900  1.0000
  O   O37       1.0  0.54600  0.67600  0.42900  1.0000
  O   O38       1.0  0.95400  0.32400  0.92900  1.0000
  O   O39       1.0  0.04590  0.82400  0.57100  1.0000
  O   O40       1.0  0.45400  0.17600  0.07120  1.0000
  S   S1        1.0  0.15100  0.44100  0.65400  1.0000
  S   S2        1.0  0.34900  0.55900  0.15400  1.0000
  S   S3        1.0  0.65100  0.05910  0.34600  1.0000
  S   S4        1.0  0.84900  0.94100  0.84600  1.0000
  S   S5        1.0  0.84900  0.55900  0.34600  1.0000
  S   S6        1.0  0.65100  0.44100  0.84600  1.0000
  S   S7        1.0  0.34900  0.94100  0.65400  1.0000
  S   S8        1.0  0.15100  0.05910  0.15400  1.0000
