# generated using pymatgen
data_Li3MnFeCo(PO4)3
_symmetry_space_group_name_H-M   'P 1'
_cell_length_a   6.07784800
_cell_length_b   10.43749900
_cell_length_c   14.27562807
_cell_angle_alpha   89.99426064
_cell_angle_beta   90.00000000
_cell_angle_gamma   90.00000000
_symmetry_Int_Tables_number   1
_chemical_formula_structural   Li3MnFeCo(PO4)3
_chemical_formula_sum   'Li12 Mn4 Fe4 Co4 P12 O48'
_cell_volume   905.61061410
_cell_formula_units_Z   4
loop_
 _symmetry_equiv_pos_site_id
 _symmetry_equiv_pos_as_xyz
  1  'x, y, z'
loop_
 _atom_site_type_symbol
 _atom_site_label
 _atom_site_symmetry_multiplicity
 _atom_site_fract_x
 _atom_site_fract_y
 _atom_site_fract_z
 _atom_site_occupancy
  Li  Li0  1  0.24929400  0.99617000  0.33281500  1
  Li  Li1  1  0.74925300  0.99693800  0.00025300  1
  Li  Li2  1  0.25074700  0.99693800  0.00025300  1
  Li  Li3  1  0.75067100  0.99992800  0.66653600  1
  Li  Li4  1  0.24932900  0.99992800  0.66653600  1
  Li  Li5  1  0.75070600  0.99617000  0.33281500  1
  Li  Li6  1  0.74912900  0.50107700  0.49961600  1
  Li  Li7  1  0.25087100  0.50107700  0.49961600  1
  Li  Li8  1  0.75120500  0.50253500  0.83311900  1
  Li  Li9  1  0.24879500  0.50253500  0.83311900  1
  Li  Li10  1  0.75148900  0.50436300  0.16737600  1
  Li  Li11  1  0.24851100  0.50436300  0.16737600  1
  Mn  Mn12  1  0.00000000  0.21801000  0.83968600  1
  Mn  Mn13  1  0.00000000  0.21845100  0.17355300  1
  Mn  Mn14  1  0.50000000  0.28131900  0.33989400  1
  Mn  Mn15  1  0.50000000  0.28165700  0.00650300  1
  Fe  Fe16  1  0.00000000  0.21847600  0.50796600  1
  Fe  Fe17  1  0.50000000  0.27975800  0.67218600  1
  Fe  Fe18  1  0.00000000  0.72421300  0.99571700  1
  Fe  Fe19  1  0.00000000  0.72000700  0.66067300  1
  Co  Co20  1  0.00000000  0.72293700  0.32763500  1
  Co  Co21  1  0.50000000  0.77702400  0.16062200  1
  Co  Co22  1  0.50000000  0.77988200  0.49446000  1
  Co  Co23  1  0.50000000  0.77709100  0.82560600  1
  P  P24  1  0.50000000  0.08936600  0.19415500  1
  P  P25  1  0.50000000  0.09057400  0.86019500  1
  P  P26  1  0.50000000  0.09217900  0.52685900  1
  P  P27  1  0.00000000  0.40665800  0.69277600  1
  P  P28  1  0.00000000  0.40857900  0.36254700  1
  P  P29  1  0.00000000  0.41064700  0.02758200  1
  P  P30  1  0.50000000  0.59719500  0.63847400  1
  P  P31  1  0.50000000  0.59873900  0.97166900  1
  P  P32  1  0.50000000  0.59823000  0.30635300  1
  P  P33  1  0.00000000  0.90171500  0.13914200  1
  P  P34  1  0.00000000  0.90167100  0.80589400  1
  P  P35  1  0.00000000  0.90357500  0.47330400  1
  O  O36  1  0.00000000  0.03917300  0.76395900  1
  O  O37  1  0.00000000  0.04214500  0.43254800  1
  O  O38  1  0.00000000  0.03942200  0.09823800  1
  O  O39  1  0.50000000  0.09622800  0.41944300  1
  O  O40  1  0.50000000  0.09457700  0.08660800  1
  O  O41  1  0.50000000  0.09712000  0.75263600  1
  O  O42  1  0.70212000  0.16067400  0.90584700  1
  O  O43  1  0.29788000  0.16067400  0.90584700  1
  O  O44  1  0.70188600  0.16423100  0.57217900  1
  O  O45  1  0.29811400  0.16423100  0.57217900  1
  O  O46  1  0.70235600  0.15969600  0.23951700  1
  O  O47  1  0.29764400  0.15969600  0.23951700  1
  O  O48  1  0.20248600  0.33829300  0.40814200  1
  O  O49  1  0.79751400  0.33829300  0.40814200  1
  O  O50  1  0.20304300  0.33648700  0.73774400  1
  O  O51  1  0.79695700  0.33648700  0.73774400  1
  O  O52  1  0.20194700  0.34015500  0.07285200  1
  O  O53  1  0.79805300  0.34015500  0.07285200  1
  O  O54  1  0.00000000  0.40190200  0.58512300  1
  O  O55  1  0.00000000  0.40511700  0.92019900  1
  O  O56  1  0.00000000  0.40265900  0.25489200  1
  O  O57  1  0.50000000  0.45884300  0.59899200  1
  O  O58  1  0.50000000  0.46051600  0.93096400  1
  O  O59  1  0.50000000  0.46026600  0.26479600  1
  O  O60  1  0.00000000  0.54569500  0.73306100  1
  O  O61  1  0.00000000  0.54957800  0.06784400  1
  O  O62  1  0.00000000  0.54782500  0.40136400  1
  O  O63  1  0.50000000  0.60137600  0.74645900  1
  O  O64  1  0.50000000  0.60143300  0.07968400  1
  O  O65  1  0.50000000  0.60155100  0.41406300  1
  O  O66  1  0.70386700  0.66847600  0.92693600  1
  O  O67  1  0.70304700  0.66760500  0.59278000  1
  O  O68  1  0.70435600  0.66863300  0.26182700  1
  O  O69  1  0.29564400  0.66863300  0.26182700  1
  O  O70  1  0.29613300  0.66847600  0.92693600  1
  O  O71  1  0.29695300  0.66760500  0.59278000  1
  O  O72  1  0.20362400  0.83127800  0.09426400  1
  O  O73  1  0.79637600  0.83127800  0.09426400  1
  O  O74  1  0.20334700  0.83088300  0.76134700  1
  O  O75  1  0.20377700  0.83322100  0.42805100  1
  O  O76  1  0.79665300  0.83088300  0.76134700  1
  O  O77  1  0.79622300  0.83322100  0.42805100  1
  O  O78  1  0.00000000  0.89904200  0.24731300  1
  O  O79  1  0.00000000  0.90035300  0.58126800  1
  O  O80  1  0.00000000  0.89981600  0.91383300  1
  O  O81  1  0.50000000  0.95050100  0.23378200  1
  O  O82  1  0.50000000  0.95166900  0.89943900  1
  O  O83  1  0.50000000  0.95394700  0.56763200  1
