# generated using pymatgen
data_VCu2HO5
_symmetry_space_group_name_H-M   'P 1'
_cell_length_a   6.11754900
_cell_length_b   8.59178500
_cell_length_c   15.16582100
_cell_angle_alpha   90.00000000
_cell_angle_beta   90.00000000
_cell_angle_gamma   90.00000000
_symmetry_Int_Tables_number   1
_chemical_formula_structural   VCu2HO5
_chemical_formula_sum   'V8 Cu16 H8 O40'
_cell_volume   797.12564818
_cell_formula_units_Z   8
loop_
 _symmetry_equiv_pos_site_id
 _symmetry_equiv_pos_as_xyz
  1  'x, y, z'
loop_
 _atom_site_type_symbol
 _atom_site_label
 _atom_site_symmetry_multiplicity
 _atom_site_fract_x
 _atom_site_fract_y
 _atom_site_fract_z
 _atom_site_occupancy
  V  V0  1  0.25000000  0.81343200  0.07936900  1
  V  V1  1  0.75000000  0.47197300  0.15404600  1
  V  V2  1  0.25000000  0.97197300  0.34595400  1
  V  V3  1  0.75000000  0.31343200  0.42063100  1
  V  V4  1  0.25000000  0.68656800  0.57936900  1
  V  V5  1  0.75000000  0.02802700  0.65404600  1
  V  V6  1  0.25000000  0.52802700  0.84595400  1
  V  V7  1  0.75000000  0.18656800  0.92063100  1
  Cu  Cu8  1  0.25000000  0.41462200  0.07321200  1
  Cu  Cu9  1  0.50526400  0.13015000  0.13779700  1
  Cu  Cu10  1  0.99473600  0.13015000  0.13779700  1
  Cu  Cu11  1  0.75000000  0.84962500  0.21539400  1
  Cu  Cu12  1  0.25000000  0.34962500  0.28460600  1
  Cu  Cu13  1  0.00526400  0.63015000  0.36220300  1
  Cu  Cu14  1  0.49473600  0.63015000  0.36220300  1
  Cu  Cu15  1  0.75000000  0.91462200  0.42678800  1
  Cu  Cu16  1  0.25000000  0.08537800  0.57321200  1
  Cu  Cu17  1  0.50526400  0.36985000  0.63779700  1
  Cu  Cu18  1  0.99473600  0.36985000  0.63779700  1
  Cu  Cu19  1  0.75000000  0.65037500  0.71539400  1
  Cu  Cu20  1  0.25000000  0.15037500  0.78460600  1
  Cu  Cu21  1  0.00526400  0.86985000  0.86220300  1
  Cu  Cu22  1  0.49473600  0.86985000  0.86220300  1
  Cu  Cu23  1  0.75000000  0.58537800  0.92678800  1
  H  H24  1  0.25000000  0.14485600  0.00209600  1
  H  H25  1  0.25000000  0.61337900  0.22117200  1
  H  H26  1  0.75000000  0.11337900  0.27882800  1
  H  H27  1  0.75000000  0.64485600  0.49790400  1
  H  H28  1  0.25000000  0.35514400  0.50209600  1
  H  H29  1  0.25000000  0.88662100  0.72117200  1
  H  H30  1  0.75000000  0.38662100  0.77882800  1
  H  H31  1  0.75000000  0.85514400  0.99790400  1
  O  O32  1  0.75000000  0.17272300  0.03252100  1
  O  O33  1  0.75000000  0.54512400  0.05078300  1
  O  O34  1  0.25000000  0.18455100  0.06310100  1
  O  O35  1  0.25000000  0.62063100  0.11535700  1
  O  O36  1  0.01013000  0.90350800  0.12119300  1
  O  O37  1  0.48987000  0.90350800  0.12119300  1
  O  O38  1  0.50691900  0.35518800  0.17177200  1
  O  O39  1  0.99308100  0.35518800  0.17177200  1
  O  O40  1  0.75000000  0.07730900  0.21506100  1
  O  O41  1  0.75000000  0.62886400  0.22791100  1
  O  O42  1  0.25000000  0.12886400  0.27208900  1
  O  O43  1  0.25000000  0.57730900  0.28493900  1
  O  O44  1  0.00691900  0.85518800  0.32822800  1
  O  O45  1  0.49308100  0.85518800  0.32822800  1
  O  O46  1  0.51013000  0.40350800  0.37880700  1
  O  O47  1  0.98987000  0.40350800  0.37880700  1
  O  O48  1  0.75000000  0.12063100  0.38464300  1
  O  O49  1  0.75000000  0.68455100  0.43689900  1
  O  O50  1  0.25000000  0.04512400  0.44921700  1
  O  O51  1  0.25000000  0.67272300  0.46747900  1
  O  O52  1  0.75000000  0.32727700  0.53252100  1
  O  O53  1  0.75000000  0.95487600  0.55078300  1
  O  O54  1  0.25000000  0.31544900  0.56310100  1
  O  O55  1  0.25000000  0.87936900  0.61535700  1
  O  O56  1  0.01013000  0.59649200  0.62119300  1
  O  O57  1  0.48987000  0.59649200  0.62119300  1
  O  O58  1  0.50691900  0.14481200  0.67177200  1
  O  O59  1  0.99308100  0.14481200  0.67177200  1
  O  O60  1  0.75000000  0.42269100  0.71506100  1
  O  O61  1  0.75000000  0.87113600  0.72791100  1
  O  O62  1  0.25000000  0.37113600  0.77208900  1
  O  O63  1  0.25000000  0.92269100  0.78493900  1
  O  O64  1  0.00691900  0.64481200  0.82822800  1
  O  O65  1  0.49308100  0.64481200  0.82822800  1
  O  O66  1  0.51013000  0.09649200  0.87880700  1
  O  O67  1  0.98987000  0.09649200  0.87880700  1
  O  O68  1  0.75000000  0.37936900  0.88464300  1
  O  O69  1  0.75000000  0.81544900  0.93689900  1
  O  O70  1  0.25000000  0.45487600  0.94921700  1
  O  O71  1  0.25000000  0.82727700  0.96747900  1
