# generated using pymatgen
data_Li6V5SbO12
_symmetry_space_group_name_H-M   'P 1'
_cell_length_a   5.39475169
_cell_length_b   10.56000889
_cell_length_c   9.07472682
_cell_angle_alpha   90.00007666
_cell_angle_beta   89.99948744
_cell_angle_gamma   80.69644880
_symmetry_Int_Tables_number   1
_chemical_formula_structural   Li6V5SbO12
_chemical_formula_sum   'Li12 V10 Sb2 O24'
_cell_volume   510.17427571
_cell_formula_units_Z   2
loop_
 _symmetry_equiv_pos_site_id
 _symmetry_equiv_pos_as_xyz
  1  'x, y, z'
loop_
 _atom_site_type_symbol
 _atom_site_label
 _atom_site_symmetry_multiplicity
 _atom_site_fract_x
 _atom_site_fract_y
 _atom_site_fract_z
 _atom_site_occupancy
  Li  Li0  1  0.26343800  0.71145900  0.49995200  1
  Li  Li1  1  0.76344200  0.71142000  0.00001400  1
  Li  Li2  1  0.73683300  0.28851900  0.50000800  1
  Li  Li3  1  0.23683000  0.28856800  0.99995000  1
  Li  Li4  1  0.23623500  0.28435300  0.33408400  1
  Li  Li5  1  0.73619500  0.28436800  0.83402700  1
  Li  Li6  1  0.76396000  0.71561500  0.33409200  1
  Li  Li7  1  0.26391300  0.71564700  0.83408200  1
  Li  Li8  1  0.23620500  0.28436400  0.66592300  1
  Li  Li9  1  0.73623400  0.28436000  0.16590000  1
  Li  Li10  1  0.76388500  0.71565900  0.66585300  1
  Li  Li11  1  0.26394800  0.71560200  0.16587800  1
  V  V12  1  0.50009600  0.49999400  0.99996400  1
  V  V13  1  0.50008900  0.50007300  0.67055200  1
  V  V14  1  0.50019400  0.50002200  0.32942000  1
  V  V15  1  0.99972100  0.00000300  0.33967100  1
  V  V16  1  0.99977900  0.00000600  0.66031700  1
  V  V17  1  0.00011600  0.49999100  0.49997600  1
  V  V18  1  0.00017300  0.50002500  0.17056400  1
  V  V19  1  0.00010200  0.50007200  0.82940700  1
  V  V20  1  0.49982000  0.99999600  0.83962900  1
  V  V21  1  0.49983600  0.99993500  0.16038200  1
  Sb  Sb22  1  0.99987100  0.99994400  0.00002300  1
  Sb  Sb23  1  0.49981600  0.99995400  0.50003100  1
  O  O24  1  0.38182500  0.39107100  0.49999000  1
  O  O25  1  0.88181000  0.39109100  0.99998500  1
  O  O26  1  0.61840900  0.60901300  0.49997100  1
  O  O27  1  0.11840300  0.60899000  0.00000100  1
  O  O28  1  0.21667500  0.89355400  0.50023100  1
  O  O29  1  0.71669500  0.89355200  0.99989200  1
  O  O30  1  0.78302400  0.10635700  0.50022800  1
  O  O31  1  0.28293000  0.10638800  0.99989700  1
  O  O32  1  0.30873300  0.10242800  0.33833900  1
  O  O33  1  0.80865600  0.10239200  0.83822700  1
  O  O34  1  0.69090200  0.89748700  0.33834900  1
  O  O35  1  0.19100600  0.89754500  0.83823200  1
  O  O36  1  0.30862700  0.10238400  0.66182600  1
  O  O37  1  0.80866000  0.10244800  0.16170200  1
  O  O38  1  0.69098200  0.89755200  0.66184100  1
  O  O39  1  0.19101500  0.89746600  0.16167800  1
  O  O40  1  0.12867500  0.61405700  0.32648300  1
  O  O41  1  0.62852000  0.61410100  0.82647600  1
  O  O42  1  0.87169000  0.38596900  0.32651200  1
  O  O43  1  0.37159200  0.38604500  0.82648900  1
  O  O44  1  0.12853500  0.61411300  0.67348100  1
  O  O45  1  0.62867300  0.61405100  0.17351700  1
  O  O46  1  0.87158800  0.38602200  0.67347200  1
  O  O47  1  0.37169200  0.38597600  0.17348600  1
