# generated using pymatgen
data_C
_symmetry_space_group_name_H-M   'P 1'
_cell_length_a   14.77696759
_cell_length_b   14.77696759
_cell_length_c   7.49673515
_cell_angle_alpha   89.98998204
_cell_angle_beta   89.98998204
_cell_angle_gamma   60.31941213
_symmetry_Int_Tables_number   1
_chemical_formula_structural   C
_chemical_formula_sum   C71
_cell_volume   1422.20525035
_cell_formula_units_Z   71
loop_
 _symmetry_equiv_pos_site_id
 _symmetry_equiv_pos_as_xyz
  1  'x, y, z'
loop_
 _atom_site_type_symbol
 _atom_site_label
 _atom_site_symmetry_multiplicity
 _atom_site_fract_x
 _atom_site_fract_y
 _atom_site_fract_z
 _atom_site_occupancy
  C  C0  1  0.05621100  0.22130400  0.49421400  1
  C  C1  1  0.22217700  0.72257900  0.49595900  1
  C  C2  1  0.72189400  0.05466000  0.49630700  1
  C  C3  1  0.22130400  0.05621100  0.49421400  1
  C  C4  1  0.72257900  0.22217700  0.49595900  1
  C  C5  1  0.05466000  0.72189400  0.49630700  1
  C  C6  1  0.00017500  0.16601400  0.49174600  1
  C  C7  1  0.16597700  0.83347600  0.49300700  1
  C  C8  1  0.83288000  0.99896600  0.49367000  1
  C  C9  1  0.16601400  0.00017500  0.49174600  1
  C  C10  1  0.83347600  0.16597700  0.49300700  1
  C  C11  1  0.99896600  0.83288000  0.49367000  1
  C  C12  1  0.50030400  0.16696700  0.49487700  1
  C  C13  1  0.16717100  0.33342000  0.49424400  1
  C  C14  1  0.33431600  0.50078700  0.49470900  1
  C  C15  1  0.16696700  0.50030400  0.49487700  1
  C  C16  1  0.33342000  0.16717100  0.49424400  1
  C  C17  1  0.50078700  0.33431600  0.49470900  1
  C  C18  1  0.05666500  0.38798100  0.50032600  1
  C  C19  1  0.38979200  0.55662500  0.50052400  1
  C  C20  1  0.55547000  0.05613700  0.50056900  1
  C  C21  1  0.38798100  0.05666500  0.50032600  1
  C  C22  1  0.55662500  0.38979200  0.50052400  1
  C  C23  1  0.05613700  0.55547000  0.50056900  1
  C  C24  1  0.00184400  0.33174700  0.50104900  1
  C  C25  1  0.33361600  0.66751900  0.50162700  1
  C  C26  1  0.66612300  0.99880000  0.50175300  1
  C  C27  1  0.33174700  0.00184400  0.50104900  1
  C  C28  1  0.66751900  0.33361600  0.50162700  1
  C  C29  1  0.99880000  0.66612300  0.50175300  1
  C  C30  1  0.89147300  0.38598000  0.50809000  1
  C  C31  1  0.38898300  0.72378000  0.50793900  1
  C  C32  1  0.72128800  0.88661400  0.50709200  1
  C  C33  1  0.38598000  0.89147300  0.50809000  1
  C  C34  1  0.72378000  0.38898300  0.50793900  1
  C  C35  1  0.88661400  0.72128800  0.50709200  1
  C  C36  1  0.83683600  0.49685400  0.51547500  1
  C  C37  1  0.50182300  0.66890200  0.51526200  1
  C  C38  1  0.66478200  0.82981800  0.51308900  1
  C  C39  1  0.49685400  0.83683600  0.51547500  1
  C  C40  1  0.66890200  0.50182300  0.51526200  1
  C  C41  1  0.82981800  0.66478200  0.51308900  1
  C  C42  1  0.88932700  0.22122300  0.49559300  1
  C  C43  1  0.22122300  0.88932700  0.49559300  1
  C  C44  1  0.88799200  0.88799200  0.49656600  1
  C  C45  1  0.83453900  0.33220100  0.50460500  1
  C  C46  1  0.33220100  0.83453900  0.50460500  1
  C  C47  1  0.83192600  0.83192600  0.50407500  1
  C  C48  1  0.72990600  0.54978200  0.51994100  1
  C  C49  1  0.54978200  0.72990600  0.51994100  1
  C  C50  1  0.71952300  0.71952300  0.51583900  1
  C  C51  1  0.66672400  0.16634200  0.49482600  1
  C  C52  1  0.16677800  0.16677800  0.49266200  1
  C  C53  1  0.16634200  0.66672400  0.49482600  1
  C  C54  1  0.55607200  0.22269900  0.49412300  1
  C  C55  1  0.22239300  0.22239300  0.49287900  1
  C  C56  1  0.22269900  0.55607200  0.49412300  1
  C  C57  1  0.38918700  0.22281100  0.49260500  1
  C  C58  1  0.22281100  0.38918700  0.49260500  1
  C  C59  1  0.38970800  0.38970800  0.49262100  1
  C  C60  1  0.33389700  0.33389700  0.49098000  1
  C  C61  1  0.00055000  0.49949200  0.50504900  1
  C  C62  1  0.50170100  0.50170100  0.50511800  1
  C  C63  1  0.49949200  0.00055000  0.50504900  1
  C  C64  1  0.89135300  0.55343000  0.51255700  1
  C  C65  1  0.55703100  0.55703100  0.51334400  1
  C  C66  1  0.55343000  0.89135300  0.51255700  1
  C  C67  1  0.05479700  0.88854800  0.48982300  1
  C  C68  1  0.88854800  0.05479700  0.48982300  1
  C  C69  1  0.05517700  0.05517700  0.48839600  1
  C  C70  1  0.99945300  0.99945300  0.48790200  1
