# generated using pymatgen
data_V5BiO10
_symmetry_space_group_name_H-M   'P 1'
_cell_length_a   10.08790454
_cell_length_b   10.18063483
_cell_length_c   10.08935665
_cell_angle_alpha   60.29868653
_cell_angle_beta   90.03465338
_cell_angle_gamma   60.31117315
_symmetry_Int_Tables_number   1
_chemical_formula_structural   V5BiO10
_chemical_formula_sum   'V20 Bi4 O40'
_cell_volume   739.18345576
_cell_formula_units_Z   4
loop_
 _symmetry_equiv_pos_site_id
 _symmetry_equiv_pos_as_xyz
  1  'x, y, z'
loop_
 _atom_site_type_symbol
 _atom_site_label
 _atom_site_symmetry_multiplicity
 _atom_site_fract_x
 _atom_site_fract_y
 _atom_site_fract_z
 _atom_site_occupancy
  V  V0  1  0.04172500  0.20327500  0.56741200  1
  V  V1  1  0.17232400  0.99519800  0.35925300  1
  V  V2  1  0.22805800  0.20405500  0.04089300  1
  V  V3  1  0.03210800  0.59666800  0.84426400  1
  V  V4  1  0.35918400  0.99821600  0.83070900  1
  V  V5  1  0.15444100  0.39812400  0.63057100  1
  V  V6  1  0.44397900  0.40296300  0.96943700  1
  V  V7  1  0.64326600  0.99752500  0.17076300  1
  V  V8  1  0.24099800  0.80186500  0.76928100  1
  V  V9  1  0.36906200  0.59727000  0.55840000  1
  V  V10  1  0.56717600  0.20544500  0.75515900  1
  V  V11  1  0.42969400  0.80082200  0.24251500  1
  V  V12  1  0.82855100  0.00081000  0.64269000  1
  V  V13  1  0.62986100  0.39876200  0.44434700  1
  V  V14  1  0.55764700  0.59717200  0.03117800  1
  V  V15  1  0.75778300  0.20104100  0.22902900  1
  V  V16  1  0.84377200  0.59717500  0.37158800  1
  V  V17  1  0.96809500  0.40405100  0.15281000  1
  V  V18  1  0.77042000  0.79934000  0.95698800  1
  V  V19  1  0.95433100  0.80239800  0.42931200  1
  Bi  Bi20  1  0.40786900  0.17700700  0.40754800  1
  Bi  Bi21  1  0.19196000  0.62077700  0.19142900  1
  Bi  Bi22  1  0.97659800  0.04374400  0.97793400  1
  Bi  Bi23  1  0.62226900  0.75431900  0.62220600  1
  O  O24  1  0.15019000  0.00328500  0.80393300  1
  O  O25  1  0.16475200  0.99849200  0.54340900  1
  O  O26  1  0.19328600  0.00226600  0.15112300  1
  O  O27  1  0.00523200  0.60510900  0.04665500  1
  O  O28  1  0.20845600  0.19503600  0.25240200  1
  O  O29  1  0.24143700  0.19736400  0.86000200  1
  O  O30  1  0.03736200  0.59970000  0.65759000  1
  O  O31  1  0.04595900  0.60440300  0.39224700  1
  O  O32  1  0.25204100  0.19391700  0.59555400  1
  O  O33  1  0.25934300  0.40049500  0.96509000  1
  O  O34  1  0.45693400  0.99900300  0.16610600  1
  O  O35  1  0.05572500  0.80145000  0.76373900  1
  O  O36  1  0.13995200  0.80174800  0.43570500  1
  O  O37  1  0.33986700  0.39869900  0.63666300  1
  O  O38  1  0.54412100  0.99991400  0.83547900  1
  O  O39  1  0.34683600  0.60647100  0.00521800  1
  O  O40  1  0.55357100  0.19490200  0.20885500  1
  O  O41  1  0.35787900  0.60196900  0.74068600  1
  O  O42  1  0.56039400  0.20042800  0.94281700  1
  O  O43  1  0.59467500  0.19603200  0.55284400  1
  O  O44  1  0.38971700  0.60490900  0.34708600  1
  O  O45  1  0.40869200  0.79483200  0.45153600  1
  O  O46  1  0.59576600  0.40035600  0.63891000  1
  O  O47  1  0.80378900  0.00429700  0.84786600  1
  O  O48  1  0.43744100  0.80060800  0.05703700  1
  O  O49  1  0.83657900  0.99909800  0.45843900  1
  O  O50  1  0.63654300  0.39979700  0.25860200  1
  O  O51  1  0.63972300  0.40005100  0.00336200  1
  O  O52  1  0.45030800  0.79632900  0.79482900  1
  O  O53  1  0.84729400  0.00198200  0.19155900  1
  O  O54  1  0.85884600  0.19929500  0.55974700  1
  O  O55  1  0.65719400  0.60036700  0.36140400  1
  O  O56  1  0.74047200  0.60088800  0.03800100  1
  O  O57  1  0.94458400  0.19828800  0.23924600  1
  O  O58  1  0.95993000  0.39836900  0.59770500  1
  O  O59  1  0.75146400  0.79735900  0.40819700  1
  O  O60  1  0.96484300  0.40042000  0.34028700  1
  O  O61  1  0.76184200  0.80079800  0.14182400  1
  O  O62  1  0.00286900  0.40013900  0.95986000  1
  O  O63  1  0.79539400  0.79738800  0.75262500  1
