# generated using pymatgen
data_VF5
_symmetry_space_group_name_H-M   'P 1'
_cell_length_a   6.59135800
_cell_length_b   7.21359900
_cell_length_c   8.70076562
_cell_angle_alpha   87.02749005
_cell_angle_beta   90.00000000
_cell_angle_gamma   90.00000000
_symmetry_Int_Tables_number   1
_chemical_formula_structural   VF5
_chemical_formula_sum   'V4 F20'
_cell_volume   413.14228100
_cell_formula_units_Z   4
loop_
 _symmetry_equiv_pos_site_id
 _symmetry_equiv_pos_as_xyz
  1  'x, y, z'
loop_
 _atom_site_type_symbol
 _atom_site_label
 _atom_site_symmetry_multiplicity
 _atom_site_fract_x
 _atom_site_fract_y
 _atom_site_fract_z
 _atom_site_occupancy
  V  V0  1  0.78066500  0.74610800  0.56795300  1
  V  V1  1  0.71933500  0.74610800  0.06795300  1
  V  V2  1  0.28066500  0.25389200  0.93204700  1
  V  V3  1  0.21933500  0.25389200  0.43204700  1
  F  F4  1  0.23422400  0.02325200  0.88549900  1
  F  F5  1  0.26577600  0.02325200  0.38549900  1
  F  F6  1  0.65200000  0.74635000  0.87409300  1
  F  F7  1  0.84800000  0.74635000  0.37409300  1
  F  F8  1  0.02631600  0.77299400  0.64679100  1
  F  F9  1  0.47368400  0.77299400  0.14679100  1
  F  F10  1  0.51651100  0.71830700  0.54587400  1
  F  F11  1  0.98348900  0.71830700  0.04587400  1
  F  F12  1  0.28758600  0.48462300  0.85551800  1
  F  F13  1  0.21241400  0.48462300  0.35551800  1
  F  F14  1  0.78758600  0.51537700  0.64448200  1
  F  F15  1  0.71241400  0.51537700  0.14448200  1
  F  F16  1  0.01651100  0.28169300  0.95412600  1
  F  F17  1  0.48348900  0.28169300  0.45412600  1
  F  F18  1  0.52631600  0.22700600  0.85320900  1
  F  F19  1  0.97368400  0.22700600  0.35320900  1
  F  F20  1  0.15200000  0.25365000  0.62590700  1
  F  F21  1  0.34800000  0.25365000  0.12590700  1
  F  F22  1  0.73422400  0.97674800  0.61450100  1
  F  F23  1  0.76577600  0.97674800  0.11450100  1
