# generated using pymatgen
data_KTi6O12
_symmetry_space_group_name_H-M   'P 1'
_cell_length_a   8.54028278
_cell_length_b   8.54028278
_cell_length_c   8.54028278
_cell_angle_alpha   105.93038615
_cell_angle_beta   105.93038615
_cell_angle_gamma   116.81181187
_symmetry_Int_Tables_number   1
_chemical_formula_structural   KTi6O12
_chemical_formula_sum   'K2 Ti12 O24'
_cell_volume   473.53209154
_cell_formula_units_Z   2
loop_
 _symmetry_equiv_pos_site_id
 _symmetry_equiv_pos_as_xyz
  1  'x, y, z'
loop_
 _atom_site_type_symbol
 _atom_site_label
 _atom_site_symmetry_multiplicity
 _atom_site_fract_x
 _atom_site_fract_y
 _atom_site_fract_z
 _atom_site_occupancy
  K  K0  1  0.72709100  0.72709100  0.00000000  1
  K  K1  1  0.27290900  0.27290900  0.00000000  1
  Ti  Ti2  1  0.66819900  0.15021800  0.81841600  1
  Ti  Ti3  1  0.81660500  0.99920900  0.48352100  1
  Ti  Ti4  1  0.18339500  0.00079100  0.51647900  1
  Ti  Ti5  1  0.51568700  0.33308400  0.51647900  1
  Ti  Ti6  1  0.66691600  0.18339500  0.18260400  1
  Ti  Ti7  1  0.33180100  0.84978200  0.18158400  1
  Ti  Ti8  1  0.33308400  0.81660500  0.81739600  1
  Ti  Ti9  1  0.00079100  0.48431300  0.81739600  1
  Ti  Ti10  1  0.15021800  0.33180100  0.48201900  1
  Ti  Ti11  1  0.48431300  0.66691600  0.48352100  1
  Ti  Ti12  1  0.84978200  0.66819900  0.51798100  1
  Ti  Ti13  1  0.99920900  0.51568700  0.18260400  1
  O  O14  1  0.62798600  0.98916300  0.95112200  1
  O  O15  1  0.66553300  0.96027200  0.62580600  1
  O  O16  1  0.37296700  0.99955600  0.70612100  1
  O  O17  1  0.70656500  0.33315400  0.70612100  1
  O  O18  1  0.62703300  0.00044400  0.29387900  1
  O  O19  1  0.67686400  0.62798600  0.63882300  1
  O  O20  1  0.34424500  0.29555300  0.63979700  1
  O  O21  1  0.01083700  0.96195900  0.63882300  1
  O  O22  1  0.33446700  0.03972800  0.37419400  1
  O  O23  1  0.66684600  0.37296700  0.37341100  1
  O  O24  1  0.29555300  0.65575500  0.95130800  1
  O  O25  1  0.96195900  0.32313600  0.95112200  1
  O  O26  1  0.70444700  0.34424500  0.04869200  1
  O  O27  1  0.37201400  0.01083700  0.04887800  1
  O  O28  1  0.99955600  0.29343500  0.62658900  1
  O  O29  1  0.33315400  0.62703300  0.62658900  1
  O  O30  1  0.65575500  0.70444700  0.36020300  1
  O  O31  1  0.98916300  0.03804100  0.36117700  1
  O  O32  1  0.32313600  0.37201400  0.36117700  1
  O  O33  1  0.03972800  0.66553300  0.70526100  1
  O  O34  1  0.96027200  0.33446700  0.29473900  1
  O  O35  1  0.29343500  0.66684600  0.29387900  1
  O  O36  1  0.00044400  0.70656500  0.37341100  1
  O  O37  1  0.03804100  0.67686400  0.04887800  1
