# generated using pymatgen
data_Mn2CrO4
_symmetry_space_group_name_H-M   'P 1'
_cell_length_a   6.05106200
_cell_length_b   6.07817980
_cell_length_c   10.51039121
_cell_angle_alpha   75.54539315
_cell_angle_beta   74.59103020
_cell_angle_gamma   61.38203826
_symmetry_Int_Tables_number   1
_chemical_formula_structural   Mn2CrO4
_chemical_formula_sum   'Mn8 Cr4 O16'
_cell_volume   323.70577271
_cell_formula_units_Z   4
loop_
 _symmetry_equiv_pos_site_id
 _symmetry_equiv_pos_as_xyz
  1  'x, y, z'
loop_
 _atom_site_type_symbol
 _atom_site_label
 _atom_site_symmetry_multiplicity
 _atom_site_fract_x
 _atom_site_fract_y
 _atom_site_fract_z
 _atom_site_occupancy
  Mn  Mn0  1  0.56468300  0.56201500  0.81178000  1
  Mn  Mn1  1  0.23863500  0.26154800  0.74974000  1
  Mn  Mn2  1  0.92993700  0.94402700  0.68812000  1
  Mn  Mn3  1  0.50000000  0.00000000  0.50000000  1
  Mn  Mn4  1  0.07006300  0.05597300  0.31188000  1
  Mn  Mn5  1  0.43531700  0.43798500  0.18822000  1
  Mn  Mn6  1  0.76136500  0.73845200  0.25026000  1
  Mn  Mn7  1  0.50000000  0.00000000  0.00000000  1
  Cr  Cr8  1  0.50000000  0.50000000  0.50000000  1
  Cr  Cr9  1  0.00000000  0.50000000  0.50000000  1
  Cr  Cr10  1  0.00000000  0.50000000  0.00000000  1
  Cr  Cr11  1  0.00000000  0.00000000  0.00000000  1
  O  O12  1  0.58290700  0.15324500  0.61685600  1
  O  O13  1  0.12047900  0.16656300  0.62611400  1
  O  O14  1  0.85472200  0.38735400  0.39086800  1
  O  O15  1  0.36568200  0.35778700  0.39642100  1
  O  O16  1  0.63431800  0.64221300  0.60357900  1
  O  O17  1  0.14527800  0.61264600  0.60913200  1
  O  O18  1  0.87952100  0.83343700  0.37388600  1
  O  O19  1  0.41709300  0.84675500  0.38314400  1
  O  O20  1  0.64171100  0.10414300  0.10893700  1
  O  O21  1  0.13431500  0.14178400  0.10373300  1
  O  O22  1  0.90756000  0.34455600  0.88397200  1
  O  O23  1  0.09244000  0.65544400  0.11602800  1
  O  O24  1  0.34105000  0.37295300  0.87372100  1
  O  O25  1  0.65895000  0.62704700  0.12627900  1
  O  O26  1  0.35828900  0.89585700  0.89106300  1
  O  O27  1  0.86568500  0.85821600  0.89626700  1
