# generated using pymatgen
data_TiSn9O20
_symmetry_space_group_name_H-M   'P 1'
_cell_length_a   8.04112704
_cell_length_b   8.04112704
_cell_length_c   7.53538450
_cell_angle_alpha   87.65772021
_cell_angle_beta   87.65772021
_cell_angle_gamma   50.08150835
_symmetry_Int_Tables_number   1
_chemical_formula_structural   TiSn9O20
_chemical_formula_sum   'Ti1 Sn9 O20'
_cell_volume   373.30911219
_cell_formula_units_Z   1
loop_
 _symmetry_equiv_pos_site_id
 _symmetry_equiv_pos_as_xyz
  1  'x, y, z'
loop_
 _atom_site_type_symbol
 _atom_site_label
 _atom_site_symmetry_multiplicity
 _atom_site_fract_x
 _atom_site_fract_y
 _atom_site_fract_z
 _atom_site_occupancy
  Ti  Ti0  1  0.00000000  0.00000000  0.00000000  1
  Sn  Sn1  1  0.00000000  0.00000000  0.50000000  1
  Sn  Sn2  1  0.19776800  0.19776800  0.80130700  1
  Sn  Sn3  1  0.39931100  0.39931100  0.59949900  1
  Sn  Sn4  1  0.59862400  0.59862400  0.90170200  1
  Sn  Sn5  1  0.19931400  0.19931400  0.29823700  1
  Sn  Sn6  1  0.80068600  0.80068600  0.70176300  1
  Sn  Sn7  1  0.40137600  0.40137600  0.09829800  1
  Sn  Sn8  1  0.60068900  0.60068900  0.40050100  1
  Sn  Sn9  1  0.80223200  0.80223200  0.19869300  1
  O  O10  1  0.29881800  0.70118200  0.00000000  1
  O  O11  1  0.09366600  0.70555400  0.59708500  1
  O  O12  1  0.70118200  0.29881800  0.00000000  1
  O  O13  1  0.33797700  0.33797700  0.85503400  1
  O  O14  1  0.05658200  0.05658200  0.75437100  1
  O  O15  1  0.86766400  0.86766400  0.94355600  1
  O  O16  1  0.26012600  0.26012600  0.54507100  1
  O  O17  1  0.46164800  0.46164800  0.34430300  1
  O  O18  1  0.70555400  0.09366600  0.59708500  1
  O  O19  1  0.50602100  0.89362400  0.80187100  1
  O  O20  1  0.10637600  0.49397900  0.19812900  1
  O  O21  1  0.29444600  0.90633400  0.40291500  1
  O  O22  1  0.89362400  0.50602100  0.80187100  1
  O  O23  1  0.49397900  0.10637600  0.19812900  1
  O  O24  1  0.53835200  0.53835200  0.65569700  1
  O  O25  1  0.13233600  0.13233600  0.05644400  1
  O  O26  1  0.73987400  0.73987400  0.45492900  1
  O  O27  1  0.94341800  0.94341800  0.24562900  1
  O  O28  1  0.66202300  0.66202300  0.14496600  1
  O  O29  1  0.90633400  0.29444600  0.40291500  1
