# generated using pymatgen
data_Ti3Sn7O20
_symmetry_space_group_name_H-M   'P 1'
_cell_length_a   4.77474592
_cell_length_b   4.77474592
_cell_length_c   15.86641300
_cell_angle_alpha   90.00000000
_cell_angle_beta   90.00000000
_cell_angle_gamma   90.04140733
_symmetry_Int_Tables_number   1
_chemical_formula_structural   Ti3Sn7O20
_chemical_formula_sum   'Ti3 Sn7 O20'
_cell_volume   361.72554061
_cell_formula_units_Z   1
loop_
 _symmetry_equiv_pos_site_id
 _symmetry_equiv_pos_as_xyz
  1  'x, y, z'
loop_
 _atom_site_type_symbol
 _atom_site_label
 _atom_site_symmetry_multiplicity
 _atom_site_fract_x
 _atom_site_fract_y
 _atom_site_fract_z
 _atom_site_occupancy
  Ti  Ti0  1  0.00000000  0.00000000  0.79992800  1
  Ti  Ti1  1  0.00000000  0.00000000  0.20007200  1
  Ti  Ti2  1  0.50000000  0.50000000  0.50000000  1
  Sn  Sn3  1  0.00000000  0.00000000  0.40038000  1
  Sn  Sn4  1  0.00000000  0.00000000  0.59962000  1
  Sn  Sn5  1  0.00000000  0.00000000  0.00000000  1
  Sn  Sn6  1  0.50000000  0.50000000  0.89769600  1
  Sn  Sn7  1  0.50000000  0.50000000  0.69988600  1
  Sn  Sn8  1  0.50000000  0.50000000  0.30011400  1
  Sn  Sn9  1  0.50000000  0.50000000  0.10230400  1
  O  O10  1  0.18982200  0.81017800  0.89537400  1
  O  O11  1  0.20295300  0.79704700  0.50000000  1
  O  O12  1  0.19000800  0.80999200  0.70400300  1
  O  O13  1  0.18982200  0.81017800  0.10462600  1
  O  O14  1  0.19000800  0.80999200  0.29599700  1
  O  O15  1  0.31003900  0.31003900  0.40422100  1
  O  O16  1  0.31003900  0.31003900  0.59577900  1
  O  O17  1  0.29687500  0.29687500  0.20069500  1
  O  O18  1  0.29687500  0.29687500  0.79930500  1
  O  O19  1  0.30613700  0.30613700  0.00000000  1
  O  O20  1  0.68996100  0.68996100  0.40422100  1
  O  O21  1  0.68996100  0.68996100  0.59577900  1
  O  O22  1  0.70312500  0.70312500  0.79930500  1
  O  O23  1  0.69386300  0.69386300  0.00000000  1
  O  O24  1  0.70312500  0.70312500  0.20069500  1
  O  O25  1  0.79704700  0.20295300  0.50000000  1
  O  O26  1  0.81017800  0.18982200  0.89537400  1
  O  O27  1  0.80999200  0.19000800  0.70400300  1
  O  O28  1  0.80999200  0.19000800  0.29599700  1
  O  O29  1  0.81017800  0.18982200  0.10462600  1
