# generated using pymatgen
data_CoPO4
_symmetry_space_group_name_H-M   'P 1'
_cell_length_a   8.30495300
_cell_length_b   8.90087300
_cell_length_c   17.79315473
_cell_angle_alpha   60.50383508
_cell_angle_beta   90.00000000
_cell_angle_gamma   90.00000000
_symmetry_Int_Tables_number   1
_chemical_formula_structural   CoPO4
_chemical_formula_sum   'Co12 P12 O48'
_cell_volume   1144.81671065
_cell_formula_units_Z   12
loop_
 _symmetry_equiv_pos_site_id
 _symmetry_equiv_pos_as_xyz
  1  'x, y, z'
loop_
 _atom_site_type_symbol
 _atom_site_label
 _atom_site_symmetry_multiplicity
 _atom_site_fract_x
 _atom_site_fract_y
 _atom_site_fract_z
 _atom_site_occupancy
  Co  Co0  1  0.71855000  0.35204400  0.59385800  1
  Co  Co1  1  0.79081300  0.68570600  0.23403300  1
  Co  Co2  1  0.71845800  0.96908600  0.92359100  1
  Co  Co3  1  0.21845800  0.03091400  0.57640900  1
  Co  Co4  1  0.29081300  0.31429400  0.26596700  1
  Co  Co5  1  0.21855000  0.64795600  0.90614200  1
  Co  Co6  1  0.78145000  0.35204400  0.09385800  1
  Co  Co7  1  0.70918700  0.68570600  0.73403300  1
  Co  Co8  1  0.78154200  0.96908600  0.42359100  1
  Co  Co9  1  0.28154200  0.03091400  0.07640900  1
  Co  Co10  1  0.20918700  0.31429400  0.76596700  1
  Co  Co11  1  0.28145000  0.64795600  0.40614200  1
  P  P12  1  0.33692200  0.34263600  0.59293800  1
  P  P13  1  0.16750700  0.68287800  0.23157000  1
  P  P14  1  0.33449700  0.96912100  0.92076600  1
  P  P15  1  0.83449700  0.03087900  0.57923400  1
  P  P16  1  0.66750700  0.31712200  0.26843000  1
  P  P17  1  0.83692200  0.65736400  0.90706200  1
  P  P18  1  0.16307800  0.34263600  0.09293800  1
  P  P19  1  0.33249300  0.68287800  0.73157000  1
  P  P20  1  0.16550300  0.96912100  0.42076600  1
  P  P21  1  0.66550300  0.03087900  0.07923400  1
  P  P22  1  0.83249300  0.31712200  0.76843000  1
  P  P23  1  0.66307800  0.65736400  0.40706200  1
  O  O24  1  0.65704900  0.83485500  0.14510300  1
  O  O25  1  0.49461800  0.60286000  0.39157800  1
  O  O26  1  0.75353400  0.49708200  0.47705200  1
  O  O27  1  0.73438400  0.14792100  0.80977500  1
  O  O28  1  0.24614300  0.94133700  0.00320700  1
  O  O29  1  0.23773700  0.26299800  0.67703500  1
  O  O30  1  0.99803000  0.71664900  0.19012000  1
  O  O31  1  0.15264200  0.61519800  0.33009600  1
  O  O32  1  0.50650700  0.89298900  0.94478100  1
  O  O33  1  0.35530900  0.20668900  0.56289600  1
  O  O34  1  0.25463500  0.54890100  0.21482400  1
  O  O35  1  0.24034300  0.87679900  0.88046400  1
  O  O36  1  0.74034300  0.12320100  0.61953600  1
  O  O37  1  0.75463500  0.45109900  0.28517600  1
  O  O38  1  0.85530900  0.79331100  0.93710400  1
  O  O39  1  0.00650700  0.10701100  0.55521900  1
  O  O40  1  0.65264200  0.38480200  0.16990400  1
  O  O41  1  0.49803000  0.28335100  0.30988000  1
  O  O42  1  0.73773700  0.73700200  0.82296500  1
  O  O43  1  0.74614300  0.05866300  0.49679300  1
  O  O44  1  0.23438400  0.85207900  0.69022500  1
  O  O45  1  0.25353400  0.50291800  0.02294800  1
  O  O46  1  0.99461800  0.39714000  0.10842200  1
  O  O47  1  0.15704900  0.16514500  0.35489700  1
  O  O48  1  0.84295100  0.83485500  0.64510300  1
  O  O49  1  0.00538200  0.60286000  0.89157800  1
  O  O50  1  0.74646600  0.49708200  0.97705200  1
  O  O51  1  0.76561600  0.14792100  0.30977500  1
  O  O52  1  0.25385700  0.94133700  0.50320700  1
  O  O53  1  0.26226300  0.26299800  0.17703500  1
  O  O54  1  0.50197000  0.71664900  0.69012000  1
  O  O55  1  0.34735800  0.61519800  0.83009600  1
  O  O56  1  0.99349300  0.89298900  0.44478100  1
  O  O57  1  0.14469100  0.20668900  0.06289600  1
  O  O58  1  0.24536500  0.54890100  0.71482400  1
  O  O59  1  0.25965700  0.87679900  0.38046400  1
  O  O60  1  0.75965700  0.12320100  0.11953600  1
  O  O61  1  0.74536500  0.45109900  0.78517600  1
  O  O62  1  0.64469100  0.79331100  0.43710400  1
  O  O63  1  0.49349300  0.10701100  0.05521900  1
  O  O64  1  0.84735800  0.38480200  0.66990400  1
  O  O65  1  0.00197000  0.28335100  0.80988000  1
  O  O66  1  0.76226300  0.73700200  0.32296500  1
  O  O67  1  0.75385700  0.05866300  0.99679300  1
  O  O68  1  0.26561600  0.85207900  0.19022500  1
  O  O69  1  0.24646600  0.50291800  0.52294800  1
  O  O70  1  0.50538200  0.39714000  0.60842200  1
  O  O71  1  0.34295100  0.16514500  0.85489700  1
