# generated using pymatgen
data_Sr5U5O19
_symmetry_space_group_name_H-M   'P 1'
_cell_length_a   4.01337627
_cell_length_b   6.67464590
_cell_length_c   17.20274420
_cell_angle_alpha   100.48944895
_cell_angle_beta   90.00000075
_cell_angle_gamma   107.49625497
_symmetry_Int_Tables_number   1
_chemical_formula_structural   Sr5U5O19
_chemical_formula_sum   'Sr5 U5 O19'
_cell_volume   431.42398870
_cell_formula_units_Z   1
loop_
 _symmetry_equiv_pos_site_id
 _symmetry_equiv_pos_as_xyz
  1  'x, y, z'
loop_
 _atom_site_type_symbol
 _atom_site_label
 _atom_site_symmetry_multiplicity
 _atom_site_fract_x
 _atom_site_fract_y
 _atom_site_fract_z
 _atom_site_occupancy
  Sr  Sr0  1  0.90044100  0.80088000  0.30066700  1
  Sr  Sr1  1  0.28618500  0.57237100  0.09879700  1
  Sr  Sr2  1  0.70805300  0.41610600  0.89981800  1
  Sr  Sr3  1  0.09867500  0.19735100  0.69898400  1
  Sr  Sr4  1  0.50057000  0.00114100  0.50066800  1
  U  U5  1  0.79910200  0.59820500  0.59903000  1
  U  U6  1  0.39660600  0.79321300  0.79329700  1
  U  U7  1  0.20311800  0.40623700  0.40376500  1
  U  U8  1  0.60318500  0.20636900  0.21087100  1
  U  U9  1  0.00159300  0.00318800  0.99142200  1
  O  O10  1  0.44827100  0.89654000  0.21584600  1
  O  O11  1  0.85723600  0.71447200  0.02739800  1
  O  O12  1  0.94807200  0.89614400  0.57761700  1
  O  O13  1  0.50431600  0.00863200  0.95117000  1
  O  O14  1  0.90197000  0.80394000  0.72527600  1
  O  O15  1  0.35070100  0.70140100  0.37873700  1
  O  O16  1  0.74674800  0.49349600  0.17968100  1
  O  O17  1  0.90370000  0.80740100  0.87126000  1
  O  O18  1  0.30343200  0.60686400  0.52762900  1
  O  O19  1  0.70455300  0.40910600  0.33008100  1
  O  O20  1  0.29593500  0.59187000  0.67094400  1
  O  O21  1  0.69766900  0.39533600  0.47405900  1
  O  O22  1  0.08300100  0.16600300  0.11504600  1
  O  O23  1  0.65062700  0.30125500  0.62246600  1
  O  O24  1  0.25119200  0.50238500  0.81847800  1
  O  O25  1  0.09790200  0.19580600  0.27113600  1
  O  O26  1  0.05284600  0.10569100  0.42206300  1
  O  O27  1  0.15434300  0.30868500  0.97031200  1
  O  O28  1  0.54863800  0.09727400  0.78224000  1
