# generated using pymatgen
data_Na(Fe2O3)4
_symmetry_space_group_name_H-M   'P 1'
_cell_length_a   6.08191448
_cell_length_b   6.08191448
_cell_length_c   14.80035389
_cell_angle_alpha   89.50542306
_cell_angle_beta   89.50542306
_cell_angle_gamma   59.82365257
_symmetry_Int_Tables_number   1
_chemical_formula_structural   Na(Fe2O3)4
_chemical_formula_sum   'Na2 Fe16 O24'
_cell_volume   473.24641187
_cell_formula_units_Z   2
loop_
 _symmetry_equiv_pos_site_id
 _symmetry_equiv_pos_as_xyz
  1  'x, y, z'
loop_
 _atom_site_type_symbol
 _atom_site_label
 _atom_site_symmetry_multiplicity
 _atom_site_fract_x
 _atom_site_fract_y
 _atom_site_fract_z
 _atom_site_occupancy
  Na  Na0  1  0.50000000  0.50000000  0.00000000  1
  Na  Na1  1  0.00000000  0.00000000  0.50000000  1
  Fe  Fe2  1  0.32946600  0.32946600  0.16458300  1
  Fe  Fe3  1  0.67008800  0.67008800  0.20714900  1
  Fe  Fe4  1  0.00000000  0.50000000  0.00000000  1
  Fe  Fe5  1  0.50000000  0.00000000  0.00000000  1
  Fe  Fe6  1  0.32991200  0.32991200  0.79285100  1
  Fe  Fe7  1  0.99137300  0.99137300  0.12025600  1
  Fe  Fe8  1  0.67053400  0.67053400  0.83541700  1
  Fe  Fe9  1  0.33241400  0.33241400  0.54795200  1
  Fe  Fe10  1  0.00862700  0.00862700  0.87974400  1
  Fe  Fe11  1  0.16947900  0.66758300  0.33081100  1
  Fe  Fe12  1  0.33241700  0.83052100  0.66918900  1
  Fe  Fe13  1  0.83052100  0.33241700  0.66918900  1
  Fe  Fe14  1  0.66758600  0.66758600  0.45204800  1
  Fe  Fe15  1  0.16759400  0.16759400  0.33212900  1
  Fe  Fe16  1  0.83240600  0.83240600  0.66787100  1
  Fe  Fe17  1  0.66758300  0.16947900  0.33081100  1
  O  O18  1  0.64793400  0.14962400  0.08667200  1
  O  O19  1  0.14962400  0.64793400  0.08667200  1
  O  O20  1  0.50646400  0.50646400  0.74640300  1
  O  O21  1  0.16718000  0.16718000  0.07632700  1
  O  O22  1  0.32392100  0.32392100  0.91985300  1
  O  O23  1  0.67607900  0.67607900  0.08014700  1
  O  O24  1  0.35206600  0.85037600  0.91332800  1
  O  O25  1  0.85037600  0.35206600  0.91332800  1
  O  O26  1  0.97875500  0.50990000  0.74570200  1
  O  O27  1  0.50990000  0.97875500  0.74570200  1
  O  O28  1  0.66599100  0.66599100  0.58951200  1
  O  O29  1  0.33400900  0.33400900  0.41048800  1
  O  O30  1  0.99840900  0.99840900  0.74248700  1
  O  O31  1  0.49353600  0.49353600  0.25359700  1
  O  O32  1  0.16365500  0.16365500  0.59651600  1
  O  O33  1  0.83282000  0.83282000  0.92367300  1
  O  O34  1  0.66956100  0.16466200  0.59610000  1
  O  O35  1  0.49010000  0.02124500  0.25429800  1
  O  O36  1  0.16466200  0.66956100  0.59610000  1
  O  O37  1  0.02124500  0.49010000  0.25429800  1
  O  O38  1  0.33043900  0.83533800  0.40390000  1
  O  O39  1  0.83533800  0.33043900  0.40390000  1
  O  O40  1  0.83634500  0.83634500  0.40348400  1
  O  O41  1  0.00159100  0.00159100  0.25751300  1
