# generated using pymatgen
data_Ba5(SnS4)2
_symmetry_space_group_name_H-M   'P 1'
_cell_length_a   13.47198434
_cell_length_b   13.47198434
_cell_length_c   12.16417100
_cell_angle_alpha   90.00000000
_cell_angle_beta   90.00000000
_cell_angle_gamma   126.42135624
_symmetry_Int_Tables_number   1
_chemical_formula_structural   Ba5(SnS4)2
_chemical_formula_sum   'Ba20 Sn8 S32'
_cell_volume   1776.49849112
_cell_formula_units_Z   4
loop_
 _symmetry_equiv_pos_site_id
 _symmetry_equiv_pos_as_xyz
  1  'x, y, z'
loop_
 _atom_site_type_symbol
 _atom_site_label
 _atom_site_symmetry_multiplicity
 _atom_site_fract_x
 _atom_site_fract_y
 _atom_site_fract_z
 _atom_site_occupancy
  Ba  Ba0  1  0.39838800  0.59075300  0.66574000  1
  Ba  Ba1  1  0.40924700  0.60161200  0.33426000  1
  Ba  Ba2  1  0.90924700  0.10161200  0.16574000  1
  Ba  Ba3  1  0.89838800  0.09075300  0.83426000  1
  Ba  Ba4  1  0.60161200  0.40924700  0.33426000  1
  Ba  Ba5  1  0.59075300  0.39838800  0.66574000  1
  Ba  Ba6  1  0.09075300  0.89838800  0.83426000  1
  Ba  Ba7  1  0.10161200  0.90924700  0.16574000  1
  Ba  Ba8  1  0.06836400  0.26284800  0.49811200  1
  Ba  Ba9  1  0.73715200  0.93163600  0.50188800  1
  Ba  Ba10  1  0.23715200  0.43163600  0.99811200  1
  Ba  Ba11  1  0.56836400  0.76284800  0.00188800  1
  Ba  Ba12  1  0.93163600  0.73715200  0.50188800  1
  Ba  Ba13  1  0.26284800  0.06836400  0.49811200  1
  Ba  Ba14  1  0.76284800  0.56836400  0.00188800  1
  Ba  Ba15  1  0.43163600  0.23715200  0.99811200  1
  Ba  Ba16  1  0.00727300  0.50727300  0.25000000  1
  Ba  Ba17  1  0.49272700  0.99272700  0.75000000  1
  Ba  Ba18  1  0.99272700  0.49272700  0.75000000  1
  Ba  Ba19  1  0.50727300  0.00727300  0.25000000  1
  Sn  Sn20  1  0.76863200  0.76863200  0.25228000  1
  Sn  Sn21  1  0.23136800  0.23136800  0.74772000  1
  Sn  Sn22  1  0.73136800  0.73136800  0.75228000  1
  Sn  Sn23  1  0.26863200  0.26863200  0.24772000  1
  Sn  Sn24  1  0.74956800  0.25043200  0.00000000  1
  Sn  Sn25  1  0.24956800  0.75043200  0.50000000  1
  Sn  Sn26  1  0.25043200  0.74956800  0.00000000  1
  Sn  Sn27  1  0.75043200  0.24956800  0.50000000  1
  S  S28  1  0.96645900  0.96645900  0.35190800  1
  S  S29  1  0.03354100  0.03354100  0.64809200  1
  S  S30  1  0.53354100  0.53354100  0.85190800  1
  S  S31  1  0.46645900  0.46645900  0.14809200  1
  S  S32  1  0.81208400  0.18443300  0.65082500  1
  S  S33  1  0.81556700  0.18791600  0.34917500  1
  S  S34  1  0.31556700  0.68791600  0.15082500  1
  S  S35  1  0.31208400  0.68443300  0.84917500  1
  S  S36  1  0.18791600  0.81556700  0.34917500  1
  S  S37  1  0.18443300  0.81208400  0.65082500  1
  S  S38  1  0.68443300  0.31208400  0.84917500  1
  S  S39  1  0.68791600  0.31556700  0.15082500  1
  S  S40  1  0.96408200  0.33726100  0.99502000  1
  S  S41  1  0.66273900  0.03591800  0.00498000  1
  S  S42  1  0.16273900  0.53591800  0.49502000  1
  S  S43  1  0.46408200  0.83726100  0.50498000  1
  S  S44  1  0.03591800  0.66273900  0.00498000  1
  S  S45  1  0.33726100  0.96408200  0.99502000  1
  S  S46  1  0.83726100  0.46408200  0.50498000  1
  S  S47  1  0.53591800  0.16273900  0.49502000  1
  S  S48  1  0.86878800  0.63904900  0.25069800  1
  S  S49  1  0.36095100  0.13121200  0.74930200  1
  S  S50  1  0.86095100  0.63121200  0.75069800  1
  S  S51  1  0.36878800  0.13904900  0.24930200  1
  S  S52  1  0.13121200  0.36095100  0.74930200  1
  S  S53  1  0.63904900  0.86878800  0.25069800  1
  S  S54  1  0.13904900  0.36878800  0.24930200  1
  S  S55  1  0.63121200  0.86095100  0.75069800  1
  S  S56  1  0.84844000  0.84844000  0.04535500  1
  S  S57  1  0.15156000  0.15156000  0.95464500  1
  S  S58  1  0.65156000  0.65156000  0.54535500  1
  S  S59  1  0.34844000  0.34844000  0.45464500  1
