# generated using pymatgen
data_CrN2
_symmetry_space_group_name_H-M   'P 1'
_cell_length_a   7.99171149
_cell_length_b   12.43212365
_cell_length_c   12.58074444
_cell_angle_alpha   105.04305437
_cell_angle_beta   94.22133209
_cell_angle_gamma   95.79594174
_symmetry_Int_Tables_number   1
_chemical_formula_structural   CrN2
_chemical_formula_sum   'Cr16 N32'
_cell_volume   1194.44240998
_cell_formula_units_Z   16
loop_
 _symmetry_equiv_pos_site_id
 _symmetry_equiv_pos_as_xyz
  1  'x, y, z'
loop_
 _atom_site_type_symbol
 _atom_site_label
 _atom_site_symmetry_multiplicity
 _atom_site_fract_x
 _atom_site_fract_y
 _atom_site_fract_z
 _atom_site_occupancy
  Cr  Cr0  1  0.38776900  0.63922500  0.64416700  1
  Cr  Cr1  1  0.61223100  0.36077500  0.35583300  1
  Cr  Cr2  1  0.77876300  0.58616700  0.57007400  1
  Cr  Cr3  1  0.22123700  0.41383300  0.42992600  1
  Cr  Cr4  1  0.59131200  0.85737800  0.35695300  1
  Cr  Cr5  1  0.40868800  0.14262200  0.64304700  1
  Cr  Cr6  1  0.42957200  0.63797700  0.14113900  1
  Cr  Cr7  1  0.57042800  0.36202300  0.85886100  1
  Cr  Cr8  1  0.33083900  0.86713900  0.55937000  1
  Cr  Cr9  1  0.66916100  0.13286100  0.44063000  1
  Cr  Cr10  1  0.95700500  0.76126200  0.43271700  1
  Cr  Cr11  1  0.04299500  0.23873800  0.56728300  1
  Cr  Cr12  1  0.07476000  0.54016000  0.24224900  1
  Cr  Cr13  1  0.92524000  0.45984000  0.75775100  1
  Cr  Cr14  1  0.69550000  0.44080600  0.12455100  1
  Cr  Cr15  1  0.30450000  0.55919400  0.87544900  1
  N  N16  1  0.59843400  0.63236600  0.62185700  1
  N  N17  1  0.40156600  0.36763400  0.37814300  1
  N  N18  1  0.33502400  0.76582100  0.63240000  1
  N  N19  1  0.66497600  0.23417900  0.36760000  1
  N  N20  1  0.27334000  0.52879500  0.53987600  1
  N  N21  1  0.72666000  0.47120500  0.46012400  1
  N  N22  1  0.35832600  0.62294100  0.77345800  1
  N  N23  1  0.64167400  0.37705900  0.22654200  1
  N  N24  1  0.89051600  0.69240000  0.52582300  1
  N  N25  1  0.10948400  0.30760000  0.47417700  1
  N  N26  1  0.89399800  0.54726100  0.67513000  1
  N  N27  1  0.10600200  0.45273900  0.32487000  1
  N  N28  1  0.49473300  0.76788500  0.23401300  1
  N  N29  1  0.50526700  0.23211500  0.76598700  1
  N  N30  1  0.46566300  0.83726700  0.45794200  1
  N  N31  1  0.53433700  0.16273300  0.54205800  1
  N  N32  1  0.78466800  0.82030400  0.38462400  1
  N  N33  1  0.21533200  0.17969600  0.61537600  1
  N  N34  1  0.60785100  0.99964800  0.35972700  1
  N  N35  1  0.39214900  0.00035200  0.64027300  1
  N  N36  1  0.59667000  0.56000300  0.14276500  1
  N  N37  1  0.40333000  0.43999700  0.85723500  1
  N  N38  1  0.37464400  0.64307000  0.00774900  1
  N  N39  1  0.62535600  0.35693000  0.99225100  1
  N  N40  1  0.26408100  0.57425600  0.19183200  1
  N  N41  1  0.73591900  0.42574400  0.80816800  1
  N  N42  1  0.12798800  0.85861700  0.49410500  1
  N  N43  1  0.87201200  0.14138300  0.50589500  1
  N  N44  1  0.01799900  0.66429100  0.32198500  1
  N  N45  1  0.98200100  0.33570900  0.67801500  1
  N  N46  1  0.91074400  0.48034500  0.13848800  1
  N  N47  1  0.08925600  0.51965500  0.86151200  1
