# generated using pymatgen
data_Ba6CaI14
_symmetry_space_group_name_H-M   'P 1'
_cell_length_a   13.24909714
_cell_length_b   13.24909714
_cell_length_c   19.27080000
_cell_angle_alpha   90.00000000
_cell_angle_beta   90.00000000
_cell_angle_gamma   140.11824203
_symmetry_Int_Tables_number   1
_chemical_formula_structural   Ba6CaI14
_chemical_formula_sum   'Ba12 Ca2 I28'
_cell_volume   2169.04942209
_cell_formula_units_Z   2
loop_
 _symmetry_equiv_pos_site_id
 _symmetry_equiv_pos_as_xyz
  1  'x, y, z'
loop_
 _atom_site_type_symbol
 _atom_site_label
 _atom_site_symmetry_multiplicity
 _atom_site_fract_x
 _atom_site_fract_y
 _atom_site_fract_z
 _atom_site_occupancy
  Ba  Ba0  1  0.26758400  0.57804400  0.86768000  1
  Ba  Ba1  1  0.42195600  0.73241600  0.13232000  1
  Ba  Ba2  1  0.23241600  0.92195600  0.36768000  1
  Ba  Ba3  1  0.07804400  0.76758400  0.63232000  1
  Ba  Ba4  1  0.30515400  0.30515400  0.67954500  1
  Ba  Ba5  1  0.80515400  0.80515400  0.82045500  1
  Ba  Ba6  1  0.69484600  0.69484600  0.32045500  1
  Ba  Ba7  1  0.19484600  0.19484600  0.17954500  1
  Ba  Ba8  1  0.76758400  0.07804400  0.63232000  1
  Ba  Ba9  1  0.92195600  0.23241600  0.36768000  1
  Ba  Ba10  1  0.57804400  0.26758400  0.86768000  1
  Ba  Ba11  1  0.73241600  0.42195600  0.13232000  1
  Ca  Ca12  1  0.00000000  0.00000000  0.50000000  1
  Ca  Ca13  1  0.50000000  0.50000000  0.00000000  1
  I  I14  1  0.49797400  0.69410300  0.71628200  1
  I  I15  1  0.30589700  0.50202600  0.28371800  1
  I  I16  1  0.24074400  0.75925600  0.50000000  1
  I  I17  1  0.07317800  0.57317800  0.75000000  1
  I  I18  1  0.42682200  0.92682200  0.25000000  1
  I  I19  1  0.25925600  0.74074400  0.00000000  1
  I  I20  1  0.19410300  0.99797400  0.78371800  1
  I  I21  1  0.00202600  0.80589700  0.21628200  1
  I  I22  1  0.35919100  0.17852300  0.03958300  1
  I  I23  1  0.82147700  0.64080900  0.96041700  1
  I  I24  1  0.32147700  0.14080900  0.53958300  1
  I  I25  1  0.85919100  0.67852300  0.46041700  1
  I  I26  1  0.90934300  0.90934300  0.64736200  1
  I  I27  1  0.59065700  0.59065700  0.14736200  1
  I  I28  1  0.09065700  0.09065700  0.35263800  1
  I  I29  1  0.40934300  0.40934300  0.85263800  1
  I  I30  1  0.64080900  0.82147700  0.96041700  1
  I  I31  1  0.67852300  0.85919100  0.46041700  1
  I  I32  1  0.14080900  0.32147700  0.53958300  1
  I  I33  1  0.17852300  0.35919100  0.03958300  1
  I  I34  1  0.80589700  0.00202600  0.21628200  1
  I  I35  1  0.99797400  0.19410300  0.78371800  1
  I  I36  1  0.74074400  0.25925600  0.00000000  1
  I  I37  1  0.92682200  0.42682200  0.25000000  1
  I  I38  1  0.57317800  0.07317800  0.75000000  1
  I  I39  1  0.75925600  0.24074400  0.50000000  1
  I  I40  1  0.50202600  0.30589700  0.28371800  1
  I  I41  1  0.69410300  0.49797400  0.71628200  1
