# generated using pymatgen
data_Al11AgO17
_symmetry_space_group_name_H-M   'P 1'
_cell_length_a   5.65565048
_cell_length_b   5.65565048
_cell_length_c   22.79221900
_cell_angle_alpha   90.00000000
_cell_angle_beta   90.00000000
_cell_angle_gamma   120.04000854
_symmetry_Int_Tables_number   1
_chemical_formula_structural   Al11AgO17
_chemical_formula_sum   'Al22 Ag2 O34'
_cell_volume   631.11301589
_cell_formula_units_Z   2
loop_
 _symmetry_equiv_pos_site_id
 _symmetry_equiv_pos_as_xyz
  1  'x, y, z'
loop_
 _atom_site_type_symbol
 _atom_site_label
 _atom_site_symmetry_multiplicity
 _atom_site_fract_x
 _atom_site_fract_y
 _atom_site_fract_z
 _atom_site_occupancy
  Al  Al0  1  0.66708300  0.33291700  0.39455900  1
  Al  Al1  1  0.66708300  0.33291700  0.10544100  1
  Al  Al2  1  0.83230600  0.16769400  0.67551000  1
  Al  Al3  1  0.83313500  0.16686500  0.52477400  1
  Al  Al4  1  0.83230600  0.16769400  0.82449000  1
  Al  Al5  1  0.66904800  0.83536000  0.10774700  1
  Al  Al6  1  0.50000000  0.50000000  0.50000000  1
  Al  Al7  1  0.50000000  0.50000000  0.00000000  1
  Al  Al8  1  0.83313500  0.16686500  0.97522600  1
  Al  Al9  1  0.66904800  0.83536000  0.39225300  1
  Al  Al10  1  0.83536000  0.66904800  0.60774700  1
  Al  Al11  1  0.83536000  0.66904800  0.89225300  1
  Al  Al12  1  0.16464000  0.33095200  0.10774700  1
  Al  Al13  1  0.16464000  0.33095200  0.39225300  1
  Al  Al14  1  0.16769400  0.83230600  0.17551000  1
  Al  Al15  1  0.33095200  0.16464000  0.89225300  1
  Al  Al16  1  0.33095200  0.16464000  0.60774700  1
  Al  Al17  1  0.16686500  0.83313500  0.47522600  1
  Al  Al18  1  0.16769400  0.83230600  0.32449000  1
  Al  Al19  1  0.16686500  0.83313500  0.02477400  1
  Al  Al20  1  0.33291700  0.66708300  0.89455900  1
  Al  Al21  1  0.33291700  0.66708300  0.60544100  1
  Ag  Ag22  1  0.74277100  0.25722900  0.25000000  1
  Ag  Ag23  1  0.25722900  0.74277100  0.75000000  1
  O  O24  1  0.65737900  0.34262100  0.55016000  1
  O  O25  1  0.65737900  0.34262100  0.94984000  1
  O  O26  1  0.50756100  0.00589200  0.14579600  1
  O  O27  1  0.50756100  0.00589200  0.35420400  1
  O  O28  1  0.81919900  0.18080100  0.75000000  1
  O  O29  1  0.83390300  0.16609700  0.05550700  1
  O  O30  1  0.65610500  0.81436100  0.54951100  1
  O  O31  1  0.99410800  0.49243900  0.14579600  1
  O  O32  1  0.49923500  0.50076500  0.64141000  1
  O  O33  1  0.65610500  0.81436100  0.95048900  1
  O  O34  1  0.49923500  0.50076500  0.85859000  1
  O  O35  1  0.50076500  0.49923500  0.14141000  1
  O  O36  1  0.50076500  0.49923500  0.35859000  1
  O  O37  1  0.83390300  0.16609700  0.44449300  1
  O  O38  1  0.99410800  0.49243900  0.35420400  1
  O  O39  1  0.81436100  0.65610500  0.04951100  1
  O  O40  1  0.81436100  0.65610500  0.45048900  1
  O  O41  1  0.99936300  0.00063700  0.14540400  1
  O  O42  1  0.99936300  0.00063700  0.35459600  1
  O  O43  1  0.00063700  0.99936300  0.85459600  1
  O  O44  1  0.00063700  0.99936300  0.64540400  1
  O  O45  1  0.18563900  0.34389500  0.54951100  1
  O  O46  1  0.18563900  0.34389500  0.95048900  1
  O  O47  1  0.16609700  0.83390300  0.94449300  1
  O  O48  1  0.00589200  0.50756100  0.64579600  1
  O  O49  1  0.00589200  0.50756100  0.85420400  1
  O  O50  1  0.34389500  0.18563900  0.04951100  1
  O  O51  1  0.34389500  0.18563900  0.45048900  1
  O  O52  1  0.16609700  0.83390300  0.55550700  1
  O  O53  1  0.18080100  0.81919900  0.25000000  1
  O  O54  1  0.49243900  0.99410800  0.64579600  1
  O  O55  1  0.49243900  0.99410800  0.85420400  1
  O  O56  1  0.34262100  0.65737900  0.44984000  1
  O  O57  1  0.34262100  0.65737900  0.05016000  1
