# generated using pymatgen
data_BaV10O17
_symmetry_space_group_name_H-M   'P 1'
_cell_length_a   10.11343856
_cell_length_b   10.11343856
_cell_length_c   14.37217630
_cell_angle_alpha   52.31984594
_cell_angle_beta   52.31984594
_cell_angle_gamma   34.72930113
_symmetry_Int_Tables_number   1
_chemical_formula_structural   BaV10O17
_chemical_formula_sum   'Ba2 V20 O34'
_cell_volume   643.17863963
_cell_formula_units_Z   2
loop_
 _symmetry_equiv_pos_site_id
 _symmetry_equiv_pos_as_xyz
  1  'x, y, z'
loop_
 _atom_site_type_symbol
 _atom_site_label
 _atom_site_symmetry_multiplicity
 _atom_site_fract_x
 _atom_site_fract_y
 _atom_site_fract_z
 _atom_site_occupancy
  Ba  Ba0  1  0.61949300  0.38050700  0.25000000  1
  Ba  Ba1  1  0.38050700  0.61949300  0.75000000  1
  V  V2  1  0.60448800  0.85885500  0.60955600  1
  V  V3  1  0.10673900  0.35184300  0.61946200  1
  V  V4  1  0.96059000  0.22058300  0.58567900  1
  V  V5  1  0.03923900  0.78338200  0.60396400  1
  V  V6  1  0.52826800  0.28478500  0.59410100  1
  V  V7  1  0.03941000  0.77941700  0.41432100  1
  V  V8  1  0.89326100  0.64815700  0.38053800  1
  V  V9  1  0.39551200  0.14114500  0.39044400  1
  V  V10  1  0.96076100  0.21661800  0.39603600  1
  V  V11  1  0.47173200  0.71521500  0.40589900  1
  V  V12  1  0.78338200  0.03923900  0.10396400  1
  V  V13  1  0.28478500  0.52826800  0.09410100  1
  V  V14  1  0.35184300  0.10673900  0.11946200  1
  V  V15  1  0.85885500  0.60448800  0.10955600  1
  V  V16  1  0.22058300  0.96059000  0.08567900  1
  V  V17  1  0.71521500  0.47173200  0.90589900  1
  V  V18  1  0.21661800  0.96076100  0.89603600  1
  V  V19  1  0.77941700  0.03941000  0.91432100  1
  V  V20  1  0.64815700  0.89326100  0.88053800  1
  V  V21  1  0.14114500  0.39551200  0.89044400  1
  O  O22  1  0.25144100  0.49119100  0.71485900  1
  O  O23  1  0.72644600  0.98700200  0.72201500  1
  O  O24  1  0.93560800  0.67497500  0.60244300  1
  O  O25  1  0.42094600  0.17273200  0.61045400  1
  O  O26  1  0.81508700  0.53263200  0.58021900  1
  O  O27  1  0.28192300  0.06877500  0.58094200  1
  O  O28  1  0.15302200  0.92890500  0.53709000  1
  O  O29  1  0.67145700  0.39731800  0.53790200  1
  O  O30  1  0.32854300  0.60268200  0.46209800  1
  O  O31  1  0.84697800  0.07109500  0.46291000  1
  O  O32  1  0.18491300  0.46736800  0.41978100  1
  O  O33  1  0.71807700  0.93122500  0.41905800  1
  O  O34  1  0.06439200  0.32502500  0.39755700  1
  O  O35  1  0.57905400  0.82726800  0.38954600  1
  O  O36  1  0.27355400  0.01299800  0.27798500  1
  O  O37  1  0.74855900  0.50880900  0.28514100  1
  O  O38  1  0.12731900  0.87268100  0.25000000  1
  O  O39  1  0.49119100  0.25144100  0.21485900  1
  O  O40  1  0.98700200  0.72644600  0.22201500  1
  O  O41  1  0.67497500  0.93560800  0.10244300  1
  O  O42  1  0.17273200  0.42094600  0.11045400  1
  O  O43  1  0.53263200  0.81508700  0.08021900  1
  O  O44  1  0.06877500  0.28192300  0.08094200  1
  O  O45  1  0.92890500  0.15302200  0.03709000  1
  O  O46  1  0.39731800  0.67145700  0.03790200  1
  O  O47  1  0.60268200  0.32854300  0.96209800  1
  O  O48  1  0.07109500  0.84697800  0.96291000  1
  O  O49  1  0.93122500  0.71807700  0.91905800  1
  O  O50  1  0.46736800  0.18491300  0.91978100  1
  O  O51  1  0.32502500  0.06439200  0.89755700  1
  O  O52  1  0.82726800  0.57905400  0.88954600  1
  O  O53  1  0.50880900  0.74855900  0.78514100  1
  O  O54  1  0.01299800  0.27355400  0.77798500  1
  O  O55  1  0.87268100  0.12731900  0.75000000  1
