# generated using pymatgen
data_Ag7Sb9O25
_symmetry_space_group_name_H-M   'P 1'
_cell_length_a   12.78486144
_cell_length_b   12.78486144
_cell_length_c   12.78486184
_cell_angle_alpha   33.35626494
_cell_angle_beta   33.35626494
_cell_angle_gamma   33.35626972
_symmetry_Int_Tables_number   1
_chemical_formula_structural   Ag7Sb9O25
_chemical_formula_sum   'Ag7 Sb9 O25'
_cell_volume   562.55602337
_cell_formula_units_Z   1
loop_
 _symmetry_equiv_pos_site_id
 _symmetry_equiv_pos_as_xyz
  1  'x, y, z'
loop_
 _atom_site_type_symbol
 _atom_site_label
 _atom_site_symmetry_multiplicity
 _atom_site_fract_x
 _atom_site_fract_y
 _atom_site_fract_z
 _atom_site_occupancy
  Ag  Ag0  1  0.25596900  0.74670600  0.74670600  1
  Ag  Ag1  1  0.74670600  0.25596900  0.74670600  1
  Ag  Ag2  1  0.99985400  0.99985400  0.99985400  1
  Ag  Ag3  1  0.24835000  0.75065500  0.24835000  1
  Ag  Ag4  1  0.24835000  0.24835000  0.75065500  1
  Ag  Ag5  1  0.75065500  0.24835000  0.24835000  1
  Ag  Ag6  1  0.74670600  0.74670600  0.25596900  1
  Sb  Sb7  1  0.48617300  0.48617300  0.48617300  1
  Sb  Sb8  1  0.49968900  0.49968900  0.99933100  1
  Sb  Sb9  1  0.99666800  0.99666800  0.50757600  1
  Sb  Sb10  1  0.50757600  0.99666800  0.99666800  1
  Sb  Sb11  1  0.99666800  0.50757600  0.99666800  1
  Sb  Sb12  1  0.24953100  0.24953100  0.24953100  1
  Sb  Sb13  1  0.49968900  0.99933100  0.49968900  1
  Sb  Sb14  1  0.99933100  0.49968900  0.49968900  1
  Sb  Sb15  1  0.74982800  0.74982800  0.74982800  1
  O  O16  1  0.08413800  0.49431700  0.08413800  1
  O  O17  1  0.21944700  0.65834900  0.65834900  1
  O  O18  1  0.41196000  0.41196000  0.01215400  1
  O  O19  1  0.21111600  0.61381600  0.21111600  1
  O  O20  1  0.65834900  0.21944700  0.65834900  1
  O  O21  1  0.98722700  0.58691300  0.58691300  1
  O  O22  1  0.08413800  0.08413800  0.49431700  1
  O  O23  1  0.78700100  0.78700100  0.38619400  1
  O  O24  1  0.27803600  0.27803600  0.89935100  1
  O  O25  1  0.49431700  0.08413800  0.08413800  1
  O  O26  1  0.38619400  0.78700100  0.78700100  1
  O  O27  1  0.41196000  0.01215400  0.41196000  1
  O  O28  1  0.58691300  0.98722700  0.58691300  1
  O  O29  1  0.21111600  0.21111600  0.61381600  1
  O  O30  1  0.61381600  0.21111600  0.21111600  1
  O  O31  1  0.91148100  0.91148100  0.51557600  1
  O  O32  1  0.84466200  0.84466200  0.84466200  1
  O  O33  1  0.51557600  0.91148100  0.91148100  1
  O  O34  1  0.65834900  0.65834900  0.21944700  1
  O  O35  1  0.01215400  0.41196000  0.41196000  1
  O  O36  1  0.78700100  0.38619400  0.78700100  1
  O  O37  1  0.27803600  0.89935100  0.27803600  1
  O  O38  1  0.89935100  0.27803600  0.27803600  1
  O  O39  1  0.58691300  0.58691300  0.98722700  1
  O  O40  1  0.91148100  0.51557600  0.91148100  1
