# generated using pymatgen
data_La2Ti2CrO9
_symmetry_space_group_name_H-M   'P 1'
_cell_length_a   5.45221200
_cell_length_b   5.46354200
_cell_length_c   23.70554438
_cell_angle_alpha   89.96938414
_cell_angle_beta   90.00000000
_cell_angle_gamma   90.00000000
_symmetry_Int_Tables_number   1
_chemical_formula_structural   La2Ti2CrO9
_chemical_formula_sum   'La8 Ti8 Cr4 O36'
_cell_volume   706.14988281
_cell_formula_units_Z   4
loop_
 _symmetry_equiv_pos_site_id
 _symmetry_equiv_pos_as_xyz
  1  'x, y, z'
loop_
 _atom_site_type_symbol
 _atom_site_label
 _atom_site_symmetry_multiplicity
 _atom_site_fract_x
 _atom_site_fract_y
 _atom_site_fract_z
 _atom_site_occupancy
  La  La0  1  0.99021400  0.24262300  0.33326800  1
  La  La1  1  0.49021400  0.75737700  0.66673200  1
  La  La2  1  0.50299900  0.75053300  0.16390800  1
  La  La3  1  0.50899100  0.75011500  0.49856200  1
  La  La4  1  0.50433800  0.75426900  0.83613200  1
  La  La5  1  0.00433800  0.24573100  0.16386800  1
  La  La6  1  0.00299900  0.24946700  0.83609200  1
  La  La7  1  0.00899100  0.24988500  0.50143800  1
  Ti  Ti8  1  0.50185600  0.24907300  0.92373300  1
  Ti  Ti9  1  0.50228600  0.24870300  0.07601700  1
  Ti  Ti10  1  0.49884400  0.25071300  0.41233000  1
  Ti  Ti11  1  0.49894500  0.25060000  0.74718900  1
  Ti  Ti12  1  0.00228600  0.75129700  0.92398300  1
  Ti  Ti13  1  0.99884400  0.74928700  0.58767000  1
  Ti  Ti14  1  0.99894500  0.74940000  0.25281100  1
  Ti  Ti15  1  0.00185600  0.75092700  0.07626700  1
  Cr  Cr16  1  0.49746300  0.25036900  0.25278300  1
  Cr  Cr17  1  0.49974700  0.24959700  0.58490600  1
  Cr  Cr18  1  0.99974700  0.75040300  0.41509400  1
  Cr  Cr19  1  0.99746300  0.74963100  0.74721700  1
  O  O20  1  0.50176800  0.27444700  0.00002300  1
  O  O21  1  0.50314400  0.29142100  0.33530200  1
  O  O22  1  0.50458300  0.29586300  0.66177800  1
  O  O23  1  0.24986600  0.00118500  0.91004000  1
  O  O24  1  0.25111600  0.99945800  0.09011800  1
  O  O25  1  0.22409700  0.03189000  0.25856600  1
  O  O26  1  0.22164900  0.03332900  0.41312900  1
  O  O27  1  0.24431900  0.00479700  0.58616800  1
  O  O28  1  0.24376900  0.00155300  0.73994400  1
  O  O29  1  0.75111600  0.00054200  0.90988200  1
  O  O30  1  0.74986600  0.99881500  0.08996000  1
  O  O31  1  0.74376900  0.99844700  0.26005600  1
  O  O32  1  0.74431900  0.99520300  0.41383200  1
  O  O33  1  0.72164900  0.96667100  0.58687100  1
  O  O34  1  0.72409700  0.96811000  0.74143400  1
  O  O35  1  0.00176800  0.72555300  0.99997700  1
  O  O36  1  0.00458300  0.70413700  0.33822200  1
  O  O37  1  0.00314400  0.70857900  0.66469800  1
  O  O38  1  0.99767700  0.78701000  0.17284600  1
  O  O39  1  0.99792100  0.79200400  0.82630100  1
  O  O40  1  0.99708400  0.79834600  0.49840600  1
  O  O41  1  0.25235400  0.50063300  0.09825400  1
  O  O42  1  0.27078800  0.52255700  0.75493900  1
  O  O43  1  0.25575100  0.51379000  0.43040800  1
  O  O44  1  0.26723200  0.51689100  0.57093100  1
  O  O45  1  0.26265200  0.51020300  0.24377400  1
  O  O46  1  0.25142300  0.50119800  0.90172000  1
  O  O47  1  0.75142300  0.49880200  0.09828000  1
  O  O48  1  0.76265200  0.48979700  0.75622600  1
  O  O49  1  0.76723200  0.48310900  0.42906900  1
  O  O50  1  0.77078800  0.47744300  0.24506100  1
  O  O51  1  0.75575100  0.48621000  0.56959200  1
  O  O52  1  0.75235400  0.49936700  0.90174600  1
  O  O53  1  0.49792100  0.20799600  0.17369900  1
  O  O54  1  0.49708400  0.20165400  0.50159400  1
  O  O55  1  0.49767700  0.21299000  0.82715400  1
