# generated using pymatgen
data_H16PdC4S4(N4Cl)2
_symmetry_space_group_name_H-M   'P 1'
_cell_length_a   10.28404678
_cell_length_b   10.28404678
_cell_length_c   8.96802844
_cell_angle_alpha   88.04511314
_cell_angle_beta   88.04511314
_cell_angle_gamma   67.13191266
_symmetry_Int_Tables_number   1
_chemical_formula_structural   H16PdC4S4(N4Cl)2
_chemical_formula_sum   'H32 Pd2 C8 S8 N16 Cl4'
_cell_volume   873.19243674
_cell_formula_units_Z   2
loop_
 _symmetry_equiv_pos_site_id
 _symmetry_equiv_pos_as_xyz
  1  'x, y, z'
loop_
 _atom_site_type_symbol
 _atom_site_label
 _atom_site_symmetry_multiplicity
 _atom_site_fract_x
 _atom_site_fract_y
 _atom_site_fract_z
 _atom_site_occupancy
  H  H0  1  0.93860700  0.67059100  0.63488300  1
  H  H1  1  0.67059100  0.93860700  0.13488300  1
  H  H2  1  0.61369600  0.86864900  0.82994100  1
  H  H3  1  0.79324200  0.65827000  0.73116600  1
  H  H4  1  0.86864900  0.61369600  0.32994100  1
  H  H5  1  0.65827000  0.79324200  0.23116600  1
  H  H6  1  0.97647100  0.35196600  0.67965200  1
  H  H7  1  0.35196600  0.97647100  0.17965200  1
  H  H8  1  0.60065700  0.59181700  0.55083100  1
  H  H9  1  0.51880900  0.66894500  0.72045300  1
  H  H10  1  0.59181700  0.60065700  0.05083100  1
  H  H11  1  0.66894500  0.51880900  0.22045300  1
  H  H12  1  0.29689400  0.84403200  0.72481400  1
  H  H13  1  0.21156400  0.91349500  0.55508300  1
  H  H14  1  0.84403200  0.29689400  0.22481400  1
  H  H15  1  0.91349500  0.21156400  0.05508300  1
  H  H16  1  0.08650500  0.78843600  0.94491700  1
  H  H17  1  0.15596800  0.70310600  0.77518600  1
  H  H18  1  0.78843600  0.08650500  0.44491700  1
  H  H19  1  0.70310600  0.15596800  0.27518600  1
  H  H20  1  0.33105500  0.48119100  0.77954700  1
  H  H21  1  0.40818300  0.39934300  0.94916900  1
  H  H22  1  0.48119100  0.33105500  0.27954700  1
  H  H23  1  0.39934300  0.40818300  0.44916900  1
  H  H24  1  0.64803400  0.02352900  0.82034800  1
  H  H25  1  0.02352900  0.64803400  0.32034800  1
  H  H26  1  0.34173000  0.20675800  0.76883400  1
  H  H27  1  0.13135100  0.38630400  0.67005900  1
  H  H28  1  0.20675800  0.34173000  0.26883400  1
  H  H29  1  0.38630400  0.13135100  0.17005900  1
  H  H30  1  0.32940900  0.06139300  0.86511700  1
  H  H31  1  0.06139300  0.32940900  0.36511700  1
  Pd  Pd32  1  0.82308600  0.17691400  0.75000000  1
  Pd  Pd33  1  0.17691400  0.82308600  0.25000000  1
  C  C34  1  0.79779000  0.85747200  0.71745200  1
  C  C35  1  0.85747200  0.79779000  0.21745200  1
  C  C36  1  0.40503900  0.75409600  0.53361300  1
  C  C37  1  0.75409600  0.40503900  0.03361300  1
  C  C38  1  0.24590400  0.59496100  0.96638700  1
  C  C39  1  0.59496100  0.24590400  0.46638700  1
  C  C40  1  0.14252800  0.20221000  0.78254800  1
  C  C41  1  0.20221000  0.14252800  0.28254800  1
  S  S42  1  0.90432200  0.94590800  0.65581900  1
  S  S43  1  0.94590800  0.90432200  0.15581900  1
  S  S44  1  0.74604200  0.41042800  0.84033700  1
  S  S45  1  0.41042800  0.74604200  0.34033700  1
  S  S46  1  0.58957200  0.25395800  0.65966300  1
  S  S47  1  0.25395800  0.58957200  0.15966300  1
  S  S48  1  0.05409300  0.09567800  0.84418100  1
  S  S49  1  0.09567800  0.05409200  0.34418100  1
  N  N50  1  0.67774700  0.92040100  0.79340600  1
  N  N51  1  0.92040100  0.67774700  0.29340600  1
  N  N52  1  0.84247900  0.72031100  0.68710200  1
  N  N53  1  0.72031100  0.84247900  0.18710200  1
  N  N54  1  0.51729600  0.66562900  0.60654600  1
  N  N55  1  0.66562900  0.51729600  0.10654600  1
  N  N56  1  0.29569800  0.84311900  0.61071700  1
  N  N57  1  0.84311900  0.29569800  0.11071700  1
  N  N58  1  0.15688100  0.70430200  0.88928300  1
  N  N59  1  0.70430200  0.15688100  0.38928300  1
  N  N60  1  0.33437100  0.48270400  0.89345400  1
  N  N61  1  0.48270400  0.33437100  0.39345400  1
  N  N62  1  0.27968900  0.15752100  0.81289800  1
  N  N63  1  0.15752100  0.27968900  0.31289800  1
  N  N64  1  0.07959900  0.32225300  0.70659400  1
  N  N65  1  0.32225300  0.07959900  0.20659400  1
  Cl  Cl66  1  0.44918900  0.81589500  0.94207300  1
  Cl  Cl67  1  0.81589500  0.44918900  0.44207300  1
  Cl  Cl68  1  0.18410500  0.55081100  0.55792700  1
  Cl  Cl69  1  0.55081100  0.18410500  0.05792700  1
