# generated using pymatgen
data_MnFe7(PO4)8
_symmetry_space_group_name_H-M   'P 1'
_cell_length_a   11.91257700
_cell_length_b   4.89037800
_cell_length_c   9.93610330
_cell_angle_alpha   89.76965383
_cell_angle_beta   90.00000000
_cell_angle_gamma   90.00000000
_symmetry_Int_Tables_number   1
_chemical_formula_structural   MnFe7(PO4)8
_chemical_formula_sum   'Mn1 Fe7 P8 O32'
_cell_volume   578.84293647
_cell_formula_units_Z   1
loop_
 _symmetry_equiv_pos_site_id
 _symmetry_equiv_pos_as_xyz
  1  'x, y, z'
loop_
 _atom_site_type_symbol
 _atom_site_label
 _atom_site_symmetry_multiplicity
 _atom_site_fract_x
 _atom_site_fract_y
 _atom_site_fract_z
 _atom_site_occupancy
  Mn  Mn0  1  0.50000000  0.93884000  0.71793000  1
  Fe  Fe1  1  0.00000000  0.96967800  0.72750000  1
  Fe  Fe2  1  0.00000000  0.53156600  0.22698800  1
  Fe  Fe3  1  0.50000000  0.53088800  0.22685600  1
  Fe  Fe4  1  0.25087000  0.46619600  0.77459300  1
  Fe  Fe5  1  0.74913000  0.46619600  0.77459300  1
  Fe  Fe6  1  0.24952200  0.03085800  0.27280100  1
  Fe  Fe7  1  0.75047800  0.03085800  0.27280100  1
  P  P8  1  0.24812900  0.91935500  0.59663700  1
  P  P9  1  0.75187100  0.91935500  0.59663700  1
  P  P10  1  0.24999500  0.58331800  0.09661900  1
  P  P11  1  0.75000500  0.58331800  0.09661900  1
  P  P12  1  0.00000000  0.41810000  0.90370300  1
  P  P13  1  0.50000000  0.41930100  0.90007600  1
  P  P14  1  0.50000000  0.07905900  0.40437000  1
  P  P15  1  0.00000000  0.08112300  0.40321500  1
  O  O16  1  0.24925000  0.84996500  0.44660300  1
  O  O17  1  0.75075000  0.84996500  0.44660300  1
  O  O18  1  0.14800700  0.77357900  0.67147700  1
  O  O19  1  0.65161400  0.77114300  0.67156800  1
  O  O20  1  0.85199300  0.77357900  0.67147700  1
  O  O21  1  0.34838600  0.77114300  0.67156800  1
  O  O22  1  0.50000000  0.76987800  0.38302600  1
  O  O23  1  0.00000000  0.77210300  0.38120300  1
  O  O24  1  0.50000000  0.73357000  0.88034400  1
  O  O25  1  0.00000000  0.72746200  0.88168200  1
  O  O26  1  0.14930300  0.72663200  0.17212400  1
  O  O27  1  0.35080600  0.72722500  0.17188400  1
  O  O28  1  0.85069700  0.72663200  0.17212400  1
  O  O29  1  0.64919400  0.72722500  0.17188400  1
  O  O30  1  0.24878600  0.65387000  0.94675800  1
  O  O31  1  0.75121400  0.65387000  0.94675800  1
  O  O32  1  0.50000000  0.35918600  0.05182100  1
  O  O33  1  0.00000000  0.34920000  0.05415400  1
  O  O34  1  0.39779100  0.28169500  0.82833400  1
  O  O35  1  0.60220900  0.28169500  0.82833400  1
  O  O36  1  0.89924400  0.27364800  0.82909300  1
  O  O37  1  0.10075600  0.27364800  0.82909300  1
  O  O38  1  0.25056300  0.27379100  0.11901600  1
  O  O39  1  0.74943700  0.27379100  0.11901600  1
  O  O40  1  0.24924200  0.22777100  0.61869400  1
  O  O41  1  0.75075800  0.22777100  0.61869400  1
  O  O42  1  0.39935300  0.22532600  0.33022000  1
  O  O43  1  0.60064700  0.22532600  0.33022000  1
  O  O44  1  0.89925400  0.22608100  0.32804900  1
  O  O45  1  0.10074600  0.22608100  0.32804900  1
  O  O46  1  0.50000000  0.14880700  0.55508200  1
  O  O47  1  0.00000000  0.15033000  0.55310500  1
