# generated using pymatgen
data_Ti(PO3)4
_symmetry_space_group_name_H-M   'P 1'
_cell_length_a   6.98694259
_cell_length_b   6.98694259
_cell_length_c   9.59577545
_cell_angle_alpha   87.77517545
_cell_angle_beta   87.77517545
_cell_angle_gamma   107.54299835
_symmetry_Int_Tables_number   1
_chemical_formula_structural   Ti(PO3)4
_chemical_formula_sum   'Ti2 P8 O24'
_cell_volume   445.68918373
_cell_formula_units_Z   2
loop_
 _symmetry_equiv_pos_site_id
 _symmetry_equiv_pos_as_xyz
  1  'x, y, z'
loop_
 _atom_site_type_symbol
 _atom_site_label
 _atom_site_symmetry_multiplicity
 _atom_site_fract_x
 _atom_site_fract_y
 _atom_site_fract_z
 _atom_site_occupancy
  Ti  Ti0  1  0.89304200  0.10695800  0.75000000  1
  Ti  Ti1  1  0.10695800  0.89304200  0.25000000  1
  P  P2  1  0.78264900  0.72414000  0.53438900  1
  P  P3  1  0.72414000  0.78264900  0.03438900  1
  P  P4  1  0.71899800  0.34797900  0.97385200  1
  P  P5  1  0.65202100  0.28100200  0.52614800  1
  P  P6  1  0.34797900  0.71899800  0.47385200  1
  P  P7  1  0.28100200  0.65202100  0.02614800  1
  P  P8  1  0.27586000  0.21735100  0.96561100  1
  P  P9  1  0.21735100  0.27586000  0.46561100  1
  O  O10  1  0.92940300  0.74728400  0.40985600  1
  O  O11  1  0.85919600  0.85280300  0.65524400  1
  O  O12  1  0.76619200  0.58893500  0.97790700  1
  O  O13  1  0.85280300  0.85919600  0.15524400  1
  O  O14  1  0.74728400  0.92940300  0.90985600  1
  O  O15  1  0.86308000  0.33039800  0.85329200  1
  O  O16  1  0.58893500  0.76619200  0.47790700  1
  O  O17  1  0.75743900  0.28352500  0.39087400  1
  O  O18  1  0.71647500  0.24256100  0.10912600  1
  O  O19  1  0.66960200  0.13692000  0.64670800  1
  O  O20  1  0.49964300  0.71254800  0.09708600  1
  O  O21  1  0.71254800  0.49964300  0.59708600  1
  O  O22  1  0.28745200  0.50035700  0.40291400  1
  O  O23  1  0.50035700  0.28745200  0.90291400  1
  O  O24  1  0.33039800  0.86308000  0.35329200  1
  O  O25  1  0.28352500  0.75743900  0.89087400  1
  O  O26  1  0.24256100  0.71647500  0.60912600  1
  O  O27  1  0.41106500  0.23380800  0.52209300  1
  O  O28  1  0.13692000  0.66960200  0.14670800  1
  O  O29  1  0.25271600  0.07059700  0.09014400  1
  O  O30  1  0.14719700  0.14080400  0.84475600  1
  O  O31  1  0.23380800  0.41106500  0.02209300  1
  O  O32  1  0.14080400  0.14719700  0.34475600  1
  O  O33  1  0.07059700  0.25271600  0.59014400  1
