# generated using pymatgen
data_NaMn3O6
_symmetry_space_group_name_H-M   'P 1'
_cell_length_a   13.80370068
_cell_length_b   13.77825496
_cell_length_c   6.00747292
_cell_angle_alpha   77.65685931
_cell_angle_beta   77.18313731
_cell_angle_gamma   25.16000338
_symmetry_Int_Tables_number   1
_chemical_formula_structural   NaMn3O6
_chemical_formula_sum   'Na4 Mn12 O24'
_cell_volume   473.42417821
_cell_formula_units_Z   4
loop_
 _symmetry_equiv_pos_site_id
 _symmetry_equiv_pos_as_xyz
  1  'x, y, z'
loop_
 _atom_site_type_symbol
 _atom_site_label
 _atom_site_symmetry_multiplicity
 _atom_site_fract_x
 _atom_site_fract_y
 _atom_site_fract_z
 _atom_site_occupancy
  Na  Na0  1  0.83300800  0.83300800  0.16699200  1
  Na  Na1  1  0.41699200  0.41699200  0.08300800  1
  Na  Na2  1  0.08300800  0.08300800  0.41699200  1
  Na  Na3  1  0.16699200  0.16699200  0.83300800  1
  Mn  Mn4  1  0.46710500  0.95476200  0.28195700  1
  Mn  Mn5  1  0.95476200  0.46710500  0.29617600  1
  Mn  Mn6  1  0.28195700  0.29617600  0.46710500  1
  Mn  Mn7  1  0.29617600  0.28195700  0.95476200  1
  Mn  Mn8  1  0.62500000  0.12500000  0.62500000  1
  Mn  Mn9  1  0.12500000  0.62500000  0.62500000  1
  Mn  Mn10  1  0.96804300  0.95382400  0.78289500  1
  Mn  Mn11  1  0.95382400  0.96804300  0.29523800  1
  Mn  Mn12  1  0.29523800  0.78289500  0.95382400  1
  Mn  Mn13  1  0.78289500  0.29523800  0.96804300  1
  Mn  Mn14  1  0.62500000  0.62500000  0.62500000  1
  Mn  Mn15  1  0.62500000  0.62500000  0.12500000  1
  O  O16  1  0.21102500  0.21916900  0.49072900  1
  O  O17  1  0.21916900  0.21102500  0.07907700  1
  O  O18  1  0.49072900  0.07907700  0.21102500  1
  O  O19  1  0.07907700  0.49072900  0.21916900  1
  O  O20  1  0.49817900  0.08439500  0.69647300  1
  O  O21  1  0.08439500  0.49817900  0.72095300  1
  O  O22  1  0.35022900  0.37633900  0.41219700  1
  O  O23  1  0.37633900  0.35022900  0.86123500  1
  O  O24  1  0.87366100  0.89977100  0.38876500  1
  O  O25  1  0.89977100  0.87366100  0.83780300  1
  O  O26  1  0.75182100  0.16560500  0.55352700  1
  O  O27  1  0.16560500  0.75182100  0.52904700  1
  O  O28  1  0.17092300  0.75927100  0.03083100  1
  O  O29  1  0.75927100  0.17092300  0.03897500  1
  O  O30  1  0.03897500  0.03083100  0.75927100  1
  O  O31  1  0.03083100  0.03897500  0.17092300  1
  O  O32  1  0.52904700  0.55352700  0.16560500  1
  O  O33  1  0.55352700  0.52904700  0.75182100  1
  O  O34  1  0.38876500  0.83780300  0.87366100  1
  O  O35  1  0.83780300  0.38876500  0.89977100  1
  O  O36  1  0.41219700  0.86123500  0.35022900  1
  O  O37  1  0.86123500  0.41219700  0.37633900  1
  O  O38  1  0.72095300  0.69647300  0.08439500  1
  O  O39  1  0.69647300  0.72095300  0.49817900  1
