# generated using pymatgen
data_Mn5O9F
_symmetry_space_group_name_H-M   'P 1'
_cell_length_a   5.07527745
_cell_length_b   5.11510827
_cell_length_c   7.92404417
_cell_angle_alpha   109.76943269
_cell_angle_beta   78.26181952
_cell_angle_gamma   80.14996462
_symmetry_Int_Tables_number   1
_chemical_formula_structural   Mn5O9F
_chemical_formula_sum   'Mn5 O9 F1'
_cell_volume   183.00366271
_cell_formula_units_Z   1
loop_
 _symmetry_equiv_pos_site_id
 _symmetry_equiv_pos_as_xyz
  1  'x, y, z'
loop_
 _atom_site_type_symbol
 _atom_site_label
 _atom_site_symmetry_multiplicity
 _atom_site_fract_x
 _atom_site_fract_y
 _atom_site_fract_z
 _atom_site_occupancy
  Mn  Mn0  1  0.99679400  0.19425300  0.40128800  1
  Mn  Mn1  1  0.98432600  0.00649200  0.00993300  1
  Mn  Mn2  1  0.99420100  0.59907600  0.20069700  1
  Mn  Mn3  1  0.00066600  0.79327700  0.59054900  1
  Mn  Mn4  1  0.00200100  0.41347200  0.79793500  1
  O  O5  1  0.18775600  0.21228000  0.16912800  1
  O  O6  1  0.19791100  0.80703600  0.36083700  1
  O  O7  1  0.19880900  0.41868500  0.56104300  1
  O  O8  1  0.19028600  0.61636100  0.96813600  1
  O  O9  1  0.80805400  0.38702700  0.02825800  1
  O  O10  1  0.78483200  0.98244000  0.26390700  1
  O  O11  1  0.79958000  0.58628300  0.44171800  1
  O  O12  1  0.80922000  0.18528100  0.63935200  1
  O  O13  1  0.80971400  0.78622000  0.82902700  1
  F  F14  1  0.23298900  0.01205300  0.73491700  1
