data_image0
_chemical_formula_structural       Li6Na6O24S6
_chemical_formula_sum              "Li6 Na6 O24 S6"
_cell_length_a       7.21608
_cell_length_b       7.21608
_cell_length_c       9.69772
_cell_angle_alpha    90.0014
_cell_angle_beta     90.0014
_cell_angle_gamma    120.073

_space_group_name_H-M_alt    "P 1"
_space_group_IT_number       1

loop_
  _space_group_symop_operation_xyz
  'x, y, z'

loop_
  _atom_site_type_symbol
  _atom_site_label
  _atom_site_symmetry_multiplicity
  _atom_site_fract_x
  _atom_site_fract_y
  _atom_site_fract_z
  _atom_site_occupancy
  Li  Li1       1.0  0.05070  0.24600  0.27100  1.0000
  Li  Li2       1.0  0.75300  0.80400  0.27100  1.0000
  Li  Li3       1.0  0.19500  0.94900  0.27100  1.0000
  Li  Li4       1.0  0.24600  0.05070  0.77100  1.0000
  Li  Li5       1.0  0.94900  0.19500  0.77100  1.0000
  Li  Li6       1.0  0.80400  0.75300  0.77100  1.0000
  Na  Na1       1.0  0.01860  0.52500  0.48100  1.0000
  Na  Na2       1.0  0.47500  0.49400  0.48100  1.0000
  Na  Na3       1.0  0.50600  0.98100  0.48100  1.0000
  Na  Na4       1.0  0.52500  0.01860  0.98100  1.0000
  Na  Na5       1.0  0.98100  0.50600  0.98100  1.0000
  Na  Na6       1.0  0.49400  0.47500  0.98100  1.0000
  O   O1        1.0  0.44600  0.20700  0.31400  1.0000
  O   O2        1.0  0.79300  0.23900  0.31400  1.0000
  O   O3        1.0  0.76200  0.55400  0.31400  1.0000
  O   O4        1.0  0.20700  0.44600  0.81400  1.0000
  O   O5        1.0  0.55400  0.76200  0.81400  1.0000
  O   O6        1.0  0.23900  0.79300  0.81400  1.0000
  O   O7        1.0  0.21600  0.44500  0.13300  1.0000
  O   O8        1.0  0.55600  0.77100  0.13300  1.0000
  O   O9        1.0  0.22900  0.78500  0.13300  1.0000
  O   O10       1.0  0.44500  0.21600  0.63300  1.0000
  O   O11       1.0  0.78500  0.22900  0.63300  1.0000
  O   O12       1.0  0.77100  0.55600  0.63300  1.0000
  O   O13       1.0  0.22400  0.11100  0.96400  1.0000
  O   O14       1.0  0.88900  0.11200  0.96400  1.0000
  O   O15       1.0  0.88800  0.77600  0.96400  1.0000
  O   O16       1.0  0.11100  0.22400  0.46400  1.0000
  O   O17       1.0  0.77600  0.88800  0.46400  1.0000
  O   O18       1.0  0.11200  0.88900  0.46400  1.0000
  O   O19       1.0  0.66700  0.33300  0.10800  1.0000
  O   O20       1.0  0.33300  0.66700  0.60800  1.0000
  O   O21       1.0  0.33300  0.66700  0.33800  1.0000
  O   O22       1.0  0.66700  0.33300  0.83800  1.0000
  O   O23       1.0  0.00021  0.00000  0.16900  1.0000
  O   O24       1.0  0.00000  0.00021  0.66900  1.0000
  S   S1        1.0  0.66700  0.33300  0.26000  1.0000
  S   S2        1.0  0.33300  0.66700  0.76000  1.0000
  S   S3        1.0  0.33300  0.66700  0.18600  1.0000
  S   S4        1.0  0.66700  0.33300  0.68600  1.0000
  S   S5        1.0  0.00021  0.00000  0.01370  1.0000
  S   S6        1.0  0.00000  0.00022  0.51400  1.0000
