# generated using pymatgen
data_Sn8P2O13
_symmetry_space_group_name_H-M   'P 1'
_cell_length_a   7.31873683
_cell_length_b   7.31873683
_cell_length_c   14.34080613
_cell_angle_alpha   84.25657275
_cell_angle_beta   84.25657275
_cell_angle_gamma   88.02714987
_symmetry_Int_Tables_number   1
_chemical_formula_structural   Sn8P2O13
_chemical_formula_sum   'Sn16 P4 O26'
_cell_volume   760.22555253
_cell_formula_units_Z   2
loop_
 _symmetry_equiv_pos_site_id
 _symmetry_equiv_pos_as_xyz
  1  'x, y, z'
loop_
 _atom_site_type_symbol
 _atom_site_label
 _atom_site_symmetry_multiplicity
 _atom_site_fract_x
 _atom_site_fract_y
 _atom_site_fract_z
 _atom_site_occupancy
  Sn  Sn0  1  0.92574100  0.92574100  0.69443400  1
  Sn  Sn1  1  0.73700700  0.73700700  0.51243800  1
  Sn  Sn2  1  0.67247000  0.67247000  0.89087700  1
  Sn  Sn3  1  0.45190400  0.92422000  0.70587700  1
  Sn  Sn4  1  0.92422000  0.45190400  0.70587700  1
  Sn  Sn5  1  0.57433900  0.57433900  0.28449600  1
  Sn  Sn6  1  0.32922300  0.83796700  0.09640300  1
  Sn  Sn7  1  0.83796700  0.32922300  0.09640300  1
  Sn  Sn8  1  0.67077700  0.16203300  0.90359700  1
  Sn  Sn9  1  0.16203300  0.67077700  0.90359700  1
  Sn  Sn10  1  0.42566100  0.42566100  0.71550400  1
  Sn  Sn11  1  0.54809600  0.07578000  0.29412300  1
  Sn  Sn12  1  0.07578000  0.54809600  0.29412300  1
  Sn  Sn13  1  0.32753000  0.32753000  0.10912300  1
  Sn  Sn14  1  0.26299300  0.26299300  0.48756200  1
  Sn  Sn15  1  0.07425900  0.07425900  0.30556600  1
  P  P16  1  0.84431100  0.84431100  0.09869200  1
  P  P17  1  0.74660400  0.25339600  0.50000000  1
  P  P18  1  0.25339600  0.74660400  0.50000000  1
  P  P19  1  0.15568900  0.15568900  0.90130800  1
  O  O20  1  0.85198400  0.85198400  0.98995300  1
  O  O21  1  0.66529300  0.94832400  0.80937500  1
  O  O22  1  0.94832400  0.66529300  0.80937500  1
  O  O23  1  0.73057200  0.73057200  0.66197300  1
  O  O24  1  0.21706200  0.96579700  0.86539400  1
  O  O25  1  0.96579700  0.21706200  0.86539400  1
  O  O26  1  0.70082000  0.70082000  0.14357900  1
  O  O27  1  0.42210900  0.73580900  0.56042700  1
  O  O28  1  0.73580900  0.42210900  0.56042700  1
  O  O29  1  0.67051600  0.38128500  0.78747900  1
  O  O30  1  0.38128500  0.67051600  0.78747900  1
  O  O31  1  0.26099600  0.92690600  0.43252600  1
  O  O32  1  0.92690600  0.26099600  0.43252600  1
  O  O33  1  0.73900400  0.07309400  0.56747400  1
  O  O34  1  0.07309400  0.73900400  0.56747400  1
  O  O35  1  0.61871500  0.32948400  0.21252100  1
  O  O36  1  0.32948400  0.61871500  0.21252100  1
  O  O37  1  0.57789100  0.26419100  0.43957300  1
  O  O38  1  0.26419100  0.57789100  0.43957300  1
  O  O39  1  0.29918000  0.29918000  0.85642100  1
  O  O40  1  0.78293800  0.03420300  0.13460600  1
  O  O41  1  0.03420300  0.78293800  0.13460600  1
  O  O42  1  0.26942800  0.26942800  0.33802700  1
  O  O43  1  0.33470700  0.05167600  0.19062500  1
  O  O44  1  0.05167600  0.33470700  0.19062500  1
  O  O45  1  0.14801600  0.14801600  0.01004700  1
