# generated using pymatgen
data_Sb3PO7
_symmetry_space_group_name_H-M   'P 1'
_cell_length_a   9.59397922
_cell_length_b   9.59397922
_cell_length_c   12.50392840
_cell_angle_alpha   76.19367092
_cell_angle_beta   76.19367092
_cell_angle_gamma   90.17888976
_symmetry_Int_Tables_number   1
_chemical_formula_structural   Sb3PO7
_chemical_formula_sum   'Sb18 P6 O42'
_cell_volume   1083.16878043
_cell_formula_units_Z   6
loop_
 _symmetry_equiv_pos_site_id
 _symmetry_equiv_pos_as_xyz
  1  'x, y, z'
loop_
 _atom_site_type_symbol
 _atom_site_label
 _atom_site_symmetry_multiplicity
 _atom_site_fract_x
 _atom_site_fract_y
 _atom_site_fract_z
 _atom_site_occupancy
  Sb  Sb0  1  0.12375000  0.43942200  0.04883500  1
  Sb  Sb1  1  0.43942200  0.12375000  0.04883500  1
  Sb  Sb2  1  0.17910800  0.48594800  0.37719800  1
  Sb  Sb3  1  0.48594800  0.17910800  0.37719800  1
  Sb  Sb4  1  0.19645700  0.82272700  0.17844100  1
  Sb  Sb5  1  0.82272700  0.19645700  0.17844100  1
  Sb  Sb6  1  0.53406100  0.22253700  0.72853600  1
  Sb  Sb7  1  0.22253700  0.53406100  0.72853600  1
  Sb  Sb8  1  0.11633300  0.81930400  0.49633700  1
  Sb  Sb9  1  0.81930400  0.11633300  0.49633700  1
  Sb  Sb10  1  0.17431400  0.83472200  0.83733100  1
  Sb  Sb11  1  0.83472200  0.17431400  0.83733100  1
  Sb  Sb12  1  0.81972500  0.48579300  0.32485200  1
  Sb  Sb13  1  0.48579300  0.81972500  0.32485200  1
  Sb  Sb14  1  0.51011900  0.87372500  0.62373900  1
  Sb  Sb15  1  0.87372500  0.51011900  0.62373900  1
  Sb  Sb16  1  0.48389000  0.83834100  0.92635200  1
  Sb  Sb17  1  0.83834100  0.48389000  0.92635200  1
  P  P18  1  0.16758400  0.16758400  0.28567500  1
  P  P19  1  0.17489300  0.17489300  0.91476800  1
  P  P20  1  0.50423300  0.50423300  0.46149100  1
  P  P21  1  0.47817400  0.47817400  0.87673400  1
  P  P22  1  0.85812300  0.85812300  0.35011400  1
  P  P23  1  0.82164400  0.82164400  0.72661600  1
  O  O24  1  0.07176600  0.07176600  0.39632400  1
  O  O25  1  0.26328800  0.07337900  0.21610000  1
  O  O26  1  0.07337900  0.26328800  0.21610000  1
  O  O27  1  0.07379200  0.07379200  0.88562500  1
  O  O28  1  0.27206400  0.27206400  0.31627900  1
  O  O29  1  0.60003600  0.16287500  0.22650100  1
  O  O30  1  0.16287500  0.60003600  0.22650100  1
  O  O31  1  0.07847100  0.26415900  0.99109000  1
  O  O32  1  0.26415900  0.07847100  0.99109000  1
  O  O33  1  0.27421000  0.27421000  0.80980000  1
  O  O34  1  0.08150200  0.59343600  0.55892700  1
  O  O35  1  0.59343600  0.08150200  0.55892700  1
  O  O36  1  0.40307000  0.40307000  0.56129000  1
  O  O37  1  0.50000600  0.50000600  0.33973100  1
  O  O38  1  0.54697900  0.08156700  0.88619700  1
  O  O39  1  0.08156700  0.54697900  0.88619700  1
  O  O40  1  0.26314400  0.77565600  0.33834200  1
  O  O41  1  0.77565600  0.26314400  0.33834200  1
  O  O42  1  0.36991300  0.36991300  0.97516000  1
  O  O43  1  0.89034700  0.41785200  0.09542600  1
  O  O44  1  0.41785200  0.89034700  0.09542600  1
  O  O45  1  0.22578200  0.75468900  0.69100100  1
  O  O46  1  0.75468900  0.22578200  0.69100100  1
  O  O47  1  0.66522100  0.47027300  0.47288000  1
  O  O48  1  0.47027300  0.66522100  0.47288000  1
  O  O49  1  0.57940500  0.39231400  0.79995600  1
  O  O50  1  0.39231400  0.57940500  0.79995600  1
  O  O51  1  0.76410100  0.27138600  0.97098700  1
  O  O52  1  0.27138600  0.76410100  0.97098700  1
  O  O53  1  0.96339000  0.42876000  0.42173300  1
  O  O54  1  0.42876000  0.96339000  0.42173300  1
  O  O55  1  0.75198900  0.75198900  0.33272300  1
  O  O56  1  0.57039200  0.57039200  0.92034000  1
  O  O57  1  0.92686900  0.38917500  0.76780100  1
  O  O58  1  0.38917500  0.92686900  0.76780100  1
  O  O59  1  0.95480200  0.76686600  0.42447700  1
  O  O60  1  0.76686600  0.95480200  0.42447700  1
  O  O61  1  0.84999200  0.66065600  0.72255800  1
  O  O62  1  0.66065600  0.84999200  0.72255800  1
  O  O63  1  0.95201300  0.95201300  0.24057400  1
  O  O64  1  0.84687500  0.84687500  0.83437100  1
  O  O65  1  0.91755300  0.91755300  0.61287100  1
