# generated using pymatgen
data_Zr64S127
_symmetry_space_group_name_H-M   'P 1'
_cell_length_a   14.83776746
_cell_length_b   14.83776835
_cell_length_c   26.59132081
_cell_angle_alpha   90.00022303
_cell_angle_beta   89.99980852
_cell_angle_gamma   120.00004402
_symmetry_Int_Tables_number   1
_chemical_formula_structural   Zr64S127
_chemical_formula_sum   'Zr64 S127'
_cell_volume   5069.99458516
_cell_formula_units_Z   1
loop_
 _symmetry_equiv_pos_site_id
 _symmetry_equiv_pos_as_xyz
  1  'x, y, z'
loop_
 _atom_site_type_symbol
 _atom_site_label
 _atom_site_symmetry_multiplicity
 _atom_site_fract_x
 _atom_site_fract_y
 _atom_site_fract_z
 _atom_site_occupancy
  Zr  Zr0  1  0.98554622  0.01445460  0.98900620  1
  Zr  Zr1  1  0.00000141  0.99999776  0.74963535  1
  Zr  Zr2  1  0.99999957  -0.00000019  0.49997760  1
  Zr  Zr3  1  0.99996426  0.00003693  0.24975557  1
  Zr  Zr4  1  0.00093355  0.25662190  0.00279846  1
  Zr  Zr5  1  0.99999851  0.25001018  0.74981406  1
  Zr  Zr6  1  0.00000176  0.25000915  0.49999032  1
  Zr  Zr7  1  0.99996829  0.24994458  0.25034490  1
  Zr  Zr8  1  0.00093406  0.49431394  0.00279910  1
  Zr  Zr9  1  0.99999744  0.49998490  0.74981408  1
  Zr  Zr10  1  0.00000268  0.49999253  0.49999251  1
  Zr  Zr11  1  0.99996762  0.50002615  0.25034410  1
  Zr  Zr12  1  0.98554735  0.72109593  0.98900916  1
  Zr  Zr13  1  0.00000066  0.75000018  0.74963670  1
  Zr  Zr14  1  0.99999840  0.74999870  0.49997900  1
  Zr  Zr15  1  0.99996578  0.74993242  0.24975701  1
  Zr  Zr16  1  0.74991963  0.74996139  0.00031476  1
  Zr  Zr17  1  0.74992914  0.74996268  0.74996010  1
  Zr  Zr18  1  0.74999059  0.74999487  0.49999562  1
  Zr  Zr19  1  0.74988802  0.74994485  0.24948710  1
  Zr  Zr20  1  0.74337882  0.99906727  0.00279801  1
  Zr  Zr21  1  0.74998896  0.00000082  0.74981406  1
  Zr  Zr22  1  0.74999111  0.99999793  0.49999023  1
  Zr  Zr23  1  0.75005503  0.00003158  0.25034480  1
  Zr  Zr24  1  0.74999938  0.25000024  0.00440216  1
  Zr  Zr25  1  0.75000026  0.24999948  0.74978149  1
  Zr  Zr26  1  0.74999892  0.24999987  0.50004145  1
  Zr  Zr27  1  0.74999964  0.25000004  0.25053859  1
  Zr  Zr28  1  0.74338038  0.49431388  0.00280001  1
  Zr  Zr29  1  0.74998814  0.49998570  0.74981239  1
  Zr  Zr30  1  0.74998980  0.49999160  0.49999268  1
  Zr  Zr31  1  0.75005738  0.50002594  0.25034343  1
  Zr  Zr32  1  0.49942587  0.50057453  0.99970865  1
  Zr  Zr33  1  0.49998296  0.50001703  0.75017070  1
  Zr  Zr34  1  0.50000220  0.49999706  0.49996967  1
  Zr  Zr35  1  0.49999312  0.50000668  0.24991762  1
  Zr  Zr36  1  0.49942439  0.74884990  0.99971011  1
  Zr  Zr37  1  0.49998180  0.74996513  0.75017007  1
  Zr  Zr38  1  0.50000249  0.75000418  0.49996872  1
  Zr  Zr39  1  0.49999179  0.74998403  0.24991725  1
  Zr  Zr40  1  0.50568576  0.99906530  0.00279908  1
  Zr  Zr41  1  0.50001515  0.00000283  0.74981386  1
  Zr  Zr42  1  0.50000726  0.99999803  0.49999198  1
  Zr  Zr43  1  0.49997405  0.00003262  0.25034481  1
  Zr  Zr44  1  0.50568580  0.25662050  0.00279992  1
  Zr  Zr45  1  0.50001432  0.25001151  0.74981218  1
  Zr  Zr46  1  0.50000721  0.25000941  0.49999215  1
  Zr  Zr47  1  0.49997529  0.24994317  0.25034280  1
  Zr  Zr48  1  0.25003841  0.25007961  0.00031439  1
  Zr  Zr49  1  0.25003662  0.25007000  0.74996025  1
  Zr  Zr50  1  0.25000390  0.25000793  0.49999590  1
  Zr  Zr51  1  0.25005539  0.25011245  0.24948689  1
  Zr  Zr52  1  0.25114993  0.50057438  0.99971036  1
  Zr  Zr53  1  0.25003479  0.50001678  0.75016998  1
  Zr  Zr54  1  0.24999677  0.49999858  0.49996891  1
  Zr  Zr55  1  0.25001588  0.50000820  0.24991731  1
  Zr  Zr56  1  0.25003890  0.74996065  0.00031233  1
  Zr  Zr57  1  0.25003477  0.74996435  0.74995931  1
  Zr  Zr58  1  0.25000409  0.74999558  0.49999676  1
  Zr  Zr59  1  0.25005602  0.74994341  0.24948703  1
  Zr  Zr60  1  0.27890448  0.01445379  0.98900913  1
  Zr  Zr61  1  0.24999852  0.99999742  0.74963701  1
  Zr  Zr62  1  0.25000024  0.00000066  0.49997843  1
  Zr  Zr63  1  0.25006886  0.00003563  0.24975677  1
  S  S64  1  0.90769393  0.09230779  0.93967691  1
  S  S65  1  0.91662275  0.08337800  0.69533374  1
  S  S66  1  0.91665771  0.08334184  0.44556022  1
  S  S67  1  0.91643119  0.08356804  0.19563491  1
  S  S68  1  0.91506266  0.33253216  0.94742864  1
  S  S69  1  0.91668065  0.33333996  0.69539797  1
  S  S70  1  0.91663915  0.33332174  0.44556908  1
  S  S71  1  0.91641341  0.33320495  0.19599712  1
  S  S72  1  0.90769596  0.56539007  0.93967903  1
  S  S73  1  0.91662371  0.58324444  0.69533360  1
  S  S74  1  0.91665595  0.58331269  0.44556166  1
  S  S75  1  0.91643248  0.58286075  0.19563419  1
  S  S76  1  0.92377509  0.83688804  0.94864536  1
  S  S77  1  0.91644140  0.83321916  0.69537821  1
  S  S78  1  0.91666261  0.83333117  0.44555684  1
  S  S79  1  0.91673045  0.83336430  0.19504948  1
  S  S80  1  0.66654864  0.83379246  0.94642052  1
  S  S81  1  0.66647339  0.83314629  0.69559359  1
  S  S82  1  0.66667687  0.83334089  0.44554440  1
  S  S83  1  0.66670893  0.83380975  0.19542869  1
  S  S84  1  0.66746742  0.08493785  0.94742825  1
  S  S85  1  0.66666065  0.08331936  0.69539816  1
  S  S86  1  0.66667836  0.08336116  0.44556848  1
  S  S87  1  0.66679464  0.08358592  0.19599743  1
  S  S88  1  0.66746821  0.33253072  0.94742886  1
  S  S89  1  0.66666090  0.33333884  0.69539617  1
  S  S90  1  0.66667898  0.33332027  0.44556920  1
  S  S91  1  0.66679451  0.33320557  0.19599676  1
  S  S92  1  0.66654945  0.58275607  0.94642062  1
  S  S93  1  0.66647214  0.58332595  0.69559265  1
  S  S94  1  0.66667534  0.58333406  0.44554523  1
  S  S95  1  0.66670858  0.58289729  0.19542831  1
  S  S96  1  0.41666731  0.58333328  0.94486120  1
  S  S97  1  0.41666783  0.58333374  0.69570225  1
  S  S98  1  0.41666781  0.58333311  0.44553549  1
  S  S99  1  0.41666751  0.58333358  0.19544746  1
  S  S100  1  0.41724632  0.83379443  0.94641992  1
  S  S101  1  0.41667427  0.83314621  0.69559364  1
  S  S102  1  0.41666505  0.83334124  0.44554657  1
  S  S103  1  0.41710322  0.83380957  0.19542832  1
  S  S104  1  0.43460940  0.09230480  0.93967832  1
  S  S105  1  0.41675536  0.08337664  0.69533338  1
  S  S106  1  0.41668684  0.08334298  0.44556148  1
  S  S107  1  0.41713761  0.08356602  0.19563412  1
  S  S108  1  0.41724486  0.33345140  0.94642072  1
  S  S109  1  0.41667332  0.33352808  0.69559288  1
  S  S110  1  0.41666574  0.33332482  0.44554564  1
  S  S111  1  0.41710208  0.33329116  0.19542799  1
  S  S112  1  0.16620717  0.33345204  0.94642024  1
  S  S113  1  0.16685436  0.33352706  0.69559381  1
  S  S114  1  0.16665997  0.33332349  0.44554492  1
  S  S115  1  0.16619065  0.33329155  0.19542865  1
  S  S116  1  0.16620561  0.58275390  0.94642003  1
  S  S117  1  0.16685394  0.58332583  0.69559364  1
  S  S118  1  0.16665852  0.58333454  0.44554649  1
  S  S119  1  0.16619079  0.58289760  0.19542817  1
  S  S120  1  0.16311066  0.83688962  0.94864521  1
  S  S121  1  0.16678030  0.83321988  0.69537853  1
  S  S122  1  0.16666998  0.83332981  0.44555755  1
  S  S123  1  0.16663618  0.83336372  0.19504916  1
  S  S124  1  0.16311200  0.07622443  0.94864522  1
  S  S125  1  0.16678064  0.08355846  0.69537853  1
  S  S126  1  0.16666868  0.08333733  0.44555671  1
  S  S127  1  0.16663531  0.08326956  0.19504939  1
  S  S128  1  0.83353233  0.91682935  0.80432189  1
  S  S129  1  0.83333286  0.91666647  0.55441783  1
  S  S130  1  0.83363085  0.91627966  0.30423808  1
  S  S131  1  0.83996832  0.92143601  0.05221186  1
  S  S132  1  0.83329421  0.16670603  0.80426056  1
  S  S133  1  0.83334460  0.16665499  0.55443649  1
  S  S134  1  0.83350963  0.16649059  0.30484754  1
  S  S135  1  0.83376685  0.16623373  0.05704449  1
  S  S136  1  0.83329432  0.41659049  0.80426078  1
  S  S137  1  0.83334709  0.41669439  0.55443800  1
  S  S138  1  0.83350973  0.41701886  0.30484730  1
  S  S139  1  0.83376962  0.41753578  0.05704561  1
  S  S140  1  0.83353220  0.66670201  0.80432261  1
  S  S141  1  0.83333110  0.66666825  0.55441913  1
  S  S142  1  0.83362757  0.66734775  0.30423804  1
  S  S143  1  0.83996861  0.66853628  0.05221418  1
  S  S144  1  0.58348148  0.66674051  0.80460156  1
  S  S145  1  0.58331205  0.66665697  0.55441376  1
  S  S146  1  0.58360908  0.66680210  0.30416833  1
  S  S147  1  0.58463318  0.66731724  0.05484344  1
  S  S148  1  0.58348021  0.91695914  0.80439432  1
  S  S149  1  0.58332434  0.91664970  0.55441829  1
  S  S150  1  0.58315146  0.91630166  0.30461537  1
  S  S151  1  0.58250436  0.91500923  0.05868401  1
  S  S152  1  0.58340941  0.16670595  0.80426062  1
  S  S153  1  0.58330560  0.16665277  0.55443791  1
  S  S154  1  0.58298140  0.16649160  0.30484731  1
  S  S155  1  0.58246365  0.16623007  0.05704547  1
  S  S156  1  0.58347993  0.41652021  0.80439458  1
  S  S157  1  0.58332496  0.41667671  0.55442007  1
  S  S158  1  0.58315133  0.41684737  0.30461415  1
  S  S159  1  0.58250353  0.41749668  0.05868488  1
  S  S160  1  0.33325944  0.41651913  0.80460135  1
  S  S161  1  0.33334317  0.41668873  0.55441330  1
  S  S162  1  0.33319692  0.41639002  0.30416814  1
  S  S163  1  0.33268275  0.41536723  0.05484366  1
  S  S164  1  0.33326062  0.66674105  0.80460064  1
  S  S165  1  0.33334473  0.66665563  0.55441347  1
  S  S166  1  0.33319578  0.66680434  0.30416926  1
  S  S167  1  0.33268097  0.66731916  0.05484400  1
  S  S168  1  0.33329811  0.91682956  0.80432208  1
  S  S169  1  0.33333179  0.91666482  0.55441878  1
  S  S170  1  0.33265147  0.91627877  0.30423869  1
  S  S171  1  0.33146475  0.92143337  0.05221295  1
  S  S172  1  0.33329881  0.16646863  0.80432242  1
  S  S173  1  0.33333127  0.16666790  0.55441912  1
  S  S174  1  0.33265181  0.16637217  0.30423800  1
  S  S175  1  0.33146336  0.16003126  0.05221427  1
  S  S176  1  0.08317010  0.16646782  0.80432185  1
  S  S177  1  0.08333310  0.16666659  0.55441759  1
  S  S178  1  0.08372016  0.16636866  0.30423810  1
  S  S179  1  0.07856355  0.16003192  0.05221219  1
  S  S180  1  0.08304227  0.41652054  0.80439440  1
  S  S181  1  0.08335143  0.41667537  0.55441872  1
  S  S182  1  0.08369770  0.41684848  0.30461511  1
  S  S183  1  0.08498992  0.41749528  0.05868483  1
  S  S184  1  0.08317090  0.66670196  0.80432216  1
  S  S185  1  0.08333425  0.66666705  0.55441889  1
  S  S186  1  0.08372097  0.66734816  0.30423877  1
  S  S187  1  0.07856591  0.66853436  0.05221296  1
  S  S188  1  0.08333320  0.91666698  0.80413765  1
  S  S189  1  0.08333185  0.91666709  0.55440972  1
  S  S190  1  0.08333286  0.91666687  0.30411828  1
