# generated using pymatgen
data_CsY(MoO4)2
_symmetry_space_group_name_H-M   'P 1'
_cell_length_a   5.12047800
_cell_length_b   8.23016800
_cell_length_c   9.64931400
_cell_angle_alpha   90.00000000
_cell_angle_beta   90.00000000
_cell_angle_gamma   90.00000000
_symmetry_Int_Tables_number   1
_chemical_formula_structural   CsY(MoO4)2
_chemical_formula_sum   'Cs2 Y2 Mo4 O16'
_cell_volume   406.64519416
_cell_formula_units_Z   2
loop_
 _symmetry_equiv_pos_site_id
 _symmetry_equiv_pos_as_xyz
  1  'x, y, z'
loop_
 _atom_site_type_symbol
 _atom_site_label
 _atom_site_symmetry_multiplicity
 _atom_site_fract_x
 _atom_site_fract_y
 _atom_site_fract_z
 _atom_site_occupancy
  Cs  Cs0  1  0.00000000  0.25000000  0.50000000  1
  Cs  Cs1  1  0.00000000  0.75000000  0.50000000  1
  Y  Y2  1  0.00000000  0.25000000  0.00000000  1
  Y  Y3  1  0.00000000  0.75000000  0.00000000  1
  Mo  Mo4  1  0.52368300  0.00000000  0.19242200  1
  Mo  Mo5  1  0.47631700  0.00000000  0.80757800  1
  Mo  Mo6  1  0.47631700  0.50000000  0.19242200  1
  Mo  Mo7  1  0.52368300  0.50000000  0.80757800  1
  O  O8  1  0.26091900  0.32530000  0.18468800  1
  O  O9  1  0.73908100  0.67470000  0.81531200  1
  O  O10  1  0.73908100  0.32530000  0.81531200  1
  O  O11  1  0.73908100  0.17470000  0.18468800  1
  O  O12  1  0.26091900  0.67470000  0.18468800  1
  O  O13  1  0.26091900  0.82530000  0.81531200  1
  O  O14  1  0.26091900  0.17470000  0.81531200  1
  O  O15  1  0.73908100  0.82530000  0.18468800  1
  O  O16  1  0.24850600  0.00000000  0.06492100  1
  O  O17  1  0.75149400  0.00000000  0.93507900  1
  O  O18  1  0.75149400  0.50000000  0.06492100  1
  O  O19  1  0.24850600  0.50000000  0.93507900  1
  O  O20  1  0.38894000  0.00000000  0.35895800  1
  O  O21  1  0.61106000  0.00000000  0.64104200  1
  O  O22  1  0.61106000  0.50000000  0.35895800  1
  O  O23  1  0.38894000  0.50000000  0.64104200  1
