# generated using pymatgen
data_Mg8V5O16
_symmetry_space_group_name_H-M   'P 1'
_cell_length_a   6.03811700
_cell_length_b   6.05324385
_cell_length_c   10.29576240
_cell_angle_alpha   73.80162094
_cell_angle_beta   73.57799877
_cell_angle_gamma   60.09268257
_symmetry_Int_Tables_number   1
_chemical_formula_structural   Mg8V5O16
_chemical_formula_sum   'Mg8 V5 O16'
_cell_volume   308.55268002
_cell_formula_units_Z   1
loop_
 _symmetry_equiv_pos_site_id
 _symmetry_equiv_pos_as_xyz
  1  'x, y, z'
loop_
 _atom_site_type_symbol
 _atom_site_label
 _atom_site_symmetry_multiplicity
 _atom_site_fract_x
 _atom_site_fract_y
 _atom_site_fract_z
 _atom_site_occupancy
  Mg  Mg0  1  0.68394000  0.18982000  0.92588500  1
  Mg  Mg1  1  0.50045700  0.99727900  0.50108400  1
  Mg  Mg2  1  0.75199200  0.24701100  0.24605500  1
  Mg  Mg3  1  0.24959600  0.75358900  0.75364100  1
  Mg  Mg4  1  0.99548000  0.50054800  0.50155400  1
  Mg  Mg5  1  0.50353900  0.49791500  0.50596200  1
  Mg  Mg6  1  0.99712800  0.00107100  0.50175300  1
  Mg  Mg7  1  0.31829400  0.81117800  0.07018500  1
  V  V8  1  0.73496500  0.75333100  0.75361600  1
  V  V9  1  0.24645700  0.24506600  0.75048000  1
  V  V10  1  0.99851300  0.50463000  0.99819100  1
  V  V11  1  0.75073000  0.75467700  0.24974500  1
  V  V12  1  0.26473100  0.24814300  0.24600800  1
  O  O13  1  0.88953900  0.38319800  0.86719400  1
  O  O14  1  0.88450100  0.84387900  0.86999400  1
  O  O15  1  0.38502100  0.87642500  0.86522100  1
  O  O16  1  0.61061000  0.12625000  0.62227500  1
  O  O17  1  0.34022000  0.38620000  0.87050800  1
  O  O18  1  0.85492200  0.88116700  0.37575800  1
  O  O19  1  0.36618600  0.35426500  0.36892100  1
  O  O20  1  0.12284900  0.62982100  0.62023200  1
  O  O21  1  0.87752800  0.37107200  0.37632400  1
  O  O22  1  0.62266400  0.64232900  0.62134400  1
  O  O23  1  0.65886400  0.61131900  0.13078000  1
  O  O24  1  0.14323300  0.12274200  0.62029800  1
  O  O25  1  0.38402700  0.88608600  0.36962800  1
  O  O26  1  0.60753200  0.12803200  0.13514900  1
  O  O27  1  0.12435700  0.15561200  0.13697400  1
  O  O28  1  0.11546800  0.60809800  0.13746400  1
