# generated using pymatgen
data_Na2TmPCO7
_symmetry_space_group_name_H-M   'P 1'
_cell_length_a   6.93622600
_cell_length_b   5.33283500
_cell_length_c   9.19329967
_cell_angle_alpha   88.93113513
_cell_angle_beta   90.00000000
_cell_angle_gamma   90.00000000
_symmetry_Int_Tables_number   1
_chemical_formula_structural   Na2TmPCO7
_chemical_formula_sum   'Na4 Tm2 P2 C2 O14'
_cell_volume   339.99867387
_cell_formula_units_Z   2
loop_
 _symmetry_equiv_pos_site_id
 _symmetry_equiv_pos_as_xyz
  1  'x, y, z'
loop_
 _atom_site_type_symbol
 _atom_site_label
 _atom_site_symmetry_multiplicity
 _atom_site_fract_x
 _atom_site_fract_y
 _atom_site_fract_z
 _atom_site_occupancy
  Na  Na0  1  0.49564900  0.23414900  0.77625400  1
  Na  Na1  1  0.00435100  0.23414900  0.77625400  1
  Na  Na2  1  0.50435100  0.76585100  0.22374600  1
  Na  Na3  1  0.99564900  0.76585100  0.22374600  1
  Tm  Tm4  1  0.75000000  0.77299600  0.64131500  1
  Tm  Tm5  1  0.25000000  0.22700400  0.35868500  1
  P  P6  1  0.25000000  0.70913200  0.58110300  1
  P  P7  1  0.75000000  0.29086800  0.41889700  1
  C  C8  1  0.75000000  0.73119000  0.93281000  1
  C  C9  1  0.25000000  0.26881000  0.06719000  1
  O  O10  1  0.25000000  0.29224200  0.93133200  1
  O  O11  1  0.75000000  0.95098700  0.86420500  1
  O  O12  1  0.75000000  0.53508400  0.84446400  1
  O  O13  1  0.06664100  0.79686800  0.66019700  1
  O  O14  1  0.43335900  0.79686800  0.66019700  1
  O  O15  1  0.75000000  0.18204000  0.57931200  1
  O  O16  1  0.25000000  0.41642000  0.57179300  1
  O  O17  1  0.75000000  0.58358000  0.42820700  1
  O  O18  1  0.25000000  0.81796000  0.42068800  1
  O  O19  1  0.56664100  0.20313200  0.33980300  1
  O  O20  1  0.93335900  0.20313200  0.33980300  1
  O  O21  1  0.25000000  0.46491600  0.15553600  1
  O  O22  1  0.25000000  0.04901300  0.13579500  1
  O  O23  1  0.75000000  0.70775800  0.06866800  1
