data_image0
_chemical_formula_structural       O12Sr6U2
_chemical_formula_sum              "O12 Sr6 U2"
_cell_length_a       5.94782
_cell_length_b       6.19653
_cell_length_c       8.51018
_cell_angle_alpha    90
_cell_angle_beta     90.5151
_cell_angle_gamma    90

_space_group_name_H-M_alt    "P 1"
_space_group_IT_number       1

loop_
  _space_group_symop_operation_xyz
  'x, y, z'

loop_
  _atom_site_type_symbol
  _atom_site_label
  _atom_site_symmetry_multiplicity
  _atom_site_fract_x
  _atom_site_fract_y
  _atom_site_fract_z
  _atom_site_occupancy
  O   O1        1.0  0.57600  0.19800  0.82500  1.0000
  O   O2        1.0  0.42400  0.69800  0.17500  1.0000
  O   O3        1.0  0.03400  0.30000  0.69500  1.0000
  O   O4        1.0  0.96600  0.80000  0.30500  1.0000
  O   O5        1.0  0.12900  0.03700  0.02110  1.0000
  O   O6        1.0  0.87100  0.53700  0.97900  1.0000
  O   O7        1.0  0.07930  0.25800  0.32400  1.0000
  O   O8        1.0  0.92100  0.75800  0.67600  1.0000
  O   O9        1.0  0.53900  0.15400  0.19600  1.0000
  O   O10       1.0  0.46100  0.65400  0.80400  1.0000
  O   O11       1.0  0.62600  0.41700  0.52100  1.0000
  O   O12       1.0  0.37400  0.91700  0.47900  1.0000
  Sr  Sr1       1.0  0.26400  0.42400  0.99700  1.0000
  Sr  Sr2       1.0  0.73600  0.92400  0.00347  1.0000
  Sr  Sr3       1.0  0.76700  0.03250  0.49500  1.0000
  Sr  Sr4       1.0  0.23300  0.53200  0.50500  1.0000
  Sr  Sr5       1.0  0.25000  0.97800  0.74900  1.0000
  Sr  Sr6       1.0  0.75000  0.47800  0.25100  1.0000
  U   U1        1.0  0.25200  0.97800  0.25000  1.0000
  U   U2        1.0  0.74800  0.47800  0.75000  1.0000
