# generated using pymatgen
data_FeAgSe2
_symmetry_space_group_name_H-M   'P 1'
_cell_length_a   6.83629966
_cell_length_b   6.83629966
_cell_length_c   6.83629966
_cell_angle_alpha   128.73089631
_cell_angle_beta   128.73089631
_cell_angle_gamma   75.44395996
_symmetry_Int_Tables_number   1
_chemical_formula_structural   FeAgSe2
_chemical_formula_sum   'Fe2 Ag2 Se4'
_cell_volume   189.20209005
_cell_formula_units_Z   2
loop_
 _symmetry_equiv_pos_site_id
 _symmetry_equiv_pos_as_xyz
  1  'x, y, z'
loop_
 _atom_site_type_symbol
 _atom_site_label
 _atom_site_symmetry_multiplicity
 _atom_site_fract_x
 _atom_site_fract_y
 _atom_site_fract_z
 _atom_site_occupancy
  Fe  Fe0  1  0.50000000  0.50000000  0.00000000  1
  Fe  Fe1  1  0.25000000  0.75000000  0.50000000  1
  Ag  Ag2  1  0.00000000  0.00000000  0.00000000  1
  Ag  Ag3  1  0.75000000  0.25000000  0.50000000  1
  Se  Se4  1  0.87500000  0.41884700  0.04384700  1
  Se  Se5  1  0.37500000  0.83115300  0.95615300  1
  Se  Se6  1  0.16884700  0.12500000  0.54384700  1
  Se  Se7  1  0.58115300  0.62500000  0.45615300  1
