# generated using pymatgen
data_Gd2As4O11
_symmetry_space_group_name_H-M   'P 1'
_cell_length_a   6.70862929
_cell_length_b   6.70862929
_cell_length_c   16.42841889
_cell_angle_alpha   83.82995341
_cell_angle_beta   83.82995341
_cell_angle_gamma   47.17848544
_symmetry_Int_Tables_number   1
_chemical_formula_structural   Gd2As4O11
_chemical_formula_sum   'Gd4 As8 O22'
_cell_volume   538.56855413
_cell_formula_units_Z   2
loop_
 _symmetry_equiv_pos_site_id
 _symmetry_equiv_pos_as_xyz
  1  'x, y, z'
loop_
 _atom_site_type_symbol
 _atom_site_label
 _atom_site_symmetry_multiplicity
 _atom_site_fract_x
 _atom_site_fract_y
 _atom_site_fract_z
 _atom_site_occupancy
  Gd  Gd0  1  0.67332400  0.11981000  0.96916000  1
  Gd  Gd1  1  0.11981000  0.67332400  0.46916000  1
  Gd  Gd2  1  0.88019000  0.32667600  0.53084000  1
  Gd  Gd3  1  0.32667600  0.88019000  0.03084000  1
  As  As4  1  0.22373400  0.65100600  0.84300600  1
  As  As5  1  0.50917300  0.13624400  0.61881700  1
  As  As6  1  0.65100600  0.22373400  0.34300600  1
  As  As7  1  0.86375600  0.49082700  0.88118300  1
  As  As8  1  0.13624400  0.50917300  0.11881700  1
  As  As9  1  0.34899400  0.77626600  0.65699400  1
  As  As10  1  0.49082700  0.86375600  0.38118300  1
  As  As11  1  0.77626600  0.34899400  0.15699400  1
  O  O12  1  0.04543500  0.09333900  0.66116300  1
  O  O13  1  0.24091200  0.38049900  0.86421600  1
  O  O14  1  0.09333900  0.04543500  0.16116300  1
  O  O15  1  0.24272700  0.30261200  0.54863300  1
  O  O16  1  0.38049900  0.24091200  0.36421600  1
  O  O17  1  0.43234300  0.58877800  0.91484900  1
  O  O18  1  0.98132800  0.20781500  0.94920100  1
  O  O19  1  0.42247200  0.57752800  0.75000000  1
  O  O20  1  0.79218500  0.01867200  0.55079900  1
  O  O21  1  0.30261200  0.24272600  0.04863300  1
  O  O22  1  0.41122200  0.56765700  0.58515100  1
  O  O23  1  0.58877800  0.43234300  0.41484900  1
  O  O24  1  0.69738800  0.75727300  0.95136700  1
  O  O25  1  0.20781500  0.98132800  0.44920100  1
  O  O26  1  0.57752800  0.42247200  0.25000000  1
  O  O27  1  0.01867200  0.79218500  0.05079900  1
  O  O28  1  0.56765700  0.41122200  0.08515100  1
  O  O29  1  0.61950100  0.75908800  0.63578400  1
  O  O30  1  0.75727300  0.69738800  0.45136700  1
  O  O31  1  0.90666100  0.95456500  0.83883700  1
  O  O32  1  0.75908800  0.61950100  0.13578400  1
  O  O33  1  0.95456500  0.90666100  0.33883700  1
