# generated using pymatgen
data_DyMn2O4
_symmetry_space_group_name_H-M   'P 1'
_cell_length_a   8.62688692
_cell_length_b   8.62688692
_cell_length_c   8.62688735
_cell_angle_alpha   24.09926017
_cell_angle_beta   24.09926017
_cell_angle_gamma   24.09925529
_symmetry_Int_Tables_number   1
_chemical_formula_structural   DyMn2O4
_chemical_formula_sum   'Dy1 Mn2 O4'
_cell_volume   94.06837684
_cell_formula_units_Z   1
loop_
 _symmetry_equiv_pos_site_id
 _symmetry_equiv_pos_as_xyz
  1  'x, y, z'
loop_
 _atom_site_type_symbol
 _atom_site_label
 _atom_site_symmetry_multiplicity
 _atom_site_fract_x
 _atom_site_fract_y
 _atom_site_fract_z
 _atom_site_occupancy
  Dy  Dy0  1  0.00000000  0.00000000  0.00000000  1
  Mn  Mn1  1  0.78629600  0.78629600  0.78629600  1
  Mn  Mn2  1  0.21370400  0.21370400  0.21370400  1
  O  O3  1  0.70714300  0.70714300  0.70714300  1
  O  O4  1  0.29285700  0.29285700  0.29285700  1
  O  O5  1  0.86983000  0.86983000  0.86983000  1
  O  O6  1  0.13017000  0.13017000  0.13017000  1
