# generated using pymatgen
data_V(Bi5O8)5
_symmetry_space_group_name_H-M   'P 1'
_cell_length_a   9.01914616
_cell_length_b   9.01914616
_cell_length_c   14.73432942
_cell_angle_alpha   89.97315231
_cell_angle_beta   89.97315231
_cell_angle_gamma   70.47299616
_symmetry_Int_Tables_number   1
_chemical_formula_structural   V(Bi5O8)5
_chemical_formula_sum   'V1 Bi25 O40'
_cell_volume   1129.62727086
_cell_formula_units_Z   1
loop_
 _symmetry_equiv_pos_site_id
 _symmetry_equiv_pos_as_xyz
  1  'x, y, z'
loop_
 _atom_site_type_symbol
 _atom_site_label
 _atom_site_symmetry_multiplicity
 _atom_site_fract_x
 _atom_site_fract_y
 _atom_site_fract_z
 _atom_site_occupancy
  V  V0  1  0.00098000  0.99902000  0.00000000  1
  Bi  Bi1  1  0.90926200  0.94501200  0.25131300  1
  Bi  Bi2  1  0.77300800  0.72347300  0.07293600  1
  Bi  Bi3  1  0.35644100  0.99094400  0.15218800  1
  Bi  Bi4  1  0.97625400  0.32577800  0.17173800  1
  Bi  Bi5  1  0.55564800  0.58310300  0.25226500  1
  Bi  Bi6  1  0.75508200  0.73855000  0.43132300  1
  Bi  Bi7  1  0.60423000  0.24238500  0.09865900  1
  Bi  Bi8  1  0.21877900  0.57509600  0.07765700  1
  Bi  Bi9  1  0.26422300  0.90601900  0.40410300  1
  Bi  Bi10  1  0.91022100  0.27351100  0.41607200  1
  Bi  Bi11  1  0.16599200  0.52851500  0.33505900  1
  Bi  Bi12  1  0.83717600  0.48891500  0.65221300  1
  Bi  Bi13  1  0.49698500  0.50301500  0.50000000  1
  Bi  Bi14  1  0.51108500  0.16282400  0.34778700  1
  Bi  Bi15  1  0.47148500  0.83400800  0.66494100  1
  Bi  Bi16  1  0.09398100  0.73577700  0.59589700  1
  Bi  Bi17  1  0.72648900  0.08977900  0.58392800  1
  Bi  Bi18  1  0.42490400  0.78122100  0.92234300  1
  Bi  Bi19  1  0.75761500  0.39577000  0.90134100  1
  Bi  Bi20  1  0.26145000  0.24491800  0.56867700  1
  Bi  Bi21  1  0.41689700  0.44435200  0.74773500  1
  Bi  Bi22  1  0.67422200  0.02374600  0.82826200  1
  Bi  Bi23  1  0.00905600  0.64355900  0.84781200  1
  Bi  Bi24  1  0.05498800  0.09073800  0.74868700  1
  Bi  Bi25  1  0.27652700  0.22699200  0.92706400  1
  O  O26  1  0.80655800  0.99900400  0.00016000  1
  O  O27  1  0.40265700  0.00152700  0.00079400  1
  O  O28  1  0.76532500  0.49542200  0.12344900  1
  O  O29  1  0.49735800  0.75463400  0.13063500  1
  O  O30  1  0.99329000  0.74149700  0.37188800  1
  O  O31  1  0.09852400  0.90113200  0.09707800  1
  O  O32  1  0.43011300  0.94944600  0.31649300  1
  O  O33  1  0.93982800  0.42126800  0.31131200  1
  O  O34  1  0.99847300  0.59734300  0.99920600  1
  O  O35  1  0.80420400  0.19618000  0.19525800  1
  O  O36  1  0.94832400  0.93894500  0.68940100  1
  O  O37  1  0.30502100  0.31781000  0.05613500  1
  O  O38  1  0.45170700  0.43731300  0.18279900  1
  O  O39  1  0.80970900  0.82166000  0.55602700  1
  O  O40  1  0.86222600  0.49858500  0.49975800  1
  O  O41  1  0.31472600  0.68540200  0.31333400  1
  O  O42  1  0.07200100  0.56151300  0.18672700  1
  O  O43  1  0.55932000  0.06905500  0.18049000  1
  O  O44  1  0.00099600  0.19344200  0.99984000  1
  O  O45  1  0.62352700  0.37583500  0.37472400  1
  O  O46  1  0.49828500  0.75618300  0.50077200  1
  O  O47  1  0.74281800  0.00608600  0.36690800  1
  O  O48  1  0.99391400  0.25718200  0.63309200  1
  O  O49  1  0.62416500  0.37647300  0.62527600  1
  O  O50  1  0.24381700  0.50171500  0.49922800  1
  O  O51  1  0.93094500  0.44068000  0.81951000  1
  O  O52  1  0.43848700  0.92799900  0.81327300  1
  O  O53  1  0.50141500  0.13777400  0.50024200  1
  O  O54  1  0.31459800  0.68527400  0.68666600  1
  O  O55  1  0.17834000  0.19029100  0.44397300  1
  O  O56  1  0.68219000  0.69497900  0.94386500  1
  O  O57  1  0.06105500  0.05167600  0.31059900  1
  O  O58  1  0.56268700  0.54829300  0.81720100  1
  O  O59  1  0.80382000  0.19579600  0.80474200  1
  O  O60  1  0.57873200  0.06017200  0.68868800  1
  O  O61  1  0.05055500  0.56988700  0.68350700  1
  O  O62  1  0.09886800  0.90147600  0.90292200  1
  O  O63  1  0.25850300  0.00671000  0.62811200  1
  O  O64  1  0.24536600  0.50264200  0.86936400  1
  O  O65  1  0.50457800  0.23467500  0.87655100  1
