# generated using pymatgen
data_Na2NiPCO7
_symmetry_space_group_name_H-M   'P 1'
_cell_length_a   6.66640100
_cell_length_b   10.09848334
_cell_length_c   10.30286789
_cell_angle_alpha   119.22338827
_cell_angle_beta   90.24201635
_cell_angle_gamma   90.24369189
_symmetry_Int_Tables_number   1
_chemical_formula_structural   Na2NiPCO7
_chemical_formula_sum   'Na8 Ni4 P4 C4 O28'
_cell_volume   605.29463383
_cell_formula_units_Z   4
loop_
 _symmetry_equiv_pos_site_id
 _symmetry_equiv_pos_as_xyz
  1  'x, y, z'
loop_
 _atom_site_type_symbol
 _atom_site_label
 _atom_site_symmetry_multiplicity
 _atom_site_fract_x
 _atom_site_fract_y
 _atom_site_fract_z
 _atom_site_occupancy
  Na  Na0  1  0.48177400  0.26709600  0.25988100  1
  Na  Na1  1  0.01704400  0.26635600  0.26060300  1
  Na  Na2  1  0.98985000  0.74233900  0.25360600  1
  Na  Na3  1  0.51309900  0.74082900  0.25012500  1
  Na  Na4  1  0.73635700  0.91153400  0.05533300  1
  Na  Na5  1  0.01048600  0.25526700  0.74955500  1
  Na  Na6  1  0.48783300  0.25481300  0.74964900  1
  Na  Na7  1  0.97976600  0.73393900  0.73428400  1
  Ni  Ni8  1  0.75073800  0.34739600  0.06412100  1
  Ni  Ni9  1  0.25571300  0.65411100  0.43911900  1
  Ni  Ni10  1  0.74966100  0.34744900  0.56117600  1
  Ni  Ni11  1  0.25367600  0.65517400  0.93562500  1
  P  P12  1  0.24995500  0.42049300  0.07007800  1
  P  P13  1  0.75111000  0.58078200  0.43010300  1
  P  P14  1  0.25096700  0.42337900  0.57311800  1
  P  P15  1  0.74993500  0.57976000  0.93385800  1
  C  C16  1  0.24738100  0.93107500  0.10988400  1
  C  C17  1  0.25070000  0.92828200  0.60790500  1
  C  C18  1  0.74980700  0.06819900  0.38776500  1
  C  C19  1  0.75246700  0.07222800  0.89188900  1
  O  O20  1  0.74833500  0.13522200  0.03759000  1
  O  O21  1  0.06367700  0.32375400  0.05710800  1
  O  O22  1  0.43673000  0.32622400  0.05858100  1
  O  O23  1  0.75256600  0.42612100  0.28299500  1
  O  O24  1  0.25034500  0.46038600  0.44133400  1
  O  O25  1  0.75745000  0.54181000  0.06530200  1
  O  O26  1  0.24969700  0.57358600  0.21810500  1
  O  O27  1  0.93858700  0.67725000  0.44383400  1
  O  O28  1  0.56500600  0.67274500  0.43667000  1
  O  O29  1  0.25033800  0.83010600  0.15437600  1
  O  O30  1  0.24965600  0.82898000  0.65295800  1
  O  O31  1  0.25477600  0.86689000  0.46363600  1
  O  O32  1  0.75194500  0.92612300  0.29998400  1
  O  O33  1  0.75974900  0.93146800  0.81257400  1
  O  O34  1  0.24770200  0.07167600  0.19784600  1
  O  O35  1  0.24801800  0.06885200  0.69314100  1
  O  O36  1  0.74934400  0.12960700  0.53090500  1
  O  O37  1  0.74778900  0.16357000  0.33648200  1
  O  O38  1  0.74903400  0.16978500  0.84422700  1
  O  O39  1  0.06463700  0.32308500  0.55373800  1
  O  O40  1  0.43701800  0.32698300  0.55824400  1
  O  O41  1  0.74847000  0.42934600  0.78641500  1
  O  O42  1  0.24887800  0.45821500  0.93936700  1
  O  O43  1  0.75588900  0.54036800  0.55775500  1
  O  O44  1  0.24394000  0.57396800  0.71972600  1
  O  O45  1  0.56324000  0.67897900  0.96004400  1
  O  O46  1  0.93296600  0.68169000  0.94937600  1
  O  O47  1  0.24605200  0.87238800  0.96688300  1
