# generated using pymatgen
data_Ti3Mn2P6WO24
_symmetry_space_group_name_H-M   'P 1'
_cell_length_a   8.74011317
_cell_length_b   8.72917455
_cell_length_c   8.72917369
_cell_angle_alpha   60.00000009
_cell_angle_beta   60.04139041
_cell_angle_gamma   60.04139282
_symmetry_Int_Tables_number   1
_chemical_formula_structural   Ti3Mn2P6WO24
_chemical_formula_sum   'Ti3 Mn2 P6 W1 O24'
_cell_volume   471.21574950
_cell_formula_units_Z   1
loop_
 _symmetry_equiv_pos_site_id
 _symmetry_equiv_pos_as_xyz
  1  'x, y, z'
loop_
 _atom_site_type_symbol
 _atom_site_label
 _atom_site_symmetry_multiplicity
 _atom_site_fract_x
 _atom_site_fract_y
 _atom_site_fract_z
 _atom_site_occupancy
  Ti  Ti0  1  0.06179400  0.64606800  0.64606800  1
  Ti  Ti1  1  0.43570100  0.85476600  0.85476600  1
  Ti  Ti2  1  0.93912800  0.35362400  0.35362400  1
  Mn  Mn3  1  0.00698200  0.99767300  0.99767300  1
  Mn  Mn4  1  0.49688200  0.50103900  0.50103900  1
  P  P5  1  0.24651000  0.25168300  0.54788400  1
  P  P6  1  0.24651000  0.95392200  0.25168300  1
  P  P7  1  0.24651000  0.54788400  0.95392200  1
  P  P8  1  0.75205700  0.46092800  0.04298900  1
  P  P9  1  0.75205700  0.04298900  0.74402600  1
  P  P10  1  0.75205700  0.74402600  0.46092800  1
  W  W11  1  0.57463400  0.14178900  0.14178900  1
  O  O12  1  0.07135300  0.11844000  0.30963400  1
  O  O13  1  0.07135300  0.50057400  0.11844000  1
  O  O14  1  0.07135300  0.30963400  0.50057400  1
  O  O15  1  0.23223100  0.08854100  0.73911900  1
  O  O16  1  0.42717900  0.19493400  0.39543800  1
  O  O17  1  0.25227100  0.41644000  0.56815700  1
  O  O18  1  0.23223100  0.94010900  0.08854100  1
  O  O19  1  0.25227100  0.76313300  0.41644000  1
  O  O20  1  0.57284900  0.61799700  0.00120500  1
  O  O21  1  0.25227100  0.56815700  0.76313300  1
  O  O22  1  0.77745800  0.26761100  0.05366700  1
  O  O23  1  0.57284900  0.00120500  0.80794900  1
  O  O24  1  0.42717900  0.98244700  0.19493400  1
  O  O25  1  0.23223100  0.73911900  0.94010900  1
  O  O26  1  0.73667500  0.44644800  0.23502700  1
  O  O27  1  0.42717900  0.39543800  0.98244700  1
  O  O28  1  0.73667500  0.23502700  0.58184900  1
  O  O29  1  0.77745800  0.05366700  0.90126300  1
  O  O30  1  0.73667500  0.58184900  0.44644800  1
  O  O31  1  0.57284900  0.80794900  0.61799700  1
  O  O32  1  0.77745800  0.90126300  0.26761100  1
  O  O33  1  0.92637600  0.68213800  0.50857700  1
  O  O34  1  0.92637600  0.50857700  0.88290800  1
  O  O35  1  0.92637600  0.88290800  0.68213800  1
