# generated using pymatgen
data_CrN2
_symmetry_space_group_name_H-M   'P 1'
_cell_length_a   13.78444903
_cell_length_b   13.78444903
_cell_length_c   26.62893306
_cell_angle_alpha   72.38956015
_cell_angle_beta   72.38956015
_cell_angle_gamma   23.45208432
_symmetry_Int_Tables_number   1
_chemical_formula_structural   CrN2
_chemical_formula_sum   'Cr28 N56'
_cell_volume   1915.16435208
_cell_formula_units_Z   28
loop_
 _symmetry_equiv_pos_site_id
 _symmetry_equiv_pos_as_xyz
  1  'x, y, z'
loop_
 _atom_site_type_symbol
 _atom_site_label
 _atom_site_symmetry_multiplicity
 _atom_site_fract_x
 _atom_site_fract_y
 _atom_site_fract_z
 _atom_site_occupancy
  Cr  Cr0  1  0.09371800  0.02930300  0.41321000  1
  Cr  Cr1  1  0.97069700  0.90628200  0.08679000  1
  Cr  Cr2  1  0.90628200  0.97069700  0.58679000  1
  Cr  Cr3  1  0.02930300  0.09371800  0.91321000  1
  Cr  Cr4  1  0.86955600  0.99407000  0.46025800  1
  Cr  Cr5  1  0.00593000  0.13044400  0.03974200  1
  Cr  Cr6  1  0.13044400  0.00593000  0.53974200  1
  Cr  Cr7  1  0.99407000  0.86955600  0.96025800  1
  Cr  Cr8  1  0.65551500  0.59445500  0.36222400  1
  Cr  Cr9  1  0.40554500  0.34448500  0.13777600  1
  Cr  Cr10  1  0.34448500  0.40554500  0.63777600  1
  Cr  Cr11  1  0.59445500  0.65551500  0.86222400  1
  Cr  Cr12  1  0.29805800  0.43591000  0.44785400  1
  Cr  Cr13  1  0.56409000  0.70194200  0.05214600  1
  Cr  Cr14  1  0.70194200  0.56409000  0.55214600  1
  Cr  Cr15  1  0.43591000  0.29805800  0.94785400  1
  Cr  Cr16  1  0.79354400  0.63921600  0.42667900  1
  Cr  Cr17  1  0.36078400  0.20645600  0.07332100  1
  Cr  Cr18  1  0.20645600  0.36078400  0.57332100  1
  Cr  Cr19  1  0.63921600  0.79354400  0.92667900  1
  Cr  Cr20  1  0.36515100  0.20874600  0.38121000  1
  Cr  Cr21  1  0.79125400  0.63484900  0.11879000  1
  Cr  Cr22  1  0.63484900  0.79125400  0.61879000  1
  Cr  Cr23  1  0.20874600  0.36515100  0.88121000  1
  Cr  Cr24  1  0.72518400  0.70400500  0.24499200  1
  Cr  Cr25  1  0.29599500  0.27481600  0.25500800  1
  Cr  Cr26  1  0.27481600  0.29599500  0.75500800  1
  Cr  Cr27  1  0.70400500  0.72518400  0.74499200  1
  N  N28  1  0.09630900  0.04886900  0.47466100  1
  N  N29  1  0.95113100  0.90369100  0.02533900  1
  N  N30  1  0.90369100  0.95113100  0.52533900  1
  N  N31  1  0.04886900  0.09630900  0.97466100  1
  N  N32  1  0.96704000  0.02591000  0.42304900  1
  N  N33  1  0.97409000  0.03296000  0.07695100  1
  N  N34  1  0.03296000  0.97409000  0.57695100  1
  N  N35  1  0.02591000  0.96704000  0.92304900  1
  N  N36  1  0.39843500  0.75801600  0.38658000  1
  N  N37  1  0.24198400  0.60156500  0.11342000  1
  N  N38  1  0.60156500  0.24198400  0.61342000  1
  N  N39  1  0.75801600  0.39843500  0.88658000  1
  N  N40  1  0.68583600  0.65447700  0.39561700  1
  N  N41  1  0.34552300  0.31416400  0.10438300  1
  N  N42  1  0.31416400  0.34552300  0.60438300  1
  N  N43  1  0.65447700  0.68583600  0.89561700  1
  N  N44  1  0.55213000  0.26736700  0.45195200  1
  N  N45  1  0.73263300  0.44787000  0.04804800  1
  N  N46  1  0.44787000  0.73263300  0.54804800  1
  N  N47  1  0.26736700  0.55213000  0.95195200  1
  N  N48  1  0.64307900  0.66886600  0.29611800  1
  N  N49  1  0.33113400  0.35692100  0.20388200  1
  N  N50  1  0.35692100  0.33113400  0.70388200  1
  N  N51  1  0.66886600  0.64307900  0.79611800  1
  N  N52  1  0.00860300  0.49534600  0.25927500  1
  N  N53  1  0.50465400  0.99139700  0.24072500  1
  N  N54  1  0.99139700  0.50465400  0.74072500  1
  N  N55  1  0.49534600  0.00860300  0.75927500  1
  N  N56  1  0.11331600  0.36831200  0.40929800  1
  N  N57  1  0.63168800  0.88668400  0.09070200  1
  N  N58  1  0.88668400  0.63168800  0.59070200  1
  N  N59  1  0.36831200  0.11331600  0.90929800  1
  N  N60  1  0.35432900  0.33107000  0.39550500  1
  N  N61  1  0.66893000  0.64567100  0.10449500  1
  N  N62  1  0.64567100  0.66893000  0.60449500  1
  N  N63  1  0.33107000  0.35432900  0.89550500  1
  N  N64  1  0.25351000  0.37870600  0.50555300  1
  N  N65  1  0.62129400  0.74649000  0.99444700  1
  N  N66  1  0.74649000  0.62129400  0.49444700  1
  N  N67  1  0.37870600  0.25351000  0.00555300  1
  N  N68  1  0.77685600  0.62704900  0.18696600  1
  N  N69  1  0.37295100  0.22314400  0.31303400  1
  N  N70  1  0.22314400  0.37295100  0.81303400  1
  N  N71  1  0.62704900  0.77685600  0.68696600  1
  N  N72  1  0.91876800  0.27479900  0.37236100  1
  N  N73  1  0.72520100  0.08123200  0.12763900  1
  N  N74  1  0.08123200  0.72520100  0.62763900  1
  N  N75  1  0.27479900  0.91876800  0.87236100  1
  N  N76  1  0.03534200  0.75431600  0.44044300  1
  N  N77  1  0.24568400  0.96465800  0.05955700  1
  N  N78  1  0.96465800  0.24568400  0.55955700  1
  N  N79  1  0.75431600  0.03534200  0.94044300  1
  N  N80  1  0.62686400  0.89735300  0.40983500  1
  N  N81  1  0.10264700  0.37313600  0.09016500  1
  N  N82  1  0.37313600  0.10264700  0.59016500  1
  N  N83  1  0.89735300  0.62686400  0.90983500  1
