# generated using pymatgen
data_Na2NiPCO7
_symmetry_space_group_name_H-M   'P 1'
_cell_length_a   6.63833600
_cell_length_b   10.14242387
_cell_length_c   10.32064030
_cell_angle_alpha   118.68438774
_cell_angle_beta   89.76592286
_cell_angle_gamma   90.51004892
_symmetry_Int_Tables_number   1
_chemical_formula_structural   Na2NiPCO7
_chemical_formula_sum   'Na8 Ni4 P4 C4 O28'
_cell_volume   609.57499945
_cell_formula_units_Z   4
loop_
 _symmetry_equiv_pos_site_id
 _symmetry_equiv_pos_as_xyz
  1  'x, y, z'
loop_
 _atom_site_type_symbol
 _atom_site_label
 _atom_site_symmetry_multiplicity
 _atom_site_fract_x
 _atom_site_fract_y
 _atom_site_fract_z
 _atom_site_occupancy
  Na  Na0  1  0.48173600  0.26488100  0.25602300  1
  Na  Na1  1  0.01549600  0.26532900  0.25512100  1
  Na  Na2  1  0.97166900  0.74055000  0.25594200  1
  Na  Na3  1  0.73644300  0.91069500  0.06765400  1
  Na  Na4  1  0.00907000  0.25101000  0.74951000  1
  Na  Na5  1  0.49153200  0.24923300  0.74786400  1
  Na  Na6  1  0.98977000  0.73851000  0.73826800  1
  Na  Na7  1  0.51371000  0.73723000  0.73402800  1
  Ni  Ni8  1  0.74900300  0.35197800  0.06622300  1
  Ni  Ni9  1  0.25863500  0.65180600  0.43084200  1
  Ni  Ni10  1  0.75044500  0.35092000  0.56584100  1
  Ni  Ni11  1  0.25499400  0.65093300  0.93591600  1
  P  P12  1  0.25038700  0.42405700  0.07192900  1
  P  P13  1  0.75124200  0.58136700  0.43458800  1
  P  P14  1  0.25048800  0.42223100  0.57033700  1
  P  P15  1  0.75247300  0.57887100  0.92805300  1
  C  C16  1  0.24843700  0.92682700  0.10567500  1
  C  C17  1  0.24845600  0.92612700  0.60262000  1
  C  C18  1  0.75257600  0.07618800  0.39376800  1
  C  C19  1  0.74943800  0.07002400  0.89920500  1
  O  O20  1  0.74713000  0.13517000  0.04371700  1
  O  O21  1  0.06320700  0.32589000  0.05778800  1
  O  O22  1  0.43778300  0.33062700  0.06137100  1
  O  O23  1  0.74838000  0.43206100  0.28904100  1
  O  O24  1  0.25128500  0.45713000  0.43746900  1
  O  O25  1  0.75940100  0.54255100  0.05776700  1
  O  O26  1  0.24234100  0.57330000  0.21690100  1
  O  O27  1  0.93999900  0.67581800  0.44719700  1
  O  O28  1  0.56288400  0.67609700  0.45690900  1
  O  O29  1  0.24233000  0.82910200  0.15206700  1
  O  O30  1  0.25164600  0.82681200  0.64858500  1
  O  O31  1  0.24794400  0.86804800  0.46103800  1
  O  O32  1  0.76180700  0.93810800  0.30720800  1
  O  O33  1  0.75198700  0.92784200  0.82396400  1
  O  O34  1  0.24617000  0.06681900  0.18919300  1
  O  O35  1  0.24682200  0.06497800  0.68897300  1
  O  O36  1  0.74866000  0.13660200  0.53671100  1
  O  O37  1  0.74727300  0.17445300  0.34569100  1
  O  O38  1  0.74885700  0.16031100  0.84392500  1
  O  O39  1  0.06195600  0.32690100  0.55704600  1
  O  O40  1  0.43741600  0.32871200  0.55925300  1
  O  O41  1  0.75348300  0.42677600  0.78358400  1
  O  O42  1  0.25004900  0.45747600  0.93880900  1
  O  O43  1  0.75351000  0.54530100  0.56774800  1
  O  O44  1  0.24975500  0.57348600  0.71563200  1
  O  O45  1  0.56679800  0.67374100  0.93664900  1
  O  O46  1  0.93643000  0.67989600  0.94088900  1
  O  O47  1  0.25885200  0.86690200  0.96233900  1
