# generated using pymatgen
data_HC
_symmetry_space_group_name_H-M   'P 1'
_cell_length_a   2.54026746
_cell_length_b   2.54026746
_cell_length_c   5.48985900
_cell_angle_alpha   90.00000000
_cell_angle_beta   90.00000000
_cell_angle_gamma   119.99998601
_symmetry_Int_Tables_number   1
_chemical_formula_structural   HC
_chemical_formula_sum   'H2 C2'
_cell_volume   30.67967639
_cell_formula_units_Z   2
loop_
 _symmetry_equiv_pos_site_id
 _symmetry_equiv_pos_as_xyz
  1  'x, y, z'
loop_
 _atom_site_type_symbol
 _atom_site_label
 _atom_site_symmetry_multiplicity
 _atom_site_fract_x
 _atom_site_fract_y
 _atom_site_fract_z
 _atom_site_occupancy
  H  H0  1  0.33333300  0.66666700  0.74419200  1
  H  H1  1  0.66666700  0.33333300  0.25580800  1
  C  C2  1  0.33333300  0.66666700  0.54181400  1
  C  C3  1  0.66666700  0.33333300  0.45818600  1
