# generated using pymatgen
data_BaRhO3
_symmetry_space_group_name_H-M   'P 1'
_cell_length_a   5.83032203
_cell_length_b   5.83032203
_cell_length_c   9.81147600
_cell_angle_alpha   90.00000000
_cell_angle_beta   90.00000000
_cell_angle_gamma   120.00000035
_symmetry_Int_Tables_number   1
_chemical_formula_structural   BaRhO3
_chemical_formula_sum   'Ba4 Rh4 O12'
_cell_volume   288.83516227
_cell_formula_units_Z   4
loop_
 _symmetry_equiv_pos_site_id
 _symmetry_equiv_pos_as_xyz
  1  'x, y, z'
loop_
 _atom_site_type_symbol
 _atom_site_label
 _atom_site_symmetry_multiplicity
 _atom_site_fract_x
 _atom_site_fract_y
 _atom_site_fract_z
 _atom_site_occupancy
  Ba  Ba0  1  0.66666700  0.33333300  0.75000000  1
  Ba  Ba1  1  0.33333300  0.66666700  0.25000000  1
  Ba  Ba2  1  0.00000000  0.00000000  0.50000000  1
  Ba  Ba3  1  0.00000000  0.00000000  0.00000000  1
  Rh  Rh4  1  0.33333300  0.66666700  0.88632300  1
  Rh  Rh5  1  0.66666700  0.33333300  0.38632300  1
  Rh  Rh6  1  0.66666700  0.33333300  0.11367700  1
  Rh  Rh7  1  0.33333300  0.66666700  0.61367700  1
  O  O8  1  0.18256200  0.36512500  0.75000000  1
  O  O9  1  0.81743800  0.18256200  0.25000000  1
  O  O10  1  0.36512500  0.18256200  0.25000000  1
  O  O11  1  0.63487500  0.81743800  0.75000000  1
  O  O12  1  0.18256200  0.81743800  0.75000000  1
  O  O13  1  0.81743800  0.63487500  0.25000000  1
  O  O14  1  0.50000000  0.00000000  0.50000000  1
  O  O15  1  0.50000000  0.50000000  0.00000000  1
  O  O16  1  0.50000000  0.00000000  0.00000000  1
  O  O17  1  0.50000000  0.50000000  0.50000000  1
  O  O18  1  0.00000000  0.50000000  0.50000000  1
  O  O19  1  0.00000000  0.50000000  0.00000000  1
