# generated using pymatgen
data_InAgO2
_symmetry_space_group_name_H-M   'P 1'
_cell_length_a   6.56703887
_cell_length_b   6.56703887
_cell_length_c   6.56703789
_cell_angle_alpha   29.02627837
_cell_angle_beta   29.02627837
_cell_angle_gamma   29.02627524
_symmetry_Int_Tables_number   1
_chemical_formula_structural   InAgO2
_chemical_formula_sum   'In1 Ag1 O2'
_cell_volume   58.97648949
_cell_formula_units_Z   1
loop_
 _symmetry_equiv_pos_site_id
 _symmetry_equiv_pos_as_xyz
  1  'x, y, z'
loop_
 _atom_site_type_symbol
 _atom_site_label
 _atom_site_symmetry_multiplicity
 _atom_site_fract_x
 _atom_site_fract_y
 _atom_site_fract_z
 _atom_site_occupancy
  In  In0  1  0.99793900  0.99793900  0.99793900  1
  Ag  Ag1  1  0.15779100  0.15779100  0.15779100  1
  O  O2  1  0.27417900  0.27417900  0.27417900  1
  O  O3  1  0.72909100  0.72909100  0.72909100  1
