# generated using pymatgen
data_Bi2(SO4)3
_symmetry_space_group_name_H-M   'P 1'
_cell_length_a   9.43295203
_cell_length_b   9.43295203
_cell_length_c   9.43295247
_cell_angle_alpha   60.26616832
_cell_angle_beta   60.26616832
_cell_angle_gamma   60.26616434
_symmetry_Int_Tables_number   1
_chemical_formula_structural   Bi2(SO4)3
_chemical_formula_sum   'Bi4 S6 O24'
_cell_volume   597.08538535
_cell_formula_units_Z   2
loop_
 _symmetry_equiv_pos_site_id
 _symmetry_equiv_pos_as_xyz
  1  'x, y, z'
loop_
 _atom_site_type_symbol
 _atom_site_label
 _atom_site_symmetry_multiplicity
 _atom_site_fract_x
 _atom_site_fract_y
 _atom_site_fract_z
 _atom_site_occupancy
  Bi  Bi0  1  0.36068400  0.36068400  0.36068400  1
  Bi  Bi1  1  0.13931600  0.13931600  0.13931600  1
  Bi  Bi2  1  0.63931600  0.63931600  0.63931600  1
  Bi  Bi3  1  0.86068400  0.86068400  0.86068400  1
  S  S4  1  0.75000000  0.04547300  0.45452700  1
  S  S5  1  0.95452700  0.54547300  0.25000000  1
  S  S6  1  0.54547300  0.25000000  0.95452700  1
  S  S7  1  0.45452700  0.75000000  0.04547300  1
  S  S8  1  0.04547300  0.45452700  0.75000000  1
  S  S9  1  0.25000000  0.95452700  0.54547300  1
  O  O10  1  0.89332000  0.05783300  0.28470400  1
  O  O11  1  0.71529600  0.10668000  0.94216700  1
  O  O12  1  0.90811100  0.49315900  0.68931800  1
  O  O13  1  0.00684100  0.59188900  0.81068200  1
  O  O14  1  0.60668000  0.21529600  0.44216700  1
  O  O15  1  0.78470400  0.55783300  0.39332000  1
  O  O16  1  0.94216700  0.71529600  0.10668000  1
  O  O17  1  0.18931800  0.99315900  0.40811100  1
  O  O18  1  0.50684100  0.31068200  0.09188900  1
  O  O19  1  0.31068200  0.09188900  0.50684100  1
  O  O20  1  0.40811100  0.18931800  0.99315900  1
  O  O21  1  0.55783300  0.39332000  0.78470400  1
  O  O22  1  0.44216700  0.60668000  0.21529600  1
  O  O23  1  0.68931800  0.90811100  0.49315900  1
  O  O24  1  0.59188900  0.81068200  0.00684100  1
  O  O25  1  0.81068200  0.00684100  0.59188900  1
  O  O26  1  0.49315900  0.68931800  0.90811100  1
  O  O27  1  0.05783300  0.28470400  0.89332000  1
  O  O28  1  0.21529600  0.44216700  0.60668000  1
  O  O29  1  0.39332000  0.78470400  0.55783300  1
  O  O30  1  0.09188900  0.50684100  0.31068200  1
  O  O31  1  0.99315900  0.40811100  0.18931800  1
  O  O32  1  0.28470400  0.89332000  0.05783300  1
  O  O33  1  0.10668000  0.94216700  0.71529600  1
