# generated using pymatgen
data_Lu2(WO4)3
_symmetry_space_group_name_H-M   'P 1'
_cell_length_a   9.96935300
_cell_length_b   10.08906800
_cell_length_c   13.80250600
_cell_angle_alpha   90.00000000
_cell_angle_beta   90.00000000
_cell_angle_gamma   90.00000000
_symmetry_Int_Tables_number   1
_chemical_formula_structural   Lu2(WO4)3
_chemical_formula_sum   'Lu8 W12 O48'
_cell_volume   1388.27648579
_cell_formula_units_Z   4
loop_
 _symmetry_equiv_pos_site_id
 _symmetry_equiv_pos_as_xyz
  1  'x, y, z'
loop_
 _atom_site_type_symbol
 _atom_site_label
 _atom_site_symmetry_multiplicity
 _atom_site_fract_x
 _atom_site_fract_y
 _atom_site_fract_z
 _atom_site_occupancy
  Lu  Lu0  1  0.24880400  0.03909000  0.62168700  1
  Lu  Lu1  1  0.74880400  0.03909000  0.87831300  1
  Lu  Lu2  1  0.74880400  0.46091000  0.12168700  1
  Lu  Lu3  1  0.24880400  0.46091000  0.37831300  1
  Lu  Lu4  1  0.25119600  0.53909000  0.87831300  1
  Lu  Lu5  1  0.75119600  0.53909000  0.62168700  1
  Lu  Lu6  1  0.25119600  0.96091000  0.12168700  1
  Lu  Lu7  1  0.75119600  0.96091000  0.37831300  1
  W  W8  1  0.39823100  0.11365100  0.35560300  1
  W  W9  1  0.89823100  0.11365100  0.14439700  1
  W  W10  1  0.46660100  0.25000000  0.00000000  1
  W  W11  1  0.96660100  0.25000000  0.50000000  1
  W  W12  1  0.39823100  0.38634900  0.64439700  1
  W  W13  1  0.89823100  0.38634900  0.85560300  1
  W  W14  1  0.10176900  0.61365100  0.14439700  1
  W  W15  1  0.60176900  0.61365100  0.35560300  1
  W  W16  1  0.53339900  0.75000000  0.00000000  1
  W  W17  1  0.03339900  0.75000000  0.50000000  1
  W  W18  1  0.10176900  0.88634900  0.85560300  1
  W  W19  1  0.60176900  0.88634900  0.64439700  1
  O  O20  1  0.17460000  0.99755600  0.76719300  1
  O  O21  1  0.67460000  0.99755600  0.73280700  1
  O  O22  1  0.83192900  0.07548800  0.02539400  1
  O  O23  1  0.33192900  0.07548800  0.47460600  1
  O  O24  1  0.07878200  0.09322900  0.14647200  1
  O  O25  1  0.57878200  0.09322900  0.35352800  1
  O  O26  1  0.36319200  0.13024900  0.06314600  1
  O  O27  1  0.86319200  0.13024900  0.43685400  1
  O  O28  1  0.57346300  0.16525300  0.91387900  1
  O  O29  1  0.07346300  0.16525300  0.58612100  1
  O  O30  1  0.85630300  0.21640700  0.82585000  1
  O  O31  1  0.35630300  0.21640700  0.67415000  1
  O  O32  1  0.85630300  0.28359300  0.17415000  1
  O  O33  1  0.35630300  0.28359300  0.32585000  1
  O  O34  1  0.57346300  0.33474700  0.08612100  1
  O  O35  1  0.07346300  0.33474700  0.41387900  1
  O  O36  1  0.86319200  0.36975100  0.56314600  1
  O  O37  1  0.36319200  0.36975100  0.93685400  1
  O  O38  1  0.57878200  0.40677100  0.64647200  1
  O  O39  1  0.07878200  0.40677100  0.85352800  1
  O  O40  1  0.33192900  0.42451200  0.52539400  1
  O  O41  1  0.83192900  0.42451200  0.97460600  1
  O  O42  1  0.67460000  0.50244400  0.26719300  1
  O  O43  1  0.17460000  0.50244400  0.23280700  1
  O  O44  1  0.32540000  0.49755600  0.73280700  1
  O  O45  1  0.82540000  0.49755600  0.76719300  1
  O  O46  1  0.16807100  0.57548800  0.02539400  1
  O  O47  1  0.66807100  0.57548800  0.47460600  1
  O  O48  1  0.42121800  0.59322900  0.35352800  1
  O  O49  1  0.92121800  0.59322900  0.14647200  1
  O  O50  1  0.63680800  0.63024900  0.06314600  1
  O  O51  1  0.13680800  0.63024900  0.43685400  1
  O  O52  1  0.42653700  0.66525300  0.91387900  1
  O  O53  1  0.92653700  0.66525300  0.58612100  1
  O  O54  1  0.64369700  0.71640700  0.67415000  1
  O  O55  1  0.14369700  0.71640700  0.82585000  1
  O  O56  1  0.14369700  0.78359300  0.17415000  1
  O  O57  1  0.64369700  0.78359300  0.32585000  1
  O  O58  1  0.92653700  0.83474700  0.41387900  1
  O  O59  1  0.42653700  0.83474700  0.08612100  1
  O  O60  1  0.63680800  0.86975100  0.93685400  1
  O  O61  1  0.13680800  0.86975100  0.56314600  1
  O  O62  1  0.92121800  0.90677100  0.85352800  1
  O  O63  1  0.42121800  0.90677100  0.64647200  1
  O  O64  1  0.16807100  0.92451200  0.97460600  1
  O  O65  1  0.66807100  0.92451200  0.52539400  1
  O  O66  1  0.82540000  0.00244400  0.23280700  1
  O  O67  1  0.32540000  0.00244400  0.26719300  1
