# generated using pymatgen
data_Li3MnV(PO4)3
_symmetry_space_group_name_H-M   'P 1'
_cell_length_a   9.13325437
_cell_length_b   8.37246573
_cell_length_c   8.45998726
_cell_angle_alpha   59.72789297
_cell_angle_beta   63.00874092
_cell_angle_gamma   89.27465527
_symmetry_Int_Tables_number   1
_chemical_formula_structural   Li3MnV(PO4)3
_chemical_formula_sum   'Li6 Mn2 V2 P6 O24'
_cell_volume   477.81052380
_cell_formula_units_Z   2
loop_
 _symmetry_equiv_pos_site_id
 _symmetry_equiv_pos_as_xyz
  1  'x, y, z'
loop_
 _atom_site_type_symbol
 _atom_site_label
 _atom_site_symmetry_multiplicity
 _atom_site_fract_x
 _atom_site_fract_y
 _atom_site_fract_z
 _atom_site_occupancy
  Li  Li0  1  0.14164100  0.73336900  0.19531300  1
  Li  Li1  1  0.14416800  0.34050600  0.92979500  1
  Li  Li2  1  0.58957900  0.78891600  0.67848100  1
  Li  Li3  1  0.86183500  0.67589600  0.05847000  1
  Li  Li4  1  0.90102800  0.94304600  0.35871400  1
  Li  Li5  1  0.87092300  0.25255100  0.81082200  1
  Mn  Mn6  1  0.56107300  0.85850500  0.29201600  1
  Mn  Mn7  1  0.43801600  0.14572500  0.69659500  1
  V  V8  1  0.04171500  0.34130700  0.31388000  1
  V  V9  1  0.96332400  0.65073200  0.69271500  1
  P  P10  1  0.25102600  0.05205900  0.20579200  1
  P  P11  1  0.25408900  0.45385100  0.50024800  1
  P  P12  1  0.23612200  0.74677000  0.80787200  1
  P  P13  1  0.75765000  0.25703500  0.19727900  1
  P  P14  1  0.75304000  0.53452800  0.50999700  1
  P  P15  1  0.74936100  0.96164200  0.77534500  1
  O  O16  1  0.10645100  0.85174600  0.35981600  1
  O  O17  1  0.26038500  0.14629100  0.99000500  1
  O  O18  1  0.17461600  0.17825100  0.29864300  1
  O  O19  1  0.18140800  0.47666800  0.35474400  1
  O  O20  1  0.10367700  0.45460800  0.69332400  1
  O  O21  1  0.09597100  0.78600400  0.74732800  1
  O  O22  1  0.41643600  0.03524500  0.19757900  1
  O  O23  1  0.27865800  0.24981500  0.60788000  1
  O  O24  1  0.41314500  0.61448900  0.37015400  1
  O  O25  1  0.17069600  0.52772900  0.00050200  1
  O  O26  1  0.25148500  0.87168900  0.88895600  1
  O  O27  1  0.40862800  0.77440200  0.62943900  1
  O  O28  1  0.58995500  0.20015000  0.39750900  1
  O  O29  1  0.75760400  0.13238800  0.11274300  1
  O  O30  1  0.81332600  0.47562300  0.01764700  1
  O  O31  1  0.58927500  0.38432300  0.62028100  1
  O  O32  1  0.73582200  0.74294000  0.41720900  1
  O  O33  1  0.57274500  0.97339500  0.79331000  1
  O  O34  1  0.90615700  0.21665600  0.25212600  1
  O  O35  1  0.90261300  0.53771900  0.31031600  1
  O  O36  1  0.81997600  0.49687600  0.66229700  1
  O  O37  1  0.80830200  0.83942900  0.67678000  1
  O  O38  1  0.74167700  0.86964100  0.98746800  1
  O  O39  1  0.87860600  0.16911800  0.62279000  1
