data_image0
_chemical_formula_structural       Cr8Te12
_chemical_formula_sum              "Cr8 Te12"
_cell_length_a       6.83542
_cell_length_b       6.83542
_cell_length_c       12.084
_cell_angle_alpha    90.0007
_cell_angle_beta     90.0006
_cell_angle_gamma    120.003

_space_group_name_H-M_alt    "P 1"
_space_group_IT_number       1

loop_
  _space_group_symop_operation_xyz
  'x, y, z'

loop_
  _atom_site_type_symbol
  _atom_site_label
  _atom_site_symmetry_multiplicity
  _atom_site_fract_x
  _atom_site_fract_y
  _atom_site_fract_z
  _atom_site_occupancy
  Cr  Cr1       1.0  0.00000  0.00000  0.00000  1.0000
  Cr  Cr2       1.0  0.00000  0.00000  0.50000  1.0000
  Cr  Cr3       1.0  0.33300  0.66700  0.99500  1.0000
  Cr  Cr4       1.0  0.33300  0.66700  0.50500  1.0000
  Cr  Cr5       1.0  0.66700  0.33300  0.00542  1.0000
  Cr  Cr6       1.0  0.66700  0.33300  0.49500  1.0000
  Cr  Cr7       1.0  0.33300  0.66700  0.25000  1.0000
  Cr  Cr8       1.0  0.66700  0.33300  0.75000  1.0000
  Te  Te1       1.0  0.33000  0.00000  0.37500  1.0000
  Te  Te2       1.0  0.00031  0.33100  0.37500  1.0000
  Te  Te3       1.0  0.66900  0.67000  0.37500  1.0000
  Te  Te4       1.0  0.00031  0.67000  0.12500  1.0000
  Te  Te5       1.0  0.33000  0.33100  0.12500  1.0000
  Te  Te6       1.0  0.66900  0.00000  0.12500  1.0000
  Te  Te7       1.0  0.67000  0.00031  0.62500  1.0000
  Te  Te8       1.0  0.00000  0.66900  0.62500  1.0000
  Te  Te9       1.0  0.33100  0.33000  0.62500  1.0000
  Te  Te10      1.0  0.00000  0.33000  0.87500  1.0000
  Te  Te11      1.0  0.67000  0.66900  0.87500  1.0000
  Te  Te12      1.0  0.33100  0.00031  0.87500  1.0000
