# generated using pymatgen
data_K3V2P2O8F3
_symmetry_space_group_name_H-M   'P 1'
_cell_length_a   7.50090209
_cell_length_b   7.50090209
_cell_length_c   9.26273500
_cell_angle_alpha   90.00000000
_cell_angle_beta   90.00000000
_cell_angle_gamma   103.74479133
_symmetry_Int_Tables_number   1
_chemical_formula_structural   K3V2P2O8F3
_chemical_formula_sum   'K6 V4 P4 O16 F6'
_cell_volume   506.23024694
_cell_formula_units_Z   2
loop_
 _symmetry_equiv_pos_site_id
 _symmetry_equiv_pos_as_xyz
  1  'x, y, z'
loop_
 _atom_site_type_symbol
 _atom_site_label
 _atom_site_symmetry_multiplicity
 _atom_site_fract_x
 _atom_site_fract_y
 _atom_site_fract_z
 _atom_site_occupancy
  K  K0  1  0.47245100  0.47245100  0.76198600  1
  K  K1  1  0.52754900  0.52754900  0.26198600  1
  K  K2  1  0.86065900  0.86065900  0.42068800  1
  K  K3  1  0.13934100  0.13934100  0.92068800  1
  K  K4  1  0.78472000  0.78472000  0.03570600  1
  K  K5  1  0.21528000  0.21528000  0.53570600  1
  V  V6  1  0.93851400  0.57232900  0.74601500  1
  V  V7  1  0.06148600  0.42767100  0.24601500  1
  V  V8  1  0.57232900  0.93851400  0.74601500  1
  V  V9  1  0.42767100  0.06148600  0.24601500  1
  P  P10  1  0.25484800  0.74364900  0.49926800  1
  P  P11  1  0.25635100  0.74515200  0.99926800  1
  P  P12  1  0.74515200  0.25635100  0.99926800  1
  P  P13  1  0.74364900  0.25484800  0.49926800  1
  O  O14  1  0.08481100  0.73223600  0.90217600  1
  O  O15  1  0.91518900  0.26776400  0.40217600  1
  O  O16  1  0.26776400  0.91518900  0.40217600  1
  O  O17  1  0.73223600  0.08481100  0.90217600  1
  O  O18  1  0.23740100  0.57088000  0.09446100  1
  O  O19  1  0.57088000  0.23740100  0.09446100  1
  O  O20  1  0.42912000  0.76259900  0.59446100  1
  O  O21  1  0.76259900  0.42912000  0.59446100  1
  O  O22  1  0.23245000  0.56652200  0.40670800  1
  O  O23  1  0.76755000  0.43347800  0.90670800  1
  O  O24  1  0.56652200  0.23245000  0.40670800  1
  O  O25  1  0.43347800  0.76755000  0.90670800  1
  O  O26  1  0.26681500  0.91821700  0.09435800  1
  O  O27  1  0.91821700  0.26681500  0.09435800  1
  O  O28  1  0.08178300  0.73318500  0.59435800  1
  O  O29  1  0.73318500  0.08178300  0.59435800  1
  F  F30  1  0.75818500  0.75818500  0.74848000  1
  F  F31  1  0.24181500  0.24181500  0.24848000  1
  F  F32  1  0.89297400  0.59853000  0.24508000  1
  F  F33  1  0.10702600  0.40147000  0.74508000  1
  F  F34  1  0.59853000  0.89297400  0.24508000  1
  F  F35  1  0.40147000  0.10702600  0.74508000  1
