# generated using pymatgen
data_CdCoO3
_symmetry_space_group_name_H-M   'P 1'
_cell_length_a   5.13142508
_cell_length_b   6.83920788
_cell_length_c   6.83901004
_cell_angle_alpha   96.83171662
_cell_angle_beta   94.51550162
_cell_angle_gamma   85.49482023
_symmetry_Int_Tables_number   1
_chemical_formula_structural   CdCoO3
_chemical_formula_sum   'Cd4 Co4 O12'
_cell_volume   236.98938525
_cell_formula_units_Z   4
loop_
 _symmetry_equiv_pos_site_id
 _symmetry_equiv_pos_as_xyz
  1  'x, y, z'
loop_
 _atom_site_type_symbol
 _atom_site_label
 _atom_site_symmetry_multiplicity
 _atom_site_fract_x
 _atom_site_fract_y
 _atom_site_fract_z
 _atom_site_occupancy
  Cd  Cd0  1  0.77526200  0.17585300  0.59923700  1
  Cd  Cd1  1  0.27538000  0.40061300  0.82407900  1
  Cd  Cd2  1  0.72465200  0.59934400  0.17589700  1
  Cd  Cd3  1  0.22483300  0.82427400  0.40081400  1
  Co  Co4  1  0.24961000  0.25881800  0.25869300  1
  Co  Co5  1  0.25002300  0.92340200  0.92345700  1
  Co  Co6  1  0.75017800  0.74119900  0.74126200  1
  Co  Co7  1  0.74995600  0.07659000  0.07656400  1
  O  O8  1  0.56265700  0.01156000  0.82586600  1
  O  O9  1  0.06275500  0.17413600  0.98846600  1
  O  O10  1  0.93725000  0.82584800  0.01156100  1
  O  O11  1  0.43729600  0.98841600  0.17409100  1
  O  O12  1  0.85863100  0.48710000  0.74059000  1
  O  O13  1  0.35871300  0.25929000  0.51289900  1
  O  O14  1  0.64137300  0.74061600  0.48705900  1
  O  O15  1  0.14140700  0.51292200  0.25945400  1
  O  O16  1  0.94579300  0.09925800  0.31272500  1
  O  O17  1  0.44569500  0.68723200  0.90069600  1
  O  O18  1  0.55438100  0.31273800  0.09930700  1
  O  O19  1  0.05415600  0.90079100  0.68728200  1
