# generated using pymatgen
data_Sr3La2Cl12
_symmetry_space_group_name_H-M   'P 1'
_cell_length_a   8.68947214
_cell_length_b   8.68947214
_cell_length_c   15.53471428
_cell_angle_alpha   79.50233762
_cell_angle_beta   79.50233762
_cell_angle_gamma   109.93886877
_symmetry_Int_Tables_number   1
_chemical_formula_structural   Sr3La2Cl12
_chemical_formula_sum   'Sr6 La4 Cl24'
_cell_volume   1045.64741055
_cell_formula_units_Z   2
loop_
 _symmetry_equiv_pos_site_id
 _symmetry_equiv_pos_as_xyz
  1  'x, y, z'
loop_
 _atom_site_type_symbol
 _atom_site_label
 _atom_site_symmetry_multiplicity
 _atom_site_fract_x
 _atom_site_fract_y
 _atom_site_fract_z
 _atom_site_occupancy
  Sr  Sr0  1  0.54830200  0.79232400  0.92326500  1
  Sr  Sr1  1  0.79232400  0.54830200  0.42326500  1
  Sr  Sr2  1  0.11911000  0.88089000  0.75000000  1
  Sr  Sr3  1  0.88089000  0.11911000  0.25000000  1
  Sr  Sr4  1  0.20767600  0.45169800  0.57673500  1
  Sr  Sr5  1  0.45169800  0.20767600  0.07673500  1
  La  La6  1  0.70047400  0.95709800  0.59417600  1
  La  La7  1  0.95709800  0.70047400  0.09417600  1
  La  La8  1  0.04290200  0.29952600  0.90582400  1
  La  La9  1  0.29952600  0.04290200  0.40582400  1
  Cl  Cl10  1  0.48462100  0.95438900  0.75715900  1
  Cl  Cl11  1  0.76682300  0.76820400  0.74546100  1
  Cl  Cl12  1  0.11753400  0.66588700  0.91997300  1
  Cl  Cl13  1  0.81802000  0.31656500  0.57978600  1
  Cl  Cl14  1  0.90696400  0.93023800  0.92609600  1
  Cl  Cl15  1  0.56377700  0.62425100  0.57398800  1
  Cl  Cl16  1  0.95438900  0.48462100  0.25715900  1
  Cl  Cl17  1  0.37574900  0.43622300  0.92601200  1
  Cl  Cl18  1  0.06976200  0.09303600  0.57390400  1
  Cl  Cl19  1  0.68343500  0.18198000  0.92021400  1
  Cl  Cl20  1  0.33411300  0.88246600  0.58002700  1
  Cl  Cl21  1  0.76820400  0.76682300  0.24546100  1
  Cl  Cl22  1  0.23179600  0.23317700  0.75453900  1
  Cl  Cl23  1  0.66588700  0.11753400  0.41997300  1
  Cl  Cl24  1  0.31656500  0.81802000  0.07978600  1
  Cl  Cl25  1  0.93023800  0.90696400  0.42609600  1
  Cl  Cl26  1  0.62425100  0.56377700  0.07398800  1
  Cl  Cl27  1  0.04561100  0.51537900  0.74284100  1
  Cl  Cl28  1  0.43622300  0.37574900  0.42601200  1
  Cl  Cl29  1  0.09303600  0.06976200  0.07390400  1
  Cl  Cl30  1  0.18198000  0.68343500  0.42021400  1
  Cl  Cl31  1  0.88246600  0.33411300  0.08002700  1
  Cl  Cl32  1  0.23317700  0.23179600  0.25453900  1
  Cl  Cl33  1  0.51537900  0.04561100  0.24284100  1
