# generated using pymatgen
data_HfTe3Se8
_symmetry_space_group_name_H-M   'P 1'
_cell_length_a   7.27136200
_cell_length_b   8.05376601
_cell_length_c   13.24083579
_cell_angle_alpha   96.23143639
_cell_angle_beta   99.13108983
_cell_angle_gamma   102.40308061
_symmetry_Int_Tables_number   1
_chemical_formula_structural   HfTe3Se8
_chemical_formula_sum   'Hf2 Te6 Se16'
_cell_volume   739.48902438
_cell_formula_units_Z   2
loop_
 _symmetry_equiv_pos_site_id
 _symmetry_equiv_pos_as_xyz
  1  'x, y, z'
loop_
 _atom_site_type_symbol
 _atom_site_label
 _atom_site_symmetry_multiplicity
 _atom_site_fract_x
 _atom_site_fract_y
 _atom_site_fract_z
 _atom_site_occupancy
  Hf  Hf0  1  0.89806700  0.24335700  0.00199400  1
  Hf  Hf1  1  0.10193300  0.75664300  0.99800600  1
  Te  Te2  1  0.93833800  0.32682300  0.60662200  1
  Te  Te3  1  0.07052700  0.13658800  0.28157300  1
  Te  Te4  1  0.92947300  0.86341200  0.71842700  1
  Te  Te5  1  0.51116200  0.54066600  0.18334800  1
  Te  Te6  1  0.06166200  0.67317700  0.39337800  1
  Te  Te7  1  0.48883800  0.45933400  0.81665200  1
  Se  Se8  1  0.74837900  0.20829700  0.16224800  1
  Se  Se9  1  0.73445600  0.76895700  0.34594000  1
  Se  Se10  1  0.15642300  0.68867700  0.59273700  1
  Se  Se11  1  0.63861600  0.58767200  0.65683500  1
  Se  Se12  1  0.36138400  0.41232800  0.34316500  1
  Se  Se13  1  0.37455200  0.81290200  0.16751700  1
  Se  Se14  1  0.78354600  0.54873000  0.01861300  1
  Se  Se15  1  0.81007500  0.90927900  0.90377600  1
  Se  Se16  1  0.84357700  0.31132300  0.40726300  1
  Se  Se17  1  0.62544800  0.18709800  0.83248300  1
  Se  Se18  1  0.26917200  0.99580900  0.42939000  1
  Se  Se19  1  0.73082800  0.00419100  0.57061000  1
  Se  Se20  1  0.18992500  0.09072100  0.09622400  1
  Se  Se21  1  0.26554400  0.23104300  0.65406000  1
  Se  Se22  1  0.21645400  0.45127000  0.98138700  1
  Se  Se23  1  0.25162100  0.79170300  0.83775200  1
