# generated using pymatgen
data_Rb3FeO3
_symmetry_space_group_name_H-M   'P 1'
_cell_length_a   12.50107900
_cell_length_b   5.04271200
_cell_length_c   11.58676251
_cell_angle_alpha   77.03146022
_cell_angle_beta   90.00000000
_cell_angle_gamma   90.00000000
_symmetry_Int_Tables_number   1
_chemical_formula_structural   Rb3FeO3
_chemical_formula_sum   'Rb12 Fe4 O12'
_cell_volume   711.79132102
_cell_formula_units_Z   4
loop_
 _symmetry_equiv_pos_site_id
 _symmetry_equiv_pos_as_xyz
  1  'x, y, z'
loop_
 _atom_site_type_symbol
 _atom_site_label
 _atom_site_symmetry_multiplicity
 _atom_site_fract_x
 _atom_site_fract_y
 _atom_site_fract_z
 _atom_site_occupancy
  Rb  Rb0  1  0.41513100  0.89524000  0.63880100  1
  Rb  Rb1  1  0.98952600  0.72995400  0.62333000  1
  Rb  Rb2  1  0.23454300  0.50875800  0.96290900  1
  Rb  Rb3  1  0.08486900  0.89524000  0.13880100  1
  Rb  Rb4  1  0.51047400  0.72995400  0.12333000  1
  Rb  Rb5  1  0.73454300  0.49124200  0.53709100  1
  Rb  Rb6  1  0.26545700  0.50875800  0.46290900  1
  Rb  Rb7  1  0.48952600  0.27004600  0.87667000  1
  Rb  Rb8  1  0.91513100  0.10476000  0.86119900  1
  Rb  Rb9  1  0.76545700  0.49124200  0.03709100  1
  Rb  Rb10  1  0.01047400  0.27004600  0.37667000  1
  Rb  Rb11  1  0.58486900  0.10476000  0.36119900  1
  Fe  Fe12  1  0.68240000  0.80542000  0.75704000  1
  Fe  Fe13  1  0.81760000  0.80542000  0.25704000  1
  Fe  Fe14  1  0.18240000  0.19458000  0.74296000  1
  Fe  Fe15  1  0.31760000  0.19458000  0.24296000  1
  O  O16  1  0.63668000  0.95152200  0.60713700  1
  O  O17  1  0.58855800  0.76695500  0.88267200  1
  O  O18  1  0.86332000  0.95152200  0.10713700  1
  O  O19  1  0.81495900  0.64189700  0.78334700  1
  O  O20  1  0.91144200  0.76695500  0.38267200  1
  O  O21  1  0.68504100  0.64189700  0.28334700  1
  O  O22  1  0.31495900  0.35810300  0.71665300  1
  O  O23  1  0.08855800  0.23304500  0.61732800  1
  O  O24  1  0.18504100  0.35810300  0.21665300  1
  O  O25  1  0.13668000  0.04847800  0.89286300  1
  O  O26  1  0.41144200  0.23304500  0.11732800  1
  O  O27  1  0.36332000  0.04847800  0.39286300  1
