# generated using pymatgen
data_Sr2LaCl7
_symmetry_space_group_name_H-M   'P 1'
_cell_length_a   10.60051400
_cell_length_b   7.96585500
_cell_length_c   8.45179830
_cell_angle_alpha   69.33141291
_cell_angle_beta   90.00000000
_cell_angle_gamma   90.00000000
_symmetry_Int_Tables_number   1
_chemical_formula_structural   Sr2LaCl7
_chemical_formula_sum   'Sr4 La2 Cl14'
_cell_volume   667.75346596
_cell_formula_units_Z   2
loop_
 _symmetry_equiv_pos_site_id
 _symmetry_equiv_pos_as_xyz
  1  'x, y, z'
loop_
 _atom_site_type_symbol
 _atom_site_label
 _atom_site_symmetry_multiplicity
 _atom_site_fract_x
 _atom_site_fract_y
 _atom_site_fract_z
 _atom_site_occupancy
  Sr  Sr0  1  0.02882400  0.23238400  0.23771800  1
  Sr  Sr1  1  0.47117600  0.23238400  0.23771800  1
  Sr  Sr2  1  0.52882400  0.76761600  0.76228200  1
  Sr  Sr3  1  0.97117600  0.76761600  0.76228200  1
  La  La4  1  0.25000000  0.74202500  0.20499100  1
  La  La5  1  0.75000000  0.25797500  0.79500900  1
  Cl  Cl6  1  0.25000000  0.12404900  0.07032300  1
  Cl  Cl7  1  0.99123700  0.37491300  0.86173700  1
  Cl  Cl8  1  0.50876300  0.37491300  0.86173700  1
  Cl  Cl9  1  0.07692900  0.84477400  0.42027100  1
  Cl  Cl10  1  0.42307100  0.84477400  0.42027100  1
  Cl  Cl11  1  0.75000000  0.19397300  0.15203900  1
  Cl  Cl12  1  0.75000000  0.63950900  0.61473200  1
  Cl  Cl13  1  0.25000000  0.36049100  0.38526800  1
  Cl  Cl14  1  0.25000000  0.80602700  0.84796100  1
  Cl  Cl15  1  0.57692900  0.15522600  0.57972900  1
  Cl  Cl16  1  0.92307100  0.15522600  0.57972900  1
  Cl  Cl17  1  0.49123700  0.62508700  0.13826300  1
  Cl  Cl18  1  0.00876300  0.62508700  0.13826300  1
  Cl  Cl19  1  0.75000000  0.87595100  0.92967700  1
