# generated using pymatgen
data_Ca5Ta4O15
_symmetry_space_group_name_H-M   'P 1'
_cell_length_a   5.63272393
_cell_length_b   5.63272393
_cell_length_c   11.50209300
_cell_angle_alpha   90.00000000
_cell_angle_beta   90.00000000
_cell_angle_gamma   119.99999922
_symmetry_Int_Tables_number   1
_chemical_formula_structural   Ca5Ta4O15
_chemical_formula_sum   'Ca5 Ta4 O15'
_cell_volume   316.04173902
_cell_formula_units_Z   1
loop_
 _symmetry_equiv_pos_site_id
 _symmetry_equiv_pos_as_xyz
  1  'x, y, z'
loop_
 _atom_site_type_symbol
 _atom_site_label
 _atom_site_symmetry_multiplicity
 _atom_site_fract_x
 _atom_site_fract_y
 _atom_site_fract_z
 _atom_site_occupancy
  Ca  Ca0  1  0.33333300  0.66666700  0.95965900  1
  Ca  Ca1  1  0.33333300  0.66666700  0.26127000  1
  Ca  Ca2  1  0.00000000  0.00000000  0.50000000  1
  Ca  Ca3  1  0.66666700  0.33333300  0.73873000  1
  Ca  Ca4  1  0.66666700  0.33333300  0.04034100  1
  Ta  Ta5  1  0.33333300  0.66666700  0.60363000  1
  Ta  Ta6  1  0.00000000  0.00000000  0.81509400  1
  Ta  Ta7  1  0.00000000  0.00000000  0.18490600  1
  Ta  Ta8  1  0.66666700  0.33333300  0.39637000  1
  O  O9  1  0.17180900  0.82819100  0.10778000  1
  O  O10  1  0.00000000  0.50000000  0.50000000  1
  O  O11  1  0.16230300  0.83769700  0.69259300  1
  O  O12  1  0.16230300  0.32460600  0.69259300  1
  O  O13  1  0.17180900  0.34361700  0.10778000  1
  O  O14  1  0.34361700  0.17180900  0.89222000  1
  O  O15  1  0.67539400  0.83769700  0.69259300  1
  O  O16  1  0.50000000  0.50000000  0.50000000  1
  O  O17  1  0.32460600  0.16230300  0.30740700  1
  O  O18  1  0.65638300  0.82819100  0.10778000  1
  O  O19  1  0.50000000  0.00000000  0.50000000  1
  O  O20  1  0.83769700  0.67539400  0.30740700  1
  O  O21  1  0.82819100  0.65638300  0.89222000  1
  O  O22  1  0.83769700  0.16230300  0.30740700  1
  O  O23  1  0.82819100  0.17180900  0.89222000  1
