# generated using pymatgen
data_Si3Sb2O9
_symmetry_space_group_name_H-M   'P 1'
_cell_length_a   6.98046163
_cell_length_b   6.98046163
_cell_length_c   9.50003100
_cell_angle_alpha   90.00000000
_cell_angle_beta   90.00000000
_cell_angle_gamma   119.99999653
_symmetry_Int_Tables_number   1
_chemical_formula_structural   Si3Sb2O9
_chemical_formula_sum   'Si6 Sb4 O18'
_cell_volume   400.88883246
_cell_formula_units_Z   2
loop_
 _symmetry_equiv_pos_site_id
 _symmetry_equiv_pos_as_xyz
  1  'x, y, z'
loop_
 _atom_site_type_symbol
 _atom_site_label
 _atom_site_symmetry_multiplicity
 _atom_site_fract_x
 _atom_site_fract_y
 _atom_site_fract_z
 _atom_site_occupancy
  Si  Si0  1  0.20521400  0.92744100  0.25000000  1
  Si  Si1  1  0.07255900  0.27777300  0.25000000  1
  Si  Si2  1  0.27777300  0.20521400  0.75000000  1
  Si  Si3  1  0.72222700  0.79478600  0.25000000  1
  Si  Si4  1  0.92744100  0.72222700  0.75000000  1
  Si  Si5  1  0.79478600  0.07255900  0.75000000  1
  Sb  Sb6  1  0.33333300  0.66666700  0.99118800  1
  Sb  Sb7  1  0.33333300  0.66666700  0.50881200  1
  Sb  Sb8  1  0.66666700  0.33333300  0.49118800  1
  Sb  Sb9  1  0.66666700  0.33333300  0.00881200  1
  O  O10  1  0.18160600  0.93632300  0.75000000  1
  O  O11  1  0.32245200  0.90337300  0.10765500  1
  O  O12  1  0.32245200  0.90337300  0.39234500  1
  O  O13  1  0.09662700  0.41907800  0.10765500  1
  O  O14  1  0.09662700  0.41907800  0.39234500  1
  O  O15  1  0.06367700  0.24528300  0.75000000  1
  O  O16  1  0.24528300  0.18160600  0.25000000  1
  O  O17  1  0.58092200  0.67754800  0.10765500  1
  O  O18  1  0.58092200  0.67754800  0.39234500  1
  O  O19  1  0.41907800  0.32245200  0.60765500  1
  O  O20  1  0.41907800  0.32245200  0.89234500  1
  O  O21  1  0.75471700  0.81839400  0.75000000  1
  O  O22  1  0.93632300  0.75471700  0.25000000  1
  O  O23  1  0.90337300  0.58092200  0.60765500  1
  O  O24  1  0.90337300  0.58092200  0.89234500  1
  O  O25  1  0.67754800  0.09662700  0.60765500  1
  O  O26  1  0.67754800  0.09662700  0.89234500  1
  O  O27  1  0.81839400  0.06367700  0.25000000  1
