# generated using pymatgen
data_Ca3Ta2O8
_symmetry_space_group_name_H-M   'P 1'
_cell_length_a   9.75489500
_cell_length_b   9.75489500
_cell_length_c   9.75489500
_cell_angle_alpha   105.63945833
_cell_angle_beta   105.63945833
_cell_angle_gamma   117.44092865
_symmetry_Int_Tables_number   1
_chemical_formula_structural   Ca3Ta2O8
_chemical_formula_sum   'Ca12 Ta8 O32'
_cell_volume   704.06852676
_cell_formula_units_Z   4
loop_
 _symmetry_equiv_pos_site_id
 _symmetry_equiv_pos_as_xyz
  1  'x, y, z'
loop_
 _atom_site_type_symbol
 _atom_site_label
 _atom_site_symmetry_multiplicity
 _atom_site_fract_x
 _atom_site_fract_y
 _atom_site_fract_z
 _atom_site_occupancy
  Ca  Ca0  1  0.77385800  0.60108800  0.42607500  1
  Ca  Ca1  1  0.75000000  0.25000000  0.50000000  1
  Ca  Ca2  1  0.25000000  0.75000000  0.50000000  1
  Ca  Ca3  1  0.65221700  0.22614200  0.82723000  1
  Ca  Ca4  1  0.85108800  0.92501200  0.32723000  1
  Ca  Ca5  1  0.17501200  0.34778300  0.57392500  1
  Ca  Ca6  1  0.07498800  0.40221700  0.92607500  1
  Ca  Ca7  1  0.39891200  0.82498800  0.17277000  1
  Ca  Ca8  1  0.59778300  0.52385800  0.67277000  1
  Ca  Ca9  1  0.50000000  0.50000000  0.00000000  1
  Ca  Ca10  1  0.00000000  0.00000000  0.00000000  1
  Ca  Ca11  1  0.47614200  0.14891200  0.07392500  1
  Ta  Ta12  1  0.33094800  0.44522100  0.27572100  1
  Ta  Ta13  1  0.08049900  0.69477300  0.77572100  1
  Ta  Ta14  1  0.94477300  0.66905200  0.11427400  1
  Ta  Ta15  1  0.69522100  0.91950100  0.61427400  1
  Ta  Ta16  1  0.55477900  0.83049900  0.88572600  1
  Ta  Ta17  1  0.30522700  0.08094800  0.38572600  1
  Ta  Ta18  1  0.16950100  0.05522700  0.72427900  1
  Ta  Ta19  1  0.91905200  0.30477900  0.22427900  1
  O  O20  1  0.81213200  0.66188000  0.23029800  1
  O  O21  1  0.21228500  0.82505600  0.30887800  1
  O  O22  1  0.73382300  0.84659300  0.80887800  1
  O  O23  1  0.79457400  0.37478200  0.30976300  1
  O  O24  1  0.83183400  0.56213200  0.65025200  1
  O  O25  1  0.09659300  0.78771500  0.61277100  1
  O  O26  1  0.17494400  0.48382300  0.38722900  1
  O  O27  1  0.73481000  0.54457400  0.91979200  1
  O  O28  1  0.62521800  0.93498100  0.41979200  1
  O  O29  1  0.91188000  0.18158200  0.34974800  1
  O  O30  1  0.06501900  0.48481000  0.69023700  1
  O  O31  1  0.08226100  0.68317700  0.97547200  1
  O  O32  1  0.54229500  0.64321100  0.47547200  1
  O  O33  1  0.81841800  0.16816600  0.73029800  1
  O  O34  1  0.31682300  0.29229500  0.39908400  1
  O  O35  1  0.35678900  0.83226100  0.89908400  1
  O  O36  1  0.89321100  0.91773900  0.60091600  1
  O  O37  1  0.93317700  0.45770500  0.10091600  1
  O  O38  1  0.43158200  0.58183400  0.76970200  1
  O  O39  1  0.16773900  0.06682300  0.52452800  1
  O  O40  1  0.70770500  0.10678900  0.02452800  1
  O  O41  1  0.18498100  0.26519000  0.80976300  1
  O  O42  1  0.33812000  0.56841800  0.15025200  1
  O  O43  1  0.51519000  0.20542600  0.58020800  1
  O  O44  1  0.62478200  0.81501900  0.08020800  1
  O  O45  1  0.07505600  0.26617700  0.11277100  1
  O  O46  1  0.15340700  0.96228500  0.88722900  1
  O  O47  1  0.41816600  0.18786800  0.84974800  1
  O  O48  1  0.45542600  0.37521800  0.19023700  1
  O  O49  1  0.51617700  0.90340700  0.69112200  1
  O  O50  1  0.03771500  0.92494400  0.19112200  1
  O  O51  1  0.43786800  0.08812000  0.26970200  1
