# generated using pymatgen
data_Yb2TeO2
_symmetry_space_group_name_H-M   'P 1'
_cell_length_a   7.78344336
_cell_length_b   7.78344336
_cell_length_c   7.78344336
_cell_angle_alpha   151.73040505
_cell_angle_beta   151.73040505
_cell_angle_gamma   40.40713197
_symmetry_Int_Tables_number   1
_chemical_formula_structural   Yb2TeO2
_chemical_formula_sum   'Yb2 Te1 O2'
_cell_volume   105.56062365
_cell_formula_units_Z   1
loop_
 _symmetry_equiv_pos_site_id
 _symmetry_equiv_pos_as_xyz
  1  'x, y, z'
loop_
 _atom_site_type_symbol
 _atom_site_label
 _atom_site_symmetry_multiplicity
 _atom_site_fract_x
 _atom_site_fract_y
 _atom_site_fract_z
 _atom_site_occupancy
  Yb  Yb0  1  0.32670300  0.32670300  0.00000000  1
  Yb  Yb1  1  0.67329700  0.67329700  0.00000000  1
  Te  Te2  1  0.00000000  0.00000000  0.00000000  1
  O  O3  1  0.75000000  0.25000000  0.50000000  1
  O  O4  1  0.25000000  0.75000000  0.50000000  1
