# generated using pymatgen
data_Bi4(B2O5)3
_symmetry_space_group_name_H-M   'P 1'
_cell_length_a   6.42430778
_cell_length_b   6.42430778
_cell_length_c   19.55404618
_cell_angle_alpha   82.76943033
_cell_angle_beta   82.76943033
_cell_angle_gamma   41.49453198
_symmetry_Int_Tables_number   1
_chemical_formula_structural   Bi4(B2O5)3
_chemical_formula_sum   'Bi8 B12 O30'
_cell_volume   529.83108849
_cell_formula_units_Z   2
loop_
 _symmetry_equiv_pos_site_id
 _symmetry_equiv_pos_as_xyz
  1  'x, y, z'
loop_
 _atom_site_type_symbol
 _atom_site_label
 _atom_site_symmetry_multiplicity
 _atom_site_fract_x
 _atom_site_fract_y
 _atom_site_fract_z
 _atom_site_occupancy
  Bi  Bi0  1  0.65413800  0.05753700  0.30001300  1
  Bi  Bi1  1  0.68200400  0.05699500  0.09486700  1
  Bi  Bi2  1  0.05753700  0.65413800  0.80001300  1
  Bi  Bi3  1  0.05699500  0.68200400  0.59486700  1
  Bi  Bi4  1  0.94300500  0.31799600  0.40513300  1
  Bi  Bi5  1  0.94246300  0.34586200  0.19998700  1
  Bi  Bi6  1  0.31799600  0.94300500  0.90513300  1
  Bi  Bi7  1  0.34586200  0.94246300  0.69998700  1
  B  B8  1  0.19308100  0.60652700  0.41197000  1
  B  B9  1  0.20901200  0.66217500  0.19521600  1
  B  B10  1  0.62540400  0.03425300  0.47217100  1
  B  B11  1  0.60652700  0.19308100  0.91197000  1
  B  B12  1  0.66217500  0.20901200  0.69521600  1
  B  B13  1  0.03425300  0.62540400  0.97217100  1
  B  B14  1  0.96574700  0.37459600  0.02782900  1
  B  B15  1  0.33782500  0.79098800  0.30478400  1
  B  B16  1  0.39347300  0.80691900  0.08803000  1
  B  B17  1  0.37459600  0.96574700  0.52782900  1
  B  B18  1  0.79098800  0.33782500  0.80478400  1
  B  B19  1  0.80691900  0.39347300  0.58803000  1
  O  O20  1  0.17612400  0.80288300  0.12529800  1
  O  O21  1  0.51413800  0.30985600  0.43458700  1
  O  O22  1  0.51643000  0.33864100  0.19878100  1
  O  O23  1  0.96895600  0.77237100  0.47181000  1
  O  O24  1  0.80288300  0.17612400  0.62529800  1
  O  O25  1  0.30985600  0.51413800  0.93458700  1
  O  O26  1  0.09537700  0.53978400  0.36200500  1
  O  O27  1  0.33864100  0.51643000  0.69878100  1
  O  O28  1  0.77237100  0.96895600  0.97181000  1
  O  O29  1  0.94238400  0.70873900  0.20607600  1
  O  O30  1  0.06695900  0.51299700  0.04813200  1
  O  O31  1  0.48700300  0.93304100  0.45186800  1
  O  O32  1  0.53978400  0.09537700  0.86200500  1
  O  O33  1  0.70873900  0.94238400  0.70607600  1
  O  O34  1  0.29126100  0.05761600  0.29392400  1
  O  O35  1  0.46021600  0.90462300  0.13799500  1
  O  O36  1  0.51299700  0.06695900  0.54813200  1
  O  O37  1  0.93304100  0.48700300  0.95186800  1
  O  O38  1  0.05761600  0.29126100  0.79392400  1
  O  O39  1  0.22762900  0.03104400  0.02819000  1
  O  O40  1  0.66135900  0.48357000  0.30121900  1
  O  O41  1  0.90462300  0.46021600  0.63799500  1
  O  O42  1  0.69014400  0.48586200  0.06541300  1
  O  O43  1  0.19711700  0.82387600  0.37470200  1
  O  O44  1  0.14534600  0.85465400  0.25000000  1
  O  O45  1  0.03104400  0.22762900  0.52819000  1
  O  O46  1  0.48357000  0.66135900  0.80121900  1
  O  O47  1  0.48586200  0.69014400  0.56541300  1
  O  O48  1  0.82387600  0.19711700  0.87470200  1
  O  O49  1  0.85465400  0.14534600  0.75000000  1
