# generated using pymatgen
data_LaCuO2F
_symmetry_space_group_name_H-M   'P 1'
_cell_length_a   5.62685318
_cell_length_b   5.62685318
_cell_length_c   5.62685318
_cell_angle_alpha   120.42699892
_cell_angle_beta   120.42699892
_cell_angle_gamma   89.26199372
_symmetry_Int_Tables_number   1
_chemical_formula_structural   LaCuO2F
_chemical_formula_sum   'La2 Cu2 O4 F2'
_cell_volume   125.14993743
_cell_formula_units_Z   2
loop_
 _symmetry_equiv_pos_site_id
 _symmetry_equiv_pos_as_xyz
  1  'x, y, z'
loop_
 _atom_site_type_symbol
 _atom_site_label
 _atom_site_symmetry_multiplicity
 _atom_site_fract_x
 _atom_site_fract_y
 _atom_site_fract_z
 _atom_site_occupancy
  La  La0  1  0.75000000  0.25000000  0.50000000  1
  La  La1  1  0.25000000  0.75000000  0.50000000  1
  Cu  Cu2  1  0.50000000  0.50000000  0.00000000  1
  Cu  Cu3  1  0.00000000  0.00000000  0.00000000  1
  O  O4  1  0.81092600  0.31092600  0.12185200  1
  O  O5  1  0.31092600  0.18907400  0.50000000  1
  O  O6  1  0.18907400  0.68907400  0.87814800  1
  O  O7  1  0.68907400  0.81092600  0.50000000  1
  F  F8  1  0.75000000  0.75000000  0.00000000  1
  F  F9  1  0.25000000  0.25000000  0.00000000  1
