# generated using pymatgen
data_Na2FePCO7
_symmetry_space_group_name_H-M   'P 1'
_cell_length_a   10.34882667
_cell_length_b   8.36248772
_cell_length_c   8.39091806
_cell_angle_alpha   77.38755727
_cell_angle_beta   71.22449715
_cell_angle_gamma   107.54380937
_symmetry_Int_Tables_number   1
_chemical_formula_structural   Na2FePCO7
_chemical_formula_sum   'Na8 Fe4 P4 C4 O28'
_cell_volume   614.24133469
_cell_formula_units_Z   4
loop_
 _symmetry_equiv_pos_site_id
 _symmetry_equiv_pos_as_xyz
  1  'x, y, z'
loop_
 _atom_site_type_symbol
 _atom_site_label
 _atom_site_symmetry_multiplicity
 _atom_site_fract_x
 _atom_site_fract_y
 _atom_site_fract_z
 _atom_site_occupancy
  Na  Na0  1  0.91850100  0.70636600  0.54973300  1
  Na  Na1  1  0.91900600  0.20962800  0.05585200  1
  Na  Na2  1  0.73184800  0.74774100  0.27027400  1
  Na  Na3  1  0.73146800  0.47806800  0.00195000  1
  Na  Na4  1  0.26302400  0.74998100  0.23975400  1
  Na  Na5  1  0.26425100  0.25185400  0.73524400  1
  Na  Na6  1  0.07260700  0.28110200  0.44935800  1
  Na  Na7  1  0.08688200  0.79283500  0.93902400  1
  Fe  Fe8  1  0.65684100  0.30006800  0.44977500  1
  Fe  Fe9  1  0.65353800  0.82116500  0.92856900  1
  Fe  Fe10  1  0.34545800  0.19696700  0.06705800  1
  Fe  Fe11  1  0.34595800  0.69728300  0.56721400  1
  P  P12  1  0.57610100  0.55656300  0.69139000  1
  P  P13  1  0.57563000  0.05815300  0.19268700  1
  P  P14  1  0.42609200  0.44484800  0.30931400  1
  P  P15  1  0.42226800  0.94271300  0.81123900  1
  C  C16  1  0.93688800  0.48663100  0.26667400  1
  C  C17  1  0.93526200  0.97494200  0.77836400  1
  C  C18  1  0.06529100  0.01677900  0.22128500  1
  C  C19  1  0.06509000  0.52140400  0.72608300  1
  O  O20  1  0.92477700  0.92850400  0.30122000  1
  O  O21  1  0.92474500  0.44436100  0.81736900  1
  O  O22  1  0.87430000  0.33824100  0.40628600  1
  O  O23  1  0.87085900  0.82615200  0.91999600  1
  O  O24  1  0.84410400  0.53407600  0.21131800  1
  O  O25  1  0.84348800  0.02235300  0.72225000  1
  O  O26  1  0.67688100  0.97922600  0.08387500  1
  O  O27  1  0.67040300  0.66207600  0.77528600  1
  O  O28  1  0.68182000  0.49433900  0.56595200  1
  O  O29  1  0.67456400  0.18040000  0.26012700  1
  O  O30  1  0.57097100  0.59631800  0.15375600  1
  O  O31  1  0.56712900  0.08964000  0.65942500  1
  O  O32  1  0.53016400  0.17738500  0.06968400  1
  O  O33  1  0.53029800  0.67938600  0.57232000  1
  O  O34  1  0.46336600  0.82333700  0.94105800  1
  O  O35  1  0.47343300  0.33042100  0.43388900  1
  O  O36  1  0.43214700  0.90516900  0.34384200  1
  O  O37  1  0.43322800  0.39890500  0.83773700  1
  O  O38  1  0.32456500  0.82565400  0.73926800  1
  O  O39  1  0.32490400  0.52183000  0.42003900  1
  O  O40  1  0.32798800  0.32857300  0.23709600  1
  O  O41  1  0.32074800  0.01921900  0.92193500  1
  O  O42  1  0.15812600  0.96996900  0.27573700  1
  O  O43  1  0.15828000  0.46820800  0.77372200  1
  O  O44  1  0.12767700  0.16425400  0.08027700  1
  O  O45  1  0.12746200  0.66371700  0.57967500  1
  O  O46  1  0.07667800  0.57653300  0.19111200  1
  O  O47  1  0.07488700  0.06419600  0.70244100  1
