# generated using pymatgen
data_Dy(BiO2)3
_symmetry_space_group_name_H-M   'P 1'
_cell_length_a   7.00729643
_cell_length_b   7.00729643
_cell_length_c   7.00729630
_cell_angle_alpha   92.75440379
_cell_angle_beta   92.75440379
_cell_angle_gamma   92.75441124
_symmetry_Int_Tables_number   1
_chemical_formula_structural   Dy(BiO2)3
_chemical_formula_sum   'Dy2 Bi6 O12'
_cell_volume   342.84145526
_cell_formula_units_Z   2
loop_
 _symmetry_equiv_pos_site_id
 _symmetry_equiv_pos_as_xyz
  1  'x, y, z'
loop_
 _atom_site_type_symbol
 _atom_site_label
 _atom_site_symmetry_multiplicity
 _atom_site_fract_x
 _atom_site_fract_y
 _atom_site_fract_z
 _atom_site_occupancy
  Dy  Dy0  1  0.00000000  0.00000000  0.00000000  1
  Dy  Dy1  1  0.50000000  0.50000000  0.50000000  1
  Bi  Bi2  1  0.55337900  0.06814500  0.25057300  1
  Bi  Bi3  1  0.06814500  0.25057300  0.55337900  1
  Bi  Bi4  1  0.74942700  0.44662100  0.93185500  1
  Bi  Bi5  1  0.25057300  0.55337900  0.06814500  1
  Bi  Bi6  1  0.93185500  0.74942700  0.44662100  1
  Bi  Bi7  1  0.44662100  0.93185500  0.74942700  1
  O  O8  1  0.69154800  0.07257500  0.92503300  1
  O  O9  1  0.92742500  0.07496700  0.30845200  1
  O  O10  1  0.40023700  0.18787200  0.52619300  1
  O  O11  1  0.07496700  0.30845200  0.92742500  1
  O  O12  1  0.52619300  0.40023700  0.18787200  1
  O  O13  1  0.81212800  0.47380700  0.59976300  1
  O  O14  1  0.18787200  0.52619300  0.40023700  1
  O  O15  1  0.47380700  0.59976300  0.81212800  1
  O  O16  1  0.92503300  0.69154800  0.07257500  1
  O  O17  1  0.59976300  0.81212800  0.47380700  1
  O  O18  1  0.07257500  0.92503300  0.69154800  1
  O  O19  1  0.30845200  0.92742500  0.07496700  1
