# generated using pymatgen
data_La4MnO8
_symmetry_space_group_name_H-M   'P 1'
_cell_length_a   7.61730900
_cell_length_b   7.61795700
_cell_length_c   13.31758472
_cell_angle_alpha   73.37658977
_cell_angle_beta   89.99959813
_cell_angle_gamma   89.99998495
_symmetry_Int_Tables_number   1
_chemical_formula_structural   La4MnO8
_chemical_formula_sum   'La16 Mn4 O32'
_cell_volume   740.49876564
_cell_formula_units_Z   4
loop_
 _symmetry_equiv_pos_site_id
 _symmetry_equiv_pos_as_xyz
  1  'x, y, z'
loop_
 _atom_site_type_symbol
 _atom_site_label
 _atom_site_symmetry_multiplicity
 _atom_site_fract_x
 _atom_site_fract_y
 _atom_site_fract_z
 _atom_site_occupancy
  La  La0  1  0.75000700  0.81863400  0.86271800  1
  La  La1  1  0.25000600  0.31863700  0.86272200  1
  La  La2  1  0.75000200  0.18136800  0.13728100  1
  La  La3  1  0.25000600  0.68136600  0.13728200  1
  La  La4  1  0.49999200  0.81863900  0.36272000  1
  La  La5  1  0.99999100  0.31863200  0.36272100  1
  La  La6  1  0.99999700  0.68136600  0.63728200  1
  La  La7  1  0.49999500  0.18136500  0.63727900  1
  La  La8  1  0.50000100  0.68480100  0.63053300  1
  La  La9  1  0.00001300  0.18478900  0.63053200  1
  La  La10  1  0.00000500  0.81520700  0.36946700  1
  La  La11  1  0.50000400  0.31521300  0.36946600  1
  La  La12  1  0.74999700  0.68478900  0.13053400  1
  La  La13  1  0.24998900  0.18479100  0.13053200  1
  La  La14  1  0.74999800  0.31520300  0.86947000  1
  La  La15  1  0.24999000  0.81520400  0.86946800  1
  Mn  Mn16  1  0.50002600  0.49999900  0.00000100  1
  Mn  Mn17  1  0.74997300  0.50000100  0.50000000  1
  Mn  Mn18  1  0.00002600  0.99999900  0.99999900  1
  Mn  Mn19  1  0.24997200  0.00000400  0.49999900  1
  O  O20  1  0.75000400  0.90648900  0.68704300  1
  O  O21  1  0.25000300  0.40648800  0.68704500  1
  O  O22  1  0.75000400  0.09351000  0.31295600  1
  O  O23  1  0.25000300  0.59350900  0.31295600  1
  O  O24  1  0.99999700  0.59351100  0.81295600  1
  O  O25  1  0.49999600  0.09350900  0.81295800  1
  O  O26  1  0.49999500  0.90649000  0.18704100  1
  O  O27  1  0.99999500  0.40649200  0.18704200  1
  O  O28  1  0.99999300  0.91865300  0.16276600  1
  O  O29  1  0.49999200  0.41865100  0.16276700  1
  O  O30  1  0.49999500  0.58135000  0.83723300  1
  O  O31  1  0.99999300  0.08134700  0.83723200  1
  O  O32  1  0.75000800  0.58134900  0.33723200  1
  O  O33  1  0.25000900  0.08135100  0.33723000  1
  O  O34  1  0.75000900  0.41864900  0.66276800  1
  O  O35  1  0.25000700  0.91865000  0.66276900  1
  O  O36  1  0.74998900  0.25595600  0.50000000  1
  O  O37  1  0.24998800  0.75595200  0.50000000  1
  O  O38  1  0.50001500  0.25595500  0.00000000  1
  O  O39  1  0.00001300  0.75595200  0.99999900  1
  O  O40  1  0.99404400  0.49999700  0.50000100  1
  O  O41  1  0.49405000  0.99999900  0.50000000  1
  O  O42  1  0.50598800  0.50000000  0.49999900  1
  O  O43  1  0.00598300  0.00000000  0.50000000  1
  O  O44  1  0.75595100  0.00000000  0.00000000  1
  O  O45  1  0.25595300  0.50000000  0.00000100  1
  O  O46  1  0.74998900  0.74404100  0.50000100  1
  O  O47  1  0.24998800  0.24404900  0.50000000  1
  O  O48  1  0.24401800  0.99999900  0.99999900  1
  O  O49  1  0.74401400  0.50000100  0.00000000  1
  O  O50  1  0.50001100  0.74404400  0.99999900  1
  O  O51  1  0.00001200  0.24404800  0.99999800  1
