# generated using pymatgen
data_Na2MnPCO7
_symmetry_space_group_name_H-M   'P 1'
_cell_length_a   5.19453500
_cell_length_b   6.67627559
_cell_length_c   17.90277803
_cell_angle_alpha   90.61614512
_cell_angle_beta   91.21255951
_cell_angle_gamma   90.13520091
_symmetry_Int_Tables_number   1
_chemical_formula_structural   Na2MnPCO7
_chemical_formula_sum   'Na8 Mn4 P4 C4 O28'
_cell_volume   620.69397494
_cell_formula_units_Z   4
loop_
 _symmetry_equiv_pos_site_id
 _symmetry_equiv_pos_as_xyz
  1  'x, y, z'
loop_
 _atom_site_type_symbol
 _atom_site_label
 _atom_site_symmetry_multiplicity
 _atom_site_fract_x
 _atom_site_fract_y
 _atom_site_fract_z
 _atom_site_occupancy
  Na  Na0  1  0.75502700  0.00959600  0.12502900  1
  Na  Na1  1  0.75239300  0.48625300  0.12479900  1
  Na  Na2  1  0.24436700  0.50815500  0.38060300  1
  Na  Na3  1  0.24160600  0.99258400  0.38084400  1
  Na  Na4  1  0.75466200  0.00839800  0.62160400  1
  Na  Na5  1  0.75425300  0.49183500  0.62184700  1
  Na  Na6  1  0.24909800  0.99418200  0.87190900  1
  Na  Na7  1  0.76981600  0.72706000  0.95613700  1
  Mn  Mn8  1  0.22277500  0.74798400  0.17788800  1
  Mn  Mn9  1  0.77936500  0.25079200  0.32414100  1
  Mn  Mn10  1  0.22089100  0.75199500  0.67602800  1
  Mn  Mn11  1  0.78715800  0.26153000  0.82738600  1
  P  P12  1  0.29468200  0.24911700  0.21201800  1
  P  P13  1  0.70459900  0.75000300  0.28972600  1
  P  P14  1  0.28686600  0.25126600  0.71231400  1
  P  P15  1  0.70457400  0.75282100  0.78845500  1
  C  C16  1  0.27596400  0.75272100  0.03382200  1
  C  C17  1  0.72629800  0.25054200  0.46280400  1
  C  C18  1  0.27191200  0.74921600  0.53824200  1
  C  C19  1  0.73273000  0.24650100  0.96248400  1
  O  O20  1  0.71331700  0.24352900  0.03252700  1
  O  O21  1  0.05925300  0.74724900  0.07235100  1
  O  O22  1  0.48757100  0.74698500  0.07420200  1
  O  O23  1  0.22459900  0.05896300  0.16567800  1
  O  O24  1  0.22499600  0.43703300  0.16597700  1
  O  O25  1  0.59672800  0.24949200  0.22666700  1
  O  O26  1  0.83054400  0.74873800  0.21183500  1
  O  O27  1  0.16108400  0.25029100  0.28836100  1
  O  O28  1  0.40085400  0.75001200  0.27681800  1
  O  O29  1  0.77926700  0.56278200  0.33493700  1
  O  O30  1  0.78049100  0.93925000  0.33520800  1
  O  O31  1  0.52301600  0.25097700  0.41880300  1
  O  O32  1  0.94448400  0.25229500  0.42476300  1
  O  O33  1  0.27711700  0.75161200  0.46825300  1
  O  O34  1  0.72604800  0.24859200  0.53239300  1
  O  O35  1  0.05264500  0.74761500  0.57511300  1
  O  O36  1  0.47455700  0.74839500  0.58252700  1
  O  O37  1  0.22689400  0.06453200  0.66307600  1
  O  O38  1  0.22281600  0.43929200  0.66630500  1
  O  O39  1  0.58430100  0.25110300  0.73242900  1
  O  O40  1  0.84850700  0.75254200  0.71382400  1
  O  O41  1  0.13483200  0.24381400  0.78561300  1
  O  O42  1  0.40931300  0.76443300  0.76901600  1
  O  O43  1  0.76287300  0.56798600  0.83633500  1
  O  O44  1  0.77493400  0.93471100  0.83970000  1
  O  O45  1  0.53743600  0.24755300  0.91506900  1
  O  O46  1  0.95606800  0.25299500  0.92890500  1
  O  O47  1  0.26926800  0.76257600  0.96359700  1
