# generated using pymatgen
data_Na5Mn2P2(CO7)2
_symmetry_space_group_name_H-M   'P 1'
_cell_length_a   8.46246800
_cell_length_b   8.48063105
_cell_length_c   9.01377717
_cell_angle_alpha   90.65686804
_cell_angle_beta   90.62313041
_cell_angle_gamma   103.23119137
_symmetry_Int_Tables_number   1
_chemical_formula_structural   Na5Mn2P2(CO7)2
_chemical_formula_sum   'Na10 Mn4 P4 C4 O28'
_cell_volume   629.61831024
_cell_formula_units_Z   2
loop_
 _symmetry_equiv_pos_site_id
 _symmetry_equiv_pos_as_xyz
  1  'x, y, z'
loop_
 _atom_site_type_symbol
 _atom_site_label
 _atom_site_symmetry_multiplicity
 _atom_site_fract_x
 _atom_site_fract_y
 _atom_site_fract_z
 _atom_site_occupancy
  Na  Na0  1  0.75869600  0.00874100  0.92033200  1
  Na  Na1  1  0.61303700  0.61085700  0.76615000  1
  Na  Na2  1  0.88547800  0.38726300  0.76156600  1
  Na  Na3  1  0.36534900  0.85536200  0.74711800  1
  Na  Na4  1  0.12957800  0.13743700  0.74410700  1
  Na  Na5  1  0.87042200  0.86256300  0.25589300  1
  Na  Na6  1  0.63465100  0.14463800  0.25288200  1
  Na  Na7  1  0.38696300  0.38914300  0.23385000  1
  Na  Na8  1  0.11452200  0.61273700  0.23843400  1
  Na  Na9  1  0.24130400  0.99125900  0.07966800  1
  Mn  Mn10  1  0.51592200  0.26493200  0.64362700  1
  Mn  Mn11  1  0.01401300  0.76532900  0.64243300  1
  Mn  Mn12  1  0.48407800  0.73506800  0.35637300  1
  Mn  Mn13  1  0.98598700  0.23467100  0.35756700  1
  P  P14  1  0.72405500  0.97518000  0.58115300  1
  P  P15  1  0.22719400  0.47638300  0.57691500  1
  P  P16  1  0.77280600  0.52361700  0.42308500  1
  P  P17  1  0.27594500  0.02482000  0.41884700  1
  C  C18  1  0.99455000  0.74764500  0.93305300  1
  C  C19  1  0.48325000  0.23060500  0.93206400  1
  C  C20  1  0.51675000  0.76939500  0.06793600  1
  C  C21  1  0.00545000  0.25235500  0.06694700  1
  O  O22  1  0.52015700  0.77646400  0.92639600  1
  O  O23  1  0.00091100  0.24449500  0.92493300  1
  O  O24  1  0.59166000  0.33939000  0.86138200  1
  O  O25  1  0.10181200  0.85441300  0.85936300  1
  O  O26  1  0.88972400  0.64378700  0.85524000  1
  O  O27  1  0.38070600  0.12756200  0.84985100  1
  O  O28  1  0.85463100  0.92157500  0.67733200  1
  O  O29  1  0.36370000  0.42169800  0.66638800  1
  O  O30  1  0.66869300  0.10768500  0.67619600  1
  O  O31  1  0.17427500  0.61078400  0.66690500  1
  O  O32  1  0.57403200  0.82690500  0.55690100  1
  O  O33  1  0.71427900  0.46358300  0.57934200  1
  O  O34  1  0.21065700  0.96167300  0.57075500  1
  O  O35  1  0.07946300  0.32741100  0.55919500  1
  O  O36  1  0.92053700  0.67258900  0.44080500  1
  O  O37  1  0.78934300  0.03832700  0.42924500  1
  O  O38  1  0.28572100  0.53641700  0.42065800  1
  O  O39  1  0.42596800  0.17309500  0.44309900  1
  O  O40  1  0.82572500  0.38921600  0.33309500  1
  O  O41  1  0.63630000  0.57830200  0.33361200  1
  O  O42  1  0.33130700  0.89231500  0.32380400  1
  O  O43  1  0.14536900  0.07842500  0.32266800  1
  O  O44  1  0.61929400  0.87243800  0.15014900  1
  O  O45  1  0.11027600  0.35621300  0.14476000  1
  O  O46  1  0.89818800  0.14558700  0.14063700  1
  O  O47  1  0.40834000  0.66061000  0.13861800  1
  O  O48  1  0.99908900  0.75550500  0.07506700  1
  O  O49  1  0.47984300  0.22353600  0.07360400  1
