# generated using pymatgen
data_Na5Fe2P2(CO7)2
_symmetry_space_group_name_H-M   'P 1'
_cell_length_a   6.61312800
_cell_length_b   10.37815200
_cell_length_c   10.50173519
_cell_angle_alpha   59.93982813
_cell_angle_beta   90.00000000
_cell_angle_gamma   90.00000000
_symmetry_Int_Tables_number   1
_chemical_formula_structural   Na5Fe2P2(CO7)2
_chemical_formula_sum   'Na10 Fe4 P4 C4 O28'
_cell_volume   623.81383846
_cell_formula_units_Z   2
loop_
 _symmetry_equiv_pos_site_id
 _symmetry_equiv_pos_as_xyz
  1  'x, y, z'
loop_
 _atom_site_type_symbol
 _atom_site_label
 _atom_site_symmetry_multiplicity
 _atom_site_fract_x
 _atom_site_fract_y
 _atom_site_fract_z
 _atom_site_occupancy
  Na  Na0  1  0.49866600  0.08719400  0.57217600  1
  Na  Na1  1  0.50133400  0.08719400  0.07217600  1
  Na  Na2  1  0.26641000  0.26649000  0.74120300  1
  Na  Na3  1  0.73359000  0.26649000  0.24120300  1
  Na  Na4  1  0.74887600  0.73926100  0.75629300  1
  Na  Na5  1  0.25117700  0.73942800  0.75645600  1
  Na  Na6  1  0.74882300  0.73942800  0.25645600  1
  Na  Na7  1  0.25112400  0.73926100  0.25629300  1
  Na  Na8  1  0.99126800  0.92597000  0.91616200  1
  Na  Na9  1  0.00873200  0.92597000  0.41616200  1
  Fe  Fe10  1  0.99606400  0.34697000  0.93300800  1
  Fe  Fe11  1  0.00393600  0.34697000  0.43300800  1
  Fe  Fe12  1  0.50056800  0.64642200  0.56568200  1
  Fe  Fe13  1  0.49943200  0.64642200  0.06568200  1
  P  P14  1  0.49838900  0.41821900  0.94025500  1
  P  P15  1  0.50161100  0.41821900  0.44025500  1
  P  P16  1  0.00014200  0.57982200  0.56563900  1
  P  P17  1  0.99985800  0.57982200  0.06563900  1
  C  C18  1  0.99868000  0.06234900  0.60331600  1
  C  C19  1  0.00132000  0.06234900  0.10331600  1
  C  C20  1  0.49556400  0.93702700  0.89523400  1
  C  C21  1  0.50443600  0.93702700  0.39523400  1
  O  O22  1  0.48473500  0.07768800  0.81479900  1
  O  O23  1  0.51526500  0.07768800  0.31479900  1
  O  O24  1  0.01621700  0.12656300  0.96045700  1
  O  O25  1  0.98378300  0.12656300  0.46045700  1
  O  O26  1  0.01214700  0.15029700  0.65735600  1
  O  O27  1  0.98785300  0.15029700  0.15735600  1
  O  O28  1  0.31032500  0.32298600  0.94631700  1
  O  O29  1  0.69128300  0.32192200  0.95752900  1
  O  O30  1  0.30871700  0.32192200  0.45752900  1
  O  O31  1  0.68967500  0.32298600  0.44631700  1
  O  O32  1  0.00655500  0.43313000  0.71613100  1
  O  O33  1  0.99344500  0.43313000  0.21613100  1
  O  O34  1  0.50193500  0.44727800  0.57032800  1
  O  O35  1  0.49806500  0.44727800  0.07032800  1
  O  O36  1  0.00066700  0.53918700  0.93912200  1
  O  O37  1  0.99933300  0.53918700  0.43912200  1
  O  O38  1  0.50080700  0.56759000  0.79386100  1
  O  O39  1  0.49919300  0.56759000  0.29386100  1
  O  O40  1  0.81457500  0.67748900  0.54807700  1
  O  O41  1  0.18400200  0.68085300  0.54475800  1
  O  O42  1  0.18542500  0.67748900  0.04807700  1
  O  O43  1  0.81599800  0.68085300  0.04475800  1
  O  O44  1  0.50176500  0.85058700  0.83711800  1
  O  O45  1  0.49823500  0.85058700  0.33711800  1
  O  O46  1  0.49790800  0.87283800  0.53980000  1
  O  O47  1  0.50209200  0.87283800  0.03980000  1
  O  O48  1  0.00030500  0.91896100  0.68545300  1
  O  O49  1  0.99969500  0.91896100  0.18545300  1
