# generated using pymatgen
data_Na5Fe2P2(CO7)2
_symmetry_space_group_name_H-M   'P 1'
_cell_length_a   9.01531225
_cell_length_b   10.50312000
_cell_length_c   6.59432200
_cell_angle_alpha   90.00000000
_cell_angle_beta   90.00000000
_cell_angle_gamma   89.52206519
_symmetry_Int_Tables_number   1
_chemical_formula_structural   Na5Fe2P2(CO7)2
_chemical_formula_sum   'Na10 Fe4 P4 C4 O28'
_cell_volume   624.38741517
_cell_formula_units_Z   2
loop_
 _symmetry_equiv_pos_site_id
 _symmetry_equiv_pos_as_xyz
  1  'x, y, z'
loop_
 _atom_site_type_symbol
 _atom_site_label
 _atom_site_symmetry_multiplicity
 _atom_site_fract_x
 _atom_site_fract_y
 _atom_site_fract_z
 _atom_site_occupancy
  Na  Na0  1  0.08687600  0.38397100  0.24859400  1
  Na  Na1  1  0.08687600  0.88397100  0.25140600  1
  Na  Na2  1  0.26693800  0.12604900  0.01972700  1
  Na  Na3  1  0.26693800  0.62604900  0.48027300  1
  Na  Na4  1  0.73838900  0.37511700  0.49657700  1
  Na  Na5  1  0.73867000  0.37246900  0.00305900  1
  Na  Na6  1  0.73867000  0.87246900  0.49694100  1
  Na  Na7  1  0.73838900  0.87511700  0.00342300  1
  Na  Na8  1  0.92659600  0.12116900  0.74094600  1
  Na  Na9  1  0.92659600  0.62116900  0.75905400  1
  Fe  Fe10  1  0.34589100  0.39305500  0.75322700  1
  Fe  Fe11  1  0.34589100  0.89305500  0.74677300  1
  Fe  Fe12  1  0.64778500  0.11155900  0.25203700  1
  Fe  Fe13  1  0.64778500  0.61155900  0.24796300  1
  P  P14  1  0.41775200  0.35029000  0.25036400  1
  P  P15  1  0.41775200  0.85029000  0.24963600  1
  P  P16  1  0.57888300  0.14344400  0.75135200  1
  P  P17  1  0.57888300  0.64344400  0.74864800  1
  C  C18  1  0.06361500  0.36584100  0.74838700  1
  C  C19  1  0.06361500  0.86584100  0.75161300  1
  C  C20  1  0.93812700  0.13646000  0.24540600  1
  C  C21  1  0.93812700  0.63646000  0.25459400  1
  O  O22  1  0.07792900  0.14750100  0.23221300  1
  O  O23  1  0.07792900  0.64750100  0.26778700  1
  O  O24  1  0.12706500  0.47679600  0.73419900  1
  O  O25  1  0.12706500  0.97679600  0.76580100  1
  O  O26  1  0.15123700  0.26748400  0.76160300  1
  O  O27  1  0.15123700  0.76748400  0.73839700  1
  O  O28  1  0.32164700  0.38320500  0.05797000  1
  O  O29  1  0.32300700  0.39284000  0.43869500  1
  O  O30  1  0.32300700  0.89284000  0.06130500  1
  O  O31  1  0.32164700  0.88320500  0.44203000  1
  O  O32  1  0.43418000  0.06544300  0.75825500  1
  O  O33  1  0.43418000  0.56544300  0.74174500  1
  O  O34  1  0.44546400  0.20556400  0.24980600  1
  O  O35  1  0.44546400  0.70556400  0.25019400  1
  O  O36  1  0.53586100  0.28907500  0.74966700  1
  O  O37  1  0.53586100  0.78907500  0.75033300  1
  O  O38  1  0.56630000  0.42255700  0.24812600  1
  O  O39  1  0.56630000  0.92255700  0.25187400  1
  O  O40  1  0.67724400  0.11210800  0.56540000  1
  O  O41  1  0.68054700  0.11633700  0.93684000  1
  O  O42  1  0.68054700  0.61633700  0.56316000  1
  O  O43  1  0.67724400  0.61210800  0.93460000  1
  O  O44  1  0.85077000  0.23737300  0.25321600  1
  O  O45  1  0.85077000  0.73737300  0.24678400  1
  O  O46  1  0.87477700  0.02408600  0.25228100  1
  O  O47  1  0.87477700  0.52408600  0.24771900  1
  O  O48  1  0.92097000  0.35541600  0.74947300  1
  O  O49  1  0.92097000  0.85541600  0.75052700  1
