# generated using pymatgen
data_Mg3(AsO4)2
_symmetry_space_group_name_H-M   'P 1'
_cell_length_a   8.90910600
_cell_length_b   6.62374000
_cell_length_c   11.17449617
_cell_angle_alpha   87.11568725
_cell_angle_beta   90.00000000
_cell_angle_gamma   90.00000000
_symmetry_Int_Tables_number   1
_chemical_formula_structural   Mg3(AsO4)2
_chemical_formula_sum   'Mg12 As8 O32'
_cell_volume   658.58953977
_cell_formula_units_Z   4
loop_
 _symmetry_equiv_pos_site_id
 _symmetry_equiv_pos_as_xyz
  1  'x, y, z'
loop_
 _atom_site_type_symbol
 _atom_site_label
 _atom_site_symmetry_multiplicity
 _atom_site_fract_x
 _atom_site_fract_y
 _atom_site_fract_z
 _atom_site_occupancy
  Mg  Mg0  1  0.20404100  0.90954100  0.57247300  1
  Mg  Mg1  1  0.29595900  0.90954100  0.07247300  1
  Mg  Mg2  1  0.84380900  0.75885600  0.63656400  1
  Mg  Mg3  1  0.65619100  0.75885600  0.13656400  1
  Mg  Mg4  1  0.46723900  0.61802800  0.61668400  1
  Mg  Mg5  1  0.03276100  0.61802800  0.11668400  1
  Mg  Mg6  1  0.96723900  0.38197200  0.88331600  1
  Mg  Mg7  1  0.53276100  0.38197200  0.38331600  1
  Mg  Mg8  1  0.34380900  0.24114400  0.86343600  1
  Mg  Mg9  1  0.15619100  0.24114400  0.36343600  1
  Mg  Mg10  1  0.70404100  0.09045900  0.92752700  1
  Mg  Mg11  1  0.79595900  0.09045900  0.42752700  1
  As  As12  1  0.05474000  0.89494000  0.85325600  1
  As  As13  1  0.44526000  0.89494000  0.35325600  1
  As  As14  1  0.61531600  0.59000600  0.86605500  1
  As  As15  1  0.88468400  0.59000600  0.36605500  1
  As  As16  1  0.11531600  0.40999400  0.63394500  1
  As  As17  1  0.38468400  0.40999400  0.13394500  1
  As  As18  1  0.55474000  0.10506000  0.64674400  1
  As  As19  1  0.94526000  0.10506000  0.14674400  1
  O  O20  1  0.23440700  0.95730300  0.89278200  1
  O  O21  1  0.26559300  0.95730300  0.39278200  1
  O  O22  1  0.42234800  0.92258000  0.61927000  1
  O  O23  1  0.07765200  0.92258000  0.11927000  1
  O  O24  1  0.04147700  0.86751800  0.70116000  1
  O  O25  1  0.45852300  0.86751800  0.20116000  1
  O  O26  1  0.63456400  0.79332100  0.95703100  1
  O  O27  1  0.86543600  0.79332100  0.45703100  1
  O  O28  1  0.99764300  0.67304600  0.92730500  1
  O  O29  1  0.65739000  0.66926900  0.71988700  1
  O  O30  1  0.50235700  0.67304600  0.42730500  1
  O  O31  1  0.84261000  0.66926900  0.21988700  1
  O  O32  1  0.23893600  0.59940000  0.58872700  1
  O  O33  1  0.26106400  0.59940000  0.08872700  1
  O  O34  1  0.43242100  0.52265300  0.85383200  1
  O  O35  1  0.06757900  0.52265300  0.35383200  1
  O  O36  1  0.93242100  0.47734700  0.64616800  1
  O  O37  1  0.56757900  0.47734700  0.14616800  1
  O  O38  1  0.73893600  0.40060000  0.91127300  1
  O  O39  1  0.76106400  0.40060000  0.41127300  1
  O  O40  1  0.15739000  0.33073100  0.78011300  1
  O  O41  1  0.49764300  0.32695400  0.57269500  1
  O  O42  1  0.34261000  0.33073100  0.28011300  1
  O  O43  1  0.00235700  0.32695400  0.07269500  1
  O  O44  1  0.13456400  0.20667900  0.54296900  1
  O  O45  1  0.36543600  0.20667900  0.04296900  1
  O  O46  1  0.54147700  0.13248200  0.79884000  1
  O  O47  1  0.95852300  0.13248200  0.29884000  1
  O  O48  1  0.92234800  0.07742000  0.88073000  1
  O  O49  1  0.57765200  0.07742000  0.38073000  1
  O  O50  1  0.73440700  0.04269700  0.60721800  1
  O  O51  1  0.76559300  0.04269700  0.10721800  1
