# generated using pymatgen
data_BaLaCl5
_symmetry_space_group_name_H-M   'P 1'
_cell_length_a   14.09299700
_cell_length_b   7.79738600
_cell_length_c   10.74138466
_cell_angle_alpha   70.20311410
_cell_angle_beta   90.00000000
_cell_angle_gamma   90.00000000
_symmetry_Int_Tables_number   1
_chemical_formula_structural   BaLaCl5
_chemical_formula_sum   'Ba4 La4 Cl20'
_cell_volume   1110.59509762
_cell_formula_units_Z   4
loop_
 _symmetry_equiv_pos_site_id
 _symmetry_equiv_pos_as_xyz
  1  'x, y, z'
loop_
 _atom_site_type_symbol
 _atom_site_label
 _atom_site_symmetry_multiplicity
 _atom_site_fract_x
 _atom_site_fract_y
 _atom_site_fract_z
 _atom_site_occupancy
  Ba  Ba0  1  0.97938300  0.53136400  0.74333900  1
  Ba  Ba1  1  0.47938300  0.46863600  0.75666100  1
  Ba  Ba2  1  0.52061700  0.53136400  0.24333900  1
  Ba  Ba3  1  0.02061700  0.46863600  0.25666100  1
  La  La4  1  0.74661000  0.89399600  0.90005400  1
  La  La5  1  0.75339000  0.89399600  0.40005400  1
  La  La6  1  0.24661000  0.10600400  0.59994600  1
  La  La7  1  0.25339000  0.10600400  0.09994600  1
  Cl  Cl8  1  0.09792300  0.87458000  0.69225900  1
  Cl  Cl9  1  0.80351800  0.83667400  0.66536400  1
  Cl  Cl10  1  0.36707600  0.82005400  0.64026200  1
  Cl  Cl11  1  0.89302300  0.63451600  0.99598900  1
  Cl  Cl12  1  0.61336300  0.60376800  0.94688500  1
  Cl  Cl13  1  0.40207700  0.87458000  0.19225900  1
  Cl  Cl14  1  0.69648200  0.83667400  0.16536400  1
  Cl  Cl15  1  0.13292400  0.82005400  0.14026200  1
  Cl  Cl16  1  0.60697700  0.63451600  0.49598900  1
  Cl  Cl17  1  0.88663700  0.60376800  0.44688500  1
  Cl  Cl18  1  0.11336300  0.39623200  0.55311500  1
  Cl  Cl19  1  0.39302300  0.36548400  0.50401100  1
  Cl  Cl20  1  0.86707600  0.17994600  0.85973800  1
  Cl  Cl21  1  0.30351800  0.16332600  0.83463600  1
  Cl  Cl22  1  0.59792300  0.12542000  0.80774100  1
  Cl  Cl23  1  0.38663700  0.39623200  0.05311500  1
  Cl  Cl24  1  0.10697700  0.36548400  0.00401100  1
  Cl  Cl25  1  0.63292400  0.17994600  0.35973800  1
  Cl  Cl26  1  0.19648200  0.16332600  0.33463600  1
  Cl  Cl27  1  0.90207700  0.12542000  0.30774100  1
