# generated using pymatgen
data_K4TiO4
_symmetry_space_group_name_H-M   'P 1'
_cell_length_a   6.68765800
_cell_length_b   10.74997400
_cell_length_c   10.78702216
_cell_angle_alpha   68.23068272
_cell_angle_beta   90.00000000
_cell_angle_gamma   90.00000000
_symmetry_Int_Tables_number   1
_chemical_formula_structural   K4TiO4
_chemical_formula_sum   'K16 Ti4 O16'
_cell_volume   720.19693484
_cell_formula_units_Z   4
loop_
 _symmetry_equiv_pos_site_id
 _symmetry_equiv_pos_as_xyz
  1  'x, y, z'
loop_
 _atom_site_type_symbol
 _atom_site_label
 _atom_site_symmetry_multiplicity
 _atom_site_fract_x
 _atom_site_fract_y
 _atom_site_fract_z
 _atom_site_occupancy
  K  K0  1  0.59172400  0.93749800  0.69661600  1
  K  K1  1  0.11129300  0.84114800  0.58332500  1
  K  K2  1  0.90827600  0.93749800  0.19661600  1
  K  K3  1  0.33342700  0.63068600  0.89088600  1
  K  K4  1  0.81444500  0.57516500  0.79306200  1
  K  K5  1  0.38870700  0.84114800  0.08332500  1
  K  K6  1  0.16657300  0.63068600  0.39088600  1
  K  K7  1  0.31444500  0.42483500  0.70693800  1
  K  K8  1  0.68555500  0.57516500  0.29306200  1
  K  K9  1  0.83342700  0.36931400  0.60911400  1
  K  K10  1  0.61129300  0.15885200  0.91667500  1
  K  K11  1  0.18555500  0.42483500  0.20693800  1
  K  K12  1  0.66657300  0.36931400  0.10911400  1
  K  K13  1  0.09172400  0.06250200  0.80338400  1
  K  K14  1  0.88870700  0.15885200  0.41667500  1
  K  K15  1  0.40827600  0.06250200  0.30338400  1
  Ti  Ti16  1  0.87153100  0.75761000  0.99023700  1
  Ti  Ti17  1  0.62846900  0.75761000  0.49023700  1
  Ti  Ti18  1  0.37153100  0.24239000  0.50976300  1
  Ti  Ti19  1  0.12846900  0.24239000  0.00976300  1
  O  O20  1  0.75936100  0.91882900  0.97134600  1
  O  O21  1  0.01054400  0.78058000  0.83528300  1
  O  O22  1  0.74063900  0.91882900  0.47134600  1
  O  O23  1  0.46466500  0.69352800  0.64017200  1
  O  O24  1  0.48945600  0.78058000  0.33528300  1
  O  O25  1  0.83336700  0.63476400  0.51349600  1
  O  O26  1  0.03533500  0.69352800  0.14017200  1
  O  O27  1  0.33336700  0.36523600  0.98650400  1
  O  O28  1  0.66663300  0.63476400  0.01349600  1
  O  O29  1  0.96466500  0.30647200  0.85982800  1
  O  O30  1  0.16663300  0.36523600  0.48650400  1
  O  O31  1  0.51054400  0.21942000  0.66471700  1
  O  O32  1  0.53533500  0.30647200  0.35982800  1
  O  O33  1  0.25936100  0.08117100  0.52865400  1
  O  O34  1  0.98945600  0.21942000  0.16471700  1
  O  O35  1  0.24063900  0.08117100  0.02865400  1
