data_image0
_chemical_formula_structural       C3Cr2Yb2
_chemical_formula_sum              "C3 Cr2 Yb2"
_cell_length_a       3.55795
_cell_length_b       5.54256
_cell_length_c       5.4107
_cell_angle_alpha    104.941
_cell_angle_beta     109.195
_cell_angle_gamma    90

_space_group_name_H-M_alt    "P 1"
_space_group_IT_number       1

loop_
  _space_group_symop_operation_xyz
  'x, y, z'

loop_
  _atom_site_type_symbol
  _atom_site_label
  _atom_site_symmetry_multiplicity
  _atom_site_fract_x
  _atom_site_fract_y
  _atom_site_fract_z
  _atom_site_occupancy
  C   C1        1.0  0.00000  0.50000  0.00000  1.0000
  C   C2        1.0  0.68800  0.29500  0.37600  1.0000
  C   C3        1.0  0.31200  0.70500  0.62400  1.0000
  Cr  Cr1       1.0  0.15800  0.40300  0.31700  1.0000
  Cr  Cr2       1.0  0.84200  0.59700  0.68300  1.0000
  Yb  Yb1       1.0  0.59800  0.81500  0.19700  1.0000
  Yb  Yb2       1.0  0.40200  0.18500  0.80300  1.0000
