# generated using pymatgen
data_SmTaO4
_symmetry_space_group_name_H-M   'P 1'
_cell_length_a   5.45777500
_cell_length_b   7.67266000
_cell_length_c   7.71379279
_cell_angle_alpha   80.38401836
_cell_angle_beta   90.00000000
_cell_angle_gamma   90.00000000
_symmetry_Int_Tables_number   1
_chemical_formula_structural   SmTaO4
_chemical_formula_sum   'Sm4 Ta4 O16'
_cell_volume   318.48150196
_cell_formula_units_Z   4
loop_
 _symmetry_equiv_pos_site_id
 _symmetry_equiv_pos_as_xyz
  1  'x, y, z'
loop_
 _atom_site_type_symbol
 _atom_site_label
 _atom_site_symmetry_multiplicity
 _atom_site_fract_x
 _atom_site_fract_y
 _atom_site_fract_z
 _atom_site_occupancy
  Sm  Sm0  1  0.27901700  0.64802200  0.60435300  1
  Sm  Sm1  1  0.22098300  0.64802200  0.10435300  1
  Sm  Sm2  1  0.77901700  0.35197800  0.89564700  1
  Sm  Sm3  1  0.72098300  0.35197800  0.39564700  1
  Ta  Ta4  1  0.76712100  0.83440100  0.80508400  1
  Ta  Ta5  1  0.73287900  0.83440100  0.30508400  1
  Ta  Ta6  1  0.26712100  0.16559900  0.69491600  1
  Ta  Ta7  1  0.23287900  0.16559900  0.19491600  1
  O  O8  1  0.09403200  0.94037600  0.69889700  1
  O  O9  1  0.40596800  0.94037600  0.19889700  1
  O  O10  1  0.64235100  0.82791700  0.55760300  1
  O  O11  1  0.85764900  0.82791700  0.05760300  1
  O  O12  1  0.50179400  0.67116400  0.87363200  1
  O  O13  1  0.98574500  0.61404100  0.82796100  1
  O  O14  1  0.99820600  0.67116400  0.37363200  1
  O  O15  1  0.51425500  0.61404100  0.32796100  1
  O  O16  1  0.48574500  0.38595900  0.67203900  1
  O  O17  1  0.00179400  0.32883600  0.62636800  1
  O  O18  1  0.01425500  0.38595900  0.17203900  1
  O  O19  1  0.49820600  0.32883600  0.12636800  1
  O  O20  1  0.14235100  0.17208300  0.94239700  1
  O  O21  1  0.35764900  0.17208300  0.44239700  1
  O  O22  1  0.59403200  0.05962400  0.80110300  1
  O  O23  1  0.90596800  0.05962400  0.30110300  1
