# generated using pymatgen
data_NaYTl2
_symmetry_space_group_name_H-M   'P 1'
_cell_length_a   13.04482927
_cell_length_b   13.04482927
_cell_length_c   13.04482927
_cell_angle_alpha   122.74211724
_cell_angle_beta   119.10051147
_cell_angle_gamma   88.44125158
_symmetry_Int_Tables_number   1
_chemical_formula_structural   NaYTl2
_chemical_formula_sum   'Na1 Y1 Tl2'
_cell_volume   1545.13985080
_cell_formula_units_Z   1
loop_
 _symmetry_equiv_pos_site_id
 _symmetry_equiv_pos_as_xyz
  1  'x, y, z'
loop_
 _atom_site_type_symbol
 _atom_site_label
 _atom_site_symmetry_multiplicity
 _atom_site_fract_x
 _atom_site_fract_y
 _atom_site_fract_z
 _atom_site_occupancy
  Na  Na0  1  0.00000000  0.00000000  0.00000000  1
  Y  Y1  1  0.00000000  0.50000000  0.50000000  1
  Tl  Tl2  1  0.00000000  0.25119800  0.25119800  1
  Tl  Tl3  1  0.00000000  0.74880200  0.74880200  1
