# generated using pymatgen
data_LaMgI5
_symmetry_space_group_name_H-M   'P 1'
_cell_length_a   15.40372400
_cell_length_b   8.81197100
_cell_length_c   11.94243365
_cell_angle_alpha   87.89580911
_cell_angle_beta   90.00000000
_cell_angle_gamma   90.00000000
_symmetry_Int_Tables_number   1
_chemical_formula_structural   LaMgI5
_chemical_formula_sum   'La4 Mg4 I20'
_cell_volume   1619.93909286
_cell_formula_units_Z   4
loop_
 _symmetry_equiv_pos_site_id
 _symmetry_equiv_pos_as_xyz
  1  'x, y, z'
loop_
 _atom_site_type_symbol
 _atom_site_label
 _atom_site_symmetry_multiplicity
 _atom_site_fract_x
 _atom_site_fract_y
 _atom_site_fract_z
 _atom_site_occupancy
  La  La0  1  0.60526900  0.01287300  0.58963800  1
  La  La1  1  0.21084800  0.49492000  0.10976100  1
  La  La2  1  0.71084800  0.50508000  0.89023900  1
  La  La3  1  0.10526900  0.98712700  0.41036200  1
  Mg  Mg4  1  0.15829700  0.03089400  0.05508200  1
  Mg  Mg5  1  0.54553100  0.47789100  0.59779500  1
  Mg  Mg6  1  0.04553100  0.52210900  0.40220500  1
  Mg  Mg7  1  0.65829700  0.96910600  0.94491800  1
  I  I8  1  0.73786600  0.00673300  0.40964200  1
  I  I9  1  0.50574900  0.01883700  0.83219300  1
  I  I10  1  0.25240700  0.14738900  0.23914900  1
  I  I11  1  0.47024400  0.24889400  0.48270100  1
  I  I12  1  0.19214300  0.27043100  0.90743400  1
  I  I13  1  0.00627800  0.25957500  0.52252600  1
  I  I14  1  0.69536800  0.22377700  0.06269300  1
  I  I15  1  0.71059700  0.34665700  0.64017300  1
  I  I16  1  0.00688600  0.47814700  0.18287100  1
  I  I17  1  0.90101600  0.46187300  0.86496000  1
  I  I18  1  0.40101600  0.53812700  0.13504000  1
  I  I19  1  0.50688600  0.52185300  0.81712900  1
  I  I20  1  0.21059700  0.65334300  0.35982700  1
  I  I21  1  0.19536800  0.77622300  0.93730700  1
  I  I22  1  0.50627800  0.74042500  0.47747400  1
  I  I23  1  0.69214300  0.72956900  0.09256600  1
  I  I24  1  0.97024400  0.75110600  0.51729900  1
  I  I25  1  0.75240700  0.85261100  0.76085100  1
  I  I26  1  0.00574900  0.98116300  0.16780700  1
  I  I27  1  0.23786600  0.99326700  0.59035800  1
