# generated using pymatgen
data_Na3MnBAsO7
_symmetry_space_group_name_H-M   'P 1'
_cell_length_a   5.28798920
_cell_length_b   11.49068346
_cell_length_c   11.48574705
_cell_angle_alpha   102.33239959
_cell_angle_beta   91.61020082
_cell_angle_gamma   88.38149425
_symmetry_Int_Tables_number   1
_chemical_formula_structural   Na3MnBAsO7
_chemical_formula_sum   'Na12 Mn4 B4 As4 O28'
_cell_volume   681.35376624
_cell_formula_units_Z   4
loop_
 _symmetry_equiv_pos_site_id
 _symmetry_equiv_pos_as_xyz
  1  'x, y, z'
loop_
 _atom_site_type_symbol
 _atom_site_label
 _atom_site_symmetry_multiplicity
 _atom_site_fract_x
 _atom_site_fract_y
 _atom_site_fract_z
 _atom_site_occupancy
  Na  Na0  1  0.76533700  0.16350500  0.08640300  1
  Na  Na1  1  0.76531000  0.66349500  0.58638700  1
  Na  Na2  1  0.23468400  0.83652300  0.91360200  1
  Na  Na3  1  0.23469800  0.33651900  0.41358400  1
  Na  Na4  1  0.25490800  0.12798900  0.87668400  1
  Na  Na5  1  0.25485000  0.62793800  0.37667800  1
  Na  Na6  1  0.25484200  0.37325500  0.12217800  1
  Na  Na7  1  0.25486100  0.87326600  0.62213900  1
  Na  Na8  1  0.74518100  0.62672500  0.87781400  1
  Na  Na9  1  0.74516300  0.12673300  0.37781700  1
  Na  Na10  1  0.74513700  0.87205400  0.12329800  1
  Na  Na11  1  0.74514100  0.37200400  0.62326200  1
  Mn  Mn12  1  0.78365700  0.04042700  0.70978200  1
  Mn  Mn13  1  0.21616900  0.95962500  0.29034300  1
  Mn  Mn14  1  0.78411000  0.54035200  0.20972400  1
  Mn  Mn15  1  0.21602900  0.45954600  0.79025700  1
  B  B16  1  0.72198100  0.40704700  0.34298400  1
  B  B17  1  0.72195200  0.90706700  0.84298700  1
  B  B18  1  0.27806000  0.59295500  0.65699500  1
  B  B19  1  0.27800500  0.09296700  0.15703300  1
  As  As20  1  0.71893500  0.33434300  0.91572200  1
  As  As21  1  0.71896600  0.83433700  0.41573300  1
  As  As22  1  0.28109200  0.66566200  0.08427200  1
  As  As23  1  0.28099300  0.16565800  0.58427400  1
  O  O24  1  0.31108500  0.16689300  0.08315600  1
  O  O25  1  0.31108200  0.66689000  0.58314200  1
  O  O26  1  0.68893000  0.83312200  0.91688100  1
  O  O27  1  0.68896100  0.33309600  0.41687100  1
  O  O28  1  0.95849500  0.44092000  0.30908200  1
  O  O29  1  0.95836400  0.94097500  0.80905200  1
  O  O30  1  0.04155400  0.55903500  0.69090100  1
  O  O31  1  0.04154600  0.05907600  0.19095900  1
  O  O32  1  0.52639900  0.46284500  0.28732600  1
  O  O33  1  0.52626600  0.96285500  0.78734100  1
  O  O34  1  0.47365800  0.53712600  0.71266200  1
  O  O35  1  0.47365500  0.03715500  0.21270200  1
  O  O36  1  0.39610600  0.35844200  0.89153100  1
  O  O37  1  0.39610700  0.85848000  0.39157500  1
  O  O38  1  0.60392400  0.64151800  0.10846800  1
  O  O39  1  0.60384000  0.14155200  0.60844000  1
  O  O40  1  0.12896300  0.58213000  0.16769600  1
  O  O41  1  0.12886100  0.08215500  0.66770800  1
  O  O42  1  0.87105100  0.41784900  0.83228400  1
  O  O43  1  0.87107900  0.91787700  0.33231200  1
  O  O44  1  0.78844600  0.18482200  0.87637400  1
  O  O45  1  0.78843600  0.68481900  0.37639000  1
  O  O46  1  0.78822200  0.37349200  0.06531000  1
  O  O47  1  0.78820400  0.87348600  0.56531800  1
  O  O48  1  0.21179200  0.62651000  0.93467700  1
  O  O49  1  0.21178900  0.12651900  0.43467200  1
  O  O50  1  0.21156200  0.81518400  0.12362800  1
  O  O51  1  0.21156200  0.31518500  0.62359300  1
