# generated using pymatgen
data_Sm2WO6
_symmetry_space_group_name_H-M   'P 1'
_cell_length_a   10.08227398
_cell_length_b   10.08227398
_cell_length_c   5.52264200
_cell_angle_alpha   75.79597695
_cell_angle_beta   75.79597695
_cell_angle_gamma   68.63849964
_symmetry_Int_Tables_number   1
_chemical_formula_structural   Sm2WO6
_chemical_formula_sum   'Sm8 W4 O24'
_cell_volume   499.21509383
_cell_formula_units_Z   4
loop_
 _symmetry_equiv_pos_site_id
 _symmetry_equiv_pos_as_xyz
  1  'x, y, z'
loop_
 _atom_site_type_symbol
 _atom_site_label
 _atom_site_symmetry_multiplicity
 _atom_site_fract_x
 _atom_site_fract_y
 _atom_site_fract_z
 _atom_site_occupancy
  Sm  Sm0  1  0.94238600  0.71239300  0.38447300  1
  Sm  Sm1  1  0.71239300  0.94238600  0.88447300  1
  Sm  Sm2  1  0.36780300  0.63219700  0.25000000  1
  Sm  Sm3  1  0.89263300  0.10736700  0.25000000  1
  Sm  Sm4  1  0.10736700  0.89263300  0.75000000  1
  Sm  Sm5  1  0.63219700  0.36780300  0.75000000  1
  Sm  Sm6  1  0.28760700  0.05761400  0.11552700  1
  Sm  Sm7  1  0.05761400  0.28760700  0.61552700  1
  W  W8  1  0.80007400  0.50484600  0.06511400  1
  W  W9  1  0.50484600  0.80007400  0.56511400  1
  W  W10  1  0.49515400  0.19992600  0.43488600  1
  W  W11  1  0.19992600  0.49515400  0.93488600  1
  O  O12  1  0.89299800  0.92280100  0.07852300  1
  O  O13  1  0.92280100  0.89299800  0.57852300  1
  O  O14  1  0.52745900  0.93604700  0.26761900  1
  O  O15  1  0.78346700  0.67922100  0.14627700  1
  O  O16  1  0.93604700  0.52745900  0.76761900  1
  O  O17  1  0.67922100  0.78346700  0.64627700  1
  O  O18  1  0.82502300  0.38171800  0.37741800  1
  O  O19  1  0.38171800  0.82502300  0.87741800  1
  O  O20  1  0.61385000  0.54382500  0.02234000  1
  O  O21  1  0.31581700  0.83897800  0.42057600  1
  O  O22  1  0.54382500  0.61385000  0.52234000  1
  O  O23  1  0.83897800  0.31581700  0.92057600  1
  O  O24  1  0.16102200  0.68418300  0.07942400  1
  O  O25  1  0.45617500  0.38615000  0.47766000  1
  O  O26  1  0.68418300  0.16102200  0.57942400  1
  O  O27  1  0.38615000  0.45617500  0.97766000  1
  O  O28  1  0.61828200  0.17497700  0.12258200  1
  O  O29  1  0.17497700  0.61828200  0.62258200  1
  O  O30  1  0.32077900  0.21653300  0.35372300  1
  O  O31  1  0.06395300  0.47254100  0.23238100  1
  O  O32  1  0.21653300  0.32077900  0.85372300  1
  O  O33  1  0.47254100  0.06395300  0.73238100  1
  O  O34  1  0.07719900  0.10700200  0.42147700  1
  O  O35  1  0.10700200  0.07719900  0.92147700  1
