# generated using pymatgen
data_NbV3O8
_symmetry_space_group_name_H-M   'P 1'
_cell_length_a   6.07009550
_cell_length_b   6.07009550
_cell_length_c   9.33194500
_cell_angle_alpha   90.00000000
_cell_angle_beta   90.00000000
_cell_angle_gamma   121.62254898
_symmetry_Int_Tables_number   1
_chemical_formula_structural   NbV3O8
_chemical_formula_sum   'Nb2 V6 O16'
_cell_volume   292.79145903
_cell_formula_units_Z   2
loop_
 _symmetry_equiv_pos_site_id
 _symmetry_equiv_pos_as_xyz
  1  'x, y, z'
loop_
 _atom_site_type_symbol
 _atom_site_label
 _atom_site_symmetry_multiplicity
 _atom_site_fract_x
 _atom_site_fract_y
 _atom_site_fract_z
 _atom_site_occupancy
  Nb  Nb0  1  0.67108900  0.32891100  0.50126000  1
  Nb  Nb1  1  0.32891100  0.67108900  0.00126000  1
  V  V2  1  0.33797400  0.17177200  0.78136000  1
  V  V3  1  0.82822800  0.66202600  0.78136000  1
  V  V4  1  0.83067100  0.16932900  0.79219700  1
  V  V5  1  0.16932900  0.83067100  0.29219700  1
  V  V6  1  0.17177200  0.33797400  0.28136000  1
  V  V7  1  0.66202600  0.82822800  0.28136000  1
  O  O8  1  0.34030200  0.17117300  0.39938700  1
  O  O9  1  0.52208300  0.47791700  0.66300600  1
  O  O10  1  0.65287200  0.34712800  0.89351000  1
  O  O11  1  0.00819400  0.99180600  0.69650200  1
  O  O12  1  0.99180600  0.00819400  0.19650200  1
  O  O13  1  0.82882700  0.65969800  0.39938700  1
  O  O14  1  0.51205300  0.04757300  0.66507500  1
  O  O15  1  0.95242700  0.48794700  0.66507500  1
  O  O16  1  0.16993900  0.83006100  0.90119900  1
  O  O17  1  0.83006100  0.16993900  0.40119900  1
  O  O18  1  0.04757300  0.51205300  0.16507500  1
  O  O19  1  0.48794700  0.95242700  0.16507500  1
  O  O20  1  0.34712800  0.65287200  0.39351000  1
  O  O21  1  0.17117300  0.34030200  0.89938700  1
  O  O22  1  0.47791700  0.52208300  0.16300600  1
  O  O23  1  0.65969800  0.82882700  0.89938700  1
