# generated using pymatgen
data_Na3Li3Fe2P2(CO7)2
_symmetry_space_group_name_H-M   'P 1'
_cell_length_a   5.17895693
_cell_length_b   11.25178786
_cell_length_c   10.70589507
_cell_angle_alpha   105.89528744
_cell_angle_beta   92.60780583
_cell_angle_gamma   88.19101017
_symmetry_Int_Tables_number   1
_chemical_formula_structural   Na3Li3Fe2P2(CO7)2
_chemical_formula_sum   'Na6 Li6 Fe4 P4 C4 O28'
_cell_volume   599.26563285
_cell_formula_units_Z   2
loop_
 _symmetry_equiv_pos_site_id
 _symmetry_equiv_pos_as_xyz
  1  'x, y, z'
loop_
 _atom_site_type_symbol
 _atom_site_label
 _atom_site_symmetry_multiplicity
 _atom_site_fract_x
 _atom_site_fract_y
 _atom_site_fract_z
 _atom_site_occupancy
  Na  Na0  1  0.75749000  0.15430600  0.07105400  1
  Na  Na1  1  0.75759900  0.65412000  0.57078100  1
  Na  Na2  1  0.25757600  0.38204800  0.12343300  1
  Na  Na3  1  0.25731800  0.88196900  0.62373100  1
  Na  Na4  1  0.74977500  0.62089100  0.87726200  1
  Na  Na5  1  0.74833100  0.12088300  0.37770200  1
  Li  Li6  1  0.22932800  0.16487600  0.87379100  1
  Li  Li7  1  0.23076200  0.66472300  0.37365500  1
  Li  Li8  1  0.76509200  0.83916800  0.12376600  1
  Li  Li9  1  0.76231600  0.33983900  0.62401400  1
  Li  Li10  1  0.24576300  0.85589000  0.94508400  1
  Li  Li11  1  0.24449900  0.35564000  0.44489700  1
  Fe  Fe12  1  0.78459700  0.05207300  0.70554900  1
  Fe  Fe13  1  0.21777000  0.44556300  0.78979500  1
  Fe  Fe14  1  0.78602500  0.55182500  0.20576500  1
  Fe  Fe15  1  0.21818200  0.94548500  0.28985700  1
  P  P16  1  0.71507200  0.33093800  0.91138800  1
  P  P17  1  0.71539200  0.83084500  0.41116300  1
  P  P18  1  0.29178100  0.66846400  0.08300300  1
  P  P19  1  0.28977400  0.16852200  0.58297100  1
  C  C20  1  0.71182700  0.40246700  0.36284700  1
  C  C21  1  0.71308300  0.90247700  0.86281700  1
  C  C22  1  0.28034900  0.59449900  0.64145000  1
  C  C23  1  0.28032200  0.09465900  0.14156700  1
  O  O24  1  0.29680900  0.16751300  0.06694700  1
  O  O25  1  0.29701100  0.66740100  0.56698000  1
  O  O26  1  0.95480300  0.41434100  0.34370200  1
  O  O27  1  0.95597100  0.91392400  0.84327300  1
  O  O28  1  0.53679700  0.46019600  0.30809300  1
  O  O29  1  0.53793500  0.96049500  0.80836100  1
  O  O30  1  0.82749400  0.19579100  0.87587900  1
  O  O31  1  0.82816900  0.69571900  0.37575000  1
  O  O32  1  0.79433000  0.38756900  0.05741800  1
  O  O33  1  0.79457800  0.88751700  0.55716700  1
  O  O34  1  0.41350200  0.32874800  0.89554900  1
  O  O35  1  0.41386700  0.82851000  0.39533700  1
  O  O36  1  0.17764800  0.59900900  0.17374600  1
  O  O37  1  0.17598300  0.09882900  0.67359700  1
  O  O38  1  0.82345200  0.40421800  0.82326500  1
  O  O39  1  0.82364000  0.90407200  0.32298800  1
  O  O40  1  0.59251200  0.67069100  0.10274600  1
  O  O41  1  0.59049000  0.17094800  0.60288900  1
  O  O42  1  0.21632900  0.60796100  0.93843700  1
  O  O43  1  0.21421000  0.10810200  0.43839400  1
  O  O44  1  0.18142400  0.80477900  0.11188500  1
  O  O45  1  0.17928900  0.30480400  0.61190600  1
  O  O46  1  0.48707600  0.54731200  0.68467700  1
  O  O47  1  0.48721900  0.04833700  0.18555000  1
  O  O48  1  0.05664900  0.56522700  0.67373400  1
  O  O49  1  0.05671500  0.06462400  0.17312200  1
  O  O50  1  0.63860100  0.83565000  0.93566200  1
  O  O51  1  0.63748100  0.33553600  0.43560700  1
