# generated using pymatgen
data_VCrO3
_symmetry_space_group_name_H-M   'P 1'
_cell_length_a   5.10626206
_cell_length_b   5.49689554
_cell_length_c   9.07876893
_cell_angle_alpha   85.22104282
_cell_angle_beta   73.67217411
_cell_angle_gamma   117.66116830
_symmetry_Int_Tables_number   1
_chemical_formula_structural   VCrO3
_chemical_formula_sum   'V4 Cr4 O12'
_cell_volume   209.63495481
_cell_formula_units_Z   4
loop_
 _symmetry_equiv_pos_site_id
 _symmetry_equiv_pos_as_xyz
  1  'x, y, z'
loop_
 _atom_site_type_symbol
 _atom_site_label
 _atom_site_symmetry_multiplicity
 _atom_site_fract_x
 _atom_site_fract_y
 _atom_site_fract_z
 _atom_site_occupancy
  V  V0  1  0.14807100  0.87135600  0.57516200  1
  V  V1  1  0.35157800  0.87647800  0.17416200  1
  V  V2  1  0.85033600  0.12550300  0.42715700  1
  V  V3  1  0.85153600  0.62916400  0.92332900  1
  Cr  Cr4  1  0.15018900  0.37574700  0.07475300  1
  Cr  Cr5  1  0.34738000  0.37043200  0.67478100  1
  Cr  Cr6  1  0.65281100  0.62729300  0.32417300  1
  Cr  Cr7  1  0.64866400  0.12746600  0.82689900  1
  O  O8  1  0.05257200  0.52436200  0.72280600  1
  O  O9  1  0.05315700  0.02685400  0.22319900  1
  O  O10  1  0.44738400  0.87327300  0.37509500  1
  O  O11  1  0.55402900  0.62390400  0.12442900  1
  O  O12  1  0.25152200  0.77667500  0.97322500  1
  O  O13  1  0.25300800  0.27919100  0.47266800  1
  O  O14  1  0.74831000  0.71931600  0.52645300  1
  O  O15  1  0.75164400  0.22544700  0.02647900  1
  O  O16  1  0.44498900  0.37372300  0.87469900  1
  O  O17  1  0.55128700  0.12515900  0.62760800  1
  O  O18  1  0.94572600  0.97700100  0.77654700  1
  O  O19  1  0.94580700  0.47165300  0.27637700  1
