# generated using pymatgen
data_Na3VSiBO7
_symmetry_space_group_name_H-M   'P 1'
_cell_length_a   5.34403328
_cell_length_b   11.11301537
_cell_length_c   11.11333186
_cell_angle_alpha   106.80341066
_cell_angle_beta   91.31043705
_cell_angle_gamma   88.68774103
_symmetry_Int_Tables_number   1
_chemical_formula_structural   Na3VSiBO7
_chemical_formula_sum   'Na12 V4 Si4 B4 O28'
_cell_volume   631.56481982
_cell_formula_units_Z   4
loop_
 _symmetry_equiv_pos_site_id
 _symmetry_equiv_pos_as_xyz
  1  'x, y, z'
loop_
 _atom_site_type_symbol
 _atom_site_label
 _atom_site_symmetry_multiplicity
 _atom_site_fract_x
 _atom_site_fract_y
 _atom_site_fract_z
 _atom_site_occupancy
  Na  Na0  1  0.76485100  0.16738600  0.08254200  1
  Na  Na1  1  0.76473400  0.66753400  0.58253500  1
  Na  Na2  1  0.23516800  0.83260800  0.91745000  1
  Na  Na3  1  0.23530500  0.33245400  0.41752400  1
  Na  Na4  1  0.25399200  0.12874500  0.87556400  1
  Na  Na5  1  0.25360700  0.62866900  0.37544800  1
  Na  Na6  1  0.25374900  0.37452700  0.12124300  1
  Na  Na7  1  0.25394600  0.87444300  0.62138000  1
  Na  Na8  1  0.74610400  0.62549400  0.87881600  1
  Na  Na9  1  0.74603300  0.12552600  0.37866300  1
  Na  Na10  1  0.74592800  0.87118800  0.12445200  1
  Na  Na11  1  0.74617900  0.37133000  0.62455500  1
  V  V12  1  0.78847200  0.04407300  0.70582000  1
  V  V13  1  0.21152100  0.95585300  0.29409900  1
  V  V14  1  0.78864400  0.54411900  0.20582500  1
  V  V15  1  0.21135000  0.45587400  0.79416700  1
  Si  Si16  1  0.72256400  0.33849000  0.91147500  1
  Si  Si17  1  0.72275500  0.83860000  0.41138600  1
  Si  Si18  1  0.27746800  0.66152500  0.08847900  1
  Si  Si19  1  0.27721800  0.16138900  0.58859400  1
  B  B20  1  0.73331400  0.40780500  0.34231300  1
  B  B21  1  0.73313400  0.90772500  0.84219400  1
  B  B22  1  0.26673500  0.59217800  0.65770400  1
  B  B23  1  0.26690500  0.09229800  0.15782300  1
  O  O24  1  0.31888900  0.16534200  0.08482700  1
  O  O25  1  0.31891000  0.66517200  0.58467500  1
  O  O26  1  0.68112300  0.83469800  0.91520800  1
  O  O27  1  0.68106200  0.33479800  0.41532400  1
  O  O28  1  0.96977200  0.43907800  0.31101300  1
  O  O29  1  0.96928400  0.93905200  0.81086400  1
  O  O30  1  0.03036400  0.56091000  0.68902500  1
  O  O31  1  0.03075400  0.06093900  0.18912900  1
  O  O32  1  0.54463500  0.46646200  0.28365200  1
  O  O33  1  0.54400300  0.96632300  0.78363300  1
  O  O34  1  0.45554900  0.53357200  0.71635800  1
  O  O35  1  0.45603000  0.03368000  0.21638000  1
  O  O36  1  0.42629900  0.36639400  0.88363800  1
  O  O37  1  0.42641700  0.86648300  0.38348700  1
  O  O38  1  0.57367800  0.63369900  0.11637400  1
  O  O39  1  0.57359400  0.13351200  0.61650400  1
  O  O40  1  0.10617500  0.58571100  0.16427800  1
  O  O41  1  0.10621200  0.08546500  0.66445200  1
  O  O42  1  0.89377500  0.41431200  0.83562300  1
  O  O43  1  0.89374200  0.91451600  0.33554200  1
  O  O44  1  0.79000900  0.18772800  0.86518800  1
  O  O45  1  0.79031400  0.68788400  0.36511000  1
  O  O46  1  0.79027200  0.38482900  0.06221400  1
  O  O47  1  0.79005000  0.88484300  0.56217800  1
  O  O48  1  0.20983600  0.61520400  0.93777100  1
  O  O49  1  0.20992600  0.11514600  0.43780500  1
  O  O50  1  0.20993300  0.81228100  0.13479300  1
  O  O51  1  0.20971500  0.31213200  0.63490300  1
