# generated using pymatgen
data_Li7W5O16
_symmetry_space_group_name_H-M   'P 1'
_cell_length_a   5.98497178
_cell_length_b   5.98497178
_cell_length_c   9.91817932
_cell_angle_alpha   89.67593238
_cell_angle_beta   89.67593238
_cell_angle_gamma   58.45766577
_symmetry_Int_Tables_number   1
_chemical_formula_structural   Li7W5O16
_chemical_formula_sum   'Li7 W5 O16'
_cell_volume   302.77222456
_cell_formula_units_Z   1
loop_
 _symmetry_equiv_pos_site_id
 _symmetry_equiv_pos_as_xyz
  1  'x, y, z'
loop_
 _atom_site_type_symbol
 _atom_site_label
 _atom_site_symmetry_multiplicity
 _atom_site_fract_x
 _atom_site_fract_y
 _atom_site_fract_z
 _atom_site_occupancy
  Li  Li0  1  0.33932400  0.82736000  0.21062500  1
  Li  Li1  1  0.67580400  0.67580400  0.90864700  1
  Li  Li2  1  0.00300600  0.00300600  0.98996200  1
  Li  Li3  1  0.01038200  0.01038200  0.48380200  1
  Li  Li4  1  0.82736000  0.33932400  0.21062500  1
  Li  Li5  1  0.16198900  0.16198900  0.71735500  1
  Li  Li6  1  0.33317300  0.33317300  0.39780000  1
  W  W7  1  0.65432300  0.65432300  0.47563900  1
  W  W8  1  0.82455500  0.82455500  0.22681900  1
  W  W9  1  0.33085200  0.33085200  0.99970400  1
  W  W10  1  0.19064200  0.63439000  0.71083500  1
  W  W11  1  0.63439000  0.19064200  0.71083500  1
  O  O12  1  0.35309200  0.79049800  0.59918200  1
  O  O13  1  0.52095700  0.52095700  0.36220900  1
  O  O14  1  0.68636500  0.68636500  0.11035200  1
  O  O15  1  0.99111500  0.99111500  0.29493500  1
  O  O16  1  0.99438200  0.99438200  0.80186600  1
  O  O17  1  0.79049800  0.35309200  0.59918200  1
  O  O18  1  0.52417000  0.97424500  0.35218000  1
  O  O19  1  0.97424500  0.52417000  0.35218000  1
  O  O20  1  0.17295800  0.17295800  0.07142600  1
  O  O21  1  0.83032800  0.83032800  0.59737400  1
  O  O22  1  0.05573700  0.49727100  0.84506500  1
  O  O23  1  0.49727100  0.05573700  0.84506500  1
  O  O24  1  0.32180600  0.32180600  0.59097200  1
  O  O25  1  0.16109200  0.65059500  0.09262300  1
  O  O26  1  0.48953200  0.48953200  0.85797000  1
  O  O27  1  0.65059500  0.16109200  0.09262300  1
