# generated using pymatgen
data_Mn5Cr3O16
_symmetry_space_group_name_H-M   'P 1'
_cell_length_a   5.81891672
_cell_length_b   5.81891672
_cell_length_c   8.88540462
_cell_angle_alpha   89.57691227
_cell_angle_beta   89.57691227
_cell_angle_gamma   59.88239553
_symmetry_Int_Tables_number   1
_chemical_formula_structural   Mn5Cr3O16
_chemical_formula_sum   'Mn5 Cr3 O16'
_cell_volume   260.23186165
_cell_formula_units_Z   1
loop_
 _symmetry_equiv_pos_site_id
 _symmetry_equiv_pos_as_xyz
  1  'x, y, z'
loop_
 _atom_site_type_symbol
 _atom_site_label
 _atom_site_symmetry_multiplicity
 _atom_site_fract_x
 _atom_site_fract_y
 _atom_site_fract_z
 _atom_site_occupancy
  Mn  Mn0  1  0.66804600  0.66804600  0.51640800  1
  Mn  Mn1  1  0.82914800  0.82914800  0.78568800  1
  Mn  Mn2  1  0.33345600  0.33345600  0.01790900  1
  Mn  Mn3  1  0.16556000  0.66274500  0.28849100  1
  Mn  Mn4  1  0.66274500  0.16556000  0.28849100  1
  Cr  Cr5  1  0.32878200  0.83203200  0.79598500  1
  Cr  Cr6  1  0.83203200  0.32878200  0.79598500  1
  Cr  Cr7  1  0.16309800  0.16309800  0.29878600  1
  O  O8  1  0.33793000  0.83394800  0.39454400  1
  O  O9  1  0.52643000  0.52643000  0.66176600  1
  O  O10  1  0.66998400  0.66998400  0.90250200  1
  O  O11  1  0.99643900  0.99643900  0.68334000  1
  O  O12  1  0.99671500  0.99671500  0.18325600  1
  O  O13  1  0.83394800  0.33793000  0.39454400  1
  O  O14  1  0.52109000  0.95562200  0.65836900  1
  O  O15  1  0.95562200  0.52109000  0.65836900  1
  O  O16  1  0.17257100  0.17257100  0.89111300  1
  O  O17  1  0.83417400  0.83417400  0.39940100  1
  O  O18  1  0.04543500  0.47665400  0.16041600  1
  O  O19  1  0.47665400  0.04543500  0.16041600  1
  O  O20  1  0.33655100  0.33655100  0.40038800  1
  O  O21  1  0.17195900  0.66255900  0.89490200  1
  O  O22  1  0.47853300  0.47853300  0.15828600  1
  O  O23  1  0.66255900  0.17195900  0.89490200  1
