# generated using pymatgen
data_Na3CoSiCO7
_symmetry_space_group_name_H-M   'P 1'
_cell_length_a   6.42675400
_cell_length_b   5.19482300
_cell_length_c   9.12812406
_cell_angle_alpha   88.74002356
_cell_angle_beta   90.00000000
_cell_angle_gamma   90.00000000
_symmetry_Int_Tables_number   1
_chemical_formula_structural   Na3CoSiCO7
_chemical_formula_sum   'Na6 Co2 Si2 C2 O14'
_cell_volume   304.67649146
_cell_formula_units_Z   2
loop_
 _symmetry_equiv_pos_site_id
 _symmetry_equiv_pos_as_xyz
  1  'x, y, z'
loop_
 _atom_site_type_symbol
 _atom_site_label
 _atom_site_symmetry_multiplicity
 _atom_site_fract_x
 _atom_site_fract_y
 _atom_site_fract_z
 _atom_site_occupancy
  Na  Na0  1  0.75000000  0.23891900  0.91560300  1
  Na  Na1  1  0.99618100  0.74774500  0.73901900  1
  Na  Na2  1  0.50381900  0.74774500  0.73901900  1
  Na  Na3  1  0.49618100  0.25225500  0.26098100  1
  Na  Na4  1  0.00381900  0.25225500  0.26098100  1
  Na  Na5  1  0.25000000  0.76108100  0.08439700  1
  Co  Co6  1  0.25000000  0.20506400  0.64273200  1
  Co  Co7  1  0.75000000  0.79493600  0.35726800  1
  Si  Si8  1  0.75000000  0.29990500  0.57880500  1
  Si  Si9  1  0.25000000  0.70009500  0.42119500  1
  C  C10  1  0.25000000  0.26979000  0.93873500  1
  C  C11  1  0.75000000  0.73021000  0.06126500  1
  O  O12  1  0.75000000  0.71807000  0.91933100  1
  O  O13  1  0.25000000  0.04635200  0.87684100  1
  O  O14  1  0.25000000  0.47785300  0.85846400  1
  O  O15  1  0.95410200  0.22621300  0.68272500  1
  O  O16  1  0.54589800  0.22621300  0.68272500  1
  O  O17  1  0.75000000  0.61486400  0.54894600  1
  O  O18  1  0.25000000  0.85049000  0.57567700  1
  O  O19  1  0.75000000  0.14951000  0.42432300  1
  O  O20  1  0.25000000  0.38513600  0.45105400  1
  O  O21  1  0.45410200  0.77378700  0.31727500  1
  O  O22  1  0.04589800  0.77378700  0.31727500  1
  O  O23  1  0.75000000  0.52214700  0.14153600  1
  O  O24  1  0.75000000  0.95364800  0.12315900  1
  O  O25  1  0.25000000  0.28193000  0.08066900  1
