# generated using pymatgen
data_Li6V3W3O16
_symmetry_space_group_name_H-M   'P 1'
_cell_length_a   5.88395400
_cell_length_b   5.81761092
_cell_length_c   10.22874056
_cell_angle_alpha   90.09353199
_cell_angle_beta   90.68776816
_cell_angle_gamma   119.55457128
_symmetry_Int_Tables_number   1
_chemical_formula_structural   Li6V3W3O16
_chemical_formula_sum   'Li6 V3 W3 O16'
_cell_volume   304.54461727
_cell_formula_units_Z   1
loop_
 _symmetry_equiv_pos_site_id
 _symmetry_equiv_pos_as_xyz
  1  'x, y, z'
loop_
 _atom_site_type_symbol
 _atom_site_label
 _atom_site_symmetry_multiplicity
 _atom_site_fract_x
 _atom_site_fract_y
 _atom_site_fract_z
 _atom_site_occupancy
  Li  Li0  1  0.32991600  0.66312200  0.51186300  1
  Li  Li1  1  0.33160800  0.66714800  0.88836300  1
  Li  Li2  1  0.99372100  0.99622100  0.99551200  1
  Li  Li3  1  0.98733000  0.99233300  0.49591800  1
  Li  Li4  1  0.65708300  0.32954800  0.00410200  1
  Li  Li5  1  0.66346400  0.33199500  0.39904900  1
  V  V6  1  0.65717000  0.82875800  0.21223400  1
  V  V7  1  0.83347700  0.65161800  0.71202500  1
  V  V8  1  0.82815400  0.17636900  0.71141200  1
  W  W9  1  0.17716500  0.81462300  0.21362300  1
  W  W10  1  0.17688500  0.36267900  0.21338900  1
  W  W11  1  0.34786900  0.17525400  0.71500300  1
  O  O12  1  0.15838100  0.84524900  0.61118500  1
  O  O13  1  0.01800400  0.50939700  0.33861200  1
  O  O14  1  0.34273000  0.67117000  0.08326000  1
  O  O15  1  0.00526000  0.00324400  0.31491000  1
  O  O16  1  0.01502000  0.00727400  0.81438100  1
  O  O17  1  0.15644300  0.31187400  0.61143100  1
  O  O18  1  0.48436700  0.97888200  0.32336700  1
  O  O19  1  0.48426200  0.50585800  0.32310700  1
  O  O20  1  0.30963700  0.15438500  0.10753000  1
  O  O21  1  0.69684400  0.84812400  0.61884500  1
  O  O22  1  0.51035400  0.48576600  0.82308600  1
  O  O23  1  0.51162400  0.02572200  0.82359800  1
  O  O24  1  0.65276800  0.32692100  0.59430900  1
  O  O25  1  0.84852300  0.68736700  0.11389300  1
  O  O26  1  0.97338400  0.48834000  0.82003900  1
  O  O27  1  0.84855900  0.16105900  0.11379300  1
