# generated using pymatgen
data_Cr10Fe5O24
_symmetry_space_group_name_H-M   'P 1'
_cell_length_a   5.98933238
_cell_length_b   5.98933238
_cell_length_c   14.66931046
_cell_angle_alpha   89.97782326
_cell_angle_beta   89.97782326
_cell_angle_gamma   59.96279559
_symmetry_Int_Tables_number   1
_chemical_formula_structural   Cr10Fe5O24
_chemical_formula_sum   'Cr10 Fe5 O24'
_cell_volume   455.54803921
_cell_formula_units_Z   1
loop_
 _symmetry_equiv_pos_site_id
 _symmetry_equiv_pos_as_xyz
  1  'x, y, z'
loop_
 _atom_site_type_symbol
 _atom_site_label
 _atom_site_symmetry_multiplicity
 _atom_site_fract_x
 _atom_site_fract_y
 _atom_site_fract_z
 _atom_site_occupancy
  Cr  Cr0  1  0.17171700  0.17171700  0.20741500  1
  Cr  Cr1  1  0.65756100  0.17139100  0.20768200  1
  Cr  Cr2  1  0.83798700  0.32403700  0.54076800  1
  Cr  Cr3  1  0.32403700  0.83798700  0.54076800  1
  Cr  Cr4  1  0.17139100  0.65756100  0.20768200  1
  Cr  Cr5  1  0.83775500  0.83775500  0.54097300  1
  Cr  Cr6  1  0.66523000  0.66523000  0.71428600  1
  Cr  Cr7  1  0.00020000  0.00020000  0.37803300  1
  Cr  Cr8  1  0.99319900  0.50555400  0.87392600  1
  Cr  Cr9  1  0.50555400  0.99319900  0.87392600  1
  Fe  Fe10  1  0.33326700  0.33326700  0.04521100  1
  Fe  Fe11  1  0.66663500  0.66663500  0.33285800  1
  Fe  Fe12  1  0.00083600  0.00083600  0.00092800  1
  Fe  Fe13  1  0.50499500  0.50499500  0.87396000  1
  Fe  Fe14  1  0.33305800  0.33305800  0.66676600  1
  O  O15  1  0.31299000  0.84368000  0.28850900  1
  O  O16  1  0.84368000  0.31299000  0.28850900  1
  O  O17  1  0.47959900  0.04105400  0.12931600  1
  O  O18  1  0.04105400  0.47959900  0.12931600  1
  O  O19  1  0.14434800  0.14434800  0.46495400  1
  O  O20  1  0.33338000  0.33338000  0.27567800  1
  O  O21  1  0.47942900  0.47942900  0.12930200  1
  O  O22  1  0.66649600  0.66649600  0.46532600  1
  O  O23  1  0.50929900  0.50929900  0.62213800  1
  O  O24  1  0.00025900  0.00025900  0.13238100  1
  O  O25  1  0.84340800  0.84340800  0.28872400  1
  O  O26  1  0.97787200  0.51020700  0.62296100  1
  O  O27  1  0.51020700  0.97787200  0.62296100  1
  O  O28  1  0.81311100  0.37475500  0.79520000  1
  O  O29  1  0.71217300  0.14508200  0.46459500  1
  O  O30  1  0.37475500  0.81311100  0.79520000  1
  O  O31  1  0.14508200  0.71217300  0.46459500  1
  O  O32  1  0.81205600  0.81205600  0.79669500  1
  O  O33  1  0.66382600  0.66382600  0.94290500  1
  O  O34  1  0.00065400  0.00065400  0.60778900  1
  O  O35  1  0.17724600  0.17724600  0.95614700  1
  O  O36  1  0.33388600  0.33388600  0.79953100  1
  O  O37  1  0.64595100  0.17583900  0.95604200  1
  O  O38  1  0.17583900  0.64595100  0.95604200  1
