# generated using pymatgen
data_TaMn2V
_symmetry_space_group_name_H-M   'P 1'
_cell_length_a   10.33833840
_cell_length_b   10.33833840
_cell_length_c   10.33833840
_cell_angle_alpha   121.23829316
_cell_angle_beta   120.55947352
_cell_angle_gamma   88.45104698
_symmetry_Int_Tables_number   1
_chemical_formula_structural   TaMn2V
_chemical_formula_sum   'Ta1 Mn2 V1'
_cell_volume   770.37875301
_cell_formula_units_Z   1
loop_
 _symmetry_equiv_pos_site_id
 _symmetry_equiv_pos_as_xyz
  1  'x, y, z'
loop_
 _atom_site_type_symbol
 _atom_site_label
 _atom_site_symmetry_multiplicity
 _atom_site_fract_x
 _atom_site_fract_y
 _atom_site_fract_z
 _atom_site_occupancy
  Ta  Ta0  1  0.50000000  0.00000000  0.50000000  1
  Mn  Mn1  1  0.72688400  0.00000000  0.72688400  1
  Mn  Mn2  1  0.27311600  0.00000000  0.27311600  1
  V  V3  1  0.00000000  0.00000000  0.00000000  1
