data_image0
_chemical_formula_structural       BiF6Rb
_chemical_formula_sum              "Bi1 F6 Rb1"
_cell_length_a       4.8911
_cell_length_b       4.8911
_cell_length_c       4.8911
_cell_angle_alpha    97.1918
_cell_angle_beta     97.1918
_cell_angle_gamma    97.1918

_space_group_name_H-M_alt    "P 1"
_space_group_IT_number       1

loop_
  _space_group_symop_operation_xyz
  'x, y, z'

loop_
  _atom_site_type_symbol
  _atom_site_label
  _atom_site_symmetry_multiplicity
  _atom_site_fract_x
  _atom_site_fract_y
  _atom_site_fract_z
  _atom_site_occupancy
  Bi  Bi1       1.0  0.00000  0.00000  0.00000  1.0000
  F   F1        1.0  0.64100  0.78500  0.07220  1.0000
  F   F2        1.0  0.92800  0.35900  0.21500  1.0000
  F   F3        1.0  0.21500  0.92800  0.35900  1.0000
  F   F4        1.0  0.78500  0.07220  0.64100  1.0000
  F   F5        1.0  0.07220  0.64100  0.78500  1.0000
  F   F6        1.0  0.35900  0.21500  0.92800  1.0000
  Rb  Rb1       1.0  0.50000  0.50000  0.50000  1.0000
