# generated using pymatgen
data_La2Pt2O7
_symmetry_space_group_name_H-M   'P 1'
_cell_length_a   5.65797600
_cell_length_b   7.96667500
_cell_length_c   13.50603590
_cell_angle_alpha   81.59182494
_cell_angle_beta   90.00000000
_cell_angle_gamma   90.00000000
_symmetry_Int_Tables_number   1
_chemical_formula_structural   La2Pt2O7
_chemical_formula_sum   'La8 Pt8 O28'
_cell_volume   602.24445466
_cell_formula_units_Z   4
loop_
 _symmetry_equiv_pos_site_id
 _symmetry_equiv_pos_as_xyz
  1  'x, y, z'
loop_
 _atom_site_type_symbol
 _atom_site_label
 _atom_site_symmetry_multiplicity
 _atom_site_fract_x
 _atom_site_fract_y
 _atom_site_fract_z
 _atom_site_occupancy
  La  La0  1  0.76226700  0.77339800  0.90557800  1
  La  La1  1  0.33189800  0.85432200  0.57314300  1
  La  La2  1  0.24821600  0.71715600  0.12933700  1
  La  La3  1  0.79120000  0.64555900  0.39608600  1
  La  La4  1  0.29120000  0.35444100  0.60391400  1
  La  La5  1  0.74821600  0.28284400  0.87066300  1
  La  La6  1  0.83189800  0.14567800  0.42685700  1
  La  La7  1  0.26226700  0.22660200  0.09442200  1
  Pt  Pt8  1  0.27401300  0.92439400  0.31272800  1
  Pt  Pt9  1  0.76501200  0.97161400  0.11038900  1
  Pt  Pt10  1  0.77576200  0.58160900  0.68532200  1
  Pt  Pt11  1  0.26374800  0.52648900  0.88849100  1
  Pt  Pt12  1  0.76374800  0.47351100  0.11150900  1
  Pt  Pt13  1  0.27576200  0.41839100  0.31467800  1
  Pt  Pt14  1  0.26501200  0.02838600  0.88961100  1
  Pt  Pt15  1  0.77401300  0.07560600  0.68727200  1
  O  O16  1  0.45002000  0.98184100  0.17992500  1
  O  O17  1  0.54891700  0.92076700  0.40777800  1
  O  O18  1  0.66594400  0.82324800  0.70610500  1
  O  O19  1  0.34468200  0.77309900  0.90666300  1
  O  O20  1  0.06247000  0.87599700  0.43158600  1
  O  O21  1  0.06456900  0.94740000  0.02130100  1
  O  O22  1  0.96728100  0.87346600  0.23271000  1
  O  O23  1  0.06336500  0.62582100  0.60247900  1
  O  O24  1  0.94571800  0.57038900  0.81994500  1
  O  O25  1  0.38744000  0.67279800  0.30861300  1
  O  O26  1  0.67702700  0.72835700  0.08756000  1
  O  O27  1  0.57748600  0.59553900  0.55975700  1
  O  O28  1  0.56523400  0.46123200  0.97773000  1
  O  O29  1  0.46607500  0.48875500  0.76517000  1
  O  O30  1  0.96607500  0.51124500  0.23483000  1
  O  O31  1  0.06523400  0.53876800  0.02227000  1
  O  O32  1  0.07748600  0.40446100  0.44024300  1
  O  O33  1  0.17702700  0.27164300  0.91244000  1
  O  O34  1  0.88744000  0.32720200  0.69138700  1
  O  O35  1  0.44571800  0.42961100  0.18005500  1
  O  O36  1  0.56336500  0.37417900  0.39752100  1
  O  O37  1  0.46728100  0.12653400  0.76729000  1
  O  O38  1  0.56456900  0.05260000  0.97869900  1
  O  O39  1  0.56247000  0.12400300  0.56841400  1
  O  O40  1  0.84468200  0.22690100  0.09333700  1
  O  O41  1  0.16594400  0.17675200  0.29389500  1
  O  O42  1  0.04891700  0.07923300  0.59222200  1
  O  O43  1  0.95002000  0.01815900  0.82007500  1
