# generated using pymatgen
data_Mn2PO5
_symmetry_space_group_name_H-M   'P 1'
_cell_length_a   6.16390900
_cell_length_b   7.46496159
_cell_length_c   8.55892195
_cell_angle_alpha   106.15864724
_cell_angle_beta   88.87508866
_cell_angle_gamma   99.79937397
_symmetry_Int_Tables_number   1
_chemical_formula_structural   Mn2PO5
_chemical_formula_sum   'Mn8 P4 O20'
_cell_volume   372.58744109
_cell_formula_units_Z   4
loop_
 _symmetry_equiv_pos_site_id
 _symmetry_equiv_pos_as_xyz
  1  'x, y, z'
loop_
 _atom_site_type_symbol
 _atom_site_label
 _atom_site_symmetry_multiplicity
 _atom_site_fract_x
 _atom_site_fract_y
 _atom_site_fract_z
 _atom_site_occupancy
  Mn  Mn0  1  0.53639900  0.20102500  0.80242800  1
  Mn  Mn1  1  0.02793900  0.16653200  0.79360500  1
  Mn  Mn2  1  0.32213100  0.36783400  0.55823900  1
  Mn  Mn3  1  0.86220600  0.39343400  0.12450300  1
  Mn  Mn4  1  0.13779400  0.60656600  0.87549700  1
  Mn  Mn5  1  0.67786900  0.63216600  0.44176100  1
  Mn  Mn6  1  0.97206100  0.83346800  0.20639500  1
  Mn  Mn7  1  0.46360100  0.79897500  0.19757200  1
  P  P8  1  0.79300100  0.20160400  0.43565600  1
  P  P9  1  0.30087100  0.21367300  0.16781100  1
  P  P10  1  0.69912900  0.78632700  0.83218900  1
  P  P11  1  0.20699900  0.79839600  0.56434400  1
  O  O12  1  0.74897700  0.97742200  0.78195100  1
  O  O13  1  0.24164300  0.98840000  0.70679900  1
  O  O14  1  0.75835700  0.01160000  0.29320100  1
  O  O15  1  0.25102300  0.02257800  0.21804900  1
  O  O16  1  0.58917400  0.21139700  0.54341100  1
  O  O17  1  0.85161600  0.35919500  0.88836000  1
  O  O18  1  0.99665600  0.20799300  0.53863200  1
  O  O19  1  0.27662600  0.37150100  0.80410500  1
  O  O20  1  0.49981800  0.21421700  0.05664500  1
  O  O21  1  0.82445800  0.36893600  0.35538200  1
  O  O22  1  0.08786600  0.22076900  0.07359900  1
  O  O23  1  0.34948700  0.38105400  0.32252600  1
  O  O24  1  0.65051300  0.61894600  0.67747400  1
  O  O25  1  0.91213400  0.77923100  0.92640100  1
  O  O26  1  0.17554200  0.63106400  0.64461800  1
  O  O27  1  0.50018200  0.78578300  0.94335500  1
  O  O28  1  0.72337400  0.62849900  0.19589500  1
  O  O29  1  0.00334400  0.79200700  0.46136800  1
  O  O30  1  0.14838400  0.64080500  0.11164000  1
  O  O31  1  0.41082600  0.78860300  0.45658900  1
