# generated using pymatgen
data_Cr5Sb3O16
_symmetry_space_group_name_H-M   'P 1'
_cell_length_a   6.06356910
_cell_length_b   6.06356910
_cell_length_c   9.07855718
_cell_angle_alpha   89.85445662
_cell_angle_beta   89.85445662
_cell_angle_gamma   60.31150122
_symmetry_Int_Tables_number   1
_chemical_formula_structural   Cr5Sb3O16
_chemical_formula_sum   'Cr5 Sb3 O16'
_cell_volume   289.97256914
_cell_formula_units_Z   1
loop_
 _symmetry_equiv_pos_site_id
 _symmetry_equiv_pos_as_xyz
  1  'x, y, z'
loop_
 _atom_site_type_symbol
 _atom_site_label
 _atom_site_symmetry_multiplicity
 _atom_site_fract_x
 _atom_site_fract_y
 _atom_site_fract_z
 _atom_site_occupancy
  Cr  Cr0  1  0.33267500  0.83378800  0.79380700  1
  Cr  Cr1  1  0.65898500  0.65898500  0.51631800  1
  Cr  Cr2  1  0.83378800  0.33267500  0.79380700  1
  Cr  Cr3  1  0.16908800  0.16908800  0.29056000  1
  Cr  Cr4  1  0.33027300  0.33027300  0.00967100  1
  Sb  Sb5  1  0.83156000  0.83156000  0.78881100  1
  Sb  Sb6  1  0.16913700  0.66626000  0.28866200  1
  Sb  Sb7  1  0.66626000  0.16913700  0.28866200  1
  O  O8  1  0.33170700  0.82853900  0.39663300  1
  O  O9  1  0.52947500  0.52947500  0.67111600  1
  O  O10  1  0.66801900  0.66801900  0.90455300  1
  O  O11  1  0.00029700  0.00029700  0.68720900  1
  O  O12  1  0.00074700  0.00074700  0.17816100  1
  O  O13  1  0.82853900  0.33170700  0.39663300  1
  O  O14  1  0.51950100  0.94842900  0.65941700  1
  O  O15  1  0.94842900  0.51950100  0.65941700  1
  O  O16  1  0.16921600  0.16921600  0.88807200  1
  O  O17  1  0.83273200  0.83273200  0.39838900  1
  O  O18  1  0.04826600  0.47832000  0.16102100  1
  O  O19  1  0.47832000  0.04826600  0.16102100  1
  O  O20  1  0.33612900  0.33612900  0.40691300  1
  O  O21  1  0.17156100  0.66492200  0.89567900  1
  O  O22  1  0.47922200  0.47922200  0.15409000  1
  O  O23  1  0.66492200  0.17156100  0.89567900  1
