# generated using pymatgen
data_Gd2P4O13
_symmetry_space_group_name_H-M   'P 1'
_cell_length_a   6.93602026
_cell_length_b   6.93602026
_cell_length_c   13.13238954
_cell_angle_alpha   76.24407465
_cell_angle_beta   76.24407465
_cell_angle_gamma   59.22960953
_symmetry_Int_Tables_number   1
_chemical_formula_structural   Gd2P4O13
_chemical_formula_sum   'Gd4 P8 O26'
_cell_volume   522.13910630
_cell_formula_units_Z   2
loop_
 _symmetry_equiv_pos_site_id
 _symmetry_equiv_pos_as_xyz
  1  'x, y, z'
loop_
 _atom_site_type_symbol
 _atom_site_label
 _atom_site_symmetry_multiplicity
 _atom_site_fract_x
 _atom_site_fract_y
 _atom_site_fract_z
 _atom_site_occupancy
  Gd  Gd0  1  0.68820800  0.69276300  0.44928300  1
  Gd  Gd1  1  0.30723700  0.31179200  0.05071700  1
  Gd  Gd2  1  0.69276300  0.68820800  0.94928300  1
  Gd  Gd3  1  0.31179200  0.30723700  0.55071700  1
  P  P4  1  0.84350700  0.13488800  0.36504700  1
  P  P5  1  0.13488800  0.84350700  0.86504700  1
  P  P6  1  0.22630400  0.23906700  0.34103000  1
  P  P7  1  0.76093300  0.77369600  0.15897000  1
  P  P8  1  0.23906700  0.22630400  0.84103000  1
  P  P9  1  0.77369600  0.76093300  0.65897000  1
  P  P10  1  0.86511200  0.15649300  0.13495300  1
  P  P11  1  0.15649300  0.86511200  0.63495300  1
  O  O12  1  0.67908600  0.31407000  0.43726400  1
  O  O13  1  0.87794200  0.89899300  0.39594500  1
  O  O14  1  0.31407000  0.67908600  0.93726400  1
  O  O15  1  0.89860100  0.90658300  0.15381600  1
  O  O16  1  0.07491300  0.43491500  0.40644000  1
  O  O17  1  0.42351000  0.07598300  0.40451800  1
  O  O18  1  0.29395200  0.30639100  0.22597800  1
  O  O19  1  0.89899300  0.87794200  0.89594500  1
  O  O20  1  0.90658300  0.89860100  0.65381600  1
  O  O21  1  0.69360900  0.70604800  0.27402200  1
  O  O22  1  0.92401700  0.57649000  0.09548200  1
  O  O23  1  0.56508500  0.92508700  0.09356000  1
  O  O24  1  0.43491500  0.07491300  0.90644000  1
  O  O25  1  0.07598300  0.42351000  0.90451800  1
  O  O26  1  0.30639100  0.29395200  0.72597800  1
  O  O27  1  0.09341700  0.10139900  0.34618400  1
  O  O28  1  0.10100700  0.12205800  0.10405500  1
  O  O29  1  0.70604800  0.69360900  0.77402200  1
  O  O30  1  0.57649000  0.92401700  0.59548200  1
  O  O31  1  0.92508800  0.56508500  0.59356000  1
  O  O32  1  0.76046300  0.23953700  0.25000000  1
  O  O33  1  0.10139900  0.09341700  0.84618400  1
  O  O34  1  0.68593000  0.32091400  0.06273600  1
  O  O35  1  0.12205800  0.10100700  0.60405500  1
  O  O36  1  0.23953700  0.76046300  0.75000000  1
  O  O37  1  0.32091400  0.68593000  0.56273600  1
