# generated using pymatgen
data_Sr3GeO5
_symmetry_space_group_name_H-M   'P 1'
_cell_length_a   7.52182026
_cell_length_b   7.52182026
_cell_length_c   7.52182026
_cell_angle_alpha   124.71549957
_cell_angle_beta   124.71549957
_cell_angle_gamma   82.00979454
_symmetry_Int_Tables_number   1
_chemical_formula_structural   Sr3GeO5
_chemical_formula_sum   'Sr6 Ge2 O10'
_cell_volume   276.51434904
_cell_formula_units_Z   2
loop_
 _symmetry_equiv_pos_site_id
 _symmetry_equiv_pos_as_xyz
  1  'x, y, z'
loop_
 _atom_site_type_symbol
 _atom_site_label
 _atom_site_symmetry_multiplicity
 _atom_site_fract_x
 _atom_site_fract_y
 _atom_site_fract_z
 _atom_site_occupancy
  Sr  Sr0  1  0.50533800  0.50533800  0.00000000  1
  Sr  Sr1  1  0.00533800  0.00533800  0.00000000  1
  Sr  Sr2  1  0.06872500  0.56872500  0.13524800  1
  Sr  Sr3  1  0.56872500  0.43347800  0.50000000  1
  Sr  Sr4  1  0.43347800  0.93347800  0.86475200  1
  Sr  Sr5  1  0.93347800  0.06872500  0.50000000  1
  Ge  Ge6  1  0.49953600  0.99953600  0.50000000  1
  Ge  Ge7  1  0.99953600  0.49953600  0.50000000  1
  O  O8  1  0.24282900  0.24282900  0.00000000  1
  O  O9  1  0.74282900  0.74282900  0.00000000  1
  O  O10  1  0.45497500  0.95497500  0.21804100  1
  O  O11  1  0.95497500  0.73693500  0.50000000  1
  O  O12  1  0.76008600  0.26008600  0.21849600  1
  O  O13  1  0.26008600  0.04159000  0.50000000  1
  O  O14  1  0.73693500  0.23693500  0.78195900  1
  O  O15  1  0.23693500  0.45497500  0.50000000  1
  O  O16  1  0.04159000  0.54159000  0.78150400  1
  O  O17  1  0.54159000  0.76008600  0.50000000  1
