# generated using pymatgen
data_Na3NiBAsO7
_symmetry_space_group_name_H-M   'P 1'
_cell_length_a   6.95765900
_cell_length_b   5.21613200
_cell_length_c   8.99765508
_cell_angle_alpha   87.96044143
_cell_angle_beta   90.00000000
_cell_angle_gamma   90.00000000
_symmetry_Int_Tables_number   1
_chemical_formula_structural   Na3NiBAsO7
_chemical_formula_sum   'Na6 Ni2 B2 As2 O14'
_cell_volume   326.33664011
_cell_formula_units_Z   2
loop_
 _symmetry_equiv_pos_site_id
 _symmetry_equiv_pos_as_xyz
  1  'x, y, z'
loop_
 _atom_site_type_symbol
 _atom_site_label
 _atom_site_symmetry_multiplicity
 _atom_site_fract_x
 _atom_site_fract_y
 _atom_site_fract_z
 _atom_site_occupancy
  Na  Na0  1  0.75000000  0.23756100  0.91942200  1
  Na  Na1  1  0.99668800  0.74883900  0.74574000  1
  Na  Na2  1  0.50331200  0.74883900  0.74574000  1
  Na  Na3  1  0.49668800  0.25116100  0.25426000  1
  Na  Na4  1  0.00331200  0.25116100  0.25426000  1
  Na  Na5  1  0.25000000  0.76243900  0.08057800  1
  Ni  Ni6  1  0.25000000  0.21356800  0.66720200  1
  Ni  Ni7  1  0.75000000  0.78643200  0.33279800  1
  B  B8  1  0.25000000  0.26997100  0.93251500  1
  B  B9  1  0.75000000  0.73002900  0.06748500  1
  As  As10  1  0.75000000  0.28512900  0.57812700  1
  As  As11  1  0.25000000  0.71487100  0.42187300  1
  O  O12  1  0.75000000  0.69983300  0.91996500  1
  O  O13  1  0.25000000  0.03453700  0.86583400  1
  O  O14  1  0.25000000  0.46877900  0.82612300  1
  O  O15  1  0.94164300  0.21703000  0.69249900  1
  O  O16  1  0.55835700  0.21703000  0.69249900  1
  O  O17  1  0.75000000  0.61017800  0.53068100  1
  O  O18  1  0.25000000  0.86885900  0.58633500  1
  O  O19  1  0.75000000  0.13114100  0.41366500  1
  O  O20  1  0.25000000  0.38982200  0.46931900  1
  O  O21  1  0.44164300  0.78297000  0.30750100  1
  O  O22  1  0.05835700  0.78297000  0.30750100  1
  O  O23  1  0.75000000  0.53122100  0.17387700  1
  O  O24  1  0.75000000  0.96546300  0.13416600  1
  O  O25  1  0.25000000  0.30016700  0.08003500  1
