# generated using pymatgen
data_Sr2YI7
_symmetry_space_group_name_H-M   'P 1'
_cell_length_a   17.30452800
_cell_length_b   7.80737500
_cell_length_c   11.96543296
_cell_angle_alpha   89.35679341
_cell_angle_beta   90.00000000
_cell_angle_gamma   90.00000000
_symmetry_Int_Tables_number   1
_chemical_formula_structural   Sr2YI7
_chemical_formula_sum   'Sr8 Y4 I28'
_cell_volume   1616.46330061
_cell_formula_units_Z   4
loop_
 _symmetry_equiv_pos_site_id
 _symmetry_equiv_pos_as_xyz
  1  'x, y, z'
loop_
 _atom_site_type_symbol
 _atom_site_label
 _atom_site_symmetry_multiplicity
 _atom_site_fract_x
 _atom_site_fract_y
 _atom_site_fract_z
 _atom_site_occupancy
  Sr  Sr0  1  0.55720100  0.27905400  0.67547300  1
  Sr  Sr1  1  0.21895300  0.28578300  0.54890100  1
  Sr  Sr2  1  0.94279900  0.27905400  0.17547300  1
  Sr  Sr3  1  0.28104700  0.28578300  0.04890100  1
  Sr  Sr4  1  0.71895300  0.71421700  0.95109900  1
  Sr  Sr5  1  0.05720100  0.72094600  0.82452700  1
  Sr  Sr6  1  0.78104700  0.71421700  0.45109900  1
  Sr  Sr7  1  0.44279900  0.72094600  0.32452700  1
  Y  Y8  1  0.86847200  0.21699300  0.72244900  1
  Y  Y9  1  0.63152800  0.21699300  0.22244900  1
  Y  Y10  1  0.36847200  0.78300700  0.77755100  1
  Y  Y11  1  0.13152800  0.78300700  0.27755100  1
  I  I12  1  0.21525100  0.99648900  0.78037900  1
  I  I13  1  0.39661900  0.00424600  0.56405200  1
  I  I14  1  0.28474900  0.99648900  0.28037900  1
  I  I15  1  0.10338100  0.00424600  0.06405200  1
  I  I16  1  0.42731300  0.13530500  0.87799400  1
  I  I17  1  0.07268700  0.13530500  0.37799400  1
  I  I18  1  0.64205300  0.30653200  0.97179600  1
  I  I19  1  0.85794700  0.30653200  0.47179600  1
  I  I20  1  0.03939200  0.31649100  0.70976700  1
  I  I21  1  0.46060800  0.31649100  0.20976700  1
  I  I22  1  0.89372300  0.49283800  0.92440600  1
  I  I23  1  0.73842300  0.50267600  0.70014000  1
  I  I24  1  0.60627700  0.49283800  0.42440600  1
  I  I25  1  0.76157700  0.50267600  0.20014000  1
  I  I26  1  0.23842300  0.49732400  0.79986000  1
  I  I27  1  0.39372300  0.50716200  0.57559400  1
  I  I28  1  0.26157700  0.49732400  0.29986000  1
  I  I29  1  0.10627700  0.50716200  0.07559400  1
  I  I30  1  0.53939200  0.68350900  0.79023300  1
  I  I31  1  0.96060800  0.68350900  0.29023300  1
  I  I32  1  0.14205300  0.69346800  0.52820400  1
  I  I33  1  0.35794700  0.69346800  0.02820400  1
  I  I34  1  0.92731300  0.86469500  0.62200600  1
  I  I35  1  0.57268700  0.86469500  0.12200600  1
  I  I36  1  0.89661900  0.99575400  0.93594800  1
  I  I37  1  0.71525100  0.00351100  0.71962100  1
  I  I38  1  0.60338100  0.99575400  0.43594800  1
  I  I39  1  0.78474900  0.00351100  0.21962100  1
