# generated using pymatgen
data_Na3VAsCO7
_symmetry_space_group_name_H-M   'P 1'
_cell_length_a   5.31421396
_cell_length_b   9.15789683
_cell_length_c   14.01123800
_cell_angle_alpha   90.00039574
_cell_angle_beta   90.00182960
_cell_angle_gamma   88.44604533
_symmetry_Int_Tables_number   1
_chemical_formula_structural   Na3VAsCO7
_chemical_formula_sum   'Na12 V4 As4 C4 O28'
_cell_volume   681.63446832
_cell_formula_units_Z   4
loop_
 _symmetry_equiv_pos_site_id
 _symmetry_equiv_pos_as_xyz
  1  'x, y, z'
loop_
 _atom_site_type_symbol
 _atom_site_label
 _atom_site_symmetry_multiplicity
 _atom_site_fract_x
 _atom_site_fract_y
 _atom_site_fract_z
 _atom_site_occupancy
  Na  Na0  1  0.76734100  0.08076300  0.12501200  1
  Na  Na1  1  0.76742000  0.08073400  0.62499300  1
  Na  Na2  1  0.23266900  0.91923700  0.37499000  1
  Na  Na3  1  0.23260400  0.91927000  0.87500900  1
  Na  Na4  1  0.25186200  0.26295900  0.00414600  1
  Na  Na5  1  0.25178900  0.26296100  0.50406800  1
  Na  Na6  1  0.25186400  0.26290600  0.24589700  1
  Na  Na7  1  0.25183300  0.26296600  0.74590700  1
  Na  Na8  1  0.74814100  0.73710100  0.25411000  1
  Na  Na9  1  0.74821900  0.73704000  0.75409800  1
  Na  Na10  1  0.74816600  0.73704300  0.49586000  1
  Na  Na11  1  0.74820700  0.73706700  0.99594200  1
  V  V12  1  0.78052800  0.33795200  0.87501700  1
  V  V13  1  0.21949700  0.66205600  0.62498500  1
  V  V14  1  0.78042200  0.33788300  0.37496600  1
  V  V15  1  0.21947900  0.66209100  0.12500400  1
  As  As16  1  0.70805300  0.41438600  0.12500800  1
  As  As17  1  0.70811800  0.41436600  0.62499600  1
  As  As18  1  0.29191200  0.58561300  0.37498400  1
  As  As19  1  0.29190000  0.58564000  0.87500100  1
  C  C20  1  0.71615600  0.05513400  0.37498300  1
  C  C21  1  0.71611600  0.05518400  0.87501000  1
  C  C22  1  0.28383400  0.94484100  0.12501500  1
  C  C23  1  0.28390600  0.94481900  0.62499900  1
  O  O24  1  0.30841100  0.08466600  0.12500700  1
  O  O25  1  0.30847200  0.08463600  0.62494400  1
  O  O26  1  0.69158000  0.91531200  0.37501100  1
  O  O27  1  0.69154800  0.91536700  0.87505900  1
  O  O28  1  0.93841200  0.11295600  0.37496500  1
  O  O29  1  0.93839300  0.11299000  0.87498100  1
  O  O30  1  0.06156900  0.88702400  0.12502200  1
  O  O31  1  0.06162800  0.88701400  0.62503200  1
  O  O32  1  0.51917400  0.14428100  0.37496300  1
  O  O33  1  0.51912900  0.14433900  0.87498700  1
  O  O34  1  0.48080100  0.85568900  0.12503500  1
  O  O35  1  0.48089600  0.85566800  0.62501900  1
  O  O36  1  0.38410600  0.44219300  0.12510800  1
  O  O37  1  0.38418100  0.44212100  0.62503600  1
  O  O38  1  0.61584700  0.55781100  0.37488800  1
  O  O39  1  0.61584600  0.55788700  0.87497600  1
  O  O40  1  0.15618000  0.41746100  0.37499100  1
  O  O41  1  0.15623500  0.41752600  0.87504600  1
  O  O42  1  0.84375000  0.58255200  0.12500800  1
  O  O43  1  0.84379700  0.58247600  0.62496100  1
  O  O44  1  0.79107100  0.30526600  0.02861000  1
  O  O45  1  0.79105700  0.30513800  0.52862700  1
  O  O46  1  0.79118400  0.30514000  0.22130200  1
  O  O47  1  0.79130600  0.30516000  0.72133200  1
  O  O48  1  0.20879500  0.69484600  0.27868600  1
  O  O49  1  0.20872800  0.69484900  0.77866100  1
  O  O50  1  0.20894500  0.69474000  0.47138000  1
  O  O51  1  0.20892400  0.69487900  0.97136500  1
