# generated using pymatgen
data_BaTl2O4
_symmetry_space_group_name_H-M   'P 1'
_cell_length_a   6.15141622
_cell_length_b   6.15141622
_cell_length_c   22.13782036
_cell_angle_alpha   89.82886055
_cell_angle_beta   89.82886055
_cell_angle_gamma   61.24399040
_symmetry_Int_Tables_number   1
_chemical_formula_structural   BaTl2O4
_chemical_formula_sum   'Ba6 Tl12 O24'
_cell_volume   734.38151539
_cell_formula_units_Z   6
loop_
 _symmetry_equiv_pos_site_id
 _symmetry_equiv_pos_as_xyz
  1  'x, y, z'
loop_
 _atom_site_type_symbol
 _atom_site_label
 _atom_site_symmetry_multiplicity
 _atom_site_fract_x
 _atom_site_fract_y
 _atom_site_fract_z
 _atom_site_occupancy
  Ba  Ba0  1  0.54570100  0.78463700  0.14402900  1
  Ba  Ba1  1  0.78463700  0.54570100  0.64402900  1
  Ba  Ba2  1  0.88834300  0.11165700  0.25000000  1
  Ba  Ba3  1  0.11165700  0.88834300  0.75000000  1
  Ba  Ba4  1  0.45429900  0.21536300  0.85597100  1
  Ba  Ba5  1  0.21536300  0.45429900  0.35597100  1
  Tl  Tl6  1  0.54371800  0.78933600  0.30537000  1
  Tl  Tl7  1  0.78933600  0.54371800  0.80537000  1
  Tl  Tl8  1  0.53521300  0.78818300  0.44621900  1
  Tl  Tl9  1  0.78818300  0.53521300  0.94621900  1
  Tl  Tl10  1  0.87100500  0.13035100  0.43102200  1
  Tl  Tl11  1  0.13035100  0.87100500  0.93102200  1
  Tl  Tl12  1  0.86964900  0.12899500  0.06897800  1
  Tl  Tl13  1  0.12899500  0.86964900  0.56897800  1
  Tl  Tl14  1  0.21181700  0.46478700  0.05378100  1
  Tl  Tl15  1  0.46478700  0.21181700  0.55378100  1
  Tl  Tl16  1  0.21066400  0.45628200  0.19463000  1
  Tl  Tl17  1  0.45628200  0.21066400  0.69463000  1
  O  O18  1  0.80034700  0.90684300  0.50219500  1
  O  O19  1  0.90684300  0.80034700  0.00219500  1
  O  O20  1  0.62444600  0.01965600  0.37575400  1
  O  O21  1  0.01965600  0.62444600  0.87575400  1
  O  O22  1  0.68464100  0.89194400  0.75572300  1
  O  O23  1  0.89194400  0.68464100  0.25572300  1
  O  O24  1  0.77985700  0.47191200  0.38135400  1
  O  O25  1  0.47191200  0.77985700  0.88135400  1
  O  O26  1  0.21470900  0.88321700  0.37208200  1
  O  O27  1  0.88321700  0.21470900  0.87208200  1
  O  O28  1  0.46987600  0.53012400  0.25000000  1
  O  O29  1  0.50000000  0.50000000  0.00000000  1
  O  O30  1  0.50000000  0.50000000  0.50000000  1
  O  O31  1  0.53012400  0.46987600  0.75000000  1
  O  O32  1  0.11678300  0.78529100  0.12791800  1
  O  O33  1  0.78529100  0.11678300  0.62791800  1
  O  O34  1  0.52808800  0.22014300  0.11864600  1
  O  O35  1  0.22014300  0.52808800  0.61864600  1
  O  O36  1  0.31535900  0.10805600  0.24427700  1
  O  O37  1  0.10805600  0.31535900  0.74427700  1
  O  O38  1  0.98034400  0.37555400  0.12424600  1
  O  O39  1  0.37555400  0.98034400  0.62424600  1
  O  O40  1  0.19965300  0.09315700  0.49780500  1
  O  O41  1  0.09315700  0.19965300  0.99780500  1
