# generated using pymatgen
data_Mn(IO3)2
_symmetry_space_group_name_H-M   'P 1'
_cell_length_a   5.50819600
_cell_length_b   5.80007500
_cell_length_c   17.41403700
_cell_angle_alpha   90.00000000
_cell_angle_beta   90.00000000
_cell_angle_gamma   90.00000000
_symmetry_Int_Tables_number   1
_chemical_formula_structural   Mn(IO3)2
_chemical_formula_sum   'Mn4 I8 O24'
_cell_volume   556.34278189
_cell_formula_units_Z   4
loop_
 _symmetry_equiv_pos_site_id
 _symmetry_equiv_pos_as_xyz
  1  'x, y, z'
loop_
 _atom_site_type_symbol
 _atom_site_label
 _atom_site_symmetry_multiplicity
 _atom_site_fract_x
 _atom_site_fract_y
 _atom_site_fract_z
 _atom_site_occupancy
  Mn  Mn0  1  0.70957400  0.17027800  0.09394000  1
  Mn  Mn1  1  0.20957400  0.32972200  0.90606000  1
  Mn  Mn2  1  0.29042600  0.67027800  0.40606000  1
  Mn  Mn3  1  0.79042600  0.82972200  0.59394000  1
  I  I4  1  0.96491200  0.13703600  0.42336800  1
  I  I5  1  0.25376300  0.21824900  0.20846300  1
  I  I6  1  0.75376300  0.28175100  0.79153700  1
  I  I7  1  0.46491200  0.36296400  0.57663200  1
  I  I8  1  0.03508800  0.63703600  0.07663200  1
  I  I9  1  0.74623700  0.71824900  0.29153700  1
  I  I10  1  0.24623700  0.78175100  0.70846300  1
  I  I11  1  0.53508800  0.86296400  0.92336800  1
  O  O12  1  0.11037800  0.99908200  0.33767700  1
  O  O13  1  0.03636900  0.02079200  0.16121700  1
  O  O14  1  0.52340100  0.02990700  0.20509600  1
  O  O15  1  0.44625000  0.11137500  0.98440100  1
  O  O16  1  0.87157900  0.12525100  0.87749600  1
  O  O17  1  0.72517000  0.17533200  0.54702800  1
  O  O18  1  0.22517000  0.32466800  0.45297200  1
  O  O19  1  0.37157900  0.37474900  0.12250400  1
  O  O20  1  0.94625000  0.38862500  0.01559900  1
  O  O21  1  0.02340100  0.47009300  0.79490400  1
  O  O22  1  0.53636900  0.47920800  0.83878300  1
  O  O23  1  0.61037800  0.50091800  0.66232300  1
  O  O24  1  0.88962200  0.49908200  0.16232300  1
  O  O25  1  0.96363100  0.52079200  0.33878300  1
  O  O26  1  0.47659900  0.52990700  0.29490400  1
  O  O27  1  0.55375000  0.61137500  0.51559900  1
  O  O28  1  0.12842100  0.62525100  0.62250400  1
  O  O29  1  0.27483000  0.67533200  0.95297200  1
  O  O30  1  0.77483000  0.82466800  0.04702800  1
  O  O31  1  0.62842100  0.87474900  0.37749600  1
  O  O32  1  0.05375000  0.88862500  0.48440100  1
  O  O33  1  0.97659900  0.97009300  0.70509600  1
  O  O34  1  0.46363100  0.97920800  0.66121700  1
  O  O35  1  0.38962200  0.00091800  0.83767700  1
