# generated using pymatgen
data_SrScTl2
_symmetry_space_group_name_H-M   'P 1'
_cell_length_a   13.57986717
_cell_length_b   13.57986717
_cell_length_c   13.57986717
_cell_angle_alpha   126.06888486
_cell_angle_beta   117.85776001
_cell_angle_gamma   86.78771210
_symmetry_Int_Tables_number   1
_chemical_formula_structural   SrScTl2
_chemical_formula_sum   'Sr1 Sc1 Tl2'
_cell_volume   1703.49204269
_cell_formula_units_Z   1
loop_
 _symmetry_equiv_pos_site_id
 _symmetry_equiv_pos_as_xyz
  1  'x, y, z'
loop_
 _atom_site_type_symbol
 _atom_site_label
 _atom_site_symmetry_multiplicity
 _atom_site_fract_x
 _atom_site_fract_y
 _atom_site_fract_z
 _atom_site_occupancy
  Sr  Sr0  1  0.00000000  0.50000000  0.50000000  1
  Sc  Sc1  1  0.00000000  0.00000000  0.00000000  1
  Tl  Tl2  1  0.00000000  0.23278200  0.23278200  1
  Tl  Tl3  1  0.00000000  0.76721800  0.76721800  1
