# generated using pymatgen
data_Sr5La2Cl16
_symmetry_space_group_name_H-M   'P 1'
_cell_length_a   9.04014830
_cell_length_b   9.04014830
_cell_length_c   19.16308000
_cell_angle_alpha   90.00000000
_cell_angle_beta   90.00000000
_cell_angle_gamma   112.16196111
_symmetry_Int_Tables_number   1
_chemical_formula_structural   Sr5La2Cl16
_chemical_formula_sum   'Sr10 La4 Cl32'
_cell_volume   1450.38821653
_cell_formula_units_Z   2
loop_
 _symmetry_equiv_pos_site_id
 _symmetry_equiv_pos_as_xyz
  1  'x, y, z'
loop_
 _atom_site_type_symbol
 _atom_site_label
 _atom_site_symmetry_multiplicity
 _atom_site_fract_x
 _atom_site_fract_y
 _atom_site_fract_z
 _atom_site_occupancy
  Sr  Sr0  1  0.00000000  0.50000000  0.13334300  1
  Sr  Sr1  1  0.00000000  0.50000000  0.63334300  1
  Sr  Sr2  1  0.50000000  0.50000000  0.22899800  1
  Sr  Sr3  1  0.50000000  0.50000000  0.77100200  1
  Sr  Sr4  1  0.00000000  0.00000000  0.27100200  1
  Sr  Sr5  1  0.50000000  0.50000000  0.50000000  1
  Sr  Sr6  1  0.00000000  0.00000000  0.72899800  1
  Sr  Sr7  1  0.00000000  0.00000000  0.00000000  1
  Sr  Sr8  1  0.50000000  0.00000000  0.86665700  1
  Sr  Sr9  1  0.50000000  0.00000000  0.36665700  1
  La  La10  1  0.00000000  0.50000000  0.88250100  1
  La  La11  1  0.00000000  0.50000000  0.38250100  1
  La  La12  1  0.50000000  0.00000000  0.11749900  1
  La  La13  1  0.50000000  0.00000000  0.61749900  1
  Cl  Cl14  1  0.96842800  0.30018300  0.77102200  1
  Cl  Cl15  1  0.80018300  0.46842800  0.27102200  1
  Cl  Cl16  1  0.82591700  0.52771300  0.49555500  1
  Cl  Cl17  1  0.02771300  0.32591700  0.99555500  1
  Cl  Cl18  1  0.38927700  0.27928900  0.34685200  1
  Cl  Cl19  1  0.27928900  0.38927700  0.65314800  1
  Cl  Cl20  1  0.88927700  0.77928900  0.15314800  1
  Cl  Cl21  1  0.77928900  0.88927700  0.84685200  1
  Cl  Cl22  1  0.97228700  0.67408300  0.99555500  1
  Cl  Cl23  1  0.17408300  0.47228700  0.49555500  1
  Cl  Cl24  1  0.03157200  0.69981700  0.77102200  1
  Cl  Cl25  1  0.19981700  0.53157200  0.27102200  1
  Cl  Cl26  1  0.63206300  0.33712100  0.11450900  1
  Cl  Cl27  1  0.33712100  0.63206300  0.88549100  1
  Cl  Cl28  1  0.13206300  0.83712100  0.38549100  1
  Cl  Cl29  1  0.83712100  0.13206300  0.61450900  1
  Cl  Cl30  1  0.66287900  0.36793700  0.88549100  1
  Cl  Cl31  1  0.36793700  0.66287900  0.11450900  1
  Cl  Cl32  1  0.86793700  0.16287900  0.38549100  1
  Cl  Cl33  1  0.16287900  0.86793700  0.61450900  1
  Cl  Cl34  1  0.30018300  0.96842800  0.22897800  1
  Cl  Cl35  1  0.46842800  0.80018300  0.72897800  1
  Cl  Cl36  1  0.52771300  0.82591700  0.50444500  1
  Cl  Cl37  1  0.32591700  0.02771300  0.00444500  1
  Cl  Cl38  1  0.22071100  0.11072300  0.84685200  1
  Cl  Cl39  1  0.72071100  0.61072300  0.65314800  1
  Cl  Cl40  1  0.11072300  0.22071100  0.15314800  1
  Cl  Cl41  1  0.61072300  0.72071100  0.34685200  1
  Cl  Cl42  1  0.47228700  0.17408300  0.50444500  1
  Cl  Cl43  1  0.67408300  0.97228700  0.00444500  1
  Cl  Cl44  1  0.69981700  0.03157200  0.22897800  1
  Cl  Cl45  1  0.53157200  0.19981700  0.72897800  1
