# generated using pymatgen
data_Ba3LaI9
_symmetry_space_group_name_H-M   'P 1'
_cell_length_a   8.08942900
_cell_length_b   8.69131700
_cell_length_c   33.89918334
_cell_angle_alpha   87.91646455
_cell_angle_beta   90.00000000
_cell_angle_gamma   90.00000000
_symmetry_Int_Tables_number   1
_chemical_formula_structural   Ba3LaI9
_chemical_formula_sum   'Ba12 La4 I36'
_cell_volume   2381.80103223
_cell_formula_units_Z   4
loop_
 _symmetry_equiv_pos_site_id
 _symmetry_equiv_pos_as_xyz
  1  'x, y, z'
loop_
 _atom_site_type_symbol
 _atom_site_label
 _atom_site_symmetry_multiplicity
 _atom_site_fract_x
 _atom_site_fract_y
 _atom_site_fract_z
 _atom_site_occupancy
  Ba  Ba0  1  0.96980100  0.67889400  0.93300200  1
  Ba  Ba1  1  0.00259500  0.70631800  0.69205900  1
  Ba  Ba2  1  0.03019900  0.67889400  0.43300200  1
  Ba  Ba3  1  0.99740500  0.70631800  0.19205900  1
  Ba  Ba4  1  0.98554900  0.31671700  0.57015500  1
  Ba  Ba5  1  0.98219900  0.28433900  0.80838700  1
  Ba  Ba6  1  0.01445100  0.31671700  0.07015500  1
  Ba  Ba7  1  0.01780100  0.28433900  0.30838700  1
  Ba  Ba8  1  0.52652600  0.21546300  0.69215600  1
  Ba  Ba9  1  0.51747800  0.17848700  0.93074000  1
  Ba  Ba10  1  0.47347400  0.21546300  0.19215600  1
  Ba  Ba11  1  0.48252200  0.17848700  0.43074000  1
  La  La12  1  0.52016600  0.79783700  0.80652000  1
  La  La13  1  0.54615000  0.82147400  0.56718100  1
  La  La14  1  0.47983400  0.79783700  0.30652000  1
  La  La15  1  0.45385000  0.82147400  0.06718100  1
  I  I16  1  0.79706800  0.97832600  0.86849100  1
  I  I17  1  0.81601800  0.98378800  0.75255700  1
  I  I18  1  0.81221800  0.99279400  0.62740700  1
  I  I19  1  0.20293200  0.97832600  0.36849100  1
  I  I20  1  0.18398200  0.98378800  0.25255700  1
  I  I21  1  0.70247500  0.89056200  0.99368200  1
  I  I22  1  0.18778200  0.99279400  0.12740700  1
  I  I23  1  0.33330500  0.84640900  0.89242000  1
  I  I24  1  0.29752500  0.89056200  0.49368200  1
  I  I25  1  0.39927500  0.84146300  0.70767400  1
  I  I26  1  0.66669500  0.84640900  0.39242000  1
  I  I27  1  0.60072500  0.84146300  0.20767400  1
  I  I28  1  0.16229800  0.64603300  0.79598000  1
  I  I29  1  0.21099800  0.65059100  0.59924200  1
  I  I30  1  0.83770200  0.64603300  0.29598000  1
  I  I31  1  0.78900200  0.65059100  0.09924200  1
  I  I32  1  0.74303000  0.58813700  0.51110600  1
  I  I33  1  0.67702200  0.50836600  0.86690000  1
  I  I34  1  0.69052000  0.51447300  0.75217400  1
  I  I35  1  0.69708800  0.52731800  0.62785800  1
  I  I36  1  0.25697000  0.58813700  0.01110600  1
  I  I37  1  0.32297800  0.50836600  0.36690000  1
  I  I38  1  0.30948000  0.51447300  0.25217400  1
  I  I39  1  0.30291200  0.52731800  0.12785800  1
  I  I40  1  0.76213200  0.39791900  0.99024400  1
  I  I41  1  0.23786800  0.39791900  0.49024400  1
  I  I42  1  0.15076000  0.34373400  0.90076700  1
  I  I43  1  0.11144000  0.32215200  0.69872100  1
  I  I44  1  0.84924000  0.34373400  0.40076700  1
  I  I45  1  0.88856000  0.32215200  0.19872100  1
  I  I46  1  0.39280100  0.14765700  0.79750300  1
  I  I47  1  0.35591900  0.12420100  0.59856700  1
  I  I48  1  0.60719900  0.14765700  0.29750300  1
  I  I49  1  0.64408100  0.12420100  0.09856700  1
  I  I50  1  0.75533400  0.06581700  0.51031800  1
  I  I51  1  0.24466600  0.06581700  0.01031800  1
