# generated using pymatgen
data_Sr2LaCl7
_symmetry_space_group_name_H-M   'P 1'
_cell_length_a   15.48724400
_cell_length_b   6.90341700
_cell_length_c   10.42071075
_cell_angle_alpha   89.08639236
_cell_angle_beta   90.00000000
_cell_angle_gamma   90.00000000
_symmetry_Int_Tables_number   1
_chemical_formula_structural   Sr2LaCl7
_chemical_formula_sum   'Sr8 La4 Cl28'
_cell_volume   1113.98764885
_cell_formula_units_Z   4
loop_
 _symmetry_equiv_pos_site_id
 _symmetry_equiv_pos_as_xyz
  1  'x, y, z'
loop_
 _atom_site_type_symbol
 _atom_site_label
 _atom_site_symmetry_multiplicity
 _atom_site_fract_x
 _atom_site_fract_y
 _atom_site_fract_z
 _atom_site_occupancy
  Sr  Sr0  1  0.43736800  0.72393400  0.67566900  1
  Sr  Sr1  1  0.77875600  0.72177300  0.55266400  1
  Sr  Sr2  1  0.06263200  0.72393400  0.17566900  1
  Sr  Sr3  1  0.72124400  0.72177300  0.05266400  1
  Sr  Sr4  1  0.27875600  0.27822700  0.94733600  1
  Sr  Sr5  1  0.93736800  0.27606600  0.82433100  1
  Sr  Sr6  1  0.22124400  0.27822700  0.44733600  1
  Sr  Sr7  1  0.56263200  0.27606600  0.32433100  1
  La  La8  1  0.12687100  0.78174500  0.71724100  1
  La  La9  1  0.37312900  0.78174500  0.21724100  1
  La  La10  1  0.62687100  0.21825500  0.78275900  1
  La  La11  1  0.87312900  0.21825500  0.28275900  1
  Cl  Cl12  1  0.78076400  0.99362500  0.79180200  1
  Cl  Cl13  1  0.60229400  0.99420500  0.56100300  1
  Cl  Cl14  1  0.71923600  0.99362500  0.29180200  1
  Cl  Cl15  1  0.89770600  0.99420500  0.06100300  1
  Cl  Cl16  1  0.57180600  0.84433900  0.87682100  1
  Cl  Cl17  1  0.92819400  0.84433900  0.37682100  1
  Cl  Cl18  1  0.35518100  0.70257700  0.95402500  1
  Cl  Cl19  1  0.14481900  0.70257700  0.45402500  1
  Cl  Cl20  1  0.95235700  0.68642300  0.70892300  1
  Cl  Cl21  1  0.54764300  0.68642300  0.20892300  1
  Cl  Cl22  1  0.10317300  0.49981300  0.92578900  1
  Cl  Cl23  1  0.26095000  0.49723400  0.69146500  1
  Cl  Cl24  1  0.39682700  0.49981300  0.42578900  1
  Cl  Cl25  1  0.23905000  0.49723400  0.19146500  1
  Cl  Cl26  1  0.76095000  0.50276600  0.80853500  1
  Cl  Cl27  1  0.60317300  0.50018700  0.57421100  1
  Cl  Cl28  1  0.73905000  0.50276600  0.30853500  1
  Cl  Cl29  1  0.89682700  0.50018700  0.07421100  1
  Cl  Cl30  1  0.45235700  0.31357700  0.79107700  1
  Cl  Cl31  1  0.04764300  0.31357700  0.29107700  1
  Cl  Cl32  1  0.85518100  0.29742300  0.54597500  1
  Cl  Cl33  1  0.64481900  0.29742300  0.04597500  1
  Cl  Cl34  1  0.07180600  0.15566100  0.62317900  1
  Cl  Cl35  1  0.42819400  0.15566100  0.12317900  1
  Cl  Cl36  1  0.10229400  0.00579500  0.93899700  1
  Cl  Cl37  1  0.28076400  0.00637500  0.70819800  1
  Cl  Cl38  1  0.39770600  0.00579500  0.43899700  1
  Cl  Cl39  1  0.21923600  0.00637500  0.20819800  1
