# generated using pymatgen
data_CaLaI5
_symmetry_space_group_name_H-M   'P 1'
_cell_length_a   7.78363345
_cell_length_b   7.78363345
_cell_length_c   18.30986000
_cell_angle_alpha   90.00000000
_cell_angle_beta   90.00000000
_cell_angle_gamma   146.58405985
_symmetry_Int_Tables_number   1
_chemical_formula_structural   CaLaI5
_chemical_formula_sum   'Ca2 La2 I10'
_cell_volume   610.90698067
_cell_formula_units_Z   2
loop_
 _symmetry_equiv_pos_site_id
 _symmetry_equiv_pos_as_xyz
  1  'x, y, z'
loop_
 _atom_site_type_symbol
 _atom_site_label
 _atom_site_symmetry_multiplicity
 _atom_site_fract_x
 _atom_site_fract_y
 _atom_site_fract_z
 _atom_site_occupancy
  Ca  Ca0  1  0.00000000  0.00000000  0.00000000  1
  Ca  Ca1  1  0.00000000  0.00000000  0.50000000  1
  La  La2  1  0.51481800  0.48518200  0.25000000  1
  La  La3  1  0.48518200  0.51481800  0.75000000  1
  I  I4  1  0.89909300  0.10090700  0.15011500  1
  I  I5  1  0.89909300  0.10090700  0.34988500  1
  I  I6  1  0.61364500  0.38635500  0.07457200  1
  I  I7  1  0.83557000  0.16442900  0.75000000  1
  I  I8  1  0.61364500  0.38635500  0.42542800  1
  I  I9  1  0.38635500  0.61364500  0.57457200  1
  I  I10  1  0.38635500  0.61364500  0.92542800  1
  I  I11  1  0.16442900  0.83557000  0.25000000  1
  I  I12  1  0.10090700  0.89909300  0.65011500  1
  I  I13  1  0.10090700  0.89909300  0.84988500  1
