# generated using pymatgen
data_Na2CoCSO7
_symmetry_space_group_name_H-M   'P 1'
_cell_length_a   8.56440989
_cell_length_b   8.56766760
_cell_length_c   9.06687242
_cell_angle_alpha   88.87044323
_cell_angle_beta   88.87882171
_cell_angle_gamma   104.05261616
_symmetry_Int_Tables_number   1
_chemical_formula_structural   Na2CoCSO7
_chemical_formula_sum   'Na8 Co4 C4 S4 O28'
_cell_volume   645.06085368
_cell_formula_units_Z   4
loop_
 _symmetry_equiv_pos_site_id
 _symmetry_equiv_pos_as_xyz
  1  'x, y, z'
loop_
 _atom_site_type_symbol
 _atom_site_label
 _atom_site_symmetry_multiplicity
 _atom_site_fract_x
 _atom_site_fract_y
 _atom_site_fract_z
 _atom_site_occupancy
  Na  Na0  1  0.36689400  0.86475400  0.21383600  1
  Na  Na1  1  0.86687200  0.36420600  0.21272700  1
  Na  Na2  1  0.61490700  0.61817100  0.21315800  1
  Na  Na3  1  0.11469000  0.11760000  0.21367900  1
  Na  Na4  1  0.63257500  0.13427800  0.78524200  1
  Na  Na5  1  0.13190400  0.63589800  0.78759400  1
  Na  Na6  1  0.38600200  0.38265100  0.78770900  1
  Na  Na7  1  0.88462800  0.88315500  0.78540300  1
  Co  Co8  1  0.26249800  0.51234400  0.35508500  1
  Co  Co9  1  0.73882600  0.48628700  0.64439200  1
  Co  Co10  1  0.76272300  0.01162800  0.35550300  1
  Co  Co11  1  0.23746100  0.98812100  0.64479900  1
  C  C12  1  0.73772600  0.98808900  0.08346000  1
  C  C13  1  0.23785400  0.48801900  0.08321700  1
  C  C14  1  0.26190100  0.01199100  0.91677400  1
  C  C15  1  0.76171400  0.51193900  0.91654100  1
  S  S16  1  0.48495500  0.23568300  0.42142300  1
  S  S17  1  0.98549800  0.73477000  0.42097100  1
  S  S18  1  0.51509100  0.76479200  0.57906800  1
  S  S19  1  0.01505200  0.26491700  0.57867100  1
  O  O20  1  0.27651800  0.02648800  0.05454600  1
  O  O21  1  0.77641600  0.52713600  0.05426100  1
  O  O22  1  0.72311200  0.97344100  0.94574500  1
  O  O23  1  0.22317500  0.47341300  0.94542500  1
  O  O24  1  0.85001500  0.09848800  0.14442500  1
  O  O25  1  0.34944300  0.59915900  0.14402100  1
  O  O26  1  0.14985100  0.90134000  0.85582200  1
  O  O27  1  0.65261800  0.39825900  0.85599600  1
  O  O28  1  0.64047900  0.89267100  0.18048000  1
  O  O29  1  0.14131300  0.39185700  0.18014100  1
  O  O30  1  0.35888400  0.10779300  0.81989400  1
  O  O31  1  0.85595500  0.61011500  0.81937600  1
  O  O32  1  0.45629500  0.70648400  0.43069400  1
  O  O33  1  0.95633700  0.20594400  0.43052600  1
  O  O34  1  0.54327100  0.29438400  0.56983400  1
  O  O35  1  0.04417900  0.79379000  0.56913100  1
  O  O36  1  0.34198800  0.09333700  0.44181100  1
  O  O37  1  0.84368000  0.59141500  0.44166200  1
  O  O38  1  0.65818500  0.90725400  0.55861200  1
  O  O39  1  0.15734100  0.40774900  0.55815300  1
  O  O40  1  0.43641800  0.36536400  0.33595900  1
  O  O41  1  0.93570500  0.86402100  0.33592900  1
  O  O42  1  0.61481800  0.18644100  0.33696700  1
  O  O43  1  0.11548700  0.68660600  0.33574400  1
  O  O44  1  0.38560400  0.81426100  0.66408100  1
  O  O45  1  0.88501300  0.31312500  0.66391000  1
  O  O46  1  0.56383600  0.63490100  0.66373800  1
  O  O47  1  0.06429300  0.13547900  0.66386700  1
