# generated using pymatgen
data_AlGaIr2
_symmetry_space_group_name_H-M   'P 1'
_cell_length_a   10.09171650
_cell_length_b   10.09171650
_cell_length_c   10.09171650
_cell_angle_alpha   123.45624422
_cell_angle_beta   118.87216928
_cell_angle_gamma   88.04256269
_symmetry_Int_Tables_number   1
_chemical_formula_structural   AlGaIr2
_chemical_formula_sum   'Al1 Ga1 Ir2'
_cell_volume   712.01100090
_cell_formula_units_Z   1
loop_
 _symmetry_equiv_pos_site_id
 _symmetry_equiv_pos_as_xyz
  1  'x, y, z'
loop_
 _atom_site_type_symbol
 _atom_site_label
 _atom_site_symmetry_multiplicity
 _atom_site_fract_x
 _atom_site_fract_y
 _atom_site_fract_z
 _atom_site_occupancy
  Al  Al0  1  0.00000000  0.00000000  0.00000000  1
  Ga  Ga1  1  0.00000000  0.50000000  0.50000000  1
  Ir  Ir2  1  0.00000000  0.24726500  0.24726500  1
  Ir  Ir3  1  0.00000000  0.75273500  0.75273500  1
