# generated using pymatgen
data_Ba5La2Cl16
_symmetry_space_group_name_H-M   'P 1'
_cell_length_a   9.56317265
_cell_length_b   9.56317265
_cell_length_c   19.33272000
_cell_angle_alpha   90.00000000
_cell_angle_beta   90.00000000
_cell_angle_gamma   115.46742040
_symmetry_Int_Tables_number   1
_chemical_formula_structural   Ba5La2Cl16
_chemical_formula_sum   'Ba10 La4 Cl32'
_cell_volume   1596.25733303
_cell_formula_units_Z   2
loop_
 _symmetry_equiv_pos_site_id
 _symmetry_equiv_pos_as_xyz
  1  'x, y, z'
loop_
 _atom_site_type_symbol
 _atom_site_label
 _atom_site_symmetry_multiplicity
 _atom_site_fract_x
 _atom_site_fract_y
 _atom_site_fract_z
 _atom_site_occupancy
  Ba  Ba0  1  0.00000000  0.50000000  0.13340700  1
  Ba  Ba1  1  0.00000000  0.50000000  0.63340700  1
  Ba  Ba2  1  0.50000000  0.50000000  0.22354900  1
  Ba  Ba3  1  0.50000000  0.50000000  0.77645100  1
  Ba  Ba4  1  0.00000000  0.00000000  0.27645100  1
  Ba  Ba5  1  0.00000000  0.00000000  0.00000000  1
  Ba  Ba6  1  0.50000000  0.50000000  0.50000000  1
  Ba  Ba7  1  0.00000000  0.00000000  0.72354900  1
  Ba  Ba8  1  0.50000000  0.00000000  0.86659300  1
  Ba  Ba9  1  0.50000000  0.00000000  0.36659300  1
  La  La10  1  0.00000000  0.50000000  0.88208300  1
  La  La11  1  0.00000000  0.50000000  0.38208300  1
  La  La12  1  0.50000000  0.00000000  0.11791700  1
  La  La13  1  0.50000000  0.00000000  0.61791700  1
  Cl  Cl14  1  0.97160600  0.30107800  0.77429400  1
  Cl  Cl15  1  0.80107800  0.47160600  0.27429400  1
  Cl  Cl16  1  0.82764400  0.51888700  0.49258300  1
  Cl  Cl17  1  0.01888700  0.32764400  0.99258300  1
  Cl  Cl18  1  0.37772400  0.27415400  0.34948600  1
  Cl  Cl19  1  0.27415400  0.37772400  0.65051400  1
  Cl  Cl20  1  0.77415400  0.87772400  0.84948600  1
  Cl  Cl21  1  0.87772400  0.77415400  0.15051400  1
  Cl  Cl22  1  0.98111300  0.67235600  0.99258300  1
  Cl  Cl23  1  0.17235600  0.48111300  0.49258300  1
  Cl  Cl24  1  0.02839400  0.69892200  0.77429400  1
  Cl  Cl25  1  0.19892200  0.52839400  0.27429400  1
  Cl  Cl26  1  0.62914200  0.32588300  0.11496300  1
  Cl  Cl27  1  0.12914200  0.82588300  0.38503700  1
  Cl  Cl28  1  0.32588300  0.62914200  0.88503700  1
  Cl  Cl29  1  0.82588300  0.12914200  0.61496300  1
  Cl  Cl30  1  0.67411700  0.37085800  0.88503700  1
  Cl  Cl31  1  0.37085800  0.67411700  0.11496300  1
  Cl  Cl32  1  0.87085800  0.17411700  0.38503700  1
  Cl  Cl33  1  0.17411700  0.87085800  0.61496300  1
  Cl  Cl34  1  0.47160600  0.80107800  0.72570600  1
  Cl  Cl35  1  0.30107800  0.97160600  0.22570600  1
  Cl  Cl36  1  0.51888700  0.82764400  0.50741700  1
  Cl  Cl37  1  0.32764400  0.01888700  0.00741700  1
  Cl  Cl38  1  0.72584600  0.62227600  0.65051400  1
  Cl  Cl39  1  0.62227600  0.72584600  0.34948600  1
  Cl  Cl40  1  0.12227600  0.22584600  0.15051400  1
  Cl  Cl41  1  0.22584600  0.12227600  0.84948600  1
  Cl  Cl42  1  0.48111300  0.17235600  0.50741700  1
  Cl  Cl43  1  0.67235600  0.98111300  0.00741700  1
  Cl  Cl44  1  0.69892200  0.02839400  0.22570600  1
  Cl  Cl45  1  0.52839400  0.19892200  0.72570600  1
