# generated using pymatgen
data_Cr2(WO4)3
_symmetry_space_group_name_H-M   'P 1'
_cell_length_a   9.43805800
_cell_length_b   9.51460900
_cell_length_c   13.09150100
_cell_angle_alpha   90.00000000
_cell_angle_beta   90.00000000
_cell_angle_gamma   90.00000000
_symmetry_Int_Tables_number   1
_chemical_formula_structural   Cr2(WO4)3
_chemical_formula_sum   'Cr8 W12 O48'
_cell_volume   1175.60934845
_cell_formula_units_Z   4
loop_
 _symmetry_equiv_pos_site_id
 _symmetry_equiv_pos_as_xyz
  1  'x, y, z'
loop_
 _atom_site_type_symbol
 _atom_site_label
 _atom_site_symmetry_multiplicity
 _atom_site_fract_x
 _atom_site_fract_y
 _atom_site_fract_z
 _atom_site_occupancy
  Cr  Cr0  1  0.24972300  0.03722600  0.62062800  1
  Cr  Cr1  1  0.74972300  0.03722600  0.87937200  1
  Cr  Cr2  1  0.74972300  0.46277400  0.12062800  1
  Cr  Cr3  1  0.24972300  0.46277400  0.37937200  1
  Cr  Cr4  1  0.25027700  0.53722600  0.87937200  1
  Cr  Cr5  1  0.75027700  0.53722600  0.62062800  1
  Cr  Cr6  1  0.25027700  0.96277400  0.12062800  1
  Cr  Cr7  1  0.75027700  0.96277400  0.37937200  1
  W  W8  1  0.39694400  0.11391000  0.35534700  1
  W  W9  1  0.89694400  0.11391000  0.14465300  1
  W  W10  1  0.46974400  0.25000000  0.00000000  1
  W  W11  1  0.96974400  0.25000000  0.50000000  1
  W  W12  1  0.39694400  0.38609000  0.64465300  1
  W  W13  1  0.89694400  0.38609000  0.85534700  1
  W  W14  1  0.10305600  0.61391000  0.14465300  1
  W  W15  1  0.60305600  0.61391000  0.35534700  1
  W  W16  1  0.53025600  0.75000000  0.00000000  1
  W  W17  1  0.03025600  0.75000000  0.50000000  1
  W  W18  1  0.10305600  0.88609000  0.85534700  1
  W  W19  1  0.60305600  0.88609000  0.64465300  1
  O  O20  1  0.18114400  0.00203900  0.76153700  1
  O  O21  1  0.68114400  0.00203900  0.73846300  1
  O  O22  1  0.82521700  0.07085100  0.02048400  1
  O  O23  1  0.32521700  0.07085100  0.47951600  1
  O  O24  1  0.08745900  0.09166400  0.14624200  1
  O  O25  1  0.58745900  0.09166400  0.35375800  1
  O  O26  1  0.36091200  0.12596700  0.06896600  1
  O  O27  1  0.86091200  0.12596700  0.43103400  1
  O  O28  1  0.08191000  0.16090400  0.59159100  1
  O  O29  1  0.58191000  0.16090400  0.90840900  1
  O  O30  1  0.85914700  0.20329600  0.82771300  1
  O  O31  1  0.35914700  0.20329600  0.67228700  1
  O  O32  1  0.85914700  0.29670400  0.17228700  1
  O  O33  1  0.35914700  0.29670400  0.32771300  1
  O  O34  1  0.58191000  0.33909600  0.09159100  1
  O  O35  1  0.08191000  0.33909600  0.40840900  1
  O  O36  1  0.86091200  0.37403300  0.56896600  1
  O  O37  1  0.36091200  0.37403300  0.93103400  1
  O  O38  1  0.58745900  0.40833600  0.64624200  1
  O  O39  1  0.08745900  0.40833600  0.85375800  1
  O  O40  1  0.32521700  0.42914900  0.52048400  1
  O  O41  1  0.82521700  0.42914900  0.97951600  1
  O  O42  1  0.68114400  0.49796100  0.26153700  1
  O  O43  1  0.18114400  0.49796100  0.23846300  1
  O  O44  1  0.31885600  0.50203900  0.73846300  1
  O  O45  1  0.81885600  0.50203900  0.76153700  1
  O  O46  1  0.17478300  0.57085100  0.02048400  1
  O  O47  1  0.67478300  0.57085100  0.47951600  1
  O  O48  1  0.41254100  0.59166400  0.35375800  1
  O  O49  1  0.91254100  0.59166400  0.14624200  1
  O  O50  1  0.63908800  0.62596700  0.06896600  1
  O  O51  1  0.13908800  0.62596700  0.43103400  1
  O  O52  1  0.41809000  0.66090400  0.90840900  1
  O  O53  1  0.91809000  0.66090400  0.59159100  1
  O  O54  1  0.64085300  0.70329600  0.67228700  1
  O  O55  1  0.14085300  0.70329600  0.82771300  1
  O  O56  1  0.14085300  0.79670400  0.17228700  1
  O  O57  1  0.64085300  0.79670400  0.32771300  1
  O  O58  1  0.91809000  0.83909600  0.40840900  1
  O  O59  1  0.41809000  0.83909600  0.09159100  1
  O  O60  1  0.63908800  0.87403300  0.93103400  1
  O  O61  1  0.13908800  0.87403300  0.56896600  1
  O  O62  1  0.91254100  0.90833600  0.85375800  1
  O  O63  1  0.41254100  0.90833600  0.64624200  1
  O  O64  1  0.17478300  0.92914900  0.97951600  1
  O  O65  1  0.67478300  0.92914900  0.52048400  1
  O  O66  1  0.81885600  0.99796100  0.23846300  1
  O  O67  1  0.31885600  0.99796100  0.26153700  1
