# generated using pymatgen
data_Na3Ni(BO3)2
_symmetry_space_group_name_H-M   'P 1'
_cell_length_a   9.56020000
_cell_length_b   5.61066700
_cell_length_c   11.37207460
_cell_angle_alpha   65.44411829
_cell_angle_beta   90.00000000
_cell_angle_gamma   90.00000000
_symmetry_Int_Tables_number   1
_chemical_formula_structural   Na3Ni(BO3)2
_chemical_formula_sum   'Na12 Ni4 B8 O24'
_cell_volume   554.81832340
_cell_formula_units_Z   4
loop_
 _symmetry_equiv_pos_site_id
 _symmetry_equiv_pos_as_xyz
  1  'x, y, z'
loop_
 _atom_site_type_symbol
 _atom_site_label
 _atom_site_symmetry_multiplicity
 _atom_site_fract_x
 _atom_site_fract_y
 _atom_site_fract_z
 _atom_site_occupancy
  Na  Na0  1  0.97014200  0.48912400  0.35628900  1
  Na  Na1  1  0.65989800  0.46195100  0.37468600  1
  Na  Na2  1  0.98868400  0.93066400  0.88148100  1
  Na  Na3  1  0.15989800  0.53804900  0.12531400  1
  Na  Na4  1  0.47014200  0.51087600  0.14371100  1
  Na  Na5  1  0.48868400  0.06933600  0.61851900  1
  Na  Na6  1  0.51131600  0.93066400  0.38148100  1
  Na  Na7  1  0.52985800  0.48912400  0.85628900  1
  Na  Na8  1  0.84010200  0.46195100  0.87468600  1
  Na  Na9  1  0.01131600  0.06933600  0.11851900  1
  Na  Na10  1  0.34010200  0.53804900  0.62531400  1
  Na  Na11  1  0.02985800  0.51087600  0.64371100  1
  Ni  Ni12  1  0.31078100  0.98539200  0.87345000  1
  Ni  Ni13  1  0.81078100  0.01460800  0.62655000  1
  Ni  Ni14  1  0.18921900  0.98539200  0.37345000  1
  Ni  Ni15  1  0.68921900  0.01460800  0.12655000  1
  B  B16  1  0.31049500  0.44531000  0.38160800  1
  B  B17  1  0.64857200  0.97679900  0.86753700  1
  B  B18  1  0.81049500  0.55469000  0.11839200  1
  B  B19  1  0.14857200  0.02320100  0.63246300  1
  B  B20  1  0.85142800  0.97679900  0.36753700  1
  B  B21  1  0.18950500  0.44531000  0.88160800  1
  B  B22  1  0.35142800  0.02320100  0.13246300  1
  B  B23  1  0.68950500  0.55469000  0.61839200  1
  O  O24  1  0.32159200  0.86642100  0.06787100  1
  O  O25  1  0.69461200  0.33389500  0.59261000  1
  O  O26  1  0.93528400  0.68247600  0.11165600  1
  O  O27  1  0.68663300  0.64134900  0.15254600  1
  O  O28  1  0.26314500  0.10990400  0.68109000  1
  O  O29  1  0.01468200  0.09380700  0.65164300  1
  O  O30  1  0.18663300  0.35865100  0.34745400  1
  O  O31  1  0.51468200  0.90619300  0.84835700  1
  O  O32  1  0.43528400  0.31752400  0.38834400  1
  O  O33  1  0.76314500  0.89009600  0.81891000  1
  O  O34  1  0.82159200  0.13357900  0.43212900  1
  O  O35  1  0.19461200  0.66610500  0.90739000  1
  O  O36  1  0.80538800  0.33389500  0.09261000  1
  O  O37  1  0.17840800  0.86642100  0.56787100  1
  O  O38  1  0.23685500  0.10990400  0.18109000  1
  O  O39  1  0.56471600  0.68247600  0.61165600  1
  O  O40  1  0.48531800  0.09380700  0.15164300  1
  O  O41  1  0.81336700  0.64134900  0.65254600  1
  O  O42  1  0.98531800  0.90619300  0.34835700  1
  O  O43  1  0.73685500  0.89009600  0.31891000  1
  O  O44  1  0.31336700  0.35865100  0.84745400  1
  O  O45  1  0.06471600  0.31752400  0.88834400  1
  O  O46  1  0.30538800  0.66610500  0.40739000  1
  O  O47  1  0.67840800  0.13357900  0.93212900  1
