# generated using pymatgen
data_Mn5Ni(PO4)6
_symmetry_space_group_name_H-M   'P 1'
_cell_length_a   8.58513904
_cell_length_b   8.58513904
_cell_length_c   8.58513926
_cell_angle_alpha   59.83477390
_cell_angle_beta   59.83477390
_cell_angle_gamma   59.83477647
_symmetry_Int_Tables_number   1
_chemical_formula_structural   Mn5Ni(PO4)6
_chemical_formula_sum   'Mn5 Ni1 P6 O24'
_cell_volume   445.75412550
_cell_formula_units_Z   1
loop_
 _symmetry_equiv_pos_site_id
 _symmetry_equiv_pos_as_xyz
  1  'x, y, z'
loop_
 _atom_site_type_symbol
 _atom_site_label
 _atom_site_symmetry_multiplicity
 _atom_site_fract_x
 _atom_site_fract_y
 _atom_site_fract_z
 _atom_site_occupancy
  Mn  Mn0  1  0.00350700  0.00350700  0.00350700  1
  Mn  Mn1  1  0.64313400  0.64313400  0.64313400  1
  Mn  Mn2  1  0.50075500  0.50075500  0.50075500  1
  Mn  Mn3  1  0.85688900  0.85688900  0.85688900  1
  Mn  Mn4  1  0.35629100  0.35629100  0.35629100  1
  Ni  Ni5  1  0.14286700  0.14286700  0.14286700  1
  P  P6  1  0.96015000  0.24905000  0.54053700  1
  P  P7  1  0.54053700  0.96015000  0.24905000  1
  P  P8  1  0.24905000  0.54053700  0.96015000  1
  P  P9  1  0.74850700  0.46048900  0.03709700  1
  P  P10  1  0.46048900  0.03709700  0.74850700  1
  P  P11  1  0.03709700  0.74850700  0.46048900  1
  O  O12  1  0.51128100  0.12213400  0.30259300  1
  O  O13  1  0.30259300  0.51128100  0.12213400  1
  O  O14  1  0.12213400  0.30259300  0.51128100  1
  O  O15  1  0.94269600  0.08400500  0.74137600  1
  O  O16  1  0.98360600  0.19628600  0.38696700  1
  O  O17  1  0.76243100  0.41924600  0.56242000  1
  O  O18  1  0.74137600  0.94269600  0.08400500  1
  O  O19  1  0.56242000  0.76243100  0.41924600  1
  O  O20  1  0.80269300  0.62108500  0.00890900  1
  O  O21  1  0.41924600  0.56242000  0.76243100  1
  O  O22  1  0.90802300  0.26554900  0.05477000  1
  O  O23  1  0.62108500  0.00890900  0.80269300  1
  O  O24  1  0.38696700  0.98360600  0.19628600  1
  O  O25  1  0.08400500  0.74137600  0.94269600  1
  O  O26  1  0.57714300  0.44950200  0.23382600  1
  O  O27  1  0.19628600  0.38696700  0.98360600  1
  O  O28  1  0.44950200  0.23382600  0.57714300  1
  O  O29  1  0.26554900  0.05477000  0.90802300  1
  O  O30  1  0.23382600  0.57714300  0.44950200  1
  O  O31  1  0.00890900  0.80269300  0.62108500  1
  O  O32  1  0.05477000  0.90802300  0.26554900  1
  O  O33  1  0.87562200  0.68971600  0.49884600  1
  O  O34  1  0.68971600  0.49884600  0.87562200  1
  O  O35  1  0.49884600  0.87562200  0.68971600  1
