# generated using pymatgen
data_NaVCSO7
_symmetry_space_group_name_H-M   'P 1'
_cell_length_a   5.30768967
_cell_length_b   9.78934925
_cell_length_c   6.46004861
_cell_angle_alpha   89.95814702
_cell_angle_beta   90.02305378
_cell_angle_gamma   86.65135961
_symmetry_Int_Tables_number   1
_chemical_formula_structural   NaVCSO7
_chemical_formula_sum   'Na2 V2 C2 S2 O14'
_cell_volume   335.08332707
_cell_formula_units_Z   2
loop_
 _symmetry_equiv_pos_site_id
 _symmetry_equiv_pos_as_xyz
  1  'x, y, z'
loop_
 _atom_site_type_symbol
 _atom_site_label
 _atom_site_symmetry_multiplicity
 _atom_site_fract_x
 _atom_site_fract_y
 _atom_site_fract_z
 _atom_site_occupancy
  Na  Na0  1  0.21080100  0.15542500  0.49071600  1
  Na  Na1  1  0.78923700  0.84439200  0.99026900  1
  V  V2  1  0.22864800  0.65073400  0.25747800  1
  V  V3  1  0.77133600  0.34932200  0.75820400  1
  C  C4  1  0.69391200  0.10665500  0.74089300  1
  C  C5  1  0.30588200  0.89346500  0.24055600  1
  S  S6  1  0.74066500  0.42995600  0.25649300  1
  S  S7  1  0.25948100  0.56999400  0.75630400  1
  O  O8  1  0.36299500  0.01419200  0.24107500  1
  O  O9  1  0.63683700  0.98587500  0.74078400  1
  O  O10  1  0.92319100  0.15164200  0.75652100  1
  O  O11  1  0.07655800  0.84855400  0.25570100  1
  O  O12  1  0.52048900  0.21354400  0.72485800  1
  O  O13  1  0.47913600  0.78654600  0.22415600  1
  O  O14  1  0.79193800  0.34187600  0.07202800  1
  O  O15  1  0.20814100  0.65789000  0.57157400  1
  O  O16  1  0.82023300  0.34297000  0.43788800  1
  O  O17  1  0.18006800  0.65700400  0.93768800  1
  O  O18  1  0.11316500  0.44584000  0.75033500  1
  O  O19  1  0.88706400  0.55410100  0.24997900  1
  O  O20  1  0.46688400  0.46905600  0.27104100  1
  O  O21  1  0.53333600  0.53096800  0.77116000  1
