# generated using pymatgen
data_VCrO5
_symmetry_space_group_name_H-M   'P 1'
_cell_length_a   6.68778700
_cell_length_b   7.45701500
_cell_length_c   7.82605700
_cell_angle_alpha   90.00000000
_cell_angle_beta   90.00000000
_cell_angle_gamma   90.00000000
_symmetry_Int_Tables_number   1
_chemical_formula_structural   VCrO5
_chemical_formula_sum   'V4 Cr4 O20'
_cell_volume   390.29272498
_cell_formula_units_Z   4
loop_
 _symmetry_equiv_pos_site_id
 _symmetry_equiv_pos_as_xyz
  1  'x, y, z'
loop_
 _atom_site_type_symbol
 _atom_site_label
 _atom_site_symmetry_multiplicity
 _atom_site_fract_x
 _atom_site_fract_y
 _atom_site_fract_z
 _atom_site_occupancy
  V  V0  1  0.25000000  0.15637000  0.73811200  1
  V  V1  1  0.75000000  0.34363000  0.23811200  1
  V  V2  1  0.25000000  0.65637000  0.76188800  1
  V  V3  1  0.75000000  0.84363000  0.26188800  1
  Cr  Cr4  1  0.75000000  0.12232600  0.62493600  1
  Cr  Cr5  1  0.25000000  0.37767400  0.12493600  1
  Cr  Cr6  1  0.75000000  0.62232600  0.87506400  1
  Cr  Cr7  1  0.25000000  0.87767400  0.37506400  1
  O  O8  1  0.25000000  0.05677000  0.50168900  1
  O  O9  1  0.75000000  0.12369000  0.19292900  1
  O  O10  1  0.54621000  0.12308700  0.74917000  1
  O  O11  1  0.95379000  0.12308700  0.74917000  1
  O  O12  1  0.25000000  0.20445300  0.99374600  1
  O  O13  1  0.75000000  0.29554700  0.49374600  1
  O  O14  1  0.04621000  0.37691300  0.24917000  1
  O  O15  1  0.45379000  0.37691300  0.24917000  1
  O  O16  1  0.25000000  0.37631000  0.69292900  1
  O  O17  1  0.75000000  0.44323000  0.00168900  1
  O  O18  1  0.25000000  0.55677000  0.99831100  1
  O  O19  1  0.75000000  0.62369000  0.30707100  1
  O  O20  1  0.54621000  0.62308700  0.75083000  1
  O  O21  1  0.95379000  0.62308700  0.75083000  1
  O  O22  1  0.25000000  0.70445300  0.50625400  1
  O  O23  1  0.75000000  0.79554700  0.00625400  1
  O  O24  1  0.04621000  0.87691300  0.25083000  1
  O  O25  1  0.45379000  0.87691300  0.25083000  1
  O  O26  1  0.25000000  0.87631000  0.80707100  1
  O  O27  1  0.75000000  0.94323000  0.49831100  1
