# generated using pymatgen
data_Y2W2O9
_symmetry_space_group_name_H-M   'P 1'
_cell_length_a   9.80549098
_cell_length_b   9.80549098
_cell_length_c   7.21316800
_cell_angle_alpha   90.00000000
_cell_angle_beta   90.00000000
_cell_angle_gamma   106.03120587
_symmetry_Int_Tables_number   1
_chemical_formula_structural   Y2W2O9
_chemical_formula_sum   'Y8 W8 O36'
_cell_volume   666.55881765
_cell_formula_units_Z   4
loop_
 _symmetry_equiv_pos_site_id
 _symmetry_equiv_pos_as_xyz
  1  'x, y, z'
loop_
 _atom_site_type_symbol
 _atom_site_label
 _atom_site_symmetry_multiplicity
 _atom_site_fract_x
 _atom_site_fract_y
 _atom_site_fract_z
 _atom_site_occupancy
  Y  Y0  1  0.11980700  0.40896500  0.49774700  1
  Y  Y1  1  0.40896500  0.11980700  0.50225300  1
  Y  Y2  1  0.77129300  0.22870700  0.25000000  1
  Y  Y3  1  0.77241400  0.22758600  0.75000000  1
  Y  Y4  1  0.22758600  0.77241400  0.25000000  1
  Y  Y5  1  0.22870700  0.77129300  0.75000000  1
  Y  Y6  1  0.59103500  0.88019300  0.00225300  1
  Y  Y7  1  0.88019300  0.59103500  0.99774700  1
  W  W8  1  0.95310700  0.95310700  0.00000000  1
  W  W9  1  0.14716300  0.39286200  0.99658200  1
  W  W10  1  0.39286200  0.14716300  0.00341800  1
  W  W11  1  0.49912200  0.50087800  0.25000000  1
  W  W12  1  0.50087800  0.49912200  0.75000000  1
  W  W13  1  0.60713800  0.85283700  0.50341800  1
  W  W14  1  0.85283700  0.60713800  0.49658200  1
  W  W15  1  0.04689300  0.04689300  0.50000000  1
  O  O16  1  0.32818500  0.02892600  0.20626700  1
  O  O17  1  0.02892600  0.32818500  0.79373300  1
  O  O18  1  0.20181600  0.20181600  0.50000000  1
  O  O19  1  0.33139700  0.03091500  0.79860000  1
  O  O20  1  0.03091500  0.33139700  0.20140000  1
  O  O21  1  0.22342800  0.22342800  0.00000000  1
  O  O22  1  0.11219500  0.57692900  0.99546400  1
  O  O23  1  0.57692900  0.11219500  0.00453600  1
  O  O24  1  0.30334100  0.47630900  0.18710800  1
  O  O25  1  0.47630900  0.30334100  0.81289200  1
  O  O26  1  0.30266500  0.47451800  0.80737300  1
  O  O27  1  0.47451800  0.30266500  0.19262700  1
  O  O28  1  0.63042700  0.20901200  0.50183800  1
  O  O29  1  0.20901200  0.63042700  0.49816200  1
  O  O30  1  0.44155200  0.44155200  0.50000000  1
  O  O31  1  0.08852100  0.84731700  0.99442500  1
  O  O32  1  0.84731700  0.08852100  0.00557500  1
  O  O33  1  0.99699500  0.00300500  0.75000000  1
  O  O34  1  0.00300500  0.99699500  0.25000000  1
  O  O35  1  0.15268300  0.91147900  0.50557500  1
  O  O36  1  0.91147900  0.15268300  0.49442500  1
  O  O37  1  0.55844800  0.55844800  0.00000000  1
  O  O38  1  0.36957300  0.79098800  0.00183800  1
  O  O39  1  0.79098800  0.36957300  0.99816200  1
  O  O40  1  0.52548200  0.69733500  0.69262700  1
  O  O41  1  0.69733500  0.52548200  0.30737300  1
  O  O42  1  0.52369100  0.69665900  0.31289200  1
  O  O43  1  0.69665900  0.52369100  0.68710800  1
  O  O44  1  0.88780500  0.42307100  0.49546400  1
  O  O45  1  0.42307100  0.88780500  0.50453600  1
  O  O46  1  0.77657200  0.77657200  0.50000000  1
  O  O47  1  0.96908500  0.66860300  0.70140000  1
  O  O48  1  0.66860300  0.96908500  0.29860000  1
  O  O49  1  0.79818400  0.79818400  0.00000000  1
  O  O50  1  0.97107400  0.67181500  0.29373300  1
  O  O51  1  0.67181500  0.97107400  0.70626700  1
