# generated using pymatgen
data_NbVO4
_symmetry_space_group_name_H-M   'P 1'
_cell_length_a   4.58319603
_cell_length_b   4.99220300
_cell_length_c   11.90371970
_cell_angle_alpha   89.99999636
_cell_angle_beta   90.10083581
_cell_angle_gamma   90.00022780
_symmetry_Int_Tables_number   1
_chemical_formula_structural   NbVO4
_chemical_formula_sum   'Nb4 V4 O16'
_cell_volume   272.35960069
_cell_formula_units_Z   4
loop_
 _symmetry_equiv_pos_site_id
 _symmetry_equiv_pos_as_xyz
  1  'x, y, z'
loop_
 _atom_site_type_symbol
 _atom_site_label
 _atom_site_symmetry_multiplicity
 _atom_site_fract_x
 _atom_site_fract_y
 _atom_site_fract_z
 _atom_site_occupancy
  Nb  Nb0  1  0.50040000  0.25377300  0.67263800  1
  Nb  Nb1  1  0.00040400  0.24624900  0.17263200  1
  Nb  Nb2  1  0.99959900  0.75377200  0.82736200  1
  Nb  Nb3  1  0.49959500  0.74624900  0.32736800  1
  V  V4  1  0.00021100  0.24878800  0.43407000  1
  V  V5  1  0.49978900  0.74878800  0.06592800  1
  V  V6  1  0.50020700  0.25122100  0.93409400  1
  V  V7  1  0.99979200  0.75122200  0.56590800  1
  O  O8  1  0.26995900  0.07347800  0.80820800  1
  O  O9  1  0.76999900  0.42644500  0.30824700  1
  O  O10  1  0.72990500  0.42881400  0.80812300  1
  O  O11  1  0.77009300  0.92881600  0.69187900  1
  O  O12  1  0.22989300  0.07122500  0.30814700  1
  O  O13  1  0.27010900  0.57122700  0.19185200  1
  O  O14  1  0.23004400  0.57347500  0.69179300  1
  O  O15  1  0.72999800  0.92644400  0.19175200  1
  O  O16  1  0.25611700  0.58625900  0.93723100  1
  O  O17  1  0.75597500  0.91375200  0.43724100  1
  O  O18  1  0.74343800  0.91464200  0.93790200  1
  O  O19  1  0.75656500  0.41464600  0.56209900  1
  O  O20  1  0.24355400  0.58535400  0.43792300  1
  O  O21  1  0.25644300  0.08535700  0.06207600  1
  O  O22  1  0.24388000  0.08625600  0.56277000  1
  O  O23  1  0.74402800  0.41374900  0.06275800  1
