# generated using pymatgen
data_Cr3(CuO6)2
_symmetry_space_group_name_H-M   'P 1'
_cell_length_a   8.87793200
_cell_length_b   8.97761900
_cell_length_c   12.24541000
_cell_angle_alpha   90.00000000
_cell_angle_beta   90.00000000
_cell_angle_gamma   90.00000000
_symmetry_Int_Tables_number   1
_chemical_formula_structural   Cr3(CuO6)2
_chemical_formula_sum   'Cr12 Cu8 O48'
_cell_volume   975.99212945
_cell_formula_units_Z   4
loop_
 _symmetry_equiv_pos_site_id
 _symmetry_equiv_pos_as_xyz
  1  'x, y, z'
loop_
 _atom_site_type_symbol
 _atom_site_label
 _atom_site_symmetry_multiplicity
 _atom_site_fract_x
 _atom_site_fract_y
 _atom_site_fract_z
 _atom_site_occupancy
  Cr  Cr0  1  0.25000000  0.46192600  0.00000000  1
  Cr  Cr1  1  0.75000000  0.53807400  0.00000000  1
  Cr  Cr2  1  0.60582100  0.10014400  0.14482600  1
  Cr  Cr3  1  0.10582100  0.89985600  0.14482600  1
  Cr  Cr4  1  0.10582100  0.39985600  0.35517400  1
  Cr  Cr5  1  0.60582100  0.60014400  0.35517400  1
  Cr  Cr6  1  0.75000000  0.03807400  0.50000000  1
  Cr  Cr7  1  0.25000000  0.96192600  0.50000000  1
  Cr  Cr8  1  0.39417900  0.39985600  0.64482600  1
  Cr  Cr9  1  0.89417900  0.60014400  0.64482600  1
  Cr  Cr10  1  0.89417900  0.10014400  0.85517400  1
  Cr  Cr11  1  0.39417900  0.89985600  0.85517400  1
  Cu  Cu12  1  0.97045400  0.25023700  0.12208800  1
  Cu  Cu13  1  0.47045400  0.74976300  0.12208800  1
  Cu  Cu14  1  0.47045400  0.24976300  0.37791200  1
  Cu  Cu15  1  0.97045400  0.75023700  0.37791200  1
  Cu  Cu16  1  0.02954600  0.24976300  0.62208800  1
  Cu  Cu17  1  0.52954600  0.75023700  0.62208800  1
  Cu  Cu18  1  0.52954600  0.25023700  0.87791200  1
  Cu  Cu19  1  0.02954600  0.74976300  0.87791200  1
  O  O20  1  0.56538100  0.14465000  0.01668900  1
  O  O21  1  0.06538100  0.85535000  0.01668900  1
  O  O22  1  0.37108800  0.56661000  0.06847700  1
  O  O23  1  0.87108800  0.43339000  0.06847700  1
  O  O24  1  0.16265600  0.35440600  0.09193300  1
  O  O25  1  0.66265600  0.64559400  0.09193300  1
  O  O26  1  0.10545300  0.08510700  0.16340800  1
  O  O27  1  0.60545300  0.91489300  0.16340800  1
  O  O28  1  0.77699600  0.15945500  0.17717600  1
  O  O29  1  0.27699600  0.84054500  0.17717600  1
  O  O30  1  0.47523600  0.17591400  0.22542100  1
  O  O31  1  0.97523600  0.82408600  0.22542100  1
  O  O32  1  0.97523600  0.32408600  0.27457900  1
  O  O33  1  0.47523600  0.67591400  0.27457900  1
  O  O34  1  0.77699600  0.65945500  0.32282400  1
  O  O35  1  0.27699600  0.34054500  0.32282400  1
  O  O36  1  0.60545300  0.41489300  0.33659200  1
  O  O37  1  0.10545300  0.58510700  0.33659200  1
  O  O38  1  0.66265600  0.14559400  0.40806700  1
  O  O39  1  0.16265600  0.85440600  0.40806700  1
  O  O40  1  0.37108800  0.06661000  0.43152300  1
  O  O41  1  0.87108800  0.93339000  0.43152300  1
  O  O42  1  0.56538100  0.64465000  0.48331100  1
  O  O43  1  0.06538100  0.35535000  0.48331100  1
  O  O44  1  0.43461900  0.35535000  0.51668900  1
  O  O45  1  0.93461900  0.64465000  0.51668900  1
  O  O46  1  0.12891200  0.06661000  0.56847700  1
  O  O47  1  0.62891200  0.93339000  0.56847700  1
  O  O48  1  0.83734400  0.14559400  0.59193300  1
  O  O49  1  0.33734400  0.85440600  0.59193300  1
  O  O50  1  0.89454700  0.41489300  0.66340800  1
  O  O51  1  0.39454700  0.58510700  0.66340800  1
  O  O52  1  0.22300400  0.34054500  0.67717600  1
  O  O53  1  0.72300400  0.65945500  0.67717600  1
  O  O54  1  0.52476400  0.32408600  0.72542100  1
  O  O55  1  0.02476400  0.67591400  0.72542100  1
  O  O56  1  0.02476400  0.17591400  0.77457900  1
  O  O57  1  0.52476400  0.82408600  0.77457900  1
  O  O58  1  0.72300400  0.15945500  0.82282400  1
  O  O59  1  0.22300400  0.84054500  0.82282400  1
  O  O60  1  0.39454700  0.08510700  0.83659200  1
  O  O61  1  0.89454700  0.91489300  0.83659200  1
  O  O62  1  0.33734400  0.35440600  0.90806700  1
  O  O63  1  0.83734400  0.64559400  0.90806700  1
  O  O64  1  0.62891200  0.43339000  0.93152300  1
  O  O65  1  0.12891200  0.56661000  0.93152300  1
  O  O66  1  0.93461900  0.14465000  0.98331100  1
  O  O67  1  0.43461900  0.85535000  0.98331100  1
