# generated using pymatgen
data_CuPO3
_symmetry_space_group_name_H-M   'P 1'
_cell_length_a   9.70332746
_cell_length_b   9.70332746
_cell_length_c   9.70332806
_cell_angle_alpha   114.89621752
_cell_angle_beta   114.89621752
_cell_angle_gamma   114.89621285
_symmetry_Int_Tables_number   1
_chemical_formula_structural   CuPO3
_chemical_formula_sum   'Cu6 P6 O18'
_cell_volume   516.11152980
_cell_formula_units_Z   6
loop_
 _symmetry_equiv_pos_site_id
 _symmetry_equiv_pos_as_xyz
  1  'x, y, z'
loop_
 _atom_site_type_symbol
 _atom_site_label
 _atom_site_symmetry_multiplicity
 _atom_site_fract_x
 _atom_site_fract_y
 _atom_site_fract_z
 _atom_site_occupancy
  Cu  Cu0  1  0.35108000  0.54585300  0.94642100  1
  Cu  Cu1  1  0.05357900  0.64892000  0.45414700  1
  Cu  Cu2  1  0.45414700  0.05357900  0.64892000  1
  Cu  Cu3  1  0.54585300  0.94642100  0.35108000  1
  Cu  Cu4  1  0.94642100  0.35108000  0.54585300  1
  Cu  Cu5  1  0.64892000  0.45414700  0.05357900  1
  P  P6  1  0.16829900  0.80634400  0.93801600  1
  P  P7  1  0.19365600  0.06198400  0.83170100  1
  P  P8  1  0.06198400  0.83170100  0.19365600  1
  P  P9  1  0.93801600  0.16829900  0.80634400  1
  P  P10  1  0.80634400  0.93801600  0.16829900  1
  P  P11  1  0.83170100  0.19365600  0.06198400  1
  O  O12  1  0.03143700  0.77057500  0.99495700  1
  O  O13  1  0.10362100  0.38208100  0.88745800  1
  O  O14  1  0.22942500  0.00504300  0.96856300  1
  O  O15  1  0.00457500  0.59998100  0.69586200  1
  O  O16  1  0.40001900  0.30413800  0.99542500  1
  O  O17  1  0.11254200  0.89637900  0.61791900  1
  O  O18  1  0.61791900  0.11254200  0.89637900  1
  O  O19  1  0.00504300  0.96856300  0.22942500  1
  O  O20  1  0.30413800  0.99542500  0.40001900  1
  O  O21  1  0.69586200  0.00457500  0.59998100  1
  O  O22  1  0.99495700  0.03143800  0.77057500  1
  O  O23  1  0.38208100  0.88745800  0.10362100  1
  O  O24  1  0.88745800  0.10362100  0.38208100  1
  O  O25  1  0.59998100  0.69586200  0.00457500  1
  O  O26  1  0.99542500  0.40001900  0.30413800  1
  O  O27  1  0.77057500  0.99495700  0.03143700  1
  O  O28  1  0.89637900  0.61791900  0.11254200  1
  O  O29  1  0.96856300  0.22942500  0.00504300  1
