# generated using pymatgen
data_ZnCrO4
_symmetry_space_group_name_H-M   'P 1'
_cell_length_a   6.84180147
_cell_length_b   6.84180147
_cell_length_c   6.84744046
_cell_angle_alpha   79.48589812
_cell_angle_beta   79.48589812
_cell_angle_gamma   85.53125296
_symmetry_Int_Tables_number   1
_chemical_formula_structural   ZnCrO4
_chemical_formula_sum   'Zn4 Cr4 O16'
_cell_volume   309.52714072
_cell_formula_units_Z   4
loop_
 _symmetry_equiv_pos_site_id
 _symmetry_equiv_pos_as_xyz
  1  'x, y, z'
loop_
 _atom_site_type_symbol
 _atom_site_label
 _atom_site_symmetry_multiplicity
 _atom_site_fract_x
 _atom_site_fract_y
 _atom_site_fract_z
 _atom_site_occupancy
  Zn  Zn0  1  0.79678900  0.79678900  0.87450500  1
  Zn  Zn1  1  0.81779200  0.18220800  0.50000000  1
  Zn  Zn2  1  0.18220800  0.81779200  0.50000000  1
  Zn  Zn3  1  0.20321100  0.20321100  0.12549500  1
  Cr  Cr4  1  0.72676000  0.72676000  0.41528000  1
  Cr  Cr5  1  0.74275100  0.25724900  0.00000000  1
  Cr  Cr6  1  0.25724900  0.74275100  0.00000000  1
  Cr  Cr7  1  0.27324100  0.27324000  0.58472000  1
  O  O8  1  0.85702700  0.85702700  0.54634200  1
  O  O9  1  0.79685800  0.79685800  0.17072000  1
  O  O10  1  0.48992300  0.77933000  0.89553400  1
  O  O11  1  0.77933000  0.48992300  0.89553400  1
  O  O12  1  0.78431300  0.48903800  0.47655700  1
  O  O13  1  0.48903800  0.78431300  0.47655700  1
  O  O14  1  0.11354100  0.79777200  0.81603200  1
  O  O15  1  0.79777200  0.11354100  0.81603200  1
  O  O16  1  0.20222800  0.88645900  0.18396800  1
  O  O17  1  0.88645900  0.20222800  0.18396800  1
  O  O18  1  0.51096200  0.21568700  0.52344300  1
  O  O19  1  0.21568700  0.51096200  0.52344300  1
  O  O20  1  0.22067000  0.51007700  0.10446600  1
  O  O21  1  0.51007700  0.22067000  0.10446600  1
  O  O22  1  0.20314200  0.20314200  0.82928000  1
  O  O23  1  0.14297300  0.14297300  0.45365800  1
