# generated using pymatgen
data_CrP4O11
_symmetry_space_group_name_H-M   'P 1'
_cell_length_a   12.63133700
_cell_length_b   8.50788600
_cell_length_c   11.49965185
_cell_angle_alpha   47.54767302
_cell_angle_beta   90.00000000
_cell_angle_gamma   90.00000000
_symmetry_Int_Tables_number   1
_chemical_formula_structural   CrP4O11
_chemical_formula_sum   'Cr4 P16 O44'
_cell_volume   911.83740838
_cell_formula_units_Z   4
loop_
 _symmetry_equiv_pos_site_id
 _symmetry_equiv_pos_as_xyz
  1  'x, y, z'
loop_
 _atom_site_type_symbol
 _atom_site_label
 _atom_site_symmetry_multiplicity
 _atom_site_fract_x
 _atom_site_fract_y
 _atom_site_fract_z
 _atom_site_occupancy
  Cr  Cr0  1  0.46757500  0.48949400  0.73805600  1
  Cr  Cr1  1  0.96757500  0.51050600  0.76194400  1
  Cr  Cr2  1  0.03242500  0.48949400  0.23805600  1
  Cr  Cr3  1  0.53242500  0.51050600  0.26194400  1
  P  P4  1  0.21137800  0.49960100  0.60125200  1
  P  P5  1  0.16584300  0.85456600  0.26393500  1
  P  P6  1  0.49574600  0.84178400  0.34105200  1
  P  P7  1  0.84689800  0.84552300  0.40090600  1
  P  P8  1  0.34689800  0.15447700  0.09909400  1
  P  P9  1  0.99574600  0.15821600  0.15894800  1
  P  P10  1  0.71137800  0.50039900  0.89874800  1
  P  P11  1  0.66584300  0.14543400  0.23606500  1
  P  P12  1  0.33415700  0.85456600  0.76393500  1
  P  P13  1  0.28862200  0.49960100  0.10125200  1
  P  P14  1  0.00425400  0.84178400  0.84105200  1
  P  P15  1  0.65310200  0.84552300  0.90090600  1
  P  P16  1  0.15310200  0.15447700  0.59909400  1
  P  P17  1  0.50425400  0.15821600  0.65894800  1
  P  P18  1  0.83415700  0.14543400  0.73606500  1
  P  P19  1  0.78862200  0.50039900  0.39874800  1
  O  O20  1  0.89605800  0.27043500  0.75710600  1
  O  O21  1  0.46816700  0.71649200  0.29890900  1
  O  O22  1  0.78181000  0.66663600  0.42762100  1
  O  O23  1  0.10310900  0.49827500  0.65136000  1
  O  O24  1  0.30827800  0.46499900  0.68814200  1
  O  O25  1  0.41612700  0.22184800  0.96846000  1
  O  O26  1  0.23318300  0.72417400  0.41989800  1
  O  O27  1  0.25613000  0.99648500  0.13133600  1
  O  O28  1  0.90623500  0.96676800  0.23894600  1
  O  O29  1  0.60076100  0.98571700  0.23647900  1
  O  O30  1  0.51240200  0.74996400  0.50534300  1
  O  O31  1  0.01240200  0.25003600  0.99465700  1
  O  O32  1  0.10076100  0.01428300  0.26352100  1
  O  O33  1  0.91612700  0.77815200  0.53154000  1
  O  O34  1  0.80827800  0.53500100  0.81185800  1
  O  O35  1  0.40623500  0.03323200  0.26105400  1
  O  O36  1  0.60310900  0.50172500  0.84864000  1
  O  O37  1  0.75613000  0.00351500  0.36866400  1
  O  O38  1  0.73318300  0.27582600  0.08010200  1
  O  O39  1  0.28181000  0.33336400  0.07237900  1
  O  O40  1  0.39605800  0.72956500  0.74289400  1
  O  O41  1  0.03183300  0.71649200  0.79890900  1
  O  O42  1  0.96816700  0.28350800  0.20109100  1
  O  O43  1  0.60394200  0.27043500  0.25710600  1
  O  O44  1  0.71819000  0.66663600  0.92762100  1
  O  O45  1  0.26681700  0.72417400  0.91989800  1
  O  O46  1  0.24387000  0.99648500  0.63133600  1
  O  O47  1  0.39689100  0.49827500  0.15136000  1
  O  O48  1  0.59376500  0.96676800  0.73894600  1
  O  O49  1  0.19172200  0.46499900  0.18814200  1
  O  O50  1  0.08387300  0.22184800  0.46846000  1
  O  O51  1  0.89923900  0.98571700  0.73647900  1
  O  O52  1  0.98759800  0.74996400  0.00534300  1
  O  O53  1  0.48759800  0.25003600  0.49465700  1
  O  O54  1  0.39923900  0.01428300  0.76352100  1
  O  O55  1  0.09376500  0.03323200  0.76105400  1
  O  O56  1  0.74387000  0.00351500  0.86866400  1
  O  O57  1  0.76681700  0.27582600  0.58010200  1
  O  O58  1  0.58387300  0.77815200  0.03154000  1
  O  O59  1  0.69172200  0.53500100  0.31185800  1
  O  O60  1  0.89689100  0.50172500  0.34864000  1
  O  O61  1  0.21819000  0.33336400  0.57237900  1
  O  O62  1  0.53183300  0.28350800  0.70109100  1
  O  O63  1  0.10394200  0.72956500  0.24289400  1
