# generated using pymatgen
data_KHfPCO7
_symmetry_space_group_name_H-M   'P 1'
_cell_length_a   6.64734400
_cell_length_b   5.78318300
_cell_length_c   9.97619303
_cell_angle_alpha   89.07536539
_cell_angle_beta   90.00000000
_cell_angle_gamma   90.00000000
_symmetry_Int_Tables_number   1
_chemical_formula_structural   KHfPCO7
_chemical_formula_sum   'K2 Hf2 P2 C2 O14'
_cell_volume   383.46292305
_cell_formula_units_Z   2
loop_
 _symmetry_equiv_pos_site_id
 _symmetry_equiv_pos_as_xyz
  1  'x, y, z'
loop_
 _atom_site_type_symbol
 _atom_site_label
 _atom_site_symmetry_multiplicity
 _atom_site_fract_x
 _atom_site_fract_y
 _atom_site_fract_z
 _atom_site_occupancy
  K  K0  1  0.55048800  0.74750300  0.78213300  1
  K  K1  1  0.05048800  0.25249700  0.21786700  1
  Hf  Hf2  1  0.22501400  0.22242700  0.65342000  1
  Hf  Hf3  1  0.72501400  0.77757300  0.34658000  1
  P  P4  1  0.73081000  0.27052800  0.55123600  1
  P  P5  1  0.23081000  0.72947200  0.44876400  1
  C  C6  1  0.26821600  0.27865400  0.90502400  1
  C  C7  1  0.76821600  0.72134600  0.09497600  1
  O  O8  1  0.79482500  0.69373500  0.97405700  1
  O  O9  1  0.25724100  0.07242900  0.84432100  1
  O  O10  1  0.24786000  0.45104500  0.81348300  1
  O  O11  1  0.91748600  0.23042300  0.64091500  1
  O  O12  1  0.54218800  0.22905600  0.63792100  1
  O  O13  1  0.23705600  0.90083800  0.56659700  1
  O  O14  1  0.73096600  0.52096500  0.49369400  1
  O  O15  1  0.23096600  0.47903500  0.50630600  1
  O  O16  1  0.73705600  0.09916200  0.43340300  1
  O  O17  1  0.04218800  0.77094400  0.36207900  1
  O  O18  1  0.41748600  0.76957700  0.35908500  1
  O  O19  1  0.74786000  0.54895500  0.18651700  1
  O  O20  1  0.75724100  0.92757100  0.15567900  1
  O  O21  1  0.29482500  0.30626500  0.02594300  1
