# generated using pymatgen
data_Na3SiSbCO7
_symmetry_space_group_name_H-M   'P 1'
_cell_length_a   7.07228000
_cell_length_b   5.12207100
_cell_length_c   9.48864768
_cell_angle_alpha   88.95548868
_cell_angle_beta   90.00000000
_cell_angle_gamma   90.00000000
_symmetry_Int_Tables_number   1
_chemical_formula_structural   Na3SiSbCO7
_chemical_formula_sum   'Na6 Si2 Sb2 C2 O14'
_cell_volume   343.66649336
_cell_formula_units_Z   2
loop_
 _symmetry_equiv_pos_site_id
 _symmetry_equiv_pos_as_xyz
  1  'x, y, z'
loop_
 _atom_site_type_symbol
 _atom_site_label
 _atom_site_symmetry_multiplicity
 _atom_site_fract_x
 _atom_site_fract_y
 _atom_site_fract_z
 _atom_site_occupancy
  Na  Na0  1  0.25000000  0.77911500  0.91106400  1
  Na  Na1  1  0.00692000  0.25193500  0.75008600  1
  Na  Na2  1  0.49308000  0.25193500  0.75008600  1
  Na  Na3  1  0.50692000  0.74806500  0.24991400  1
  Na  Na4  1  0.99308000  0.74806500  0.24991400  1
  Na  Na5  1  0.75000000  0.22088500  0.08893600  1
  Si  Si6  1  0.25000000  0.71656500  0.59325500  1
  Si  Si7  1  0.75000000  0.28343500  0.40674500  1
  Sb  Sb8  1  0.75000000  0.76619600  0.63379300  1
  Sb  Sb9  1  0.25000000  0.23380400  0.36620700  1
  C  C10  1  0.75000000  0.72524500  0.95038900  1
  C  C11  1  0.25000000  0.27475500  0.04961100  1
  O  O12  1  0.25000000  0.25882100  0.91281700  1
  O  O13  1  0.75000000  0.94269100  0.87424200  1
  O  O14  1  0.75000000  0.49976700  0.89108600  1
  O  O15  1  0.06355300  0.80915700  0.68284100  1
  O  O16  1  0.43644700  0.80915700  0.68284100  1
  O  O17  1  0.25000000  0.39272200  0.58166800  1
  O  O18  1  0.75000000  0.15793800  0.57227400  1
  O  O19  1  0.25000000  0.84206200  0.42772600  1
  O  O20  1  0.75000000  0.60727800  0.41833200  1
  O  O21  1  0.56355300  0.19084300  0.31715900  1
  O  O22  1  0.93644700  0.19084300  0.31715900  1
  O  O23  1  0.25000000  0.50023300  0.10891400  1
  O  O24  1  0.25000000  0.05730900  0.12575800  1
  O  O25  1  0.75000000  0.74117900  0.08718300  1
