# generated using pymatgen
data_Y2ZnOs
_symmetry_space_group_name_H-M   'P 1'
_cell_length_a   12.53027360
_cell_length_b   12.53027360
_cell_length_c   12.53027360
_cell_angle_alpha   126.02243750
_cell_angle_beta   119.24363169
_cell_angle_gamma   85.60532934
_symmetry_Int_Tables_number   1
_chemical_formula_structural   Y2ZnOs
_chemical_formula_sum   'Y2 Zn1 Os1'
_cell_volume   1325.06290786
_cell_formula_units_Z   1
loop_
 _symmetry_equiv_pos_site_id
 _symmetry_equiv_pos_as_xyz
  1  'x, y, z'
loop_
 _atom_site_type_symbol
 _atom_site_label
 _atom_site_symmetry_multiplicity
 _atom_site_fract_x
 _atom_site_fract_y
 _atom_site_fract_z
 _atom_site_occupancy
  Y  Y0  1  0.00000000  0.28961100  0.28961100  1
  Y  Y1  1  0.00000000  0.71038900  0.71038900  1
  Zn  Zn2  1  0.00000000  0.00000000  0.00000000  1
  Os  Os3  1  0.00000000  0.50000000  0.50000000  1
