# generated using pymatgen
data_Li4Ti3V3(FeO8)2
_symmetry_space_group_name_H-M   'P 1'
_cell_length_a   5.90503987
_cell_length_b   5.90503987
_cell_length_c   9.71239772
_cell_angle_alpha   89.64163420
_cell_angle_beta   89.64163420
_cell_angle_gamma   59.77005129
_symmetry_Int_Tables_number   1
_chemical_formula_structural   Li4Ti3V3(FeO8)2
_chemical_formula_sum   'Li4 Ti3 V3 Fe2 O16'
_cell_volume   292.60414639
_cell_formula_units_Z   1
loop_
 _symmetry_equiv_pos_site_id
 _symmetry_equiv_pos_as_xyz
  1  'x, y, z'
loop_
 _atom_site_type_symbol
 _atom_site_label
 _atom_site_symmetry_multiplicity
 _atom_site_fract_x
 _atom_site_fract_y
 _atom_site_fract_z
 _atom_site_occupancy
  Li  Li0  1  0.66701300  0.66701300  0.89151000  1
  Li  Li1  1  0.99683200  0.99683200  0.99417100  1
  Li  Li2  1  0.99869900  0.99869900  0.49811400  1
  Li  Li3  1  0.33193800  0.33193800  0.39215300  1
  Ti  Ti4  1  0.34043000  0.83058800  0.21851300  1
  Ti  Ti5  1  0.83058800  0.34043000  0.21851300  1
  Ti  Ti6  1  0.16680200  0.16680200  0.72071000  1
  V  V7  1  0.82898700  0.82898700  0.21067500  1
  V  V8  1  0.65192000  0.17777400  0.71064000  1
  V  V9  1  0.17777400  0.65192000  0.71064000  1
  Fe  Fe10  1  0.66880400  0.66880400  0.49507700  1
  Fe  Fe11  1  0.33237300  0.33237300  0.99454400  1
  O  O12  1  0.32750700  0.82933500  0.60363400  1
  O  O13  1  0.51635400  0.51635400  0.33360600  1
  O  O14  1  0.66080000  0.66080000  0.10187700  1
  O  O15  1  0.99803000  0.99803000  0.31355700  1
  O  O16  1  0.99625100  0.99625100  0.80902500  1
  O  O17  1  0.82933500  0.32750700  0.60363400  1
  O  O18  1  0.51933800  0.95977600  0.33347800  1
  O  O19  1  0.95977600  0.51933800  0.33347800  1
  O  O20  1  0.15987200  0.15987200  0.10272700  1
  O  O21  1  0.83969200  0.83969200  0.60772500  1
  O  O22  1  0.03962900  0.47872000  0.83352700  1
  O  O23  1  0.47872000  0.03962900  0.83352700  1
  O  O24  1  0.32798300  0.32798300  0.59886000  1
  O  O25  1  0.15505700  0.67407900  0.10501300  1
  O  O26  1  0.48250100  0.48250100  0.83380400  1
  O  O27  1  0.67407900  0.15505700  0.10501300  1
