# generated using pymatgen
data_Al2CrTc
_symmetry_space_group_name_H-M   'P 1'
_cell_length_a   10.37572379
_cell_length_b   10.37572379
_cell_length_c   10.37572379
_cell_angle_alpha   120.66957806
_cell_angle_beta   119.74735889
_cell_angle_gamma   89.64116686
_symmetry_Int_Tables_number   1
_chemical_formula_structural   Al2CrTc
_chemical_formula_sum   'Al2 Cr1 Tc1'
_cell_volume   787.27220745
_cell_formula_units_Z   1
loop_
 _symmetry_equiv_pos_site_id
 _symmetry_equiv_pos_as_xyz
  1  'x, y, z'
loop_
 _atom_site_type_symbol
 _atom_site_label
 _atom_site_symmetry_multiplicity
 _atom_site_fract_x
 _atom_site_fract_y
 _atom_site_fract_z
 _atom_site_occupancy
  Al  Al0  1  0.00000000  0.26150100  0.26150100  1
  Al  Al1  1  0.00000000  0.73849900  0.73849900  1
  Cr  Cr2  1  0.00000000  0.00000000  0.00000000  1
  Tc  Tc3  1  0.00000000  0.50000000  0.50000000  1
