# generated using pymatgen
data_La4(B2O5)3
_symmetry_space_group_name_H-M   'P 1'
_cell_length_a   6.52669502
_cell_length_b   6.52669502
_cell_length_c   19.83799627
_cell_angle_alpha   82.93915849
_cell_angle_beta   82.93915849
_cell_angle_gamma   40.62843357
_symmetry_Int_Tables_number   1
_chemical_formula_structural   La4(B2O5)3
_chemical_formula_sum   'La8 B12 O30'
_cell_volume   545.51024652
_cell_formula_units_Z   2
loop_
 _symmetry_equiv_pos_site_id
 _symmetry_equiv_pos_as_xyz
  1  'x, y, z'
loop_
 _atom_site_type_symbol
 _atom_site_label
 _atom_site_symmetry_multiplicity
 _atom_site_fract_x
 _atom_site_fract_y
 _atom_site_fract_z
 _atom_site_occupancy
  La  La0  1  0.64353200  0.07511600  0.30421400  1
  La  La1  1  0.66142500  0.08733300  0.09459800  1
  La  La2  1  0.07511600  0.64353200  0.80421400  1
  La  La3  1  0.08733300  0.66142500  0.59459800  1
  La  La4  1  0.91266700  0.33857500  0.40540200  1
  La  La5  1  0.92488400  0.35646800  0.19578600  1
  La  La6  1  0.33857500  0.91266700  0.90540200  1
  La  La7  1  0.35646800  0.92488400  0.69578600  1
  B  B8  1  0.18924200  0.60814100  0.41174800  1
  B  B9  1  0.21308200  0.66164300  0.19458100  1
  B  B10  1  0.62927400  0.02700600  0.47338900  1
  B  B11  1  0.60814100  0.18924200  0.91174800  1
  B  B12  1  0.66164300  0.21308200  0.69458100  1
  B  B13  1  0.02700600  0.62927400  0.97338900  1
  B  B14  1  0.97299400  0.37072600  0.02661100  1
  B  B15  1  0.33835700  0.78691800  0.30541900  1
  B  B16  1  0.39185900  0.81075800  0.08825200  1
  B  B17  1  0.37072600  0.97299400  0.52661100  1
  B  B18  1  0.78691800  0.33835700  0.80541900  1
  B  B19  1  0.81075800  0.39185900  0.58825200  1
  O  O20  1  0.17701500  0.80900800  0.12388100  1
  O  O21  1  0.51957700  0.30037700  0.43380300  1
  O  O22  1  0.53204300  0.34387200  0.19656400  1
  O  O23  1  0.97475300  0.76831300  0.47339100  1
  O  O24  1  0.80900800  0.17701500  0.62388100  1
  O  O25  1  0.30037700  0.51957700  0.93380300  1
  O  O26  1  0.08706800  0.54751600  0.36447000  1
  O  O27  1  0.34387200  0.53204300  0.69656400  1
  O  O28  1  0.76831300  0.97475300  0.97339100  1
  O  O29  1  0.96821900  0.68786700  0.20228000  1
  O  O30  1  0.07538100  0.50270300  0.04687000  1
  O  O31  1  0.49729700  0.92461900  0.45313000  1
  O  O32  1  0.54751600  0.08706800  0.86447000  1
  O  O33  1  0.68786700  0.96821900  0.70228000  1
  O  O34  1  0.31213300  0.03178100  0.29772000  1
  O  O35  1  0.45248400  0.91293200  0.13553000  1
  O  O36  1  0.50270300  0.07538100  0.54687000  1
  O  O37  1  0.92461900  0.49729700  0.95313000  1
  O  O38  1  0.03178100  0.31213300  0.79772000  1
  O  O39  1  0.23168700  0.02524700  0.02660900  1
  O  O40  1  0.65612800  0.46795700  0.30343600  1
  O  O41  1  0.91293200  0.45248400  0.63553000  1
  O  O42  1  0.69962300  0.48042300  0.06619700  1
  O  O43  1  0.19099200  0.82298500  0.37611900  1
  O  O44  1  0.14693800  0.85306200  0.25000000  1
  O  O45  1  0.02524700  0.23168700  0.52660900  1
  O  O46  1  0.46795700  0.65612800  0.80343600  1
  O  O47  1  0.48042300  0.69962300  0.56619700  1
  O  O48  1  0.82298500  0.19099200  0.87611900  1
  O  O49  1  0.85306200  0.14693800  0.75000000  1
