# generated using pymatgen
data_V8CuO20
_symmetry_space_group_name_H-M   'P 1'
_cell_length_a   9.50358600
_cell_length_b   11.04447701
_cell_length_c   12.01990450
_cell_angle_alpha   113.73911789
_cell_angle_beta   85.21399014
_cell_angle_gamma   104.55274805
_symmetry_Int_Tables_number   1
_chemical_formula_structural   V8CuO20
_chemical_formula_sum   'V24 Cu3 O60'
_cell_volume   1117.60926239
_cell_formula_units_Z   3
loop_
 _symmetry_equiv_pos_site_id
 _symmetry_equiv_pos_as_xyz
  1  'x, y, z'
loop_
 _atom_site_type_symbol
 _atom_site_label
 _atom_site_symmetry_multiplicity
 _atom_site_fract_x
 _atom_site_fract_y
 _atom_site_fract_z
 _atom_site_occupancy
  V  V0  1  0.08323800  0.88201400  0.02526000  1
  V  V1  1  0.15727100  0.59187200  0.01277200  1
  V  V2  1  0.36705400  0.90806500  0.20039800  1
  V  V3  1  0.11862200  0.90254600  0.45450500  1
  V  V4  1  0.12980000  0.09198400  0.29576800  1
  V  V5  1  0.38082600  0.10130100  0.04799900  1
  V  V6  1  0.58170100  0.88194200  0.52455600  1
  V  V7  1  0.33290100  0.88348300  0.77689300  1
  V  V8  1  0.83393500  0.87583300  0.27686000  1
  V  V9  1  0.09913300  0.40412200  0.74001600  1
  V  V10  1  0.59685100  0.40530100  0.24088300  1
  V  V11  1  0.34394900  0.40600800  0.48746500  1
  V  V12  1  0.65708300  0.59293200  0.51433200  1
  V  V13  1  0.40746600  0.59069100  0.76117700  1
  V  V14  1  0.90161400  0.59514000  0.26021900  1
  V  V15  1  0.67088400  0.11508600  0.22409300  1
  V  V16  1  0.41813800  0.12064700  0.47462600  1
  V  V17  1  0.16651100  0.11781100  0.72410000  1
  V  V18  1  0.86856100  0.90622000  0.70295300  1
  V  V19  1  0.62101000  0.89830900  0.94972700  1
  V  V20  1  0.63077100  0.09974200  0.79894400  1
  V  V21  1  0.87913800  0.09854200  0.54648000  1
  V  V22  1  0.84473300  0.40867700  0.98779900  1
  V  V23  1  0.91554900  0.11621200  0.97467900  1
  Cu  Cu24  1  0.01899800  0.36329200  0.28599300  1
  Cu  Cu25  1  0.48492200  0.64188500  0.21499500  1
  Cu  Cu26  1  0.97398600  0.63448700  0.71438800  1
  O  O27  1  0.00156900  0.91696500  0.17766100  1
  O  O28  1  0.21620600  0.77951300  0.08251800  1
  O  O29  1  0.00038700  0.26908800  0.06921200  1
  O  O30  1  0.49596100  0.95101600  0.08716600  1
  O  O31  1  0.23647600  0.95246500  0.33163600  1
  O  O32  1  0.26752600  0.54350100  0.07217700  1
  O  O33  1  0.01333500  0.53676400  0.31354900  1
  O  O34  1  0.43362100  0.79407400  0.22209600  1
  O  O35  1  0.18864000  0.79157000  0.46919600  1
  O  O36  1  0.30902400  0.20988500  0.03150900  1
  O  O37  1  0.06362800  0.20839400  0.27669500  1
  O  O38  1  0.48705100  0.46518200  0.18735700  1
  O  O39  1  0.23239200  0.45702400  0.43140600  1
  O  O40  1  0.00166500  0.00092500  0.99819100  1
  O  O41  1  0.74964200  0.00446800  0.25124800  1
  O  O42  1  0.49737400  0.99980200  0.50086100  1
  O  O43  1  0.25043100  0.00035000  0.74996000  1
  O  O44  1  0.00194300  0.04854400  0.41696200  1
  O  O45  1  0.26561500  0.04613200  0.16087800  1
  O  O46  1  0.23172300  0.73111400  0.69845700  1
  O  O47  1  0.72471200  0.72455100  0.19929300  1
  O  O48  1  0.49619900  0.73042900  0.42829100  1
  O  O49  1  0.53579600  0.22138300  0.16383200  1
  O  O50  1  0.03449000  0.21892800  0.66568000  1
  O  O51  1  0.28878700  0.22278100  0.41886800  1
  O  O52  1  0.74706000  0.92457900  0.44089000  1
  O  O53  1  0.25451600  0.92375100  0.93513000  1
  O  O54  1  0.50082200  0.91966400  0.68547000  1
  O  O55  1  0.26870900  0.42414300  0.64751200  1
  O  O56  1  0.02110900  0.42387500  0.89760300  1
  O  O57  1  0.76805000  0.42774000  0.14596600  1
  O  O58  1  0.52042600  0.42439300  0.39610800  1
  O  O59  1  0.23310700  0.57165000  0.85528000  1
  O  O60  1  0.98114800  0.57683400  0.10286100  1
  O  O61  1  0.73309300  0.57325500  0.35408400  1
  O  O62  1  0.48054900  0.57354700  0.60379600  1
  O  O63  1  0.49663900  0.08015300  0.31574300  1
  O  O64  1  0.74796200  0.07604300  0.06296200  1
  O  O65  1  0.24741400  0.07868500  0.56392300  1
  O  O66  1  0.46410800  0.77915200  0.83591200  1
  O  O67  1  0.96433400  0.77959100  0.33364600  1
  O  O68  1  0.70966200  0.77549800  0.58262200  1
  O  O69  1  0.77023500  0.27123900  0.30059200  1
  O  O70  1  0.51169000  0.26957900  0.56059800  1
  O  O71  1  0.25743700  0.26970900  0.80794200  1
  O  O72  1  0.99298400  0.94647000  0.57997900  1
  O  O73  1  0.73855400  0.95110300  0.83935300  1
  O  O74  1  0.77011100  0.54349000  0.57047500  1
  O  O75  1  0.51624700  0.53963700  0.81606700  1
  O  O76  1  0.93885400  0.79203000  0.72168600  1
  O  O77  1  0.68965500  0.79009000  0.97010300  1
  O  O78  1  0.81141900  0.20964400  0.53031400  1
  O  O79  1  0.56353000  0.20724600  0.77681300  1
  O  O80  1  0.73744700  0.46114000  0.93252600  1
  O  O81  1  0.98889500  0.46357000  0.68635300  1
  O  O82  1  0.50622500  0.05154400  0.91385700  1
  O  O83  1  0.75936300  0.04736000  0.66749700  1
  O  O84  1  0.99780900  0.73015500  0.92964300  1
  O  O85  1  0.78424300  0.22064600  0.91512400  1
  O  O86  1  0.99915100  0.08280100  0.81563200  1
