# generated using pymatgen
data_Li2Mn3CuO8
_symmetry_space_group_name_H-M   'P 1'
_cell_length_a   8.30052100
_cell_length_b   8.33339338
_cell_length_c   8.38357606
_cell_angle_alpha   89.77118008
_cell_angle_beta   89.91943054
_cell_angle_gamma   89.89732894
_symmetry_Int_Tables_number   1
_chemical_formula_structural   Li2Mn3CuO8
_chemical_formula_sum   'Li8 Mn12 Cu4 O32'
_cell_volume   579.89846495
_cell_formula_units_Z   4
loop_
 _symmetry_equiv_pos_site_id
 _symmetry_equiv_pos_as_xyz
  1  'x, y, z'
loop_
 _atom_site_type_symbol
 _atom_site_label
 _atom_site_symmetry_multiplicity
 _atom_site_fract_x
 _atom_site_fract_y
 _atom_site_fract_z
 _atom_site_occupancy
  Li  Li0  1  0.99397000  0.99536400  0.00526100  1
  Li  Li1  1  0.75673000  0.75737200  0.24669500  1
  Li  Li2  1  0.24564100  0.25432000  0.25542200  1
  Li  Li3  1  0.00748000  0.49317300  0.49544000  1
  Li  Li4  1  0.50413100  0.00429600  0.50344600  1
  Li  Li5  1  0.74266500  0.24283800  0.74446300  1
  Li  Li6  1  0.25635900  0.74587200  0.75412000  1
  Li  Li7  1  0.49259300  0.50640200  0.99461000  1
  Mn  Mn8  1  0.87083700  0.37221000  0.11916400  1
  Mn  Mn9  1  0.61676800  0.12940700  0.12816400  1
  Mn  Mn10  1  0.37404900  0.88211300  0.13322600  1
  Mn  Mn11  1  0.62126800  0.37934700  0.36893800  1
  Mn  Mn12  1  0.37849700  0.63262600  0.37671200  1
  Mn  Mn13  1  0.13287800  0.87829700  0.38183400  1
  Mn  Mn14  1  0.62945100  0.62882400  0.61635900  1
  Mn  Mn15  1  0.87998700  0.87134300  0.62292500  1
  Mn  Mn16  1  0.12924500  0.11667700  0.63118500  1
  Mn  Mn17  1  0.87627300  0.62026900  0.86780800  1
  Mn  Mn18  1  0.12097100  0.36780400  0.87447000  1
  Mn  Mn19  1  0.36999800  0.12146200  0.88068400  1
  Cu  Cu20  1  0.12507000  0.62764800  0.12318400  1
  Cu  Cu21  1  0.87683300  0.12457900  0.37309900  1
  Cu  Cu22  1  0.37448000  0.37312100  0.62286500  1
  Cu  Cu23  1  0.62331800  0.87350000  0.87485300  1
  O  O24  1  0.88489300  0.60761600  0.09988200  1
  O  O25  1  0.09965900  0.36647700  0.10340500  1
  O  O26  1  0.38197300  0.11706300  0.11514200  1
  O  O27  1  0.84715400  0.14090000  0.12574200  1
  O  O28  1  0.60435500  0.90250100  0.14037300  1
  O  O29  1  0.63371800  0.36825300  0.13373700  1
  O  O30  1  0.36460000  0.64987500  0.14301600  1
  O  O31  1  0.14161400  0.88367400  0.15455900  1
  O  O32  1  0.85742700  0.36497100  0.35057400  1
  O  O33  1  0.61008500  0.15372300  0.35531200  1
  O  O34  1  0.36689500  0.86668000  0.36603500  1
  O  O35  1  0.38889800  0.40395700  0.37512800  1
  O  O36  1  0.14898000  0.64660100  0.38141700  1
  O  O37  1  0.61760500  0.61494800  0.38211100  1
  O  O38  1  0.90141800  0.88553700  0.39108900  1
  O  O39  1  0.13984800  0.10760200  0.40609000  1
  O  O40  1  0.61499700  0.39282500  0.60046800  1
  O  O41  1  0.40227400  0.63887100  0.60360700  1
  O  O42  1  0.11608600  0.88276000  0.61722000  1
  O  O43  1  0.65400700  0.85712500  0.60951300  1
  O  O44  1  0.89483000  0.10143300  0.62428800  1
  O  O45  1  0.86671300  0.63296000  0.63345500  1
  O  O46  1  0.13502000  0.34858200  0.64170200  1
  O  O47  1  0.35947700  0.11071700  0.65625000  1
  O  O48  1  0.64066700  0.63283800  0.84812300  1
  O  O49  1  0.87193600  0.85083600  0.85437000  1
  O  O50  1  0.13338800  0.13215300  0.86620200  1
  O  O51  1  0.10804700  0.59666600  0.86850900  1
  O  O52  1  0.35171200  0.35374500  0.87468300  1
  O  O53  1  0.88233800  0.38403900  0.88355100  1
  O  O54  1  0.60214000  0.11600200  0.89482300  1
  O  O55  1  0.37761300  0.88906700  0.90469300  1
