# generated using pymatgen
data_La2Bi2O7
_symmetry_space_group_name_H-M   'P 1'
_cell_length_a   5.96037400
_cell_length_b   8.44202600
_cell_length_c   14.31471845
_cell_angle_alpha   81.41738349
_cell_angle_beta   90.00000000
_cell_angle_gamma   90.00000000
_symmetry_Int_Tables_number   1
_chemical_formula_structural   La2Bi2O7
_chemical_formula_sum   'La8 Bi8 O28'
_cell_volume   712.21680003
_cell_formula_units_Z   4
loop_
 _symmetry_equiv_pos_site_id
 _symmetry_equiv_pos_as_xyz
  1  'x, y, z'
loop_
 _atom_site_type_symbol
 _atom_site_label
 _atom_site_symmetry_multiplicity
 _atom_site_fract_x
 _atom_site_fract_y
 _atom_site_fract_z
 _atom_site_occupancy
  La  La0  1  0.77361800  0.76318600  0.92131700  1
  La  La1  1  0.33308700  0.85713100  0.56487000  1
  La  La2  1  0.25141000  0.71546300  0.12467600  1
  La  La3  1  0.78251900  0.64546400  0.38901900  1
  La  La4  1  0.28251900  0.35453600  0.61098100  1
  La  La5  1  0.75141000  0.28453700  0.87532400  1
  La  La6  1  0.83308700  0.14286900  0.43513000  1
  La  La7  1  0.27361800  0.23681400  0.07868300  1
  Bi  Bi8  1  0.26877000  0.92206900  0.31782300  1
  Bi  Bi9  1  0.76745700  0.97350300  0.11827400  1
  Bi  Bi10  1  0.77999500  0.58645800  0.67521800  1
  Bi  Bi11  1  0.26662800  0.53220700  0.87742500  1
  Bi  Bi12  1  0.76662800  0.46779300  0.12257500  1
  Bi  Bi13  1  0.27999500  0.41354200  0.32478200  1
  Bi  Bi14  1  0.26745700  0.02649700  0.88172600  1
  Bi  Bi15  1  0.76877000  0.07793100  0.68217700  1
  O  O16  1  0.39792600  0.99168400  0.18038200  1
  O  O17  1  0.55147700  0.92827000  0.41003900  1
  O  O18  1  0.65658600  0.83157600  0.67859300  1
  O  O19  1  0.39672100  0.77526900  0.88472700  1
  O  O20  1  0.05643900  0.86562000  0.43813100  1
  O  O21  1  0.05296200  0.91975900  0.01817900  1
  O  O22  1  0.98526600  0.84019000  0.24732700  1
  O  O23  1  0.10107800  0.62789500  0.61592700  1
  O  O24  1  0.90087000  0.57782400  0.81930400  1
  O  O25  1  0.41551900  0.67700600  0.30805100  1
  O  O26  1  0.62818800  0.73206800  0.07876700  1
  O  O27  1  0.58153800  0.59810300  0.54703800  1
  O  O28  1  0.55918200  0.43762100  0.98198000  1
  O  O29  1  0.49110900  0.48350100  0.74808700  1
  O  O30  1  0.99110900  0.51649900  0.25191300  1
  O  O31  1  0.05918200  0.56237900  0.01802000  1
  O  O32  1  0.08153800  0.40189700  0.45296200  1
  O  O33  1  0.12818800  0.26793200  0.92123300  1
  O  O34  1  0.91551900  0.32299400  0.69194900  1
  O  O35  1  0.40087000  0.42217600  0.18069600  1
  O  O36  1  0.60107800  0.37210500  0.38407300  1
  O  O37  1  0.48526600  0.15981000  0.75267300  1
  O  O38  1  0.55296200  0.08024100  0.98182100  1
  O  O39  1  0.55643900  0.13438000  0.56186900  1
  O  O40  1  0.89672100  0.22473100  0.11527300  1
  O  O41  1  0.15658600  0.16842400  0.32140700  1
  O  O42  1  0.05147700  0.07173000  0.58996100  1
  O  O43  1  0.89792600  0.00831600  0.81961800  1
