# generated using pymatgen
data_K2LuPCO7
_symmetry_space_group_name_H-M   'P 1'
_cell_length_a   7.04147700
_cell_length_b   5.78686900
_cell_length_c   9.88935427
_cell_angle_alpha   88.38727773
_cell_angle_beta   90.00000000
_cell_angle_gamma   90.00000000
_symmetry_Int_Tables_number   1
_chemical_formula_structural   K2LuPCO7
_chemical_formula_sum   'K4 Lu2 P2 C2 O14'
_cell_volume   402.81282451
_cell_formula_units_Z   2
loop_
 _symmetry_equiv_pos_site_id
 _symmetry_equiv_pos_as_xyz
  1  'x, y, z'
loop_
 _atom_site_type_symbol
 _atom_site_label
 _atom_site_symmetry_multiplicity
 _atom_site_fract_x
 _atom_site_fract_y
 _atom_site_fract_z
 _atom_site_occupancy
  K  K0  1  0.48687600  0.24587700  0.77286300  1
  K  K1  1  0.01312400  0.24587700  0.77286300  1
  K  K2  1  0.51312400  0.75412300  0.22713700  1
  K  K3  1  0.98687600  0.75412300  0.22713700  1
  Lu  Lu4  1  0.75000000  0.77722300  0.63653000  1
  Lu  Lu5  1  0.25000000  0.22277700  0.36347000  1
  P  P6  1  0.25000000  0.71283800  0.56925900  1
  P  P7  1  0.75000000  0.28716200  0.43074100  1
  C  C8  1  0.75000000  0.72950100  0.90759500  1
  C  C9  1  0.25000000  0.27049900  0.09240500  1
  O  O10  1  0.25000000  0.29986000  0.96604400  1
  O  O11  1  0.75000000  0.93474300  0.84566400  1
  O  O12  1  0.75000000  0.55404200  0.82330200  1
  O  O13  1  0.06731900  0.76464700  0.65056900  1
  O  O14  1  0.43268100  0.76464700  0.65056900  1
  O  O15  1  0.75000000  0.13649100  0.56500700  1
  O  O16  1  0.25000000  0.45095700  0.53272800  1
  O  O17  1  0.75000000  0.54904300  0.46727200  1
  O  O18  1  0.25000000  0.86350900  0.43499300  1
  O  O19  1  0.56731900  0.23535300  0.34943100  1
  O  O20  1  0.93268100  0.23535300  0.34943100  1
  O  O21  1  0.25000000  0.44595800  0.17669800  1
  O  O22  1  0.25000000  0.06525700  0.15433600  1
  O  O23  1  0.75000000  0.70014000  0.03395600  1
