# generated using pymatgen
data_Er(Bi3O5)4
_symmetry_space_group_name_H-M   'P 1'
_cell_length_a   8.95124204
_cell_length_b   8.95124204
_cell_length_c   8.95124204
_cell_angle_alpha   109.47122063
_cell_angle_beta   109.47122063
_cell_angle_gamma   109.47122063
_symmetry_Int_Tables_number   1
_chemical_formula_structural   Er(Bi3O5)4
_chemical_formula_sum   'Er1 Bi12 O20'
_cell_volume   552.11304753
_cell_formula_units_Z   1
loop_
 _symmetry_equiv_pos_site_id
 _symmetry_equiv_pos_as_xyz
  1  'x, y, z'
loop_
 _atom_site_type_symbol
 _atom_site_label
 _atom_site_symmetry_multiplicity
 _atom_site_fract_x
 _atom_site_fract_y
 _atom_site_fract_z
 _atom_site_occupancy
  Er  Er0  1  0.00000000  0.00000000  0.00000000  1
  Bi  Bi1  1  0.85836900  0.67445600  0.16888200  1
  Bi  Bi2  1  0.31051300  0.81608700  0.14163100  1
  Bi  Bi3  1  0.49442600  0.32554400  0.18391200  1
  Bi  Bi4  1  0.81608700  0.14163100  0.31051300  1
  Bi  Bi5  1  0.68948700  0.83111800  0.50557400  1
  Bi  Bi6  1  0.18391200  0.49442600  0.32554400  1
  Bi  Bi7  1  0.83111800  0.50557400  0.68948700  1
  Bi  Bi8  1  0.32554400  0.18391200  0.49442600  1
  Bi  Bi9  1  0.16888200  0.85836900  0.67445600  1
  Bi  Bi10  1  0.50557400  0.68948700  0.83111800  1
  Bi  Bi11  1  0.67445600  0.16888200  0.85836900  1
  Bi  Bi12  1  0.14163100  0.31051300  0.81608800  1
  O  O13  1  0.75621900  0.37860700  0.11530700  1
  O  O14  1  0.64091200  0.88469300  0.26330100  1
  O  O15  1  0.00000000  0.64304700  0.00000000  1
  O  O16  1  0.64304700  0.00000000  0.00000000  1
  O  O17  1  0.35908800  0.62238900  0.24378100  1
  O  O18  1  0.73669900  0.62139300  0.37761100  1
  O  O19  1  0.00000000  0.24015100  0.00000000  1
  O  O20  1  0.24015100  0.00000000  0.00000000  1
  O  O21  1  0.62238900  0.24378100  0.35908800  1
  O  O22  1  0.11530700  0.75621900  0.37860700  1
  O  O23  1  0.35695300  0.35695300  0.35695300  1
  O  O24  1  0.00000000  0.00000000  0.24015100  1
  O  O25  1  0.37761100  0.73669900  0.62139300  1
  O  O26  1  0.88469300  0.26330100  0.64091200  1
  O  O27  1  0.75984900  0.75984900  0.75984900  1
  O  O28  1  0.62139300  0.37761100  0.73669900  1
  O  O29  1  0.24378100  0.35908800  0.62238900  1
  O  O30  1  0.26330100  0.64091200  0.88469300  1
  O  O31  1  0.37860700  0.11530700  0.75621900  1
  O  O32  1  0.00000000  0.00000000  0.64304700  1
