# generated using pymatgen
data_K2TbPCO7
_symmetry_space_group_name_H-M   'P 1'
_cell_length_a   7.17082900
_cell_length_b   5.85054300
_cell_length_c   10.02795392
_cell_angle_alpha   88.02667312
_cell_angle_beta   90.00000000
_cell_angle_gamma   90.00000000
_symmetry_Int_Tables_number   1
_chemical_formula_structural   K2TbPCO7
_chemical_formula_sum   'K4 Tb2 P2 C2 O14'
_cell_volume   420.45569913
_cell_formula_units_Z   2
loop_
 _symmetry_equiv_pos_site_id
 _symmetry_equiv_pos_as_xyz
  1  'x, y, z'
loop_
 _atom_site_type_symbol
 _atom_site_label
 _atom_site_symmetry_multiplicity
 _atom_site_fract_x
 _atom_site_fract_y
 _atom_site_fract_z
 _atom_site_occupancy
  K  K0  1  0.48917500  0.24721900  0.78064400  1
  K  K1  1  0.01082500  0.24721900  0.78064400  1
  K  K2  1  0.51082500  0.75278100  0.21935600  1
  K  K3  1  0.98917500  0.75278100  0.21935600  1
  Tb  Tb4  1  0.75000000  0.78191500  0.63040200  1
  Tb  Tb5  1  0.25000000  0.21808500  0.36959800  1
  P  P6  1  0.25000000  0.71040300  0.56912900  1
  P  P7  1  0.75000000  0.28959700  0.43087100  1
  C  C8  1  0.75000000  0.72866500  0.90567100  1
  C  C9  1  0.25000000  0.27133500  0.09432900  1
  O  O10  1  0.25000000  0.30202400  0.96927800  1
  O  O11  1  0.75000000  0.93282000  0.84586900  1
  O  O12  1  0.75000000  0.55575300  0.82298700  1
  O  O13  1  0.07100200  0.77216500  0.64684100  1
  O  O14  1  0.42899800  0.77216500  0.64684100  1
  O  O15  1  0.75000000  0.15629700  0.56950700  1
  O  O16  1  0.25000000  0.44762600  0.54425000  1
  O  O17  1  0.75000000  0.55237400  0.45575000  1
  O  O18  1  0.25000000  0.84370300  0.43049300  1
  O  O19  1  0.57100200  0.22783500  0.35315900  1
  O  O20  1  0.92899800  0.22783500  0.35315900  1
  O  O21  1  0.25000000  0.44424700  0.17701300  1
  O  O22  1  0.25000000  0.06718000  0.15413100  1
  O  O23  1  0.75000000  0.69797600  0.03072200  1
