# generated using pymatgen
data_Co3BiO8
_symmetry_space_group_name_H-M   'P 1'
_cell_length_a   8.34558600
_cell_length_b   8.34558600
_cell_length_c   8.34558600
_cell_angle_alpha   90.00000000
_cell_angle_beta   90.00000000
_cell_angle_gamma   90.00000000
_symmetry_Int_Tables_number   1
_chemical_formula_structural   Co3BiO8
_chemical_formula_sum   'Co12 Bi4 O32'
_cell_volume   581.26009763
_cell_formula_units_Z   4
loop_
 _symmetry_equiv_pos_site_id
 _symmetry_equiv_pos_as_xyz
  1  'x, y, z'
loop_
 _atom_site_type_symbol
 _atom_site_label
 _atom_site_symmetry_multiplicity
 _atom_site_fract_x
 _atom_site_fract_y
 _atom_site_fract_z
 _atom_site_occupancy
  Co  Co0  1  0.10377700  0.14622300  0.62500000  1
  Co  Co1  1  0.12500000  0.39622300  0.85377700  1
  Co  Co2  1  0.14622300  0.62500000  0.10377700  1
  Co  Co3  1  0.35377700  0.37500000  0.60377700  1
  Co  Co4  1  0.37500000  0.60377700  0.35377700  1
  Co  Co5  1  0.39622300  0.85377700  0.12500000  1
  Co  Co6  1  0.60377700  0.35377700  0.37500000  1
  Co  Co7  1  0.62500000  0.10377700  0.14622300  1
  Co  Co8  1  0.64622300  0.87500000  0.89622300  1
  Co  Co9  1  0.85377700  0.12500000  0.39622300  1
  Co  Co10  1  0.87500000  0.89622300  0.64622300  1
  Co  Co11  1  0.89622300  0.64622300  0.87500000  1
  Bi  Bi12  1  0.12500000  0.87500000  0.37500000  1
  Bi  Bi13  1  0.37500000  0.12500000  0.87500000  1
  Bi  Bi14  1  0.62500000  0.62500000  0.62500000  1
  Bi  Bi15  1  0.87500000  0.37500000  0.12500000  1
  O  O16  1  0.07692200  0.13571800  0.39838100  1
  O  O17  1  0.10161900  0.92307800  0.63571800  1
  O  O18  1  0.12163300  0.62163300  0.87836700  1
  O  O19  1  0.11428200  0.17307800  0.85161900  1
  O  O20  1  0.13571800  0.39838100  0.07692200  1
  O  O21  1  0.12836700  0.37163300  0.62836700  1
  O  O22  1  0.14838100  0.61428200  0.32692200  1
  O  O23  1  0.17307800  0.85161900  0.11428200  1
  O  O24  1  0.32692200  0.14838100  0.61428200  1
  O  O25  1  0.35161900  0.38571800  0.82692200  1
  O  O26  1  0.37163300  0.62836700  0.12836700  1
  O  O27  1  0.36428200  0.60161900  0.57692200  1
  O  O28  1  0.38571800  0.82692200  0.35161900  1
  O  O29  1  0.37836700  0.37836700  0.37836700  1
  O  O30  1  0.39838100  0.07692200  0.13571800  1
  O  O31  1  0.42307800  0.86428200  0.89838100  1
  O  O32  1  0.57692200  0.36428200  0.60161900  1
  O  O33  1  0.60161900  0.57692200  0.36428200  1
  O  O34  1  0.62163300  0.87836700  0.12163300  1
  O  O35  1  0.61428200  0.32692200  0.14838100  1
  O  O36  1  0.63571800  0.10161900  0.92307800  1
  O  O37  1  0.62836700  0.12836700  0.37163300  1
  O  O38  1  0.64838100  0.88571800  0.67307800  1
  O  O39  1  0.67307800  0.64838100  0.88571800  1
  O  O40  1  0.82692200  0.35161900  0.38571800  1
  O  O41  1  0.85161900  0.11428200  0.17307800  1
  O  O42  1  0.87163300  0.87163300  0.87163300  1
  O  O43  1  0.86428200  0.89838100  0.42307800  1
  O  O44  1  0.88571800  0.67307800  0.64838100  1
  O  O45  1  0.87836700  0.12163300  0.62163300  1
  O  O46  1  0.89838100  0.42307800  0.86428200  1
  O  O47  1  0.92307800  0.63571800  0.10161900  1
