# generated using pymatgen
data_Mn7Cr12O48
_symmetry_space_group_name_H-M   'P 1'
_cell_length_a   4.99614800
_cell_length_b   10.28859661
_cell_length_c   17.40119104
_cell_angle_alpha   89.91456053
_cell_angle_beta   89.88854751
_cell_angle_gamma   89.74286805
_symmetry_Int_Tables_number   1
_chemical_formula_structural   Mn7Cr12O48
_chemical_formula_sum   'Mn7 Cr12 O48'
_cell_volume   894.46785464
_cell_formula_units_Z   1
loop_
 _symmetry_equiv_pos_site_id
 _symmetry_equiv_pos_as_xyz
  1  'x, y, z'
loop_
 _atom_site_type_symbol
 _atom_site_label
 _atom_site_symmetry_multiplicity
 _atom_site_fract_x
 _atom_site_fract_y
 _atom_site_fract_z
 _atom_site_occupancy
  Mn  Mn0  1  0.82723500  0.75296900  0.70791100  1
  Mn  Mn1  1  0.76223600  0.06079600  0.02479100  1
  Mn  Mn2  1  0.59150100  0.74740800  0.24937300  1
  Mn  Mn3  1  0.40028200  0.24949300  0.75355600  1
  Mn  Mn4  1  0.23579100  0.06231100  0.47139300  1
  Mn  Mn5  1  0.23272500  0.43711800  0.47160500  1
  Mn  Mn6  1  0.23593100  0.56373700  0.98141100  1
  Cr  Cr7  1  0.77133000  0.75040000  0.05925100  1
  Cr  Cr8  1  0.77053800  0.02575800  0.34649000  1
  Cr  Cr9  1  0.77164500  0.47472100  0.34595000  1
  Cr  Cr10  1  0.70067000  0.52497600  0.84735200  1
  Cr  Cr11  1  0.70713900  0.97853900  0.84457000  1
  Cr  Cr12  1  0.71770800  0.24855700  0.55017300  1
  Cr  Cr13  1  0.29080400  0.75127500  0.43734900  1
  Cr  Cr14  1  0.28919500  0.48099200  0.15726600  1
  Cr  Cr15  1  0.29051700  0.02251900  0.15128600  1
  Cr  Cr16  1  0.23499500  0.52610900  0.65456300  1
  Cr  Cr17  1  0.23586200  0.97273500  0.65386900  1
  Cr  Cr18  1  0.22860200  0.24254200  0.95014400  1
  O  O19  1  0.95065600  0.22361000  0.00686200  1
  O  O20  1  0.94904700  0.61098400  0.63933900  1
  O  O21  1  0.95087000  0.88864000  0.63680800  1
  O  O22  1  0.87107000  0.62731900  0.79016100  1
  O  O23  1  0.89628300  0.88182500  0.78721100  1
  O  O24  1  0.90983400  0.11933000  0.53035600  1
  O  O25  1  0.90257200  0.37790400  0.53067600  1
  O  O26  1  0.89688000  0.00948300  0.92410600  1
  O  O27  1  0.90879300  0.49247100  0.91777100  1
  O  O28  1  0.82061400  0.74961800  0.15595100  1
  O  O29  1  0.81314900  0.62026000  0.29884500  1
  O  O30  1  0.81296600  0.88369900  0.29927300  1
  O  O31  1  0.63057500  0.11799100  0.79618400  1
  O  O32  1  0.62101200  0.38762800  0.80060900  1
  O  O33  1  0.64212800  0.24937800  0.64139000  1
  O  O34  1  0.57115900  0.49875000  0.42195600  1
  O  O35  1  0.56298600  0.00200300  0.42252600  1
  O  O36  1  0.60582100  0.88864900  0.03381900  1
  O  O37  1  0.56457700  0.63283900  0.03798600  1
  O  O38  1  0.62374200  0.12476500  0.29069900  1
  O  O39  1  0.61755400  0.37616400  0.29216200  1
  O  O40  1  0.56702500  0.10472700  0.11688000  1
  O  O41  1  0.54686700  0.39759500  0.13157300  1
  O  O42  1  0.54336200  0.74910700  0.49366400  1
  O  O43  1  0.42424500  0.24692100  0.49230700  1
  O  O44  1  0.42817600  0.60065600  0.88261700  1
  O  O45  1  0.44491000  0.90150500  0.86900300  1
  O  O46  1  0.43791900  0.62012500  0.70133000  1
  O  O47  1  0.44015000  0.87768200  0.70046700  1
  O  O48  1  0.44963000  0.12283400  0.96762300  1
  O  O49  1  0.37872700  0.38096100  0.97152000  1
  O  O50  1  0.38775300  0.00972800  0.57027900  1
  O  O51  1  0.38445800  0.48889500  0.57078600  1
  O  O52  1  0.37455300  0.75261600  0.34232400  1
  O  O53  1  0.36920400  0.62363500  0.20658200  1
  O  O54  1  0.37691000  0.88459700  0.19802500  1
  O  O55  1  0.18333600  0.11209300  0.70300300  1
  O  O56  1  0.18353800  0.38693200  0.70475600  1
  O  O57  1  0.16128600  0.24265200  0.85741700  1
  O  O58  1  0.09130300  0.51363700  0.07578000  1
  O  O59  1  0.06955300  0.99131900  0.07783400  1
  O  O60  1  0.09682000  0.62210800  0.45844700  1
  O  O61  1  0.09620600  0.88505000  0.45967400  1
  O  O62  1  0.14167900  0.11786300  0.20926100  1
  O  O63  1  0.09762300  0.39311100  0.20974000  1
  O  O64  1  0.06279800  0.10191500  0.37791100  1
  O  O65  1  0.06450200  0.39882700  0.37750300  1
  O  O66  1  0.04525500  0.73505000  0.00423200  1
