# generated using pymatgen
data_AgSnRh2
_symmetry_space_group_name_H-M   'P 1'
_cell_length_a   10.65972800
_cell_length_b   10.65972800
_cell_length_c   10.65972800
_cell_angle_alpha   122.61894461
_cell_angle_beta   120.29406928
_cell_angle_gamma   87.50756036
_symmetry_Int_Tables_number   1
_chemical_formula_structural   AgSnRh2
_chemical_formula_sum   'Ag1 Sn1 Rh2'
_cell_volume   836.32124449
_cell_formula_units_Z   1
loop_
 _symmetry_equiv_pos_site_id
 _symmetry_equiv_pos_as_xyz
  1  'x, y, z'
loop_
 _atom_site_type_symbol
 _atom_site_label
 _atom_site_symmetry_multiplicity
 _atom_site_fract_x
 _atom_site_fract_y
 _atom_site_fract_z
 _atom_site_occupancy
  Ag  Ag0  1  0.00000000  0.00000000  0.00000000  1
  Sn  Sn1  1  0.00000000  0.50000000  0.50000000  1
  Rh  Rh2  1  0.00000000  0.26199700  0.26199700  1
  Rh  Rh3  1  0.00000000  0.73800300  0.73800300  1
