# generated using pymatgen
data_Zr2TcNi
_symmetry_space_group_name_H-M   'P 1'
_cell_length_a   10.90140260
_cell_length_b   10.90140260
_cell_length_c   10.90140260
_cell_angle_alpha   131.29952018
_cell_angle_beta   116.48293831
_cell_angle_gamma   83.91944117
_symmetry_Int_Tables_number   1
_chemical_formula_structural   Zr2TcNi
_chemical_formula_sum   'Zr2 Tc1 Ni1'
_cell_volume   836.27578582
_cell_formula_units_Z   1
loop_
 _symmetry_equiv_pos_site_id
 _symmetry_equiv_pos_as_xyz
  1  'x, y, z'
loop_
 _atom_site_type_symbol
 _atom_site_label
 _atom_site_symmetry_multiplicity
 _atom_site_fract_x
 _atom_site_fract_y
 _atom_site_fract_z
 _atom_site_occupancy
  Zr  Zr0  1  0.00000000  0.25476300  0.25476300  1
  Zr  Zr1  1  0.00000000  0.74523700  0.74523700  1
  Tc  Tc2  1  0.00000000  0.50000000  0.50000000  1
  Ni  Ni3  1  0.00000000  0.00000000  0.00000000  1
