# generated using pymatgen
data_TiMn(PO4)2
_symmetry_space_group_name_H-M   'P 1'
_cell_length_a   8.68042178
_cell_length_b   8.68042178
_cell_length_c   8.68042139
_cell_angle_alpha   60.12512861
_cell_angle_beta   60.12512861
_cell_angle_gamma   60.12512830
_symmetry_Int_Tables_number   1
_chemical_formula_structural   TiMn(PO4)2
_chemical_formula_sum   'Ti3 Mn3 P6 O24'
_cell_volume   463.80650181
_cell_formula_units_Z   3
loop_
 _symmetry_equiv_pos_site_id
 _symmetry_equiv_pos_as_xyz
  1  'x, y, z'
loop_
 _atom_site_type_symbol
 _atom_site_label
 _atom_site_symmetry_multiplicity
 _atom_site_fract_x
 _atom_site_fract_y
 _atom_site_fract_z
 _atom_site_occupancy
  Ti  Ti0  1  0.64628700  0.64628700  0.64628700  1
  Ti  Ti1  1  0.85539600  0.85539600  0.85539600  1
  Ti  Ti2  1  0.35259800  0.35259800  0.35259800  1
  Mn  Mn3  1  0.00299900  0.00299900  0.00299900  1
  Mn  Mn4  1  0.14578600  0.14578600  0.14578600  1
  Mn  Mn5  1  0.50078200  0.50078200  0.50078200  1
  P  P6  1  0.54764600  0.95219700  0.24807700  1
  P  P7  1  0.24807700  0.54764600  0.95219700  1
  P  P8  1  0.95219700  0.24807700  0.54764600  1
  P  P9  1  0.04395700  0.74500600  0.45938900  1
  P  P10  1  0.74500600  0.45938900  0.04395700  1
  P  P11  1  0.45938900  0.04395700  0.74500600  1
  O  O12  1  0.30563200  0.49871900  0.12145300  1
  O  O13  1  0.12145300  0.30563200  0.49871900  1
  O  O14  1  0.49871900  0.12145300  0.30563200  1
  O  O15  1  0.74279600  0.93899300  0.08679400  1
  O  O16  1  0.39662100  0.97796000  0.19234900  1
  O  O17  1  0.57336200  0.76096500  0.41442000  1
  O  O18  1  0.08679400  0.74279600  0.93899300  1
  O  O19  1  0.41442000  0.57336200  0.76096500  1
  O  O20  1  0.99858200  0.80805700  0.62190100  1
  O  O21  1  0.76096500  0.41442000  0.57336200  1
  O  O22  1  0.05041900  0.90143600  0.26935300  1
  O  O23  1  0.80805700  0.62190100  0.99858200  1
  O  O24  1  0.19234900  0.39662100  0.97796000  1
  O  O25  1  0.93899300  0.08679400  0.74279600  1
  O  O26  1  0.23603400  0.58019600  0.44905200  1
  O  O27  1  0.97796000  0.19234900  0.39662100  1
  O  O28  1  0.58019600  0.44905200  0.23603400  1
  O  O29  1  0.90143600  0.26935300  0.05041900  1
  O  O30  1  0.44905200  0.23603400  0.58019600  1
  O  O31  1  0.62190100  0.99858200  0.80805700  1
  O  O32  1  0.26935300  0.05041900  0.90143600  1
  O  O33  1  0.51652200  0.88625400  0.67199900  1
  O  O34  1  0.88625400  0.67199900  0.51652200  1
  O  O35  1  0.67199900  0.51652200  0.88625400  1
