# generated using pymatgen
data_ZrZn2Pt
_symmetry_space_group_name_H-M   'P 1'
_cell_length_a   11.39397403
_cell_length_b   11.39397403
_cell_length_c   11.39397403
_cell_angle_alpha   125.17521733
_cell_angle_beta   115.96691367
_cell_angle_gamma   89.20179433
_symmetry_Int_Tables_number   1
_chemical_formula_structural   ZrZn2Pt
_chemical_formula_sum   'Zr1 Zn2 Pt1'
_cell_volume   1028.28315293
_cell_formula_units_Z   1
loop_
 _symmetry_equiv_pos_site_id
 _symmetry_equiv_pos_as_xyz
  1  'x, y, z'
loop_
 _atom_site_type_symbol
 _atom_site_label
 _atom_site_symmetry_multiplicity
 _atom_site_fract_x
 _atom_site_fract_y
 _atom_site_fract_z
 _atom_site_occupancy
  Zr  Zr0  1  0.00000000  0.00000000  0.00000000  1
  Zn  Zn1  1  0.00000000  0.27097500  0.27097500  1
  Zn  Zn2  1  0.00000000  0.72902500  0.72902500  1
  Pt  Pt3  1  0.00000000  0.50000000  0.50000000  1
