# generated using pymatgen
data_Gd2(WO4)3
_symmetry_space_group_name_H-M   'P 1'
_cell_length_a   7.00453936
_cell_length_b   7.00453936
_cell_length_c   11.53711607
_cell_angle_alpha   79.15608701
_cell_angle_beta   79.15608701
_cell_angle_gamma   112.22253832
_symmetry_Int_Tables_number   1
_chemical_formula_structural   Gd2(WO4)3
_chemical_formula_sum   'Gd4 W6 O24'
_cell_volume   493.27777564
_cell_formula_units_Z   2
loop_
 _symmetry_equiv_pos_site_id
 _symmetry_equiv_pos_as_xyz
  1  'x, y, z'
loop_
 _atom_site_type_symbol
 _atom_site_label
 _atom_site_symmetry_multiplicity
 _atom_site_fract_x
 _atom_site_fract_y
 _atom_site_fract_z
 _atom_site_occupancy
  Gd  Gd0  1  0.69343100  0.94799600  0.59471500  1
  Gd  Gd1  1  0.94799600  0.69343100  0.09471500  1
  Gd  Gd2  1  0.05200400  0.30656900  0.90528500  1
  Gd  Gd3  1  0.30656900  0.05200400  0.40528500  1
  W  W4  1  0.50854100  0.79722100  0.95206100  1
  W  W5  1  0.79722100  0.50854100  0.45206100  1
  W  W6  1  0.11812300  0.88187700  0.75000000  1
  W  W7  1  0.88187700  0.11812300  0.25000000  1
  W  W8  1  0.20277900  0.49145900  0.54793900  1
  W  W9  1  0.49145900  0.20277900  0.04793900  1
  O  O10  1  0.64918800  0.79552700  0.80209100  1
  O  O11  1  0.40542200  0.98824900  0.72010000  1
  O  O12  1  0.02649900  0.94746800  0.89169900  1
  O  O13  1  0.67316800  0.60622700  0.56146900  1
  O  O14  1  0.22191100  0.62207700  0.96217600  1
  O  O15  1  0.89819400  0.32427000  0.57630200  1
  O  O16  1  0.79552700  0.64918800  0.30209100  1
  O  O17  1  0.67573000  0.10180600  0.92369800  1
  O  O18  1  0.37792300  0.77808800  0.53782400  1
  O  O19  1  0.39377300  0.32683200  0.93853100  1
  O  O20  1  0.05253200  0.97350100  0.60830100  1
  O  O21  1  0.98824900  0.40542200  0.22010000  1
  O  O22  1  0.01175100  0.59457800  0.77990000  1
  O  O23  1  0.94746800  0.02649900  0.39169900  1
  O  O24  1  0.60622700  0.67316800  0.06146900  1
  O  O25  1  0.62207700  0.22191200  0.46217600  1
  O  O26  1  0.32427000  0.89819400  0.07630200  1
  O  O27  1  0.20447300  0.35081200  0.69790900  1
  O  O28  1  0.10180600  0.67573000  0.42369800  1
  O  O29  1  0.77808900  0.37792300  0.03782400  1
  O  O30  1  0.32683200  0.39377300  0.43853100  1
  O  O31  1  0.97350100  0.05253200  0.10830100  1
  O  O32  1  0.59457800  0.01175100  0.27990000  1
  O  O33  1  0.35081200  0.20447300  0.19790900  1
