# generated using pymatgen
data_Na8Bi5O14
_symmetry_space_group_name_H-M   'P 1'
_cell_length_a   9.16190000
_cell_length_b   9.21003645
_cell_length_c   11.55700577
_cell_angle_alpha   105.27947600
_cell_angle_beta   100.77183904
_cell_angle_gamma   112.36637353
_symmetry_Int_Tables_number   1
_chemical_formula_structural   Na8Bi5O14
_chemical_formula_sum   'Na16 Bi10 O28'
_cell_volume   823.64393680
_cell_formula_units_Z   2
loop_
 _symmetry_equiv_pos_site_id
 _symmetry_equiv_pos_as_xyz
  1  'x, y, z'
loop_
 _atom_site_type_symbol
 _atom_site_label
 _atom_site_symmetry_multiplicity
 _atom_site_fract_x
 _atom_site_fract_y
 _atom_site_fract_z
 _atom_site_occupancy
  Na  Na0  1  0.44990600  0.67892000  0.01746300  1
  Na  Na1  1  0.00000000  0.00000000  0.00000000  1
  Na  Na2  1  0.19411600  0.67407600  0.18935100  1
  Na  Na3  1  0.30665300  0.37659700  0.17114700  1
  Na  Na4  1  0.38050700  0.01466700  0.10642400  1
  Na  Na5  1  0.69757900  0.40968300  0.27968100  1
  Na  Na6  1  0.11212100  0.46674300  0.37642400  1
  Na  Na7  1  0.56985100  0.14669400  0.43007600  1
  Na  Na8  1  0.50000000  0.50000000  0.50000000  1
  Na  Na9  1  0.43014900  0.85330600  0.56992400  1
  Na  Na10  1  0.88787900  0.53325700  0.62357600  1
  Na  Na11  1  0.30242100  0.59031700  0.72031900  1
  Na  Na12  1  0.61949300  0.98533300  0.89357600  1
  Na  Na13  1  0.69334700  0.62340300  0.82885300  1
  Na  Na14  1  0.80588400  0.32592400  0.81064900  1
  Na  Na15  1  0.55009400  0.32108000  0.98253700  1
  Bi  Bi16  1  0.84941200  0.71070000  0.13971500  1
  Bi  Bi17  1  0.77308500  0.08102100  0.20229400  1
  Bi  Bi18  1  0.60322800  0.76807200  0.34161300  1
  Bi  Bi19  1  0.18965800  0.11100800  0.31911800  1
  Bi  Bi20  1  0.03730700  0.80972500  0.46772100  1
  Bi  Bi21  1  0.96269300  0.19027500  0.53227900  1
  Bi  Bi22  1  0.81034200  0.88899200  0.68088200  1
  Bi  Bi23  1  0.39677200  0.23192800  0.65838700  1
  Bi  Bi24  1  0.22691500  0.91897900  0.79770600  1
  Bi  Bi25  1  0.15058800  0.28930000  0.86028500  1
  O  O26  1  0.79820500  0.52618000  0.97511100  1
  O  O27  1  0.74717900  0.84687800  0.04610500  1
  O  O28  1  0.61590700  0.57753000  0.16821000  1
  O  O29  1  0.53689300  0.91390900  0.23059700  1
  O  O30  1  0.65416100  0.17936800  0.09772500  1
  O  O31  1  0.10650500  0.88373200  0.15262700  1
  O  O32  1  0.96433700  0.62185900  0.27894400  1
  O  O33  1  0.92856000  0.94139500  0.32136500  1
  O  O34  1  0.36769600  0.62666800  0.35173500  1
  O  O35  1  0.05539600  0.20422300  0.21126500  1
  O  O36  1  0.41769000  0.24733100  0.30048000  1
  O  O37  1  0.71030900  0.99488600  0.55716800  1
  O  O38  1  0.77972200  0.69207600  0.50846600  1
  O  O39  1  0.84126100  0.28776400  0.40645200  1
  O  O40  1  0.15873900  0.71223600  0.59354800  1
  O  O41  1  0.22027800  0.30792400  0.49153400  1
  O  O42  1  0.28969100  0.00511400  0.44283200  1
  O  O43  1  0.58231000  0.75266900  0.69952000  1
  O  O44  1  0.94460400  0.79577700  0.78873500  1
  O  O45  1  0.63230400  0.37333200  0.64826500  1
  O  O46  1  0.07144000  0.05860500  0.67863500  1
  O  O47  1  0.03566300  0.37814100  0.72105600  1
  O  O48  1  0.89349500  0.11626800  0.84737300  1
  O  O49  1  0.34583900  0.82063200  0.90227500  1
  O  O50  1  0.46310700  0.08609100  0.76940300  1
  O  O51  1  0.38409300  0.42247000  0.83179000  1
  O  O52  1  0.25282100  0.15312200  0.95389500  1
  O  O53  1  0.20179500  0.47382000  0.02488900  1
