# generated using pymatgen
data_Na2Li5Ti3Fe(PO4)6
_symmetry_space_group_name_H-M   'P 1'
_cell_length_a   9.00900926
_cell_length_b   9.01936739
_cell_length_c   8.98353646
_cell_angle_alpha   57.24967217
_cell_angle_beta   57.19882098
_cell_angle_gamma   57.13371630
_symmetry_Int_Tables_number   1
_chemical_formula_structural   Na2Li5Ti3Fe(PO4)6
_chemical_formula_sum   'Na2 Li5 Ti3 Fe1 P6 O24'
_cell_volume   482.79778954
_cell_formula_units_Z   1
loop_
 _symmetry_equiv_pos_site_id
 _symmetry_equiv_pos_as_xyz
  1  'x, y, z'
loop_
 _atom_site_type_symbol
 _atom_site_label
 _atom_site_symmetry_multiplicity
 _atom_site_fract_x
 _atom_site_fract_y
 _atom_site_fract_z
 _atom_site_occupancy
  Na  Na0  1  0.02154100  0.99151000  0.97352800  1
  Na  Na1  1  0.49321500  0.50485400  0.49927600  1
  Li  Li2  1  0.34372200  0.71294700  0.10283500  1
  Li  Li3  1  0.11172000  0.34323000  0.70665300  1
  Li  Li4  1  0.89835500  0.65319600  0.28372400  1
  Li  Li5  1  0.65140500  0.28567100  0.89940300  1
  Li  Li6  1  0.71139300  0.10649200  0.34087800  1
  Ti  Ti7  1  0.14599100  0.14530600  0.15021800  1
  Ti  Ti8  1  0.63456200  0.66197400  0.65306400  1
  Ti  Ti9  1  0.85334900  0.85581300  0.84906500  1
  Fe  Fe10  1  0.34480400  0.34449400  0.34754000  1
  P  P11  1  0.03949300  0.75485400  0.45422700  1
  P  P12  1  0.54881400  0.95560800  0.24431300  1
  P  P13  1  0.23910900  0.54872900  0.95949000  1
  P  P14  1  0.75148700  0.45746400  0.03974100  1
  P  P15  1  0.45637400  0.04031000  0.75801700  1
  P  P16  1  0.95399800  0.25033000  0.54718600  1
  O  O17  1  0.99534700  0.82336800  0.60062400  1
  O  O18  1  0.12472800  0.88158700  0.24706800  1
  O  O19  1  0.10929100  0.74628300  0.87136500  1
  O  O20  1  0.39473800  0.99164700  0.19026200  1
  O  O21  1  0.46422800  0.84379300  0.79878500  1
  O  O22  1  0.18510600  0.55143900  0.48927900  1
  O  O23  1  0.52584200  0.80619300  0.44622600  1
  O  O24  1  0.21128900  0.55545800  0.14398600  1
  O  O25  1  0.18900900  0.38891400  0.00151400  1
  O  O26  1  0.75393300  0.86982800  0.11467700  1
  O  O27  1  0.13274500  0.23787900  0.54554100  1
  O  O28  1  0.44764200  0.51306100  0.81896400  1
  O  O29  1  0.54679100  0.48916500  0.18440300  1
  O  O30  1  0.85158700  0.77730900  0.45884100  1
  O  O31  1  0.24914600  0.13133900  0.87902900  1
  O  O32  1  0.81480100  0.60649200  0.99825700  1
  O  O33  1  0.77171500  0.46218100  0.85203900  1
  O  O34  1  0.49328000  0.17571800  0.55027900  1
  O  O35  1  0.80554300  0.45614200  0.51564000  1
  O  O36  1  0.54912500  0.14220100  0.21676800  1
  O  O37  1  0.60188000  0.00869300  0.82142100  1
  O  O38  1  0.87929000  0.25120500  0.12418900  1
  O  O39  1  0.86499600  0.12373500  0.75210600  1
  O  O40  1  0.99061500  0.19228800  0.39548200  1
