# generated using pymatgen
data_CrSn3(PO4)6
_symmetry_space_group_name_H-M   'P 1'
_cell_length_a   8.95871257
_cell_length_b   8.95871257
_cell_length_c   8.95871229
_cell_angle_alpha   58.12721471
_cell_angle_beta   58.12721471
_cell_angle_gamma   58.12721524
_symmetry_Int_Tables_number   1
_chemical_formula_structural   CrSn3(PO4)6
_chemical_formula_sum   'Cr1 Sn3 P6 O24'
_cell_volume   486.59262312
_cell_formula_units_Z   1
loop_
 _symmetry_equiv_pos_site_id
 _symmetry_equiv_pos_as_xyz
  1  'x, y, z'
loop_
 _atom_site_type_symbol
 _atom_site_label
 _atom_site_symmetry_multiplicity
 _atom_site_fract_x
 _atom_site_fract_y
 _atom_site_fract_z
 _atom_site_occupancy
  Cr  Cr0  1  0.85662200  0.85662200  0.85662200  1
  Sn  Sn1  1  0.14316000  0.14316000  0.14316000  1
  Sn  Sn2  1  0.35816400  0.35816400  0.35816400  1
  Sn  Sn3  1  0.64308600  0.64308600  0.64308600  1
  P  P4  1  0.03552800  0.46802000  0.74984900  1
  P  P5  1  0.46802000  0.74984900  0.03552800  1
  P  P6  1  0.74984900  0.03552800  0.46802000  1
  P  P7  1  0.24421100  0.96072500  0.54271400  1
  P  P8  1  0.54271400  0.24421100  0.96072500  1
  P  P9  1  0.96072500  0.54271400  0.24421100  1
  O  O10  1  0.13103600  0.52434600  0.26311500  1
  O  O11  1  0.26311500  0.13103600  0.52434600  1
  O  O12  1  0.05984700  0.29081600  0.92005500  1
  O  O13  1  0.52434500  0.26311500  0.13103600  1
  O  O14  1  0.21440600  0.45463000  0.57733700  1
  O  O15  1  0.99352000  0.64325900  0.78686100  1
  O  O16  1  0.29081600  0.92005500  0.05984700  1
  O  O17  1  0.45463000  0.57733700  0.21440600  1
  O  O18  1  0.57733700  0.21440600  0.45463000  1
  O  O19  1  0.21680200  0.98688400  0.37545300  1
  O  O20  1  0.06438700  0.92880100  0.72135500  1
  O  O21  1  0.37545300  0.21680200  0.98688400  1
  O  O22  1  0.64325900  0.78686100  0.99352000  1
  O  O23  1  0.92005500  0.05984700  0.29081600  1
  O  O24  1  0.78686100  0.99352000  0.64325900  1
  O  O25  1  0.40908300  0.77939200  0.57475600  1
  O  O26  1  0.57475600  0.40908300  0.77939200  1
  O  O27  1  0.72135500  0.06438700  0.92880100  1
  O  O28  1  0.98688400  0.37545300  0.21680200  1
  O  O29  1  0.77939200  0.57475600  0.40908300  1
  O  O30  1  0.49002600  0.72095100  0.87080300  1
  O  O31  1  0.92880100  0.72135500  0.06438700  1
  O  O32  1  0.72095100  0.87080300  0.49002600  1
  O  O33  1  0.87080300  0.49002600  0.72095100  1
