# generated using pymatgen
data_Cr3WO8
_symmetry_space_group_name_H-M   'P 1'
_cell_length_a   5.99019200
_cell_length_b   5.98998053
_cell_length_c   9.18750302
_cell_angle_alpha   89.99402687
_cell_angle_beta   90.00055756
_cell_angle_gamma   119.99994826
_symmetry_Int_Tables_number   1
_chemical_formula_structural   Cr3WO8
_chemical_formula_sum   'Cr6 W2 O16'
_cell_volume   285.49236816
_cell_formula_units_Z   2
loop_
 _symmetry_equiv_pos_site_id
 _symmetry_equiv_pos_as_xyz
  1  'x, y, z'
loop_
 _atom_site_type_symbol
 _atom_site_label
 _atom_site_symmetry_multiplicity
 _atom_site_fract_x
 _atom_site_fract_y
 _atom_site_fract_z
 _atom_site_occupancy
  Cr  Cr0  1  0.17039100  0.82961500  0.21406600  1
  Cr  Cr1  1  0.17039600  0.34078700  0.21408200  1
  Cr  Cr2  1  0.65921200  0.82960700  0.21407700  1
  Cr  Cr3  1  0.34079300  0.17038600  0.71409700  1
  Cr  Cr4  1  0.82961800  0.65925500  0.71401600  1
  Cr  Cr5  1  0.82958700  0.17038000  0.71408800  1
  W  W6  1  0.33333800  0.66669400  0.49370200  1
  W  W7  1  0.66668800  0.33338500  0.99369800  1
  O  O8  1  0.17457300  0.82546900  0.59638800  1
  O  O9  1  0.04823600  0.52410200  0.34286700  1
  O  O10  1  0.33334900  0.66668000  0.10864500  1
  O  O11  1  0.99998700  0.99997900  0.29555600  1
  O  O12  1  0.00001600  0.00003400  0.79554800  1
  O  O13  1  0.17456500  0.34914300  0.59641100  1
  O  O14  1  0.47588700  0.95178200  0.34283600  1
  O  O15  1  0.47586400  0.52409000  0.34287200  1
  O  O16  1  0.34913600  0.17458600  0.09639500  1
  O  O17  1  0.65087200  0.82546800  0.59638900  1
  O  O18  1  0.52412200  0.47589300  0.84283500  1
  O  O19  1  0.52410900  0.04821200  0.84287800  1
  O  O20  1  0.66663000  0.33328400  0.60863500  1
  O  O21  1  0.82544400  0.65089700  0.09639700  1
  O  O22  1  0.95175200  0.47588300  0.84283800  1
  O  O23  1  0.82543800  0.17458700  0.09640200  1
