# generated using pymatgen
data_Ba2LaCl7
_symmetry_space_group_name_H-M   'P 1'
_cell_length_a   14.21327600
_cell_length_b   7.29198300
_cell_length_c   12.46936485
_cell_angle_alpha   87.43564524
_cell_angle_beta   90.00000000
_cell_angle_gamma   90.00000000
_symmetry_Int_Tables_number   1
_chemical_formula_structural   Ba2LaCl7
_chemical_formula_sum   'Ba8 La4 Cl28'
_cell_volume   1291.06779506
_cell_formula_units_Z   4
loop_
 _symmetry_equiv_pos_site_id
 _symmetry_equiv_pos_as_xyz
  1  'x, y, z'
loop_
 _atom_site_type_symbol
 _atom_site_label
 _atom_site_symmetry_multiplicity
 _atom_site_fract_x
 _atom_site_fract_y
 _atom_site_fract_z
 _atom_site_occupancy
  Ba  Ba0  1  0.53512200  0.76900600  0.73077900  1
  Ba  Ba1  1  0.14286700  0.72410800  0.61881400  1
  Ba  Ba2  1  0.77910300  0.73893500  0.12019300  1
  Ba  Ba3  1  0.37856800  0.70676800  0.21544400  1
  Ba  Ba4  1  0.87856800  0.29323200  0.78455600  1
  Ba  Ba5  1  0.27910300  0.26106500  0.87980700  1
  Ba  Ba6  1  0.64286700  0.27589200  0.38118600  1
  Ba  Ba7  1  0.03512200  0.23099400  0.26922100  1
  La  La8  1  0.84763300  0.80516200  0.54281100  1
  La  La9  1  0.07301800  0.78480200  0.03453500  1
  La  La10  1  0.57301800  0.21519800  0.96546500  1
  La  La11  1  0.34763300  0.19483800  0.45718900  1
  Cl  Cl12  1  0.69893100  0.95810700  0.88649800  1
  Cl  Cl13  1  0.42859000  0.95016200  0.97885000  1
  Cl  Cl14  1  0.50691800  0.97106800  0.50062800  1
  Cl  Cl15  1  0.15597600  0.89816600  0.84729600  1
  Cl  Cl16  1  0.24153800  0.89810300  0.38955200  1
  Cl  Cl17  1  0.76879400  0.90573100  0.34987900  1
  Cl  Cl18  1  0.92245300  0.80368900  0.74928300  1
  Cl  Cl19  1  0.00365000  0.78146300  0.24439300  1
  Cl  Cl20  1  0.33400500  0.60259200  0.72156700  1
  Cl  Cl21  1  0.58971600  0.60643700  0.21655900  1
  Cl  Cl22  1  0.69928900  0.56959600  0.60554200  1
  Cl  Cl23  1  0.70491200  0.48500900  0.90212600  1
  Cl  Cl24  1  0.96177900  0.49731300  0.53893100  1
  Cl  Cl25  1  0.44019400  0.48871700  0.98801100  1
  Cl  Cl26  1  0.94019400  0.51128300  0.01198900  1
  Cl  Cl27  1  0.46177900  0.50268700  0.46106900  1
  Cl  Cl28  1  0.20491200  0.51499100  0.09787400  1
  Cl  Cl29  1  0.19928900  0.43040400  0.39445800  1
  Cl  Cl30  1  0.08971600  0.39356300  0.78344100  1
  Cl  Cl31  1  0.83400500  0.39740800  0.27843300  1
  Cl  Cl32  1  0.50365000  0.21853700  0.75560700  1
  Cl  Cl33  1  0.42245300  0.19631100  0.25071700  1
  Cl  Cl34  1  0.26879400  0.09426900  0.65012100  1
  Cl  Cl35  1  0.74153800  0.10189700  0.61044800  1
  Cl  Cl36  1  0.65597600  0.10183400  0.15270400  1
  Cl  Cl37  1  0.00691800  0.02893200  0.49937200  1
  Cl  Cl38  1  0.92859000  0.04983800  0.02115000  1
  Cl  Cl39  1  0.19893100  0.04189300  0.11350200  1
