# generated using pymatgen
data_Zr2OsRh
_symmetry_space_group_name_H-M   'P 1'
_cell_length_a   10.71062680
_cell_length_b   10.71062680
_cell_length_c   10.71062680
_cell_angle_alpha   128.41473351
_cell_angle_beta   117.24209534
_cell_angle_gamma   85.46313308
_symmetry_Int_Tables_number   1
_chemical_formula_structural   Zr2OsRh
_chemical_formula_sum   'Zr2 Os1 Rh1'
_cell_volume   817.91708673
_cell_formula_units_Z   1
loop_
 _symmetry_equiv_pos_site_id
 _symmetry_equiv_pos_as_xyz
  1  'x, y, z'
loop_
 _atom_site_type_symbol
 _atom_site_label
 _atom_site_symmetry_multiplicity
 _atom_site_fract_x
 _atom_site_fract_y
 _atom_site_fract_z
 _atom_site_occupancy
  Zr  Zr0  1  0.00000000  0.25224100  0.25224100  1
  Zr  Zr1  1  0.00000000  0.74775900  0.74775900  1
  Os  Os2  1  0.00000000  0.50000000  0.50000000  1
  Rh  Rh3  1  0.00000000  0.00000000  0.00000000  1
