# generated using pymatgen
data_Ti3Co2Te(PO4)6
_symmetry_space_group_name_H-M   'P 1'
_cell_length_a   8.65259648
_cell_length_b   8.65259648
_cell_length_c   8.65259694
_cell_angle_alpha   61.10779740
_cell_angle_beta   61.10779740
_cell_angle_gamma   61.10779723
_symmetry_Int_Tables_number   1
_chemical_formula_structural   Ti3Co2Te(PO4)6
_chemical_formula_sum   'Ti3 Co2 Te1 P6 O24'
_cell_volume   469.48377235
_cell_formula_units_Z   1
loop_
 _symmetry_equiv_pos_site_id
 _symmetry_equiv_pos_as_xyz
  1  'x, y, z'
loop_
 _atom_site_type_symbol
 _atom_site_label
 _atom_site_symmetry_multiplicity
 _atom_site_fract_x
 _atom_site_fract_y
 _atom_site_fract_z
 _atom_site_occupancy
  Ti  Ti0  1  0.14033100  0.14033100  0.14033100  1
  Ti  Ti1  1  0.35692100  0.35692100  0.35692100  1
  Ti  Ti2  1  0.63992100  0.63992100  0.63992100  1
  Co  Co3  1  0.00833600  0.00833600  0.00833600  1
  Co  Co4  1  0.50384200  0.50384200  0.50384200  1
  Te  Te5  1  0.85678700  0.85678700  0.85678700  1
  P  P6  1  0.96009500  0.53517000  0.25568900  1
  P  P7  1  0.25568900  0.96009500  0.53517000  1
  P  P8  1  0.53517000  0.25568900  0.96009500  1
  P  P9  1  0.44984000  0.74539700  0.04655600  1
  P  P10  1  0.74539700  0.04655600  0.44984000  1
  P  P11  1  0.04655600  0.44984000  0.74539700  1
  O  O12  1  0.48476700  0.32577900  0.11684600  1
  O  O13  1  0.11684600  0.48476700  0.32577900  1
  O  O14  1  0.26118400  0.90876100  0.06014400  1
  O  O15  1  0.32577900  0.11684600  0.48476700  1
  O  O16  1  0.60162500  0.80852600  0.02408000  1
  O  O17  1  0.42991200  0.58600800  0.23757100  1
  O  O18  1  0.90876100  0.06014400  0.26118400  1
  O  O19  1  0.58600800  0.23757100  0.42991200  1
  O  O20  1  0.00038000  0.38224000  0.18471500  1
  O  O21  1  0.23757100  0.42991200  0.58600800  1
  O  O22  1  0.95231400  0.73074800  0.10018000  1
  O  O23  1  0.18471500  0.00038000  0.38224000  1
  O  O24  1  0.80852600  0.02408000  0.60162500  1
  O  O25  1  0.06014400  0.26118400  0.90876100  1
  O  O26  1  0.76729300  0.55260200  0.41390600  1
  O  O27  1  0.02408000  0.60162500  0.80852600  1
  O  O28  1  0.41390600  0.76729300  0.55260200  1
  O  O29  1  0.10018000  0.95231400  0.73074800  1
  O  O30  1  0.55260200  0.41390600  0.76729300  1
  O  O31  1  0.38224000  0.18471500  0.00038000  1
  O  O32  1  0.68921200  0.87977100  0.50254700  1
  O  O33  1  0.73074800  0.10018000  0.95231400  1
  O  O34  1  0.87977100  0.50254700  0.68921200  1
  O  O35  1  0.50254700  0.68921200  0.87977100  1
