# generated using pymatgen
data_Li3CrSiCO7
_symmetry_space_group_name_H-M   'P 1'
_cell_length_a   5.05174557
_cell_length_b   8.30590824
_cell_length_c   12.95647102
_cell_angle_alpha   89.99627991
_cell_angle_beta   90.00449490
_cell_angle_gamma   85.24665065
_symmetry_Int_Tables_number   1
_chemical_formula_structural   Li3CrSiCO7
_chemical_formula_sum   'Li12 Cr4 Si4 C4 O28'
_cell_volume   541.77512762
_cell_formula_units_Z   4
loop_
 _symmetry_equiv_pos_site_id
 _symmetry_equiv_pos_as_xyz
  1  'x, y, z'
loop_
 _atom_site_type_symbol
 _atom_site_label
 _atom_site_symmetry_multiplicity
 _atom_site_fract_x
 _atom_site_fract_y
 _atom_site_fract_z
 _atom_site_occupancy
  Li  Li0  1  0.77050700  0.10858100  0.12503400  1
  Li  Li1  1  0.77048700  0.10859500  0.62498900  1
  Li  Li2  1  0.22946500  0.89143100  0.37496400  1
  Li  Li3  1  0.22955200  0.89139300  0.87501000  1
  Li  Li4  1  0.23594900  0.29322200  0.01750500  1
  Li  Li5  1  0.23592500  0.29323700  0.51746500  1
  Li  Li6  1  0.23596900  0.29319100  0.23255800  1
  Li  Li7  1  0.23594200  0.29324100  0.73251700  1
  Li  Li8  1  0.76404400  0.70680500  0.26744300  1
  Li  Li9  1  0.76405700  0.70675700  0.76748300  1
  Li  Li10  1  0.76405600  0.70677600  0.48249500  1
  Li  Li11  1  0.76410000  0.70676200  0.98253000  1
  Cr  Cr12  1  0.80246300  0.32074600  0.87498300  1
  Cr  Cr13  1  0.19754300  0.67926100  0.62499100  1
  Cr  Cr14  1  0.80240300  0.32076200  0.37500900  1
  Cr  Cr15  1  0.19754100  0.67925700  0.12502600  1
  Si  Si16  1  0.71611500  0.42215300  0.12500500  1
  Si  Si17  1  0.71608200  0.42217700  0.62499700  1
  Si  Si18  1  0.28387800  0.57783700  0.37499100  1
  Si  Si19  1  0.28391100  0.57782800  0.87500600  1
  C  C20  1  0.70260200  0.03060100  0.37495900  1
  C  C21  1  0.70264200  0.03058900  0.87501600  1
  C  C22  1  0.29740200  0.96940100  0.12503800  1
  C  C23  1  0.29736600  0.96940400  0.62498700  1
  O  O24  1  0.35759700  0.11652900  0.12505400  1
  O  O25  1  0.35757900  0.11654200  0.62497200  1
  O  O26  1  0.64240000  0.88346700  0.37494700  1
  O  O27  1  0.64243100  0.88345400  0.87502600  1
  O  O28  1  0.94729800  0.07084800  0.37496700  1
  O  O29  1  0.94734800  0.07082500  0.87500900  1
  O  O30  1  0.05270000  0.92916000  0.12503700  1
  O  O31  1  0.05265800  0.92917000  0.62498900  1
  O  O32  1  0.51930200  0.15080800  0.37496600  1
  O  O33  1  0.51934700  0.15080100  0.87500500  1
  O  O34  1  0.48068700  0.84918600  0.12503700  1
  O  O35  1  0.48066300  0.84919600  0.62499300  1
  O  O36  1  0.38747300  0.45548600  0.12504700  1
  O  O37  1  0.38745500  0.45549200  0.62502600  1
  O  O38  1  0.61251500  0.54452600  0.37495700  1
  O  O39  1  0.61255200  0.54450600  0.87497000  1
  O  O40  1  0.16067400  0.40207100  0.37500600  1
  O  O41  1  0.16072500  0.40205100  0.87500800  1
  O  O42  1  0.83929700  0.59793400  0.12499900  1
  O  O43  1  0.83928500  0.59794400  0.62498500  1
  O  O44  1  0.82000800  0.30475400  0.02812800  1
  O  O45  1  0.81997400  0.30475500  0.52812600  1
  O  O46  1  0.82007200  0.30470700  0.22186700  1
  O  O47  1  0.82005900  0.30471400  0.72184600  1
  O  O48  1  0.17992000  0.69530200  0.27814800  1
  O  O49  1  0.17995100  0.69527900  0.77813900  1
  O  O50  1  0.17998900  0.69525200  0.47185900  1
  O  O51  1  0.18003800  0.69523600  0.97188700  1
