# generated using pymatgen
data_Li5La3Nb2O12
_symmetry_space_group_name_H-M   'P 1'
_cell_length_a   11.18866630
_cell_length_b   11.14644969
_cell_length_c   11.16091044
_cell_angle_alpha   109.76778368
_cell_angle_beta   109.50649804
_cell_angle_gamma   109.27467965
_symmetry_Int_Tables_number   1
_chemical_formula_structural   Li5La3Nb2O12
_chemical_formula_sum   'Li20 La12 Nb8 O48'
_cell_volume   1069.69330657
_cell_formula_units_Z   4
loop_
 _symmetry_equiv_pos_site_id
 _symmetry_equiv_pos_as_xyz
  1  'x, y, z'
loop_
 _atom_site_type_symbol
 _atom_site_label
 _atom_site_symmetry_multiplicity
 _atom_site_fract_x
 _atom_site_fract_y
 _atom_site_fract_z
 _atom_site_occupancy
  Li  Li0  1  0.80962500  0.06014400  0.11001300  1
  Li  Li1  1  0.42893400  0.24565300  0.04110900  1
  Li  Li2  1  0.80013300  0.24692400  0.69267800  1
  Li  Li3  1  0.70388800  0.39564000  0.45154900  1
  Li  Li4  1  0.88899500  0.18040200  0.92532600  1
  Li  Li5  1  0.60795400  0.53040300  0.28496700  1
  Li  Li6  1  0.24894900  0.04571300  0.43989400  1
  Li  Li7  1  0.53779200  0.29075200  0.61671800  1
  Li  Li8  1  0.96678900  0.58108800  0.75555900  1
  Li  Li9  1  0.69002700  0.79952000  0.24933400  1
  Li  Li10  1  0.47687800  0.71526500  0.38863400  1
  Li  Li11  1  0.01709500  0.41179800  0.23757100  1
  Li  Li12  1  0.39300300  0.44394700  0.69692100  1
  Li  Li13  1  0.10953900  0.82623800  0.09099400  1
  Li  Li14  1  0.06118000  0.11035800  0.80948900  1
  Li  Li15  1  0.21271600  0.74331800  0.32189600  1
  Li  Li16  1  0.28810800  0.61165100  0.53429600  1
  Li  Li17  1  0.56992600  0.75085300  0.95856500  1
  Li  Li18  1  0.25294000  0.68537800  0.78682500  1
  Li  Li19  1  0.17271500  0.91287600  0.89062200  1
  La  La20  1  0.74970900  0.12421900  0.37480000  1
  La  La21  1  0.37838200  0.12684500  0.25117600  1
  La  La22  1  0.87989200  0.63449700  0.25087900  1
  La  La23  1  0.25000300  0.38017600  0.13000400  1
  La  La24  1  0.62366500  0.25017800  0.88472700  1
  La  La25  1  0.12595500  0.24697700  0.37603300  1
  La  La26  1  0.86804700  0.76039400  0.61592000  1
  La  La27  1  0.36947200  0.74882500  0.11859300  1
  La  La28  1  0.75595300  0.63001400  0.88258700  1
  La  La29  1  0.12580200  0.37284000  0.74824000  1
  La  La30  1  0.62314700  0.87407500  0.74624100  1
  La  La31  1  0.24944000  0.89393800  0.63629400  1
  Nb  Nb32  1  0.50560400  0.00314500  0.00435000  1
  Nb  Nb33  1  0.99934600  0.99973300  0.00472500  1
  Nb  Nb34  1  0.50597200  0.00012700  0.50293600  1
  Nb  Nb35  1  0.49311100  0.49357900  0.99239600  1
  Nb  Nb36  1  0.50212500  0.50017300  0.50445800  1
  Nb  Nb37  1  0.99870500  0.00567000  0.49687400  1
  Nb  Nb38  1  0.99775500  0.49666100  0.99550800  1
  Nb  Nb39  1  0.99363200  0.50070800  0.49410000  1
  O  O40  1  0.90163200  0.02519500  0.32484600  1
  O  O41  1  0.88461900  0.40421700  0.07593700  1
  O  O42  1  0.92553200  0.30573100  0.32734500  1
  O  O43  1  0.97834900  0.67227200  0.09277500  1
  O  O44  1  0.58027900  0.16939800  0.20377100  1
  O  O45  1  0.92401100  0.12460300  0.59631500  1
  O  O46  1  0.60828300  0.41928700  0.09391300  1
  O  O47  1  0.19629500  0.11296400  0.01919500  1
  O  O48  1  0.68727900  0.67489000  0.07555200  1
  O  O49  1  0.59883600  0.17915600  0.48634400  1
  O  O50  1  0.89917800  0.38908400  0.57728300  1
  O  O51  1  0.12364400  0.02834800  0.20230800  1
  O  O52  1  0.67541600  0.08858500  0.70730800  1
  O  O53  1  0.82440800  0.53529700  0.41293800  1
  O  O54  1  0.47587800  0.38252800  0.30025700  1
  O  O55  1  0.42185700  0.09574600  0.61419600  1
  O  O56  1  0.01728500  0.19873700  0.11640300  1
  O  O57  1  0.48016100  0.59591300  0.17844300  1
  O  O58  1  0.82634800  0.79643900  0.40321200  1
  O  O59  1  0.67423200  0.08352900  0.97234700  1
  O  O60  1  0.38738700  0.30017100  0.48056200  1
  O  O61  1  0.80262000  0.41672600  0.82286500  1
  O  O62  1  0.69947400  0.52544700  0.61617600  1
  O  O63  1  0.59349600  0.91378600  0.11443200  1
  O  O64  1  0.29940900  0.47198900  0.38633200  1
  O  O65  1  0.20182700  0.58470700  0.17219500  1
  O  O66  1  0.41493500  0.08843600  0.89279900  1
  O  O67  1  0.32442900  0.90458900  0.02201300  1
  O  O68  1  0.17381400  0.19974300  0.57538000  1
  O  O69  1  0.61155700  0.69456600  0.52178100  1
  O  O70  1  0.57541300  0.90284600  0.37555100  1
  O  O71  1  0.53068400  0.41200100  0.82452800  1
  O  O72  1  0.98356300  0.80331600  0.89274700  1
  O  O73  1  0.52344100  0.61413700  0.70101900  1
  O  O74  1  0.88946400  0.98609900  0.81104700  1
  O  O75  1  0.32058800  0.91799600  0.30379800  1
  O  O76  1  0.17651600  0.48983500  0.59909700  1
  O  O77  1  0.29718300  0.32737600  0.92183400  1
  O  O78  1  0.09213900  0.61434800  0.41261400  1
  O  O79  1  0.40670900  0.81954200  0.51617200  1
  O  O80  1  0.79623200  0.88430700  0.97015400  1
  O  O81  1  0.38301000  0.58173800  0.90013400  1
  O  O82  1  0.02291200  0.32043600  0.90574600  1
  O  O83  1  0.09394800  0.88927800  0.42159600  1
  O  O84  1  0.41428200  0.82667800  0.79792300  1
  O  O85  1  0.08223400  0.70363700  0.68087400  1
  O  O86  1  0.11423700  0.58639000  0.91003200  1
  O  O87  1  0.07777300  0.97016100  0.67230900  1
