# generated using pymatgen
data_TiV3(PO4)6
_symmetry_space_group_name_H-M   'P 1'
_cell_length_a   8.75433692
_cell_length_b   8.75433692
_cell_length_c   8.75433726
_cell_angle_alpha   58.50736701
_cell_angle_beta   58.50736701
_cell_angle_gamma   58.50736678
_symmetry_Int_Tables_number   1
_chemical_formula_structural   TiV3(PO4)6
_chemical_formula_sum   'Ti1 V3 P6 O24'
_cell_volume   458.21282300
_cell_formula_units_Z   1
loop_
 _symmetry_equiv_pos_site_id
 _symmetry_equiv_pos_as_xyz
  1  'x, y, z'
loop_
 _atom_site_type_symbol
 _atom_site_label
 _atom_site_symmetry_multiplicity
 _atom_site_fract_x
 _atom_site_fract_y
 _atom_site_fract_z
 _atom_site_occupancy
  Ti  Ti0  1  0.13979200  0.13979200  0.13979200  1
  V  V1  1  0.86022200  0.86022200  0.86022200  1
  V  V2  1  0.64148500  0.64148500  0.64148500  1
  V  V3  1  0.35963800  0.35963800  0.35963800  1
  P  P4  1  0.53308000  0.96641500  0.25088900  1
  P  P5  1  0.25088900  0.53308000  0.96641500  1
  P  P6  1  0.96641500  0.25088900  0.53308000  1
  P  P7  1  0.03201500  0.74751700  0.46971900  1
  P  P8  1  0.74751700  0.46971900  0.03201500  1
  P  P9  1  0.46971900  0.03201500  0.74751700  1
  O  O10  1  0.49778200  0.86335300  0.71480000  1
  O  O11  1  0.86335300  0.71480000  0.49778200  1
  O  O12  1  0.71614000  0.94017700  0.07128400  1
  O  O13  1  0.71480000  0.49778200  0.86335300  1
  O  O14  1  0.56702600  0.78491900  0.42116200  1
  O  O15  1  0.36282000  0.99400500  0.22087000  1
  O  O16  1  0.07128400  0.71614000  0.94017700  1
  O  O17  1  0.42116200  0.56702600  0.78491900  1
  O  O18  1  0.78491900  0.42116200  0.56702600  1
  O  O19  1  0.00478000  0.77503700  0.64433800  1
  O  O20  1  0.06210800  0.91937500  0.28841900  1
  O  O21  1  0.77503700  0.64433800  0.00478000  1
  O  O22  1  0.22087000  0.36282000  0.99400500  1
  O  O23  1  0.94017700  0.07128400  0.71614000  1
  O  O24  1  0.99400500  0.22087000  0.36282000  1
  O  O25  1  0.21535000  0.56928600  0.44194600  1
  O  O26  1  0.56928600  0.44194600  0.21535000  1
  O  O27  1  0.91937500  0.28841900  0.06210800  1
  O  O28  1  0.64433800  0.00478000  0.77503700  1
  O  O29  1  0.44194600  0.21535000  0.56928600  1
  O  O30  1  0.27663300  0.50462000  0.14300200  1
  O  O31  1  0.28841900  0.06210800  0.91937500  1
  O  O32  1  0.14300200  0.27663300  0.50462000  1
  O  O33  1  0.50462000  0.14300200  0.27663300  1
