# generated using pymatgen
data_Na8Co5O14
_symmetry_space_group_name_H-M   'P 1'
_cell_length_a   8.26357600
_cell_length_b   8.46594035
_cell_length_c   10.32211668
_cell_angle_alpha   103.75275790
_cell_angle_beta   103.28577393
_cell_angle_gamma   112.55229055
_symmetry_Int_Tables_number   1
_chemical_formula_structural   Na8Co5O14
_chemical_formula_sum   'Na16 Co10 O28'
_cell_volume   604.89395743
_cell_formula_units_Z   2
loop_
 _symmetry_equiv_pos_site_id
 _symmetry_equiv_pos_as_xyz
  1  'x, y, z'
loop_
 _atom_site_type_symbol
 _atom_site_label
 _atom_site_symmetry_multiplicity
 _atom_site_fract_x
 _atom_site_fract_y
 _atom_site_fract_z
 _atom_site_occupancy
  Na  Na0  1  0.44197100  0.66606900  0.01214400  1
  Na  Na1  1  0.00000000  0.00000000  0.00000000  1
  Na  Na2  1  0.15120800  0.64775400  0.15661100  1
  Na  Na3  1  0.29593900  0.36459400  0.16036500  1
  Na  Na4  1  0.37267200  0.01534200  0.10737900  1
  Na  Na5  1  0.70912100  0.41638500  0.29716200  1
  Na  Na6  1  0.10351900  0.47445000  0.38209000  1
  Na  Na7  1  0.56061200  0.12393500  0.43210200  1
  Na  Na8  1  0.50000000  0.50000000  0.50000000  1
  Na  Na9  1  0.43938800  0.87606500  0.56789800  1
  Na  Na10  1  0.89648100  0.52555000  0.61791000  1
  Na  Na11  1  0.29087900  0.58361500  0.70283800  1
  Na  Na12  1  0.62732800  0.98465800  0.89262100  1
  Na  Na13  1  0.70406100  0.63540600  0.83963500  1
  Na  Na14  1  0.84879200  0.35224600  0.84338900  1
  Na  Na15  1  0.55802900  0.33393100  0.98785600  1
  Co  Co16  1  0.86295200  0.74763600  0.17081300  1
  Co  Co17  1  0.79437400  0.06644500  0.22582100  1
  Co  Co18  1  0.60999900  0.76556400  0.33892200  1
  Co  Co19  1  0.16923300  0.10530200  0.33324800  1
  Co  Co20  1  0.03380600  0.83644400  0.47129800  1
  Co  Co21  1  0.96619400  0.16355600  0.52870200  1
  Co  Co22  1  0.83076700  0.89469800  0.66675200  1
  Co  Co23  1  0.39000100  0.23443600  0.66107800  1
  Co  Co24  1  0.20562600  0.93355500  0.77417900  1
  Co  Co25  1  0.13704800  0.25236400  0.82918700  1
  O  O26  1  0.83702000  0.56776400  0.02281600  1
  O  O27  1  0.74990800  0.85657000  0.06474500  1
  O  O28  1  0.62868100  0.60391700  0.19038200  1
  O  O29  1  0.56637600  0.91101800  0.24035600  1
  O  O30  1  0.69365600  0.16787300  0.12533000  1
  O  O31  1  0.10470300  0.90080000  0.18196500  1
  O  O32  1  0.97896200  0.66153500  0.30824000  1
  O  O33  1  0.92733500  0.96251200  0.35215800  1
  O  O34  1  0.39089800  0.64295200  0.34966400  1
  O  O35  1  0.04111400  0.19669800  0.22850300  1
  O  O36  1  0.39290900  0.23477500  0.31128800  1
  O  O37  1  0.73702000  0.98939300  0.52848800  1
  O  O38  1  0.79083200  0.71335200  0.48382100  1
  O  O39  1  0.85328300  0.25457800  0.40980400  1
  O  O40  1  0.14671700  0.74542200  0.59019600  1
  O  O41  1  0.20916800  0.28664800  0.51617900  1
  O  O42  1  0.26298000  0.01060700  0.47151200  1
  O  O43  1  0.60709100  0.76522500  0.68871200  1
  O  O44  1  0.95888600  0.80330200  0.77149700  1
  O  O45  1  0.60910200  0.35704800  0.65033600  1
  O  O46  1  0.07266500  0.03748800  0.64784200  1
  O  O47  1  0.02103800  0.33846500  0.69176000  1
  O  O48  1  0.89529700  0.09920000  0.81803500  1
  O  O49  1  0.30634400  0.83212700  0.87467000  1
  O  O50  1  0.43362400  0.08898200  0.75964400  1
  O  O51  1  0.37131900  0.39608300  0.80961800  1
  O  O52  1  0.25009200  0.14343000  0.93525500  1
  O  O53  1  0.16298000  0.43223600  0.97718400  1
