# generated using pymatgen
data_Hf2ZnIr
_symmetry_space_group_name_H-M   'P 1'
_cell_length_a   11.15741855
_cell_length_b   11.15741855
_cell_length_c   11.15741855
_cell_angle_alpha   124.19860300
_cell_angle_beta   117.88580731
_cell_angle_gamma   88.29381788
_symmetry_Int_Tables_number   1
_chemical_formula_structural   Hf2ZnIr
_chemical_formula_sum   'Hf2 Zn1 Ir1'
_cell_volume   962.40232222
_cell_formula_units_Z   1
loop_
 _symmetry_equiv_pos_site_id
 _symmetry_equiv_pos_as_xyz
  1  'x, y, z'
loop_
 _atom_site_type_symbol
 _atom_site_label
 _atom_site_symmetry_multiplicity
 _atom_site_fract_x
 _atom_site_fract_y
 _atom_site_fract_z
 _atom_site_occupancy
  Hf  Hf0  1  0.00000000  0.27825300  0.27825300  1
  Hf  Hf1  1  0.00000000  0.72174700  0.72174700  1
  Zn  Zn2  1  0.00000000  0.00000000  0.00000000  1
  Ir  Ir3  1  0.00000000  0.50000000  0.50000000  1
