# generated using pymatgen
data_Nb2PbO6
_symmetry_space_group_name_H-M   'P 1'
_cell_length_a   12.99899034
_cell_length_b   12.99899034
_cell_length_c   7.90381100
_cell_angle_alpha   90.00000000
_cell_angle_beta   90.00000000
_cell_angle_gamma   92.01017660
_symmetry_Int_Tables_number   1
_chemical_formula_structural   Nb2PbO6
_chemical_formula_sum   'Nb20 Pb10 O60'
_cell_volume   1334.71471072
_cell_formula_units_Z   10
loop_
 _symmetry_equiv_pos_site_id
 _symmetry_equiv_pos_as_xyz
  1  'x, y, z'
loop_
 _atom_site_type_symbol
 _atom_site_label
 _atom_site_symmetry_multiplicity
 _atom_site_fract_x
 _atom_site_fract_y
 _atom_site_fract_z
 _atom_site_occupancy
  Nb  Nb0  1  0.06665800  0.29574700  0.99842300  1
  Nb  Nb1  1  0.06665800  0.29574700  0.50157700  1
  Nb  Nb2  1  0.28395800  0.08470700  0.49603200  1
  Nb  Nb3  1  0.28395800  0.08470700  0.00396800  1
  Nb  Nb4  1  0.56530600  0.21457700  0.00401500  1
  Nb  Nb5  1  0.56530600  0.21457700  0.49598500  1
  Nb  Nb6  1  0.20573600  0.58205300  0.99765200  1
  Nb  Nb7  1  0.20573600  0.58205300  0.50234800  1
  Nb  Nb8  1  0.99565200  0.00434800  0.00000000  1
  Nb  Nb9  1  0.49622600  0.50377400  0.00000000  1
  Nb  Nb10  1  0.49622600  0.50377400  0.50000000  1
  Nb  Nb11  1  0.99565200  0.00434800  0.50000000  1
  Nb  Nb12  1  0.41794700  0.79426400  0.00234800  1
  Nb  Nb13  1  0.41794700  0.79426400  0.49765200  1
  Nb  Nb14  1  0.78542300  0.43469400  0.99598500  1
  Nb  Nb15  1  0.78542300  0.43469400  0.50401500  1
  Nb  Nb16  1  0.91529300  0.71604200  0.99603200  1
  Nb  Nb17  1  0.91529300  0.71604200  0.50396800  1
  Nb  Nb18  1  0.70425300  0.93334200  0.00157700  1
  Nb  Nb19  1  0.70425300  0.93334200  0.49842300  1
  Pb  Pb20  1  0.99196100  0.51713300  0.25000000  1
  Pb  Pb21  1  0.27983000  0.37740900  0.25000000  1
  Pb  Pb22  1  0.28087500  0.37636300  0.75000000  1
  Pb  Pb23  1  0.14512500  0.85875600  0.75000000  1
  Pb  Pb24  1  0.79362400  0.21177400  0.25000000  1
  Pb  Pb25  1  0.78822600  0.20637600  0.75000000  1
  Pb  Pb26  1  0.14124400  0.85487500  0.25000000  1
  Pb  Pb27  1  0.62363700  0.71912500  0.25000000  1
  Pb  Pb28  1  0.62259100  0.72017000  0.75000000  1
  Pb  Pb29  1  0.48286700  0.00803900  0.75000000  1
  O  O30  1  0.09104600  0.29272300  0.75000000  1
  O  O31  1  0.09187800  0.29186600  0.25000000  1
  O  O32  1  0.30446700  0.06608500  0.75000000  1
  O  O33  1  0.29743300  0.07136800  0.25000000  1
  O  O34  1  0.22516200  0.21156900  0.99618800  1
  O  O35  1  0.22516200  0.21156900  0.50381200  1
  O  O36  1  0.15607500  0.42400100  0.00256000  1
  O  O37  1  0.15607500  0.42400100  0.49744000  1
  O  O38  1  0.44079100  0.13097700  0.99098700  1
  O  O39  1  0.44079100  0.13097700  0.50901300  1
  O  O40  1  0.07595100  0.63257100  0.00913100  1
  O  O41  1  0.07595100  0.63257100  0.49086900  1
  O  O42  1  0.65093900  0.06207600  0.99571600  1
  O  O43  1  0.65093900  0.06207600  0.50428400  1
  O  O44  1  0.59814200  0.20185900  0.25000000  1
  O  O45  1  0.59698000  0.19936400  0.75000000  1
  O  O46  1  0.21693100  0.55778700  0.25000000  1
  O  O47  1  0.21664900  0.56035300  0.75000000  1
  O  O48  1  0.85194900  0.99055500  0.00113700  1
  O  O49  1  0.85194900  0.99055500  0.49886300  1
  O  O50  1  0.34867900  0.49044900  0.99883800  1
  O  O51  1  0.34867900  0.49044900  0.50116200  1
  O  O52  1  0.50462400  0.33956100  0.00232100  1
  O  O53  1  0.50462400  0.33956100  0.49767900  1
  O  O54  1  0.01338100  0.83597300  0.00248800  1
  O  O55  1  0.01338100  0.83597300  0.49751200  1
  O  O56  1  0.72174000  0.27826000  0.00000000  1
  O  O57  1  0.28700400  0.71299600  0.00000000  1
  O  O58  1  0.01721500  0.98493300  0.25000000  1
  O  O59  1  0.72174000  0.27826000  0.50000000  1
  O  O60  1  0.28700400  0.71299600  0.50000000  1
  O  O61  1  0.01506700  0.98278500  0.75000000  1
  O  O62  1  0.50338000  0.49744500  0.25000000  1
  O  O63  1  0.50255500  0.49662000  0.75000000  1
  O  O64  1  0.16402700  0.98661900  0.99751200  1
  O  O65  1  0.16402700  0.98661900  0.50248800  1
  O  O66  1  0.66043900  0.49537600  0.99767900  1
  O  O67  1  0.66043900  0.49537600  0.50232100  1
  O  O68  1  0.50955100  0.65132100  0.00116200  1
  O  O69  1  0.50955100  0.65132100  0.49883800  1
  O  O70  1  0.00944500  0.14805100  0.99886300  1
  O  O71  1  0.00944500  0.14805100  0.50113700  1
  O  O72  1  0.43964700  0.78335100  0.25000000  1
  O  O73  1  0.44221300  0.78306900  0.75000000  1
  O  O74  1  0.79814100  0.40185800  0.75000000  1
  O  O75  1  0.80063600  0.40302000  0.25000000  1
  O  O76  1  0.93792400  0.34906100  0.00428400  1
  O  O77  1  0.93792400  0.34906100  0.49571600  1
  O  O78  1  0.36742900  0.92404900  0.99086900  1
  O  O79  1  0.36742900  0.92404900  0.50913100  1
  O  O80  1  0.86902300  0.55920900  0.00901300  1
  O  O81  1  0.86902300  0.55920900  0.49098700  1
  O  O82  1  0.57599900  0.84392500  0.99744000  1
  O  O83  1  0.57599900  0.84392500  0.50256000  1
  O  O84  1  0.78843100  0.77483800  0.00381200  1
  O  O85  1  0.78843100  0.77483800  0.49618800  1
  O  O86  1  0.93391500  0.69553300  0.25000000  1
  O  O87  1  0.92863200  0.70256700  0.75000000  1
  O  O88  1  0.70727700  0.90895400  0.25000000  1
  O  O89  1  0.70813400  0.90812200  0.75000000  1
