data_image0
_chemical_formula_structural       Ba6In2O18Ru4
_chemical_formula_sum              "Ba6 In2 O18 Ru4"
_cell_length_a       5.85185
_cell_length_b       5.85096
_cell_length_c       14.2987
_cell_angle_alpha    89.9988
_cell_angle_beta     90.004
_cell_angle_gamma    120.011

_space_group_name_H-M_alt    "P 1"
_space_group_IT_number       1

loop_
  _space_group_symop_operation_xyz
  'x, y, z'

loop_
  _atom_site_type_symbol
  _atom_site_label
  _atom_site_symmetry_multiplicity
  _atom_site_fract_x
  _atom_site_fract_y
  _atom_site_fract_z
  _atom_site_occupancy
  Ba  Ba1       1.0  0.33400  0.66800  0.91000  1.0000
  Ba  Ba2       1.0  0.66600  0.33300  0.41000  1.0000
  Ba  Ba3       1.0  0.66700  0.33400  0.09010  1.0000
  Ba  Ba4       1.0  0.33300  0.66600  0.59000  1.0000
  Ba  Ba5       1.0  0.00002  0.00000  0.25000  1.0000
  Ba  Ba6       1.0  0.00000  0.00004  0.75000  1.0000
  In  In1       1.0  0.00016  0.00037  0.99900  1.0000
  In  In2       1.0  1.00000  1.00000  0.50000  1.0000
  O   O1        1.0  0.17300  0.34500  0.41400  1.0000
  O   O2        1.0  0.82700  0.65500  0.91400  1.0000
  O   O3        1.0  0.65400  0.82700  0.41400  1.0000
  O   O4        1.0  0.17300  0.82600  0.41400  1.0000
  O   O5        1.0  0.82700  0.17400  0.91400  1.0000
  O   O6        1.0  0.34600  0.17400  0.91400  1.0000
  O   O7        1.0  0.82700  0.65400  0.58600  1.0000
  O   O8        1.0  0.82700  0.17200  0.58600  1.0000
  O   O9        1.0  0.34500  0.17200  0.58600  1.0000
  O   O10       1.0  0.65500  0.82800  0.08600  1.0000
  O   O11       1.0  0.17300  0.82800  0.08590  1.0000
  O   O12       1.0  0.17300  0.34600  0.08580  1.0000
  O   O13       1.0  0.49100  0.98300  0.25000  1.0000
  O   O14       1.0  0.50800  0.01680  0.75000  1.0000
  O   O15       1.0  0.01680  0.50800  0.25000  1.0000
  O   O16       1.0  0.49200  0.50900  0.25000  1.0000
  O   O17       1.0  0.50800  0.49200  0.75000  1.0000
  O   O18       1.0  0.98300  0.49200  0.75000  1.0000
  Ru  Ru1       1.0  0.33300  0.66700  0.16400  1.0000
  Ru  Ru2       1.0  0.66700  0.33300  0.66400  1.0000
  Ru  Ru3       1.0  0.66700  0.33400  0.83600  1.0000
  Ru  Ru4       1.0  0.33300  0.66600  0.33600  1.0000
