# generated using pymatgen
data_Ti3Mn2V(PO4)6
_symmetry_space_group_name_H-M   'P 1'
_cell_length_a   8.68386400
_cell_length_b   8.68386400
_cell_length_c   8.68386412
_cell_angle_alpha   59.87411972
_cell_angle_beta   59.87411972
_cell_angle_gamma   59.87411856
_symmetry_Int_Tables_number   1
_chemical_formula_structural   Ti3Mn2V(PO4)6
_chemical_formula_sum   'Ti3 Mn2 V1 P6 O24'
_cell_volume   461.72331597
_cell_formula_units_Z   1
loop_
 _symmetry_equiv_pos_site_id
 _symmetry_equiv_pos_as_xyz
  1  'x, y, z'
loop_
 _atom_site_type_symbol
 _atom_site_label
 _atom_site_symmetry_multiplicity
 _atom_site_fract_x
 _atom_site_fract_y
 _atom_site_fract_z
 _atom_site_occupancy
  Ti  Ti0  1  0.64578500  0.64578500  0.64578500  1
  Ti  Ti1  1  0.85495100  0.85495100  0.85495100  1
  Ti  Ti2  1  0.35346300  0.35346300  0.35346300  1
  Mn  Mn3  1  0.00043100  0.00043100  0.00043100  1
  Mn  Mn4  1  0.50070700  0.50070700  0.50070700  1
  V  V5  1  0.14296700  0.14296700  0.14296700  1
  P  P6  1  0.95617400  0.24958500  0.54226600  1
  P  P7  1  0.54226600  0.95617400  0.24958500  1
  P  P8  1  0.24958500  0.54226600  0.95617400  1
  P  P9  1  0.74926600  0.45674500  0.04384600  1
  P  P10  1  0.45674500  0.04384600  0.74926600  1
  P  P11  1  0.04384600  0.74926600  0.45674500  1
  O  O12  1  0.50003500  0.11942400  0.30957000  1
  O  O13  1  0.30957000  0.50003500  0.11942400  1
  O  O14  1  0.11942400  0.30957000  0.50003500  1
  O  O15  1  0.94119500  0.08635900  0.73733600  1
  O  O16  1  0.99051300  0.19409600  0.38745700  1
  O  O17  1  0.76296000  0.41559100  0.56437800  1
  O  O18  1  0.73733600  0.94119500  0.08635900  1
  O  O19  1  0.56437800  0.76296000  0.41559100  1
  O  O20  1  0.80867800  0.61904500  0.00050600  1
  O  O21  1  0.41559100  0.56437800  0.76296000  1
  O  O22  1  0.90851100  0.26546300  0.05658200  1
  O  O23  1  0.61904500  0.00050600  0.80867800  1
  O  O24  1  0.38745700  0.99051300  0.19409600  1
  O  O25  1  0.08635900  0.73733600  0.94119500  1
  O  O26  1  0.58341400  0.44424300  0.23575800  1
  O  O27  1  0.19409600  0.38745700  0.99051300  1
  O  O28  1  0.44424300  0.23575800  0.58341400  1
  O  O29  1  0.26546300  0.05658200  0.90851100  1
  O  O30  1  0.23575800  0.58341400  0.44424300  1
  O  O31  1  0.00050600  0.80867800  0.61904500  1
  O  O32  1  0.05658200  0.90851100  0.26546300  1
  O  O33  1  0.88251200  0.68646700  0.50372100  1
  O  O34  1  0.68646700  0.50372100  0.88251200  1
  O  O35  1  0.50372100  0.88251200  0.68646700  1
