# generated using pymatgen
data_Na2FePCO7
_symmetry_space_group_name_H-M   'P 1'
_cell_length_a   10.34180915
_cell_length_b   8.38652461
_cell_length_c   8.41347653
_cell_angle_alpha   77.44209057
_cell_angle_beta   71.00623577
_cell_angle_gamma   107.74020942
_symmetry_Int_Tables_number   1
_chemical_formula_structural   Na2FePCO7
_chemical_formula_sum   'Na8 Fe4 P4 C4 O28'
_cell_volume   615.22955972
_cell_formula_units_Z   4
loop_
 _symmetry_equiv_pos_site_id
 _symmetry_equiv_pos_as_xyz
  1  'x, y, z'
loop_
 _atom_site_type_symbol
 _atom_site_label
 _atom_site_symmetry_multiplicity
 _atom_site_fract_x
 _atom_site_fract_y
 _atom_site_fract_z
 _atom_site_occupancy
  Na  Na0  1  0.91871200  0.72213500  0.53959700  1
  Na  Na1  1  0.91011700  0.18344000  0.07612400  1
  Na  Na2  1  0.74303100  0.49416000  0.00672100  1
  Na  Na3  1  0.74264700  0.24300000  0.75427800  1
  Na  Na4  1  0.26289100  0.75135700  0.23860400  1
  Na  Na5  1  0.26323400  0.25277400  0.73821900  1
  Na  Na6  1  0.08010900  0.27963300  0.43770100  1
  Na  Na7  1  0.08282700  0.79526500  0.94914500  1
  Fe  Fe8  1  0.65420800  0.31006800  0.43879100  1
  Fe  Fe9  1  0.65409900  0.81123600  0.93901800  1
  Fe  Fe10  1  0.34234000  0.19557100  0.06911500  1
  Fe  Fe11  1  0.34837600  0.69685000  0.56542000  1
  P  P12  1  0.57474000  0.55424800  0.69503300  1
  P  P13  1  0.57623200  0.06087600  0.18835100  1
  P  P14  1  0.42416500  0.44579900  0.31031900  1
  P  P15  1  0.42385600  0.94364400  0.80831100  1
  C  C16  1  0.93650100  0.48107000  0.27536600  1
  C  C17  1  0.93635000  0.97752500  0.77258100  1
  C  C18  1  0.06466400  0.01942400  0.22309200  1
  C  C19  1  0.06351000  0.51855900  0.72437700  1
  O  O20  1  0.92433100  0.93983100  0.30589700  1
  O  O21  1  0.92088700  0.43314700  0.81216100  1
  O  O22  1  0.87245800  0.33982600  0.42351100  1
  O  O23  1  0.87286700  0.82242400  0.90483900  1
  O  O24  1  0.84316000  0.52000700  0.21593700  1
  O  O25  1  0.84251600  0.02893900  0.72432500  1
  O  O26  1  0.68014300  0.99482800  0.06566800  1
  O  O27  1  0.67090000  0.66249700  0.77558900  1
  O  O28  1  0.67781600  0.47885200  0.58334600  1
  O  O29  1  0.67276600  0.18029800  0.25994000  1
  O  O30  1  0.56835500  0.59347900  0.15272100  1
  O  O31  1  0.56839100  0.09700100  0.65644500  1
  O  O32  1  0.53387600  0.18507300  0.06410100  1
  O  O33  1  0.52653700  0.67139500  0.57748800  1
  O  O34  1  0.46942900  0.82826400  0.93434400  1
  O  O35  1  0.46944100  0.33037500  0.43633300  1
  O  O36  1  0.43328500  0.90536300  0.33761700  1
  O  O37  1  0.43048900  0.39781200  0.84479700  1
  O  O38  1  0.32700100  0.82773600  0.73511300  1
  O  O39  1  0.32369700  0.52356900  0.42026400  1
  O  O40  1  0.32492600  0.32588300  0.24168000  1
  O  O41  1  0.32090400  0.01657200  0.92240900  1
  O  O42  1  0.15817700  0.96931500  0.27482400  1
  O  O43  1  0.15630900  0.46924000  0.77455700  1
  O  O44  1  0.13159900  0.16582500  0.07797600  1
  O  O45  1  0.12464300  0.66274000  0.58156400  1
  O  O46  1  0.07644800  0.57106700  0.19608900  1
  O  O47  1  0.07604100  0.06954300  0.69784100  1
