# generated using pymatgen
data_CrP4O11
_symmetry_space_group_name_H-M   'P 1'
_cell_length_a   22.58777300
_cell_length_b   5.41781600
_cell_length_c   7.72662624
_cell_angle_alpha   71.89065094
_cell_angle_beta   90.00000000
_cell_angle_gamma   90.00000000
_symmetry_Int_Tables_number   1
_chemical_formula_structural   CrP4O11
_chemical_formula_sum   'Cr4 P16 O44'
_cell_volume   898.71856049
_cell_formula_units_Z   4
loop_
 _symmetry_equiv_pos_site_id
 _symmetry_equiv_pos_as_xyz
  1  'x, y, z'
loop_
 _atom_site_type_symbol
 _atom_site_label
 _atom_site_symmetry_multiplicity
 _atom_site_fract_x
 _atom_site_fract_y
 _atom_site_fract_z
 _atom_site_occupancy
  Cr  Cr0  1  0.88718000  0.99529400  0.87418800  1
  Cr  Cr1  1  0.61282000  0.99529400  0.37418800  1
  Cr  Cr2  1  0.38718000  0.00470600  0.62581200  1
  Cr  Cr3  1  0.11282000  0.00470600  0.12581200  1
  P  P4  1  0.57196900  0.68913000  0.82259200  1
  P  P5  1  0.19510700  0.59616600  0.96561800  1
  P  P6  1  0.17958000  0.66877400  0.56038700  1
  P  P7  1  0.96537000  0.59408700  0.70794200  1
  P  P8  1  0.92803100  0.68913000  0.32259200  1
  P  P9  1  0.30489300  0.59616600  0.46561800  1
  P  P10  1  0.46537000  0.40591300  0.79205800  1
  P  P11  1  0.67958000  0.33122600  0.93961300  1
  P  P12  1  0.32042000  0.66877400  0.06038700  1
  P  P13  1  0.53463000  0.59408700  0.20794200  1
  P  P14  1  0.69510700  0.40383400  0.53438200  1
  P  P15  1  0.07196900  0.31087000  0.67740800  1
  P  P16  1  0.03463000  0.40591300  0.29205800  1
  P  P17  1  0.82042000  0.33122600  0.43961300  1
  P  P18  1  0.80489300  0.40383400  0.03438200  1
  P  P19  1  0.42803100  0.31087000  0.17740800  1
  O  O20  1  0.34255500  0.90206000  0.92172600  1
  O  O21  1  0.57350100  0.92002300  0.66216300  1
  O  O22  1  0.54596800  0.75618800  0.99246900  1
  O  O23  1  0.95539800  0.77853800  0.81200800  1
  O  O24  1  0.83743000  0.65263200  0.98551500  1
  O  O25  1  0.15744500  0.90206000  0.42172600  1
  O  O26  1  0.19544600  0.72622500  0.74343800  1
  O  O27  1  0.31910800  0.80619800  0.54506400  1
  O  O28  1  0.43609200  0.66307900  0.74778000  1
  O  O29  1  0.26537800  0.52841500  0.00362100  1
  O  O30  1  0.63642500  0.57648300  0.88598200  1
  O  O31  1  0.92649900  0.92002300  0.16216300  1
  O  O32  1  0.95403200  0.75618800  0.49246900  1
  O  O33  1  0.54460200  0.77853800  0.31200800  1
  O  O34  1  0.03752300  0.55676800  0.69857200  1
  O  O35  1  0.66257000  0.65263200  0.48551500  1
  O  O36  1  0.30455400  0.72622500  0.24343800  1
  O  O37  1  0.18089200  0.80619800  0.04506400  1
  O  O38  1  0.53752300  0.44323200  0.80142800  1
  O  O39  1  0.06390800  0.66307900  0.24778000  1
  O  O40  1  0.23462200  0.52841500  0.50362100  1
  O  O41  1  0.86357500  0.57648300  0.38598200  1
  O  O42  1  0.13642500  0.42351700  0.61401800  1
  O  O43  1  0.76537800  0.47158500  0.49637900  1
  O  O44  1  0.93609200  0.33692100  0.75222000  1
  O  O45  1  0.46247700  0.55676800  0.19857200  1
  O  O46  1  0.81910800  0.19380200  0.95493600  1
  O  O47  1  0.69544600  0.27377500  0.75656200  1
  O  O48  1  0.33743000  0.34736800  0.51448500  1
  O  O49  1  0.96247700  0.44323200  0.30142800  1
  O  O50  1  0.45539800  0.22146200  0.68799200  1
  O  O51  1  0.04596800  0.24381200  0.50753100  1
  O  O52  1  0.07350100  0.07997700  0.83783700  1
  O  O53  1  0.36357500  0.42351700  0.11401800  1
  O  O54  1  0.73462200  0.47158500  0.99637900  1
  O  O55  1  0.56390800  0.33692100  0.25222000  1
  O  O56  1  0.68089200  0.19380200  0.45493600  1
  O  O57  1  0.80455400  0.27377500  0.25656200  1
  O  O58  1  0.84255500  0.09794000  0.57827400  1
  O  O59  1  0.16257000  0.34736800  0.01448500  1
  O  O60  1  0.04460200  0.22146200  0.18799200  1
  O  O61  1  0.45403200  0.24381200  0.00753100  1
  O  O62  1  0.42649900  0.07997700  0.33783700  1
  O  O63  1  0.65744500  0.09794000  0.07827400  1
