# generated using pymatgen
data_Na5Ni2P2(CO7)2
_symmetry_space_group_name_H-M   'P 1'
_cell_length_a   6.66840800
_cell_length_b   5.18796800
_cell_length_c   8.82797769
_cell_angle_alpha   88.37193543
_cell_angle_beta   90.00000000
_cell_angle_gamma   90.00000000
_symmetry_Int_Tables_number   1
_chemical_formula_structural   Na5Ni2P2(CO7)2
_chemical_formula_sum   'Na5 Ni2 P2 C2 O14'
_cell_volume   305.28490260
_cell_formula_units_Z   1
loop_
 _symmetry_equiv_pos_site_id
 _symmetry_equiv_pos_as_xyz
  1  'x, y, z'
loop_
 _atom_site_type_symbol
 _atom_site_label
 _atom_site_symmetry_multiplicity
 _atom_site_fract_x
 _atom_site_fract_y
 _atom_site_fract_z
 _atom_site_occupancy
  Na  Na0  1  0.26297700  0.25392300  0.26588100  1
  Na  Na1  1  0.73702300  0.25392300  0.26588100  1
  Na  Na2  1  0.75916600  0.74563800  0.73234900  1
  Na  Na3  1  0.24083400  0.74563800  0.73234900  1
  Na  Na4  1  0.00000000  0.22269400  0.91981500  1
  Ni  Ni5  1  0.00000000  0.77741600  0.34593000  1
  Ni  Ni6  1  0.50000000  0.22163300  0.65436800  1
  P  P7  1  0.50000000  0.72138600  0.41924500  1
  P  P8  1  0.00000000  0.28216000  0.58280700  1
  C  C9  1  0.00000000  0.71124500  0.06337800  1
  C  C10  1  0.50000000  0.28763700  0.93175200  1
  O  O11  1  0.50000000  0.31683200  0.07319300  1
  O  O12  1  0.00000000  0.93677100  0.12296000  1
  O  O13  1  0.00000000  0.51094300  0.15583500  1
  O  O14  1  0.31230800  0.78821600  0.32424600  1
  O  O15  1  0.68769200  0.78821600  0.32424600  1
  O  O16  1  0.00000000  0.14228500  0.43111900  1
  O  O17  1  0.50000000  0.42387600  0.45914200  1
  O  O18  1  0.00000000  0.57909400  0.54891000  1
  O  O19  1  0.50000000  0.86478600  0.57151200  1
  O  O20  1  0.81497000  0.21035700  0.68287900  1
  O  O21  1  0.18503000  0.21035700  0.68287900  1
  O  O22  1  0.50000000  0.48027900  0.83348800  1
  O  O23  1  0.50000000  0.06169500  0.87216900  1
  O  O24  1  0.00000000  0.68605300  0.91862300  1
