# generated using pymatgen
data_Na2NiPCO7
_symmetry_space_group_name_H-M   'P 1'
_cell_length_a   5.15825400
_cell_length_b   6.60390780
_cell_length_c   8.97295656
_cell_angle_alpha   88.97478146
_cell_angle_beta   88.27593500
_cell_angle_gamma   89.74423812
_symmetry_Int_Tables_number   1
_chemical_formula_structural   Na2NiPCO7
_chemical_formula_sum   'Na4 Ni2 P2 C2 O14'
_cell_volume   305.47084479
_cell_formula_units_Z   2
loop_
 _symmetry_equiv_pos_site_id
 _symmetry_equiv_pos_as_xyz
  1  'x, y, z'
loop_
 _atom_site_type_symbol
 _atom_site_label
 _atom_site_symmetry_multiplicity
 _atom_site_fract_x
 _atom_site_fract_y
 _atom_site_fract_z
 _atom_site_occupancy
  Na  Na0  1  0.75002300  0.01514200  0.73650400  1
  Na  Na1  1  0.74952800  0.48143000  0.73653300  1
  Na  Na2  1  0.24841600  0.98055000  0.26672900  1
  Na  Na3  1  0.78708600  0.72645400  0.08702600  1
  Ni  Ni4  1  0.22415700  0.75064700  0.65257500  1
  Ni  Ni5  1  0.77961600  0.25864400  0.34250200  1
  P  P6  1  0.27919900  0.25192800  0.57255700  1
  P  P7  1  0.71505400  0.75238600  0.42102800  1
  C  C8  1  0.28983700  0.75291200  0.92961100  1
  C  C9  1  0.71122500  0.24865600  0.07289600  1
  O  O10  1  0.68043500  0.24383900  0.93444300  1
  O  O11  1  0.06418700  0.74761000  0.86642300  1
  O  O12  1  0.49129300  0.74621400  0.83808400  1
  O  O13  1  0.21660500  0.06366000  0.67467500  1
  O  O14  1  0.21263800  0.43775300  0.67009500  1
  O  O15  1  0.85844600  0.75205100  0.56957100  1
  O  O16  1  0.57879600  0.25046000  0.53532600  1
  O  O17  1  0.41770400  0.76059500  0.46085600  1
  O  O18  1  0.13009900  0.24588200  0.42743100  1
  O  O19  1  0.77694600  0.56615900  0.32448000  1
  O  O20  1  0.78523200  0.93718800  0.31746500  1
  O  O21  1  0.52212000  0.25193500  0.17224100  1
  O  O22  1  0.93838900  0.25421600  0.13195900  1
  O  O23  1  0.30890300  0.76384700  0.06931200  1
