# generated using pymatgen
data_NaMnPCO7
_symmetry_space_group_name_H-M   'P 1'
_cell_length_a   6.25515600
_cell_length_b   9.08028500
_cell_length_c   10.44533744
_cell_angle_alpha   88.12737015
_cell_angle_beta   90.00000000
_cell_angle_gamma   90.00000000
_symmetry_Int_Tables_number   1
_chemical_formula_structural   NaMnPCO7
_chemical_formula_sum   'Na4 Mn4 P4 C4 O28'
_cell_volume   592.96368718
_cell_formula_units_Z   4
loop_
 _symmetry_equiv_pos_site_id
 _symmetry_equiv_pos_as_xyz
  1  'x, y, z'
loop_
 _atom_site_type_symbol
 _atom_site_label
 _atom_site_symmetry_multiplicity
 _atom_site_fract_x
 _atom_site_fract_y
 _atom_site_fract_z
 _atom_site_occupancy
  Na  Na0  1  0.03045300  0.24044900  0.37429100  1
  Na  Na1  1  0.46954700  0.24044900  0.87429100  1
  Na  Na2  1  0.96954700  0.75955100  0.62570900  1
  Na  Na3  1  0.53045300  0.75955100  0.12570900  1
  Mn  Mn4  1  0.74987800  0.34218500  0.64138900  1
  Mn  Mn5  1  0.75012200  0.34218500  0.14138900  1
  Mn  Mn6  1  0.25012200  0.65781500  0.35861100  1
  Mn  Mn7  1  0.24987800  0.65781500  0.85861100  1
  P  P8  1  0.24880000  0.43299000  0.60862700  1
  P  P9  1  0.25120000  0.43299000  0.10862700  1
  P  P10  1  0.75120000  0.56701000  0.39137300  1
  P  P11  1  0.74880000  0.56701000  0.89137300  1
  C  C12  1  0.74024800  0.07734200  0.61479500  1
  C  C13  1  0.75975200  0.07734200  0.11479500  1
  C  C14  1  0.25975200  0.92265800  0.38520500  1
  C  C15  1  0.24024800  0.92265800  0.88520500  1
  O  O16  1  0.26244300  0.05613300  0.40012600  1
  O  O17  1  0.23755700  0.05613300  0.90012600  1
  O  O18  1  0.73883600  0.14200000  0.72619300  1
  O  O19  1  0.76116400  0.14200000  0.22619300  1
  O  O20  1  0.74700200  0.17844000  0.51995400  1
  O  O21  1  0.75299800  0.17844000  0.01995400  1
  O  O22  1  0.05634100  0.32834900  0.63432300  1
  O  O23  1  0.44091800  0.33350100  0.64691700  1
  O  O24  1  0.05908200  0.33350100  0.14691700  1
  O  O25  1  0.44365900  0.32834900  0.13432300  1
  O  O26  1  0.25079400  0.47569900  0.46311700  1
  O  O27  1  0.75973200  0.42591700  0.31436400  1
  O  O28  1  0.24920600  0.47569900  0.96311700  1
  O  O29  1  0.74026800  0.42591700  0.81436400  1
  O  O30  1  0.24026800  0.57408300  0.68563600  1
  O  O31  1  0.74920600  0.52430100  0.53688300  1
  O  O32  1  0.25973200  0.57408300  0.18563600  1
  O  O33  1  0.75079400  0.52430100  0.03688300  1
  O  O34  1  0.55908200  0.66649900  0.35308300  1
  O  O35  1  0.94365900  0.67165100  0.36567700  1
  O  O36  1  0.55634100  0.67165100  0.86567700  1
  O  O37  1  0.94091800  0.66649900  0.85308300  1
  O  O38  1  0.25299800  0.82156000  0.48004600  1
  O  O39  1  0.24700200  0.82156000  0.98004600  1
  O  O40  1  0.26116400  0.85800000  0.27380700  1
  O  O41  1  0.23883600  0.85800000  0.77380700  1
  O  O42  1  0.73755700  0.94386700  0.59987400  1
  O  O43  1  0.76244300  0.94386700  0.09987400  1
