# generated using pymatgen
data_LiTi2(PO4)3
_symmetry_space_group_name_H-M   'P 1'
_cell_length_a   8.36769035
_cell_length_b   8.96536647
_cell_length_c   14.84842430
_cell_angle_alpha   85.30161884
_cell_angle_beta   73.81944786
_cell_angle_gamma   117.65073677
_symmetry_Int_Tables_number   1
_chemical_formula_structural   LiTi2(PO4)3
_chemical_formula_sum   'Li4 Ti8 P12 O48'
_cell_volume   917.94028765
_cell_formula_units_Z   4
loop_
 _symmetry_equiv_pos_site_id
 _symmetry_equiv_pos_as_xyz
  1  'x, y, z'
loop_
 _atom_site_type_symbol
 _atom_site_label
 _atom_site_symmetry_multiplicity
 _atom_site_fract_x
 _atom_site_fract_y
 _atom_site_fract_z
 _atom_site_occupancy
  Li  Li0  1  0.07300400  0.75893200  0.37170400  1
  Li  Li1  1  0.73705800  0.97227600  0.16038100  1
  Li  Li2  1  0.26294200  0.02772400  0.83961900  1
  Li  Li3  1  0.92699600  0.24106800  0.62829600  1
  Ti  Ti4  1  0.14939300  0.36298100  0.07167200  1
  Ti  Ti5  1  0.34764500  0.88099300  0.17143300  1
  Ti  Ti6  1  0.14549100  0.85881500  0.57312000  1
  Ti  Ti7  1  0.63954100  0.61222500  0.32618500  1
  Ti  Ti8  1  0.36045900  0.38777500  0.67381500  1
  Ti  Ti9  1  0.65235500  0.11900700  0.82856700  1
  Ti  Ti10  1  0.85450900  0.14118500  0.42688000  1
  Ti  Ti11  1  0.85060700  0.63701900  0.92832800  1
  P  P12  1  0.03135600  0.01723800  0.23273000  1
  P  P13  1  0.03590400  0.51651200  0.73132600  1
  P  P14  1  0.46509200  0.87149700  0.37423800  1
  P  P15  1  0.54026700  0.62766000  0.12425300  1
  P  P16  1  0.24836700  0.76805800  0.98153500  1
  P  P17  1  0.24613100  0.26502800  0.48415500  1
  P  P18  1  0.75386900  0.73497200  0.51584500  1
  P  P19  1  0.75163300  0.23194200  0.01846500  1
  P  P20  1  0.45973300  0.37234000  0.87574700  1
  P  P21  1  0.53490800  0.12850300  0.62576200  1
  P  P22  1  0.96864400  0.98276200  0.76727000  1
  P  P23  1  0.96409600  0.48348800  0.26867400  1
  O  O24  1  0.16786400  0.94987500  0.24487800  1
  O  O25  1  0.22160500  0.81732200  0.08061600  1
  O  O26  1  0.15546200  0.64662700  0.26388200  1
  O  O27  1  0.26064800  0.82558200  0.43946700  1
  O  O28  1  0.00258900  0.11036000  0.31278300  1
  O  O29  1  0.99818700  0.60319000  0.81345800  1
  O  O30  1  0.12055100  0.14550200  0.13309000  1
  O  O31  1  0.11743800  0.64405300  0.63277600  1
  O  O32  1  0.48849400  0.92738900  0.26649300  1
  O  O33  1  0.52904700  0.79663900  0.11318600  1
  O  O34  1  0.10078500  0.27906300  0.44463300  1
  O  O35  1  0.11654700  0.79602900  0.93591300  1
  O  O36  1  0.37995000  0.97647800  0.60189300  1
  O  O37  1  0.37730100  0.48138500  0.10154100  1
  O  O38  1  0.48627600  0.70979900  0.38918200  1
  O  O39  1  0.18074200  0.45831100  0.73758800  1
  O  O40  1  0.20787000  0.31223600  0.58404900  1
  O  O41  1  0.52395600  0.57100900  0.22894500  1
  O  O42  1  0.20803300  0.07882300  0.49756300  1
  O  O43  1  0.20192400  0.57988600  0.99594500  1
  O  O44  1  0.73685700  0.67018900  0.05230700  1
  O  O45  1  0.16530700  0.13477600  0.76235000  1
  O  O46  1  0.45664200  0.39166200  0.41428300  1
  O  O47  1  0.46064200  0.89351500  0.91158200  1
  O  O48  1  0.53935800  0.10648500  0.08841800  1
  O  O49  1  0.54335800  0.60833800  0.58571700  1
  O  O50  1  0.83469300  0.86522400  0.23765000  1
  O  O51  1  0.26314300  0.32981100  0.94769300  1
  O  O52  1  0.79807600  0.42011400  0.00405500  1
  O  O53  1  0.79196700  0.92117700  0.50243700  1
  O  O54  1  0.47604400  0.42899100  0.77105500  1
  O  O55  1  0.79213000  0.68776300  0.41595100  1
  O  O56  1  0.81925800  0.54168900  0.26241200  1
  O  O57  1  0.51372400  0.29020100  0.61081800  1
  O  O58  1  0.62005000  0.02352200  0.39810700  1
  O  O59  1  0.62269900  0.51861500  0.89845900  1
  O  O60  1  0.89921500  0.72093700  0.55536700  1
  O  O61  1  0.88345300  0.20397100  0.06408700  1
  O  O62  1  0.47095300  0.20336100  0.88681400  1
  O  O63  1  0.51150600  0.07261100  0.73350700  1
  O  O64  1  0.88256200  0.35594700  0.36722400  1
  O  O65  1  0.87944900  0.85449800  0.86691000  1
  O  O66  1  0.99741100  0.88964000  0.68721700  1
  O  O67  1  0.00181300  0.39681000  0.18654100  1
  O  O68  1  0.73935200  0.17441800  0.56053300  1
  O  O69  1  0.84453800  0.35337300  0.73611800  1
  O  O70  1  0.77839500  0.18267800  0.91938400  1
  O  O71  1  0.83213600  0.05012500  0.75512200  1
