# generated using pymatgen
data_Ba2SbI
_symmetry_space_group_name_H-M   'P 1'
_cell_length_a   13.33441019
_cell_length_b   13.33441019
_cell_length_c   13.33441019
_cell_angle_alpha   120.95809875
_cell_angle_beta   119.55026073
_cell_angle_gamma   89.56466604
_symmetry_Int_Tables_number   1
_chemical_formula_structural   Ba2SbI
_chemical_formula_sum   'Ba2 Sb1 I1'
_cell_volume   1669.69975288
_cell_formula_units_Z   1
loop_
 _symmetry_equiv_pos_site_id
 _symmetry_equiv_pos_as_xyz
  1  'x, y, z'
loop_
 _atom_site_type_symbol
 _atom_site_label
 _atom_site_symmetry_multiplicity
 _atom_site_fract_x
 _atom_site_fract_y
 _atom_site_fract_z
 _atom_site_occupancy
  Ba  Ba0  1  0.00000000  0.23466300  0.23466300  1
  Ba  Ba1  1  0.00000000  0.76533700  0.76533700  1
  Sb  Sb2  1  0.00000000  0.00000000  0.00000000  1
  I  I3  1  0.00000000  0.50000000  0.50000000  1
