# generated using pymatgen
data_MgTi14O25
_symmetry_space_group_name_H-M   'P 1'
_cell_length_a   10.73504583
_cell_length_b   10.73504583
_cell_length_c   12.62151998
_cell_angle_alpha   57.58180182
_cell_angle_beta   57.58180182
_cell_angle_gamma   54.85081920
_symmetry_Int_Tables_number   1
_chemical_formula_structural   MgTi14O25
_chemical_formula_sum   'Mg2 Ti28 O50'
_cell_volume   947.87295101
_cell_formula_units_Z   2
loop_
 _symmetry_equiv_pos_site_id
 _symmetry_equiv_pos_as_xyz
  1  'x, y, z'
loop_
 _atom_site_type_symbol
 _atom_site_label
 _atom_site_symmetry_multiplicity
 _atom_site_fract_x
 _atom_site_fract_y
 _atom_site_fract_z
 _atom_site_occupancy
  Mg  Mg0  1  0.69609500  0.30390500  0.75000000  1
  Mg  Mg1  1  0.30390500  0.69609500  0.25000000  1
  Ti  Ti2  1  0.90459900  0.29438200  0.25253400  1
  Ti  Ti3  1  0.09104500  0.35742000  0.94001000  1
  Ti  Ti4  1  0.51253000  0.23901300  0.06036800  1
  Ti  Ti5  1  0.31033900  0.03822200  0.06293100  1
  Ti  Ti6  1  0.35742000  0.09104500  0.44001000  1
  Ti  Ti7  1  0.15540000  0.88985500  0.44181000  1
  Ti  Ti8  1  0.55430400  0.29173700  0.44267800  1
  Ti  Ti9  1  0.49697300  0.10458900  0.75017400  1
  Ti  Ti10  1  0.70561800  0.09540100  0.24746600  1
  Ti  Ti11  1  0.50302700  0.89541100  0.24982600  1
  Ti  Ti12  1  0.03822200  0.31033900  0.56293100  1
  Ti  Ti13  1  0.84460000  0.11014500  0.55819000  1
  Ti  Ti14  1  0.88985500  0.15540000  0.94181000  1
  Ti  Ti15  1  0.68966100  0.96177800  0.93706900  1
  Ti  Ti16  1  0.11014500  0.84460000  0.05819000  1
  Ti  Ti17  1  0.90895500  0.64258000  0.05999000  1
  Ti  Ti18  1  0.96177800  0.68966100  0.43706900  1
  Ti  Ti19  1  0.76098700  0.48747000  0.43963200  1
  Ti  Ti20  1  0.29438200  0.90459900  0.75253400  1
  Ti  Ti21  1  0.09540100  0.70561800  0.74746600  1
  Ti  Ti22  1  0.10458900  0.49697300  0.25017400  1
  Ti  Ti23  1  0.23901300  0.51253000  0.56036800  1
  Ti  Ti24  1  0.44569600  0.70826300  0.55732200  1
  Ti  Ti25  1  0.64258000  0.90895500  0.55999000  1
  Ti  Ti26  1  0.29173700  0.55430400  0.94267800  1
  Ti  Ti27  1  0.48747000  0.76098700  0.93963200  1
  Ti  Ti28  1  0.70826300  0.44569600  0.05732200  1
  Ti  Ti29  1  0.89541100  0.50302700  0.74982600  1
  O  O30  1  0.71051800  0.34334900  0.43192200  1
  O  O31  1  0.10278100  0.20250500  0.11897400  1
  O  O32  1  0.20041000  0.29872700  0.37708200  1
  O  O33  1  0.00054600  0.09778800  0.37731800  1
  O  O34  1  0.39918900  0.30262300  0.62348200  1
  O  O35  1  0.49023100  0.39922200  0.88891700  1
  O  O36  1  0.29872700  0.20041000  0.87708200  1
  O  O37  1  0.51114400  0.14347700  0.43271200  1
  O  O38  1  0.31003800  0.94357200  0.43312100  1
  O  O39  1  0.65665100  0.28948200  0.06807800  1
  O  O40  1  0.45809500  0.08613600  0.07015400  1
  O  O41  1  0.53089200  0.06724500  0.25169500  1
  O  O42  1  0.73250400  0.26749600  0.25000000  1
  O  O43  1  0.33175000  0.87385000  0.25051500  1
  O  O44  1  0.87385000  0.33175000  0.75051500  1
  O  O45  1  0.66825000  0.12615000  0.74948500  1
  O  O46  1  0.73898300  0.11546800  0.93235400  1
  O  O47  1  0.54190500  0.91386400  0.92984600  1
  O  O48  1  0.94357200  0.31003800  0.93312100  1
  O  O49  1  0.88453200  0.26101700  0.56764600  1
  O  O50  1  0.68996200  0.05642800  0.56687900  1
  O  O51  1  0.90221200  0.99945400  0.12268200  1
  O  O52  1  0.70127300  0.79959000  0.12291800  1
  O  O53  1  0.79749500  0.89721900  0.38102600  1
  O  O54  1  0.60081100  0.69737700  0.37651800  1
  O  O55  1  0.20250500  0.10278100  0.61897400  1
  O  O56  1  0.99945400  0.90221200  0.62268200  1
  O  O57  1  0.09778800  0.00054600  0.87731800  1
  O  O58  1  0.89721900  0.79749500  0.88102600  1
  O  O59  1  0.11546800  0.73898300  0.43235400  1
  O  O60  1  0.91386400  0.54190500  0.42984600  1
  O  O61  1  0.85652300  0.48885600  0.06728800  1
  O  O62  1  0.05642800  0.68996200  0.06687900  1
  O  O63  1  0.26101700  0.88453200  0.06764600  1
  O  O64  1  0.12615000  0.66825000  0.24948500  1
  O  O65  1  0.93275500  0.46910800  0.24830500  1
  O  O66  1  0.06724500  0.53089200  0.75169500  1
  O  O67  1  0.46910800  0.93275500  0.74830500  1
  O  O68  1  0.26749600  0.73250400  0.75000000  1
  O  O69  1  0.34334900  0.71051800  0.93192200  1
  O  O70  1  0.14347700  0.51114400  0.93271200  1
  O  O71  1  0.48885600  0.85652300  0.56728800  1
  O  O72  1  0.28948200  0.65665100  0.56807800  1
  O  O73  1  0.50976900  0.60077800  0.11108300  1
  O  O74  1  0.30262300  0.39918900  0.12348200  1
  O  O75  1  0.39922200  0.49023100  0.38891700  1
  O  O76  1  0.79959000  0.70127300  0.62291800  1
  O  O77  1  0.60077800  0.50976900  0.61108300  1
  O  O78  1  0.69737700  0.60081100  0.87651800  1
  O  O79  1  0.08613600  0.45809500  0.57015400  1
