# generated using pymatgen
data_Cr(PO3)2
_symmetry_space_group_name_H-M   'P 1'
_cell_length_a   7.33335700
_cell_length_b   9.34821500
_cell_length_c   13.72555900
_cell_angle_alpha   90.00000000
_cell_angle_beta   90.00000000
_cell_angle_gamma   90.00000000
_symmetry_Int_Tables_number   1
_chemical_formula_structural   Cr(PO3)2
_chemical_formula_sum   'Cr8 P16 O48'
_cell_volume   940.93919786
_cell_formula_units_Z   8
loop_
 _symmetry_equiv_pos_site_id
 _symmetry_equiv_pos_as_xyz
  1  'x, y, z'
loop_
 _atom_site_type_symbol
 _atom_site_label
 _atom_site_symmetry_multiplicity
 _atom_site_fract_x
 _atom_site_fract_y
 _atom_site_fract_z
 _atom_site_occupancy
  Cr  Cr0  1  0.44863200  0.00793000  0.71697300  1
  Cr  Cr1  1  0.94863200  0.00793000  0.78302700  1
  Cr  Cr2  1  0.94863200  0.49207000  0.28302700  1
  Cr  Cr3  1  0.44863200  0.49207000  0.21697300  1
  Cr  Cr4  1  0.05136800  0.50793000  0.71697300  1
  Cr  Cr5  1  0.55136800  0.50793000  0.78302700  1
  Cr  Cr6  1  0.05136800  0.99207000  0.21697300  1
  Cr  Cr7  1  0.55136800  0.99207000  0.28302700  1
  P  P8  1  0.57034800  0.20459200  0.89987300  1
  P  P9  1  0.07034800  0.20459200  0.60012700  1
  P  P10  1  0.67158300  0.22046600  0.10541600  1
  P  P11  1  0.17158300  0.22046600  0.39458400  1
  P  P12  1  0.67158300  0.27953400  0.60541600  1
  P  P13  1  0.17158300  0.27953400  0.89458400  1
  P  P14  1  0.07034800  0.29540800  0.10012700  1
  P  P15  1  0.57034800  0.29540800  0.39987300  1
  P  P16  1  0.92965200  0.70459200  0.89987300  1
  P  P17  1  0.42965200  0.70459200  0.60012700  1
  P  P18  1  0.82841700  0.72046600  0.10541600  1
  P  P19  1  0.32841700  0.72046600  0.39458400  1
  P  P20  1  0.32841700  0.77953400  0.89458400  1
  P  P21  1  0.82841700  0.77953400  0.60541600  1
  P  P22  1  0.42965200  0.79540800  0.10012700  1
  P  P23  1  0.92965200  0.79540800  0.39987300  1
  O  O24  1  0.62288000  0.09711900  0.82225900  1
  O  O25  1  0.12288000  0.09711900  0.67774100  1
  O  O26  1  0.20867000  0.10394800  0.32070700  1
  O  O27  1  0.70867000  0.10394800  0.17929300  1
  O  O28  1  0.64268000  0.14183500  0.00169600  1
  O  O29  1  0.14268000  0.14183500  0.49830400  1
  O  O30  1  0.62512200  0.14162000  0.38837200  1
  O  O31  1  0.12512200  0.14162000  0.11162800  1
  O  O32  1  0.35303600  0.18801200  0.91225700  1
  O  O33  1  0.85303600  0.18801200  0.58774300  1
  O  O34  1  0.51975300  0.17559800  0.62366700  1
  O  O35  1  0.01975300  0.17559800  0.87633300  1
  O  O36  1  0.51975300  0.32440200  0.12366700  1
  O  O37  1  0.01975300  0.32440200  0.37633300  1
  O  O38  1  0.85303600  0.31198800  0.08774300  1
  O  O39  1  0.35303600  0.31198800  0.41225700  1
  O  O40  1  0.12512200  0.35838000  0.61162800  1
  O  O41  1  0.62512200  0.35838000  0.88837200  1
  O  O42  1  0.64268000  0.35816500  0.50169600  1
  O  O43  1  0.14268000  0.35816500  0.99830400  1
  O  O44  1  0.70867000  0.39605200  0.67929300  1
  O  O45  1  0.20867000  0.39605200  0.82070700  1
  O  O46  1  0.12288000  0.40288100  0.17774100  1
  O  O47  1  0.62288000  0.40288100  0.32225900  1
  O  O48  1  0.37712000  0.59711900  0.67774100  1
  O  O49  1  0.87712000  0.59711900  0.82225900  1
  O  O50  1  0.79133000  0.60394800  0.17929300  1
  O  O51  1  0.29133000  0.60394800  0.32070700  1
  O  O52  1  0.85732000  0.64183500  0.00169600  1
  O  O53  1  0.35732000  0.64183500  0.49830400  1
  O  O54  1  0.37487800  0.64162000  0.11162800  1
  O  O55  1  0.87487800  0.64162000  0.38837200  1
  O  O56  1  0.14696400  0.68801200  0.91225700  1
  O  O57  1  0.64696400  0.68801200  0.58774300  1
  O  O58  1  0.48024700  0.67559800  0.87633300  1
  O  O59  1  0.98024700  0.67559800  0.62366700  1
  O  O60  1  0.98024700  0.82440200  0.12366700  1
  O  O61  1  0.48024700  0.82440200  0.37633300  1
  O  O62  1  0.64696400  0.81198800  0.08774300  1
  O  O63  1  0.14696400  0.81198800  0.41225700  1
  O  O64  1  0.87487800  0.85838000  0.88837200  1
  O  O65  1  0.37487800  0.85838000  0.61162800  1
  O  O66  1  0.85732000  0.85816500  0.50169600  1
  O  O67  1  0.35732000  0.85816500  0.99830400  1
  O  O68  1  0.79133000  0.89605200  0.67929300  1
  O  O69  1  0.29133000  0.89605200  0.82070700  1
  O  O70  1  0.37712000  0.90288100  0.17774100  1
  O  O71  1  0.87712000  0.90288100  0.32225900  1
