# generated using pymatgen
data_MgZn2Pd
_symmetry_space_group_name_H-M   'P 1'
_cell_length_a   11.03375046
_cell_length_b   11.03375046
_cell_length_c   11.03375046
_cell_angle_alpha   122.63466791
_cell_angle_beta   119.07474853
_cell_angle_gamma   88.55423559
_symmetry_Int_Tables_number   1
_chemical_formula_structural   MgZn2Pd
_chemical_formula_sum   'Mg1 Zn2 Pd1'
_cell_volume   936.08691826
_cell_formula_units_Z   1
loop_
 _symmetry_equiv_pos_site_id
 _symmetry_equiv_pos_as_xyz
  1  'x, y, z'
loop_
 _atom_site_type_symbol
 _atom_site_label
 _atom_site_symmetry_multiplicity
 _atom_site_fract_x
 _atom_site_fract_y
 _atom_site_fract_z
 _atom_site_occupancy
  Mg  Mg0  1  0.00000000  0.00000000  0.00000000  1
  Zn  Zn1  1  0.00000000  0.27125800  0.27125800  1
  Zn  Zn2  1  0.00000000  0.72874200  0.72874200  1
  Pd  Pd3  1  0.00000000  0.50000000  0.50000000  1
