# generated using pymatgen
data_Na3Ni2P2(CO7)2
_symmetry_space_group_name_H-M   'P 1'
_cell_length_a   8.28425500
_cell_length_b   8.29977566
_cell_length_c   8.92845768
_cell_angle_alpha   90.14815943
_cell_angle_beta   91.70715319
_cell_angle_gamma   103.12543920
_symmetry_Int_Tables_number   1
_chemical_formula_structural   Na3Ni2P2(CO7)2
_chemical_formula_sum   'Na6 Ni4 P4 C4 O28'
_cell_volume   597.56717999
_cell_formula_units_Z   2
loop_
 _symmetry_equiv_pos_site_id
 _symmetry_equiv_pos_as_xyz
  1  'x, y, z'
loop_
 _atom_site_type_symbol
 _atom_site_label
 _atom_site_symmetry_multiplicity
 _atom_site_fract_x
 _atom_site_fract_y
 _atom_site_fract_z
 _atom_site_occupancy
  Na  Na0  1  0.90293700  0.86015200  0.25820000  1
  Na  Na1  1  0.37798200  0.37704300  0.24390600  1
  Na  Na2  1  0.61961300  0.13296300  0.24859900  1
  Na  Na3  1  0.38038700  0.86703700  0.75140100  1
  Na  Na4  1  0.62201800  0.62295700  0.75609400  1
  Na  Na5  1  0.09706300  0.13984800  0.74180000  1
  Ni  Ni6  1  0.98283900  0.23822900  0.34738100  1
  Ni  Ni7  1  0.48075100  0.73341800  0.34390400  1
  Ni  Ni8  1  0.01716100  0.76177100  0.65261900  1
  Ni  Ni9  1  0.51924900  0.26658200  0.65609600  1
  P  P10  1  0.76265700  0.51354900  0.42801100  1
  P  P11  1  0.26978500  0.02126800  0.42420600  1
  P  P12  1  0.73021500  0.97873200  0.57579400  1
  P  P13  1  0.23734300  0.48645100  0.57198900  1
  C  C14  1  0.52136800  0.76697300  0.07470000  1
  C  C15  1  0.01304400  0.26985500  0.07547300  1
  C  C16  1  0.98695600  0.73014500  0.92452700  1
  C  C17  1  0.47863200  0.23302700  0.92530000  1
  O  O18  1  0.96521700  0.71608800  0.06178400  1
  O  O19  1  0.45819000  0.21490400  0.06308100  1
  O  O20  1  0.40524100  0.65603300  0.13228900  1
  O  O21  1  0.89797800  0.15676300  0.13426400  1
  O  O22  1  0.61580300  0.85987500  0.17656000  1
  O  O23  1  0.10525600  0.36664300  0.17407200  1
  O  O24  1  0.33600000  0.89951400  0.32637000  1
  O  O25  1  0.81455000  0.37987000  0.33318700  1
  O  O26  1  0.63312700  0.56936000  0.32350100  1
  O  O27  1  0.13890200  0.07874600  0.32390700  1
  O  O28  1  0.80341600  0.05182000  0.42752900  1
  O  O29  1  0.31070100  0.55377800  0.42252000  1
  O  O30  1  0.90676800  0.66435500  0.46415400  1
  O  O31  1  0.41638500  0.17360900  0.46146100  1
  O  O32  1  0.58361500  0.82639100  0.53853900  1
  O  O33  1  0.09323200  0.33564500  0.53584600  1
  O  O34  1  0.19658400  0.94818000  0.57247100  1
  O  O35  1  0.68929900  0.44622200  0.57748000  1
  O  O36  1  0.86109800  0.92125400  0.67609300  1
  O  O37  1  0.18545000  0.62013000  0.66681300  1
  O  O38  1  0.66400000  0.10048600  0.67363000  1
  O  O39  1  0.36687300  0.43064000  0.67649900  1
  O  O40  1  0.89474400  0.63335700  0.82592800  1
  O  O41  1  0.38419700  0.14012500  0.82344000  1
  O  O42  1  0.59475900  0.34396700  0.86771100  1
  O  O43  1  0.10202200  0.84323700  0.86573600  1
  O  O44  1  0.54181000  0.78509600  0.93691900  1
  O  O45  1  0.03478300  0.28391200  0.93821600  1
