# generated using pymatgen
data_Na4MnO3
_symmetry_space_group_name_H-M   'P 1'
_cell_length_a   9.89947860
_cell_length_b   9.89947860
_cell_length_c   9.89947860
_cell_angle_alpha   147.75077436
_cell_angle_beta   115.52665332
_cell_angle_gamma   73.93868113
_symmetry_Int_Tables_number   1
_chemical_formula_structural   Na4MnO3
_chemical_formula_sum   'Na16 Mn4 O12'
_cell_volume   459.31089655
_cell_formula_units_Z   4
loop_
 _symmetry_equiv_pos_site_id
 _symmetry_equiv_pos_as_xyz
  1  'x, y, z'
loop_
 _atom_site_type_symbol
 _atom_site_label
 _atom_site_symmetry_multiplicity
 _atom_site_fract_x
 _atom_site_fract_y
 _atom_site_fract_z
 _atom_site_occupancy
  Na  Na0  1  0.46205300  0.88337300  0.50651300  1
  Na  Na1  1  0.52735600  0.77735600  0.75000000  1
  Na  Na2  1  0.96205300  0.45554000  0.57868000  1
  Na  Na3  1  0.75000000  0.34828100  0.59828100  1
  Na  Na4  1  0.25000000  0.15171900  0.90171900  1
  Na  Na5  1  0.37685900  0.38337300  0.92132000  1
  Na  Na6  1  0.12314100  0.04446000  0.00651300  1
  Na  Na7  1  0.02735600  0.27735600  0.75000000  1
  Na  Na8  1  0.97264400  0.72264400  0.25000000  1
  Na  Na9  1  0.87685900  0.95554000  0.99348700  1
  Na  Na10  1  0.62314100  0.61662700  0.07868000  1
  Na  Na11  1  0.75000000  0.84828100  0.09828100  1
  Na  Na12  1  0.25000000  0.65171900  0.40171900  1
  Na  Na13  1  0.03794700  0.54446000  0.42132000  1
  Na  Na14  1  0.47264400  0.22264400  0.25000000  1
  Na  Na15  1  0.53794700  0.11662700  0.49348700  1
  Mn  Mn16  1  0.82848800  0.07848800  0.75000000  1
  Mn  Mn17  1  0.32848800  0.57848800  0.75000000  1
  Mn  Mn18  1  0.67151200  0.42151200  0.25000000  1
  Mn  Mn19  1  0.17151200  0.92151200  0.25000000  1
  O  O20  1  0.85829400  0.75000000  0.60829400  1
  O  O21  1  0.28812300  0.83072900  0.78915600  1
  O  O22  1  0.21187700  0.00103300  0.54260600  1
  O  O23  1  0.64170600  0.25000000  0.89170600  1
  O  O24  1  0.54157300  0.49896700  0.71084400  1
  O  O25  1  0.95842700  0.66927100  0.95739400  1
  O  O26  1  0.45842700  0.50103300  0.28915600  1
  O  O27  1  0.04157300  0.33072900  0.04260600  1
  O  O28  1  0.35829400  0.75000000  0.10829400  1
  O  O29  1  0.71187700  0.16927100  0.21084400  1
  O  O30  1  0.78812300  0.99896700  0.45739400  1
  O  O31  1  0.14170600  0.25000000  0.39170600  1
