# generated using pymatgen
data_Ni4P2O9
_symmetry_space_group_name_H-M   'P 1'
_cell_length_a   6.34730300
_cell_length_b   8.46451800
_cell_length_c   13.26822800
_cell_angle_alpha   90.00000000
_cell_angle_beta   90.00000000
_cell_angle_gamma   90.00000000
_symmetry_Int_Tables_number   1
_chemical_formula_structural   Ni4P2O9
_chemical_formula_sum   'Ni16 P8 O36'
_cell_volume   712.86023477
_cell_formula_units_Z   4
loop_
 _symmetry_equiv_pos_site_id
 _symmetry_equiv_pos_as_xyz
  1  'x, y, z'
loop_
 _atom_site_type_symbol
 _atom_site_label
 _atom_site_symmetry_multiplicity
 _atom_site_fract_x
 _atom_site_fract_y
 _atom_site_fract_z
 _atom_site_occupancy
  Ni  Ni0  1  0.75000000  0.07321800  0.91636400  1
  Ni  Ni1  1  0.25000000  0.14501300  0.56435100  1
  Ni  Ni2  1  0.51543400  0.14350100  0.35415900  1
  Ni  Ni3  1  0.98456600  0.14350100  0.35415900  1
  Ni  Ni4  1  0.01543400  0.35649900  0.85415900  1
  Ni  Ni5  1  0.48456600  0.35649900  0.85415900  1
  Ni  Ni6  1  0.75000000  0.35498700  0.06435100  1
  Ni  Ni7  1  0.25000000  0.42678200  0.41636400  1
  Ni  Ni8  1  0.75000000  0.57321800  0.58363600  1
  Ni  Ni9  1  0.25000000  0.64501300  0.93564900  1
  Ni  Ni10  1  0.51543400  0.64350100  0.14584100  1
  Ni  Ni11  1  0.98456600  0.64350100  0.14584100  1
  Ni  Ni12  1  0.01543400  0.85649900  0.64584100  1
  Ni  Ni13  1  0.48456600  0.85649900  0.64584100  1
  Ni  Ni14  1  0.75000000  0.85498700  0.43564900  1
  Ni  Ni15  1  0.25000000  0.92678200  0.08363600  1
  P  P16  1  0.25000000  0.00607900  0.84461800  1
  P  P17  1  0.75000000  0.16590400  0.57635600  1
  P  P18  1  0.25000000  0.33409600  0.07635600  1
  P  P19  1  0.75000000  0.49392100  0.34461800  1
  P  P20  1  0.25000000  0.50607900  0.65538200  1
  P  P21  1  0.75000000  0.66590400  0.92364400  1
  P  P22  1  0.25000000  0.83409600  0.42364400  1
  P  P23  1  0.75000000  0.99392100  0.15538200  1
  O  O24  1  0.54558500  0.09610300  0.62409200  1
  O  O25  1  0.95441500  0.09610300  0.62409200  1
  O  O26  1  0.75000000  0.10902500  0.46082500  1
  O  O27  1  0.75000000  0.09162800  0.25568900  1
  O  O28  1  0.04940800  0.11075700  0.85062600  1
  O  O29  1  0.45059200  0.11075700  0.85062600  1
  O  O30  1  0.75000000  0.11516600  0.06792200  1
  O  O31  1  0.25000000  0.15678400  0.08604200  1
  O  O32  1  0.25000000  0.19357000  0.41757500  1
  O  O33  1  0.75000000  0.30643000  0.91757500  1
  O  O34  1  0.75000000  0.34321600  0.58604200  1
  O  O35  1  0.25000000  0.38483400  0.56792200  1
  O  O36  1  0.54940800  0.38924300  0.35062600  1
  O  O37  1  0.95059200  0.38924300  0.35062600  1
  O  O38  1  0.25000000  0.40837200  0.75568900  1
  O  O39  1  0.25000000  0.39097500  0.96082500  1
  O  O40  1  0.04558500  0.40389700  0.12409200  1
  O  O41  1  0.45441500  0.40389700  0.12409200  1
  O  O42  1  0.54558500  0.59610300  0.87590800  1
  O  O43  1  0.95441500  0.59610300  0.87590800  1
  O  O44  1  0.75000000  0.60902500  0.03917500  1
  O  O45  1  0.75000000  0.59162800  0.24431100  1
  O  O46  1  0.04940800  0.61075700  0.64937400  1
  O  O47  1  0.45059200  0.61075700  0.64937400  1
  O  O48  1  0.75000000  0.61516600  0.43207800  1
  O  O49  1  0.25000000  0.65678400  0.41395800  1
  O  O50  1  0.25000000  0.69357000  0.08242500  1
  O  O51  1  0.75000000  0.80643000  0.58242500  1
  O  O52  1  0.75000000  0.84321600  0.91395800  1
  O  O53  1  0.25000000  0.88483400  0.93207800  1
  O  O54  1  0.54940800  0.88924300  0.14937400  1
  O  O55  1  0.95059200  0.88924300  0.14937400  1
  O  O56  1  0.25000000  0.90837200  0.74431100  1
  O  O57  1  0.25000000  0.89097500  0.53917500  1
  O  O58  1  0.04558500  0.90389700  0.37590800  1
  O  O59  1  0.45441500  0.90389700  0.37590800  1
