# generated using pymatgen
data_Na2FePCO7
_symmetry_space_group_name_H-M   'P 1'
_cell_length_a   8.98610381
_cell_length_b   5.25789556
_cell_length_c   19.67102901
_cell_angle_alpha   89.99741205
_cell_angle_beta   90.00280680
_cell_angle_gamma   89.68740435
_symmetry_Int_Tables_number   1
_chemical_formula_structural   Na2FePCO7
_chemical_formula_sum   'Na12 Fe6 P6 C6 O42'
_cell_volume   929.40285159
_cell_formula_units_Z   6
loop_
 _symmetry_equiv_pos_site_id
 _symmetry_equiv_pos_as_xyz
  1  'x, y, z'
loop_
 _atom_site_type_symbol
 _atom_site_label
 _atom_site_symmetry_multiplicity
 _atom_site_fract_x
 _atom_site_fract_y
 _atom_site_fract_z
 _atom_site_occupancy
  Na  Na0  1  0.07912000  0.76231600  0.07977000  1
  Na  Na1  1  0.08246000  0.76308500  0.42135600  1
  Na  Na2  1  0.08497700  0.76410600  0.74608100  1
  Na  Na3  1  0.26681200  0.25021800  0.34121300  1
  Na  Na4  1  0.26502100  0.25153300  0.82847600  1
  Na  Na5  1  0.26566600  0.24966500  0.15947200  1
  Na  Na6  1  0.73839700  0.74565200  0.49978800  1
  Na  Na7  1  0.73854100  0.74574200  0.66729700  1
  Na  Na8  1  0.73594600  0.74916100  0.99529000  1
  Na  Na9  1  0.93303500  0.24770600  0.58381300  1
  Na  Na10  1  0.90518700  0.21979600  0.25044400  1
  Na  Na11  1  0.91871200  0.23676500  0.91296000  1
  Fe  Fe12  1  0.35369200  0.78218500  0.25080600  1
  Fe  Fe13  1  0.34086000  0.79113900  0.58407700  1
  Fe  Fe14  1  0.34733400  0.78413800  0.92018800  1
  Fe  Fe15  1  0.65264000  0.21564800  0.08699100  1
  Fe  Fe16  1  0.65180500  0.21646900  0.41432800  1
  Fe  Fe17  1  0.65195400  0.21656700  0.75378700  1
  P  P18  1  0.42394100  0.71141200  0.74995300  1
  P  P19  1  0.42314600  0.71176000  0.41796500  1
  P  P20  1  0.42351700  0.71188600  0.08328800  1
  P  P21  1  0.57784300  0.29200900  0.25033300  1
  P  P22  1  0.57574500  0.28867600  0.91739600  1
  P  P23  1  0.57413600  0.28872900  0.58352000  1
  C  C24  1  0.05904100  0.72978100  0.58338900  1
  C  C25  1  0.06992200  0.72795900  0.24993300  1
  C  C26  1  0.06542200  0.72944600  0.91537300  1
  C  C27  1  0.93494800  0.26950500  0.41761600  1
  C  C28  1  0.93452700  0.27086100  0.08190500  1
  C  C29  1  0.93541800  0.26898300  0.74918600  1
  O  O30  1  0.07404100  0.29974200  0.08772900  1
  O  O31  1  0.07440800  0.29842200  0.41170400  1
  O  O32  1  0.07492500  0.29743800  0.75517600  1
  O  O33  1  0.12143600  0.95322300  0.58348300  1
  O  O34  1  0.13215100  0.95584700  0.25005100  1
  O  O35  1  0.12682200  0.95522600  0.91275300  1
  O  O36  1  0.14635900  0.53438200  0.58347100  1
  O  O37  1  0.16739400  0.53637700  0.25009600  1
  O  O38  1  0.15773700  0.53622200  0.91247700  1
  O  O39  1  0.32313500  0.78170600  0.35557400  1
  O  O40  1  0.32184100  0.76043400  0.02094600  1
  O  O41  1  0.32437300  0.78235400  0.14555600  1
  O  O42  1  0.32500100  0.77637100  0.81244500  1
  O  O43  1  0.32433900  0.75603200  0.48076600  1
  O  O44  1  0.32518000  0.75621200  0.68683200  1
  O  O45  1  0.43040200  0.13662700  0.25020000  1
  O  O46  1  0.43327700  0.12461800  0.58332100  1
  O  O47  1  0.43215800  0.12853900  0.91375300  1
  O  O48  1  0.46995000  0.42596100  0.41190800  1
  O  O49  1  0.46893200  0.42559500  0.08804100  1
  O  O50  1  0.47177300  0.42539100  0.75480500  1
  O  O51  1  0.52614400  0.57450700  0.25003100  1
  O  O52  1  0.53544100  0.57965100  0.58333600  1
  O  O53  1  0.52929800  0.57503300  0.92140400  1
  O  O54  1  0.56723900  0.87096000  0.07998700  1
  O  O55  1  0.56735000  0.87314200  0.74777800  1
  O  O56  1  0.56669600  0.87248300  0.41958400  1
  O  O57  1  0.67445500  0.23208600  0.18738100  1
  O  O58  1  0.67482300  0.23238400  0.31291200  1
  O  O59  1  0.67323200  0.22302500  0.98022500  1
  O  O60  1  0.67543900  0.23105100  0.52056200  1
  O  O61  1  0.67603300  0.23058300  0.64600100  1
  O  O62  1  0.67773600  0.23963800  0.85512000  1
  O  O63  1  0.84180100  0.46367500  0.07918300  1
  O  O64  1  0.84267000  0.46287000  0.42009800  1
  O  O65  1  0.84333100  0.46273900  0.74675800  1
  O  O66  1  0.87309900  0.04499400  0.07934200  1
  O  O67  1  0.87342300  0.04390400  0.42065000  1
  O  O68  1  0.87362100  0.04348400  0.74630400  1
  O  O69  1  0.91532200  0.70800800  0.58322000  1
  O  O70  1  0.93167500  0.69530900  0.24963500  1
  O  O71  1  0.92577400  0.70085700  0.92176600  1
