# generated using pymatgen
data_Na3MnO3
_symmetry_space_group_name_H-M   'P 1'
_cell_length_a   11.70506200
_cell_length_b   6.09500200
_cell_length_c   11.67387372
_cell_angle_alpha   89.16835827
_cell_angle_beta   90.00000000
_cell_angle_gamma   90.00000000
_symmetry_Int_Tables_number   1
_chemical_formula_structural   Na3MnO3
_chemical_formula_sum   'Na24 Mn8 O24'
_cell_volume   832.75416067
_cell_formula_units_Z   8
loop_
 _symmetry_equiv_pos_site_id
 _symmetry_equiv_pos_as_xyz
  1  'x, y, z'
loop_
 _atom_site_type_symbol
 _atom_site_label
 _atom_site_symmetry_multiplicity
 _atom_site_fract_x
 _atom_site_fract_y
 _atom_site_fract_z
 _atom_site_occupancy
  Na  Na0  1  0.04383500  0.13006700  0.62499800  1
  Na  Na1  1  0.32680800  0.02712200  0.74785700  1
  Na  Na2  1  0.79406200  0.20928100  0.53287400  1
  Na  Na3  1  0.45616500  0.13006700  0.12499800  1
  Na  Na4  1  0.17319200  0.02712200  0.24785700  1
  Na  Na5  1  0.70593800  0.20928100  0.03287400  1
  Na  Na6  1  0.20830500  0.27059200  0.96217600  1
  Na  Na7  1  0.69176500  0.38239800  0.75867600  1
  Na  Na8  1  0.95940300  0.37066600  0.87577300  1
  Na  Na9  1  0.29169500  0.27059200  0.46217600  1
  Na  Na10  1  0.80823500  0.38239800  0.25867600  1
  Na  Na11  1  0.54059700  0.37066600  0.37577300  1
  Na  Na12  1  0.45940300  0.62933400  0.62422700  1
  Na  Na13  1  0.19176500  0.61760200  0.74132400  1
  Na  Na14  1  0.70830500  0.72940800  0.53782400  1
  Na  Na15  1  0.04059700  0.62933400  0.12422700  1
  Na  Na16  1  0.30823500  0.61760200  0.24132400  1
  Na  Na17  1  0.79169500  0.72940800  0.03782400  1
  Na  Na18  1  0.29406200  0.79071900  0.96712600  1
  Na  Na19  1  0.82680800  0.97287800  0.75214300  1
  Na  Na20  1  0.54383500  0.86993300  0.87500200  1
  Na  Na21  1  0.20593800  0.79071900  0.46712600  1
  Na  Na22  1  0.67319200  0.97287800  0.25214300  1
  Na  Na23  1  0.95616500  0.86993300  0.37500200  1
  Mn  Mn24  1  0.55175800  0.12482800  0.59293400  1
  Mn  Mn25  1  0.94824200  0.12482800  0.09293400  1
  Mn  Mn26  1  0.44559200  0.40680500  0.89939300  1
  Mn  Mn27  1  0.05440800  0.40680500  0.39939300  1
  Mn  Mn28  1  0.94559200  0.59319500  0.60060700  1
  Mn  Mn29  1  0.55440800  0.59319500  0.10060700  1
  Mn  Mn30  1  0.05175800  0.87517200  0.90706600  1
  Mn  Mn31  1  0.44824200  0.87517200  0.40706600  1
  O  O32  1  0.39957900  0.00915300  0.56867300  1
  O  O33  1  0.13755300  0.00621800  0.79193400  1
  O  O34  1  0.10042100  0.00915300  0.06867300  1
  O  O35  1  0.36244700  0.00621800  0.29193400  1
  O  O36  1  0.39122100  0.12288800  0.92553500  1
  O  O37  1  0.10877900  0.12288800  0.42553500  1
  O  O38  1  0.61501100  0.40359600  0.57532000  1
  O  O39  1  0.88498900  0.40359600  0.07532000  1
  O  O40  1  0.88622700  0.37265800  0.69689400  1
  O  O41  1  0.60163600  0.47186900  0.92627000  1
  O  O42  1  0.61377300  0.37265800  0.19689400  1
  O  O43  1  0.89836400  0.47186900  0.42627000  1
  O  O44  1  0.10163600  0.52813100  0.57373000  1
  O  O45  1  0.38622700  0.62734200  0.80310600  1
  O  O46  1  0.39836400  0.52813100  0.07373000  1
  O  O47  1  0.11377300  0.62734200  0.30310600  1
  O  O48  1  0.11501100  0.59640400  0.92468000  1
  O  O49  1  0.38498900  0.59640400  0.42468000  1
  O  O50  1  0.89122100  0.87711200  0.57446500  1
  O  O51  1  0.60877900  0.87711200  0.07446500  1
  O  O52  1  0.63755300  0.99378200  0.70806600  1
  O  O53  1  0.89957900  0.99084700  0.93132700  1
  O  O54  1  0.86244700  0.99378200  0.20806600  1
  O  O55  1  0.60042100  0.99084700  0.43132700  1
