# generated using pymatgen
data_Mn12O7F17
_symmetry_space_group_name_H-M   'P 1'
_cell_length_a   5.05790200
_cell_length_b   5.68325122
_cell_length_c   15.35983989
_cell_angle_alpha   87.37890215
_cell_angle_beta   88.73275150
_cell_angle_gamma   86.24600333
_symmetry_Int_Tables_number   1
_chemical_formula_structural   Mn12O7F17
_chemical_formula_sum   'Mn12 O7 F17'
_cell_volume   440.03436274
_cell_formula_units_Z   1
loop_
 _symmetry_equiv_pos_site_id
 _symmetry_equiv_pos_as_xyz
  1  'x, y, z'
loop_
 _atom_site_type_symbol
 _atom_site_label
 _atom_site_symmetry_multiplicity
 _atom_site_fract_x
 _atom_site_fract_y
 _atom_site_fract_z
 _atom_site_occupancy
  Mn  Mn0  1  0.97028000  0.91047200  0.99826000  1
  Mn  Mn1  1  0.03011700  0.61380700  0.83289100  1
  Mn  Mn2  1  0.98289200  0.93398000  0.66008000  1
  Mn  Mn3  1  0.01492300  0.45661300  0.49654900  1
  Mn  Mn4  1  0.96998900  0.88630600  0.33052800  1
  Mn  Mn5  1  0.94707100  0.48144200  0.17939500  1
  Mn  Mn6  1  0.53647000  0.11868900  0.82893800  1
  Mn  Mn7  1  0.51396100  0.38475600  0.00500800  1
  Mn  Mn8  1  0.53260500  0.56542000  0.34139300  1
  Mn  Mn9  1  0.50582600  0.10030600  0.48874500  1
  Mn  Mn10  1  0.51692500  0.55653500  0.68097600  1
  Mn  Mn11  1  0.49008600  0.01464100  0.16827000  1
  O  O12  1  0.80902100  0.88440300  0.88731600  1
  O  O13  1  0.72100400  0.12219500  0.05848100  1
  O  O14  1  0.70940100  0.77291800  0.25218300  1
  O  O15  1  0.82286200  0.68420800  0.73179500  1
  O  O16  1  0.81996100  0.66161000  0.40990200  1
  O  O17  1  0.35051400  0.38427200  0.43023700  1
  O  O18  1  0.32272000  0.40574300  0.78074500  1
  F  F19  1  0.78407500  0.18689900  0.73138400  1
  F  F20  1  0.83693100  0.15400000  0.41849500  1
  F  F21  1  0.66512600  0.86606400  0.57860500  1
  F  F22  1  0.75428100  0.38172400  0.90030900  1
  F  F23  1  0.74726400  0.62167800  0.06639100  1
  F  F24  1  0.65001000  0.29447800  0.24485000  1
  F  F25  1  0.68880000  0.36812300  0.57311400  1
  F  F26  1  0.26149900  0.33858100  0.10379800  1
  F  F27  1  0.23157600  0.62758200  0.94692100  1
  F  F28  1  0.19158300  0.64014500  0.59837600  1
  F  F29  1  0.21430600  0.59995700  0.26880800  1
  F  F30  1  0.17636300  0.14259900  0.57045300  1
  F  F31  1  0.29754200  0.12303200  0.93486500  1
  F  F32  1  0.13811600  0.09790800  0.24779900  1
  F  F33  1  0.30321500  0.88170800  0.40269400  1
  F  F34  1  0.19602900  0.84376000  0.10060400  1
  F  F35  1  0.29665700  0.89344900  0.75084200  1
