data_image0
_chemical_formula_structural       Cl4H20O8
_chemical_formula_sum              "Cl4 H20 O8"
_cell_length_a       3.64794
_cell_length_b       11.5566
_cell_length_c       6.50045
_cell_angle_alpha    90.0001
_cell_angle_beta     100.939
_cell_angle_gamma    90

_space_group_name_H-M_alt    "P 1"
_space_group_IT_number       1

loop_
  _space_group_symop_operation_xyz
  'x, y, z'

loop_
  _atom_site_type_symbol
  _atom_site_label
  _atom_site_symmetry_multiplicity
  _atom_site_fract_x
  _atom_site_fract_y
  _atom_site_fract_z
  _atom_site_occupancy
  Cl  Cl1       1.0  0.04740  0.32400  0.14100  1.0000
  Cl  Cl2       1.0  0.95300  0.82400  0.35900  1.0000
  Cl  Cl3       1.0  0.95300  0.67600  0.85900  1.0000
  Cl  Cl4       1.0  0.04740  0.17600  0.64100  1.0000
  H   H1        1.0  0.41500  0.13900  0.88900  1.0000
  H   H2        1.0  0.58500  0.63900  0.61100  1.0000
  H   H3        1.0  0.58500  0.86100  0.11100  1.0000
  H   H4        1.0  0.41500  0.36100  0.38900  1.0000
  H   H5        1.0  0.76600  0.18400  0.05910  1.0000
  H   H6        1.0  0.23400  0.68400  0.44100  1.0000
  H   H7        1.0  0.23400  0.81600  0.94100  1.0000
  H   H8        1.0  0.76600  0.31600  0.55900  1.0000
  H   H9        1.0  0.45900  0.08590  0.15100  1.0000
  H   H10       1.0  0.54100  0.58600  0.34900  1.0000
  H   H11       1.0  0.54100  0.91400  0.84900  1.0000
  H   H12       1.0  0.45900  0.41400  0.65100  1.0000
  H   H13       1.0  0.20900  0.97600  0.30600  1.0000
  H   H14       1.0  0.79100  0.47600  0.19400  1.0000
  H   H15       1.0  0.79100  0.02410  0.69400  1.0000
  H   H16       1.0  0.20900  0.52400  0.80600  1.0000
  H   H17       1.0  0.24500  0.10500  0.40600  1.0000
  H   H18       1.0  0.75500  0.60500  0.09420  1.0000
  H   H19       1.0  0.75500  0.89500  0.59400  1.0000
  H   H20       1.0  0.24500  0.39500  0.90600  1.0000
  O   O1        1.0  0.33400  0.05220  0.30400  1.0000
  O   O2        1.0  0.66600  0.55200  0.19600  1.0000
  O   O3        1.0  0.66600  0.94800  0.69600  1.0000
  O   O4        1.0  0.33400  0.44800  0.80400  1.0000
  O   O5        1.0  0.60600  0.11500  0.01480  1.0000
  O   O6        1.0  0.39400  0.61500  0.48500  1.0000
  O   O7        1.0  0.39400  0.88500  0.98500  1.0000
  O   O8        1.0  0.60600  0.38500  0.51500  1.0000
