# generated using pymatgen
data_Fe3Ni2Te(PO4)6
_symmetry_space_group_name_H-M   'P 1'
_cell_length_a   8.52810856
_cell_length_b   8.52810856
_cell_length_c   8.52810877
_cell_angle_alpha   61.13950541
_cell_angle_beta   61.13950541
_cell_angle_gamma   61.13951028
_symmetry_Int_Tables_number   1
_chemical_formula_structural   Fe3Ni2Te(PO4)6
_chemical_formula_sum   'Fe3 Ni2 Te1 P6 O24'
_cell_volume   449.82061514
_cell_formula_units_Z   1
loop_
 _symmetry_equiv_pos_site_id
 _symmetry_equiv_pos_as_xyz
  1  'x, y, z'
loop_
 _atom_site_type_symbol
 _atom_site_label
 _atom_site_symmetry_multiplicity
 _atom_site_fract_x
 _atom_site_fract_y
 _atom_site_fract_z
 _atom_site_occupancy
  Fe  Fe0  1  0.85512900  0.85512900  0.85512900  1
  Fe  Fe1  1  0.64482900  0.64482900  0.64482900  1
  Fe  Fe2  1  0.35650500  0.35650500  0.35650500  1
  Ni  Ni3  1  0.99465400  0.99465400  0.99465400  1
  Ni  Ni4  1  0.50083900  0.50083900  0.50083900  1
  Te  Te5  1  0.14402600  0.14402600  0.14402600  1
  P  P6  1  0.04714800  0.74396300  0.46105200  1
  P  P7  1  0.74396300  0.46105200  0.04714800  1
  P  P8  1  0.46105200  0.04714800  0.74396300  1
  P  P9  1  0.55444200  0.94866100  0.25402500  1
  P  P10  1  0.25402500  0.55444200  0.94866100  1
  P  P11  1  0.94866100  0.25402500  0.55444200  1
  O  O12  1  0.49621400  0.89104400  0.68134100  1
  O  O13  1  0.89104400  0.68134100  0.49621400  1
  O  O14  1  0.74602700  0.93932900  0.09137800  1
  O  O15  1  0.68134100  0.49621400  0.89104400  1
  O  O16  1  0.39859000  0.97526500  0.18569600  1
  O  O17  1  0.56537400  0.75323800  0.41027100  1
  O  O18  1  0.09137800  0.74602700  0.93932900  1
  O  O19  1  0.41027100  0.56537400  0.75323800  1
  O  O20  1  0.00455100  0.82119200  0.60934700  1
  O  O21  1  0.75323800  0.41027100  0.56537400  1
  O  O22  1  0.05639800  0.90811300  0.25637100  1
  O  O23  1  0.82119200  0.60934700  0.00455100  1
  O  O24  1  0.18569600  0.39859000  0.97526500  1
  O  O25  1  0.93932900  0.09137800  0.74602700  1
  O  O26  1  0.24570800  0.59208300  0.43972800  1
  O  O27  1  0.97526500  0.18569600  0.39859000  1
  O  O28  1  0.59208300  0.43972800  0.24570800  1
  O  O29  1  0.90811300  0.25637100  0.05639800  1
  O  O30  1  0.43972800  0.24570800  0.59208300  1
  O  O31  1  0.60934700  0.00455100  0.82119200  1
  O  O32  1  0.31694700  0.49881000  0.11171100  1
  O  O33  1  0.25637100  0.05639800  0.90811300  1
  O  O34  1  0.11171100  0.31694700  0.49881000  1
  O  O35  1  0.49881000  0.11171100  0.31694700  1
