# generated using pymatgen
data_Na5Fe2P2(CO7)2
_symmetry_space_group_name_H-M   'P 1'
_cell_length_a   10.41179353
_cell_length_b   10.49506472
_cell_length_c   6.62867700
_cell_angle_alpha   90.00000000
_cell_angle_beta   90.00000000
_cell_angle_gamma   60.05885639
_symmetry_Int_Tables_number   1
_chemical_formula_structural   Na5Fe2P2(CO7)2
_chemical_formula_sum   'Na10 Fe4 P4 C4 O28'
_cell_volume   627.66140081
_cell_formula_units_Z   2
loop_
 _symmetry_equiv_pos_site_id
 _symmetry_equiv_pos_as_xyz
  1  'x, y, z'
loop_
 _atom_site_type_symbol
 _atom_site_label
 _atom_site_symmetry_multiplicity
 _atom_site_fract_x
 _atom_site_fract_y
 _atom_site_fract_z
 _atom_site_occupancy
  Na  Na0  1  0.91430600  0.41738700  0.75825300  1
  Na  Na1  1  0.92210600  0.92608400  0.75094300  1
  Na  Na2  1  0.73537700  0.25832500  0.51288000  1
  Na  Na3  1  0.73657800  0.75630300  0.99885300  1
  Na  Na4  1  0.73752800  0.75575900  0.50069900  1
  Na  Na5  1  0.26342200  0.24369700  0.49885300  1
  Na  Na6  1  0.26247200  0.24424100  0.00069900  1
  Na  Na7  1  0.26462300  0.74167500  0.01288000  1
  Na  Na8  1  0.07789400  0.07391600  0.25094300  1
  Na  Na9  1  0.08569400  0.58261300  0.25825300  1
  Fe  Fe10  1  0.65220900  0.06959100  0.24010500  1
  Fe  Fe11  1  0.64817400  0.55746500  0.24436800  1
  Fe  Fe12  1  0.35182600  0.44253500  0.74436800  1
  Fe  Fe13  1  0.34779100  0.93040900  0.74010500  1
  P  P14  1  0.58046000  0.05925300  0.74842300  1
  P  P15  1  0.58060100  0.56744600  0.74749400  1
  P  P16  1  0.41939900  0.43255400  0.24749400  1
  P  P17  1  0.41954000  0.94074700  0.24842300  1
  C  C18  1  0.94246800  0.39659200  0.25568800  1
  C  C19  1  0.93171400  0.89658900  0.24904500  1
  C  C20  1  0.06828600  0.10341100  0.74904500  1
  C  C21  1  0.05753200  0.60340800  0.75568800  1
  O  O22  1  0.92802700  0.18422100  0.73126300  1
  O  O23  1  0.91580500  0.68656800  0.75032700  1
  O  O24  1  0.86865400  0.03947600  0.26404400  1
  O  O25  1  0.88073700  0.53963300  0.24583000  1
  O  O26  1  0.85499300  0.34157800  0.26915700  1
  O  O27  1  0.84343100  0.84076800  0.25124200  1
  O  O28  1  0.67901700  0.03433100  0.93779800  1
  O  O29  1  0.67680100  0.04610400  0.56140300  1
  O  O30  1  0.67867100  0.55207600  0.93498500  1
  O  O31  1  0.67689500  0.55677300  0.56069700  1
  O  O32  1  0.56758500  0.28560100  0.25677600  1
  O  O33  1  0.56546500  0.79118400  0.25250000  1
  O  O34  1  0.54433400  0.44045200  0.73687400  1
  O  O35  1  0.54543100  0.93014200  0.74281400  1
  O  O36  1  0.45456900  0.06985800  0.24281400  1
  O  O37  1  0.45566600  0.55954800  0.23687400  1
  O  O38  1  0.43453500  0.20881600  0.75250000  1
  O  O39  1  0.43241500  0.71439900  0.75677600  1
  O  O40  1  0.32132900  0.44792400  0.43498500  1
  O  O41  1  0.32310500  0.44322600  0.06069700  1
  O  O42  1  0.32319900  0.95389600  0.06140300  1
  O  O43  1  0.32098300  0.96566900  0.43779800  1
  O  O44  1  0.15656900  0.15923200  0.75124200  1
  O  O45  1  0.14500700  0.65842200  0.76915700  1
  O  O46  1  0.11926300  0.46036700  0.74583000  1
  O  O47  1  0.13134600  0.96052400  0.76404400  1
  O  O48  1  0.08419500  0.31343200  0.25032700  1
  O  O49  1  0.07197300  0.81577900  0.23126300  1
