# generated using pymatgen
data_Na4CrH8SO7
_symmetry_space_group_name_H-M   'P 1'
_cell_length_a   13.86621100
_cell_length_b   5.83140800
_cell_length_c   11.26736799
_cell_angle_alpha   76.21855260
_cell_angle_beta   90.00000000
_cell_angle_gamma   90.00000000
_symmetry_Int_Tables_number   1
_chemical_formula_structural   Na4CrH8SO7
_chemical_formula_sum   'Na16 Cr4 H32 S4 O28'
_cell_volume   884.84563530
_cell_formula_units_Z   4
loop_
 _symmetry_equiv_pos_site_id
 _symmetry_equiv_pos_as_xyz
  1  'x, y, z'
loop_
 _atom_site_type_symbol
 _atom_site_label
 _atom_site_symmetry_multiplicity
 _atom_site_fract_x
 _atom_site_fract_y
 _atom_site_fract_z
 _atom_site_occupancy
  Na  Na0  1  0.68455400  0.99070500  0.76348000  1
  Na  Na1  1  0.05574600  0.74957900  0.99509800  1
  Na  Na2  1  0.29787800  0.75351400  0.97503700  1
  Na  Na3  1  0.81544600  0.99070500  0.26348000  1
  Na  Na4  1  0.44425400  0.74957900  0.49509800  1
  Na  Na5  1  0.20212200  0.75351400  0.47503700  1
  Na  Na6  1  0.79311000  0.49854400  0.77735300  1
  Na  Na7  1  0.29311000  0.50145600  0.72264700  1
  Na  Na8  1  0.70689000  0.49854400  0.27735300  1
  Na  Na9  1  0.20689000  0.50145600  0.22264700  1
  Na  Na10  1  0.79787800  0.24648600  0.52496300  1
  Na  Na11  1  0.55574600  0.25042100  0.50490200  1
  Na  Na12  1  0.18455400  0.00929500  0.73652000  1
  Na  Na13  1  0.70212200  0.24648600  0.02496300  1
  Na  Na14  1  0.94425400  0.25042100  0.00490200  1
  Na  Na15  1  0.31544600  0.00929500  0.23652000  1
  Cr  Cr16  1  0.68626300  0.75056800  0.51633500  1
  Cr  Cr17  1  0.81373700  0.75056800  0.01633500  1
  Cr  Cr18  1  0.18626300  0.24943200  0.98366500  1
  Cr  Cr19  1  0.31373700  0.24943200  0.48366500  1
  H  H20  1  0.35696200  0.90084800  0.66124100  1
  H  H21  1  0.46351200  0.77384000  0.85315100  1
  H  H22  1  0.92319700  0.76114400  0.82892300  1
  H  H23  1  0.85081200  0.83905800  0.61285600  1
  H  H24  1  0.64264900  0.67367700  0.94816400  1
  H  H25  1  0.55191700  0.74991300  0.68209800  1
  H  H26  1  0.12222700  0.57390800  0.81577600  1
  H  H27  1  0.14303800  0.90084800  0.16124100  1
  H  H28  1  0.03648800  0.77384000  0.35315100  1
  H  H29  1  0.57680300  0.76114400  0.32892300  1
  H  H30  1  0.64918800  0.83905800  0.11285600  1
  H  H31  1  0.46407600  0.49157700  0.86278600  1
  H  H32  1  0.85735100  0.67367700  0.44816400  1
  H  H33  1  0.94808300  0.74991300  0.18209800  1
  H  H34  1  0.96407600  0.50842300  0.63721400  1
  H  H35  1  0.62222700  0.42609200  0.68422400  1
  H  H36  1  0.37777300  0.57390800  0.31577600  1
  H  H37  1  0.03592400  0.49157700  0.36278600  1
  H  H38  1  0.05191700  0.25008700  0.81790200  1
  H  H39  1  0.14264900  0.32632300  0.55183600  1
  H  H40  1  0.53592400  0.50842300  0.13721400  1
  H  H41  1  0.35081200  0.16094200  0.88714400  1
  H  H42  1  0.42319700  0.23885600  0.67107700  1
  H  H43  1  0.96351200  0.22616000  0.64684900  1
  H  H44  1  0.85696200  0.09915200  0.83875900  1
  H  H45  1  0.87777300  0.42609200  0.18422400  1
  H  H46  1  0.44808300  0.25008700  0.31790200  1
  H  H47  1  0.35735100  0.32632300  0.05183600  1
  H  H48  1  0.14918800  0.16094200  0.38714400  1
  H  H49  1  0.07680300  0.23885600  0.17107700  1
  H  H50  1  0.53648800  0.22616000  0.14684900  1
  H  H51  1  0.64303800  0.09915200  0.33875900  1
  S  S52  1  0.01477000  0.90667200  0.59180600  1
  S  S53  1  0.48523000  0.90667200  0.09180600  1
  S  S54  1  0.51477000  0.09332800  0.90819400  1
  S  S55  1  0.98523000  0.09332800  0.40819400  1
  O  O56  1  0.30778900  0.91483300  0.59798700  1
  O  O57  1  0.58008400  0.86420900  0.61334200  1
  O  O58  1  0.78149400  0.85533500  0.62828700  1
  O  O59  1  0.70634300  0.63690600  0.92059500  1
  O  O60  1  0.91022300  0.64268800  0.90439000  1
  O  O61  1  0.42849200  0.64119900  0.82952700  1
  O  O62  1  0.17722900  0.58471900  0.86811000  1
  O  O63  1  0.19221100  0.91483300  0.09798700  1
  O  O64  1  0.91991600  0.86420900  0.11334200  1
  O  O65  1  0.71850600  0.85533500  0.12828700  1
  O  O66  1  0.79365700  0.63690600  0.42059500  1
  O  O67  1  0.58977700  0.64268800  0.40439000  1
  O  O68  1  0.07150800  0.64119900  0.32952700  1
  O  O69  1  0.32277100  0.58471900  0.36811000  1
  O  O70  1  0.67722900  0.41528100  0.63189000  1
  O  O71  1  0.92849200  0.35880100  0.67047300  1
  O  O72  1  0.41022300  0.35731200  0.59561000  1
  O  O73  1  0.20634300  0.36309400  0.57940500  1
  O  O74  1  0.28149400  0.14466500  0.87171300  1
  O  O75  1  0.08008400  0.13579100  0.88665800  1
  O  O76  1  0.80778900  0.08516700  0.90201300  1
  O  O77  1  0.82277100  0.41528100  0.13189000  1
  O  O78  1  0.57150800  0.35880100  0.17047300  1
  O  O79  1  0.08977700  0.35731200  0.09561000  1
  O  O80  1  0.29365700  0.36309400  0.07940500  1
  O  O81  1  0.21850600  0.14466500  0.37171300  1
  O  O82  1  0.41991600  0.13579100  0.38665800  1
  O  O83  1  0.69221100  0.08516700  0.40201300  1
