# generated using pymatgen
data_Li4V2Co3Sb3O16
_symmetry_space_group_name_H-M   'P 1'
_cell_length_a   6.13760491
_cell_length_b   6.13760491
_cell_length_c   9.74016351
_cell_angle_alpha   89.21023163
_cell_angle_beta   89.21023163
_cell_angle_gamma   59.57521946
_symmetry_Int_Tables_number   1
_chemical_formula_structural   Li4V2Co3Sb3O16
_chemical_formula_sum   'Li4 V2 Co3 Sb3 O16'
_cell_volume   316.34797265
_cell_formula_units_Z   1
loop_
 _symmetry_equiv_pos_site_id
 _symmetry_equiv_pos_as_xyz
  1  'x, y, z'
loop_
 _atom_site_type_symbol
 _atom_site_label
 _atom_site_symmetry_multiplicity
 _atom_site_fract_x
 _atom_site_fract_y
 _atom_site_fract_z
 _atom_site_occupancy
  Li  Li0  1  0.66963500  0.66963500  0.11329600  1
  Li  Li1  1  0.97830300  0.97830300  0.01941700  1
  Li  Li2  1  0.99392300  0.99392300  0.49211200  1
  Li  Li3  1  0.32449900  0.32449900  0.59661600  1
  V  V4  1  0.67835300  0.67835300  0.50000200  1
  V  V5  1  0.34729400  0.34729400  0.02438200  1
  Co  Co6  1  0.82911000  0.82911000  0.78453300  1
  Co  Co7  1  0.19264800  0.65825700  0.28338500  1
  Co  Co8  1  0.65825700  0.19264800  0.28338500  1
  Sb  Sb9  1  0.33390800  0.82888200  0.78480400  1
  Sb  Sb10  1  0.82888200  0.33390800  0.78480400  1
  Sb  Sb11  1  0.17662500  0.17662500  0.28664000  1
  O  O12  1  0.34052900  0.84472900  0.40724200  1
  O  O13  1  0.51366700  0.51366700  0.66141400  1
  O  O14  1  0.65633200  0.65633200  0.89710100  1
  O  O15  1  0.00381200  0.00381200  0.67972700  1
  O  O16  1  0.00823000  0.00823000  0.20215600  1
  O  O17  1  0.84472900  0.34052900  0.40724200  1
  O  O18  1  0.50592800  0.95513000  0.66035000  1
  O  O19  1  0.95513000  0.50592800  0.66035000  1
  O  O20  1  0.15656300  0.15656300  0.89666100  1
  O  O21  1  0.82295700  0.82295700  0.41868000  1
  O  O22  1  0.04033200  0.47638300  0.15547000  1
  O  O23  1  0.47638300  0.04033200  0.15547000  1
  O  O24  1  0.33235400  0.33235400  0.39653800  1
  O  O25  1  0.16641200  0.68027400  0.89641900  1
  O  O26  1  0.48660600  0.48660600  0.14718700  1
  O  O27  1  0.68027400  0.16641200  0.89641900  1
