# generated using pymatgen
data_Ba2CuPd
_symmetry_space_group_name_H-M   'P 1'
_cell_length_a   12.61104307
_cell_length_b   12.61104307
_cell_length_c   12.61104307
_cell_angle_alpha   122.93567463
_cell_angle_beta   119.13673317
_cell_angle_gamma   88.24689995
_symmetry_Int_Tables_number   1
_chemical_formula_structural   Ba2CuPd
_chemical_formula_sum   'Ba2 Cu1 Pd1'
_cell_volume   1393.28852554
_cell_formula_units_Z   1
loop_
 _symmetry_equiv_pos_site_id
 _symmetry_equiv_pos_as_xyz
  1  'x, y, z'
loop_
 _atom_site_type_symbol
 _atom_site_label
 _atom_site_symmetry_multiplicity
 _atom_site_fract_x
 _atom_site_fract_y
 _atom_site_fract_z
 _atom_site_occupancy
  Ba  Ba0  1  0.00000000  0.26296400  0.26296400  1
  Ba  Ba1  1  0.00000000  0.73703600  0.73703600  1
  Cu  Cu2  1  0.00000000  0.00000000  0.00000000  1
  Pd  Pd3  1  0.00000000  0.50000000  0.50000000  1
