# generated using pymatgen
data_Al6H16C5(Cl2O)6
_symmetry_space_group_name_H-M   'P 1'
_cell_length_a   8.98979200
_cell_length_b   10.16350648
_cell_length_c   19.21834019
_cell_angle_alpha   99.46154928
_cell_angle_beta   91.62276368
_cell_angle_gamma   112.25437534
_symmetry_Int_Tables_number   1
_chemical_formula_structural   Al6H16C5(Cl2O)6
_chemical_formula_sum   'Al12 H32 C10 Cl24 O12'
_cell_volume   1595.12323034
_cell_formula_units_Z   2
loop_
 _symmetry_equiv_pos_site_id
 _symmetry_equiv_pos_as_xyz
  1  'x, y, z'
loop_
 _atom_site_type_symbol
 _atom_site_label
 _atom_site_symmetry_multiplicity
 _atom_site_fract_x
 _atom_site_fract_y
 _atom_site_fract_z
 _atom_site_occupancy
  Al  Al0  1  0.12218000  0.78759600  0.96607100  1
  Al  Al1  1  0.03084000  0.58382800  0.80240800  1
  Al  Al2  1  0.20331100  0.95131000  0.34471000  1
  Al  Al3  1  0.37869800  0.67800200  0.88825800  1
  Al  Al4  1  0.57510200  0.98727500  0.34322700  1
  Al  Al5  1  0.52540100  0.72492700  0.62995500  1
  Al  Al6  1  0.47459900  0.27507300  0.37004500  1
  Al  Al7  1  0.42489800  0.01272500  0.65677300  1
  Al  Al8  1  0.62130200  0.32199800  0.11174200  1
  Al  Al9  1  0.79668900  0.04869000  0.65529000  1
  Al  Al10  1  0.96916000  0.41617200  0.19759200  1
  Al  Al11  1  0.87782000  0.21240400  0.03392900  1
  H  H12  1  0.06167100  0.91676300  0.82642800  1
  H  H13  1  0.21664700  0.66908100  0.35936100  1
  H  H14  1  0.11862100  0.31909100  0.82048300  1
  H  H15  1  0.16858200  0.38682300  0.73949200  1
  H  H16  1  0.33888500  0.77269600  0.44081900  1
  H  H17  1  0.32735200  0.80388100  0.07664900  1
  H  H18  1  0.11021600  0.22827200  0.40981300  1
  H  H19  1  0.12887000  0.23675500  0.19254400  1
  H  H20  1  0.07670700  0.12388500  0.10654800  1
  H  H21  1  0.29295600  0.61551800  0.05127100  1
  H  H22  1  0.12212300  0.11246400  0.46938000  1
  H  H23  1  0.42885900  0.71109600  0.36636400  1
  H  H24  1  0.32650300  0.40746700  0.80440300  1
  H  H25  1  0.27530600  0.29090500  0.47876400  1
  H  H26  1  0.48227500  0.75416700  0.03858600  1
  H  H27  1  0.51772500  0.24583300  0.96141400  1
  H  H28  1  0.72469400  0.70909500  0.52123600  1
  H  H29  1  0.67349700  0.59253300  0.19559700  1
  H  H30  1  0.57114100  0.28890400  0.63363600  1
  H  H31  1  0.87787700  0.88753600  0.53062000  1
  H  H32  1  0.70704400  0.38448200  0.94872900  1
  H  H33  1  0.92329300  0.87611500  0.89345200  1
  H  H34  1  0.87113000  0.76324500  0.80745600  1
  H  H35  1  0.88978400  0.77172800  0.59018700  1
  H  H36  1  0.67264800  0.19611900  0.92335100  1
  H  H37  1  0.66111500  0.22730400  0.55918100  1
  H  H38  1  0.83141800  0.61317700  0.26050800  1
  H  H39  1  0.88137900  0.68090900  0.17951700  1
  H  H40  1  0.78335300  0.33091900  0.64063900  1
  H  H41  1  0.93832900  0.08323700  0.17357200  1
  H  H42  1  0.43828100  0.84554000  0.72934700  1
  H  H43  1  0.56171900  0.15446000  0.27065300  1
  C  C44  1  0.02876100  0.16942200  0.15202400  1
  C  C45  1  0.20388800  0.40411400  0.79632400  1
  C  C46  1  0.33476400  0.75044700  0.38309600  1
  C  C47  1  0.35149200  0.72331900  0.03844800  1
  C  C48  1  0.19151300  0.19693000  0.44091700  1
  C  C49  1  0.80848700  0.80307000  0.55908300  1
  C  C50  1  0.64850800  0.27668100  0.96155200  1
  C  C51  1  0.66523600  0.24955300  0.61690400  1
  C  C52  1  0.79611200  0.59588600  0.20367600  1
  C  C53  1  0.97123900  0.83057800  0.84797600  1
  Cl  Cl54  1  0.16093400  0.95578000  0.23608000  1
  Cl  Cl55  1  0.06657500  0.64582200  0.70191100  1
  Cl  Cl56  1  0.27829100  0.95840800  0.55980000  1
  Cl  Cl57  1  0.06055800  0.32279200  0.97286100  1
  Cl  Cl58  1  0.00316500  0.17627900  0.61099400  1
  Cl  Cl59  1  0.18992500  0.59160900  0.19653600  1
  Cl  Cl60  1  0.45885800  0.86898000  0.84227500  1
  Cl  Cl61  1  0.36843700  0.59887300  0.53845800  1
  Cl  Cl62  1  0.22426000  0.01609000  0.99721200  1
  Cl  Cl63  1  0.42542700  0.39795000  0.30016400  1
  Cl  Cl64  1  0.54985600  0.59213000  0.91048300  1
  Cl  Cl65  1  0.35109800  0.11768100  0.74513700  1
  Cl  Cl66  1  0.64890200  0.88231900  0.25486300  1
  Cl  Cl67  1  0.45014400  0.40787000  0.08951700  1
  Cl  Cl68  1  0.57457300  0.60205000  0.69983600  1
  Cl  Cl69  1  0.77574000  0.98391000  0.00278800  1
  Cl  Cl70  1  0.63156300  0.40112700  0.46154200  1
  Cl  Cl71  1  0.54114200  0.13102000  0.15772500  1
  Cl  Cl72  1  0.81007500  0.40839100  0.80346400  1
  Cl  Cl73  1  0.99683500  0.82372100  0.38900600  1
  Cl  Cl74  1  0.93944200  0.67720800  0.02713900  1
  Cl  Cl75  1  0.72170900  0.04159200  0.44020000  1
  Cl  Cl76  1  0.93342500  0.35417800  0.29808900  1
  Cl  Cl77  1  0.83906600  0.04422000  0.76392000  1
  O  O78  1  0.04933400  0.73758200  0.87172300  1
  O  O79  1  0.28488500  0.72175200  0.96675200  1
  O  O80  1  0.20350800  0.54556700  0.83095100  1
  O  O81  1  0.36485300  0.88620900  0.35667000  1
  O  O82  1  0.45219000  0.85460600  0.67837700  1
  O  O83  1  0.28799600  0.14072200  0.39253900  1
  O  O84  1  0.71200400  0.85927800  0.60746100  1
  O  O85  1  0.54781000  0.14539400  0.32162300  1
  O  O86  1  0.63514700  0.11379100  0.64333000  1
  O  O87  1  0.79649200  0.45443300  0.16904900  1
  O  O88  1  0.71511500  0.27824800  0.03324800  1
  O  O89  1  0.95066600  0.26241800  0.12827700  1
