# generated using pymatgen
data_CrSb3(PO4)6
_symmetry_space_group_name_H-M   'P 1'
_cell_length_a   8.88932496
_cell_length_b   8.88932496
_cell_length_c   8.88932504
_cell_angle_alpha   58.02285814
_cell_angle_beta   58.02285814
_cell_angle_gamma   58.02285747
_symmetry_Int_Tables_number   1
_chemical_formula_structural   CrSb3(PO4)6
_chemical_formula_sum   'Cr1 Sb3 P6 O24'
_cell_volume   474.17269019
_cell_formula_units_Z   1
loop_
 _symmetry_equiv_pos_site_id
 _symmetry_equiv_pos_as_xyz
  1  'x, y, z'
loop_
 _atom_site_type_symbol
 _atom_site_label
 _atom_site_symmetry_multiplicity
 _atom_site_fract_x
 _atom_site_fract_y
 _atom_site_fract_z
 _atom_site_occupancy
  Cr  Cr0  1  0.14284300  0.14284300  0.14284300  1
  Sb  Sb1  1  0.85675000  0.85675000  0.85675000  1
  Sb  Sb2  1  0.64353700  0.64353700  0.64353700  1
  Sb  Sb3  1  0.35648600  0.35648600  0.35648600  1
  P  P4  1  0.53307600  0.96295000  0.24894300  1
  P  P5  1  0.24894300  0.53307600  0.96295000  1
  P  P6  1  0.96295000  0.24894300  0.53307600  1
  P  P7  1  0.03873100  0.75427400  0.45749500  1
  P  P8  1  0.75427400  0.45749500  0.03873100  1
  P  P9  1  0.45749500  0.03873100  0.75427400  1
  O  O10  1  0.48770100  0.86680600  0.72273100  1
  O  O11  1  0.86680600  0.72273100  0.48770100  1
  O  O12  1  0.72019900  0.94020700  0.07629700  1
  O  O13  1  0.72273100  0.48770100  0.86680600  1
  O  O14  1  0.56076600  0.78108700  0.42427900  1
  O  O15  1  0.36647100  0.98871900  0.22376600  1
  O  O16  1  0.07629700  0.72019900  0.94020700  1
  O  O17  1  0.42427900  0.56076600  0.78108700  1
  O  O18  1  0.78108700  0.42427900  0.56076600  1
  O  O19  1  0.01386100  0.77154000  0.63597500  1
  O  O20  1  0.05954400  0.92351300  0.28302600  1
  O  O21  1  0.77154000  0.63597500  0.01386100  1
  O  O22  1  0.22376600  0.36647100  0.98871900  1
  O  O23  1  0.94020700  0.07629700  0.72019900  1
  O  O24  1  0.98871900  0.22376600  0.36647100  1
  O  O25  1  0.21761500  0.57323100  0.44366100  1
  O  O26  1  0.57323100  0.44366100  0.21761500  1
  O  O27  1  0.92351300  0.28302600  0.05954400  1
  O  O28  1  0.63597500  0.01386100  0.77154000  1
  O  O29  1  0.44366100  0.21761500  0.57323100  1
  O  O30  1  0.27531800  0.51618700  0.13241300  1
  O  O31  1  0.28302600  0.05954400  0.92351300  1
  O  O32  1  0.13241300  0.27531800  0.51618700  1
  O  O33  1  0.51618700  0.13241300  0.27531800  1
