# generated using pymatgen
data_Sc2CdGa
_symmetry_space_group_name_H-M   'P 1'
_cell_length_a   11.98184089
_cell_length_b   11.98184089
_cell_length_c   11.98184089
_cell_angle_alpha   122.91984946
_cell_angle_beta   118.18745588
_cell_angle_gamma   89.09336542
_symmetry_Int_Tables_number   1
_chemical_formula_structural   Sc2CdGa
_chemical_formula_sum   'Sc2 Cd1 Ga1'
_cell_volume   1203.37599311
_cell_formula_units_Z   1
loop_
 _symmetry_equiv_pos_site_id
 _symmetry_equiv_pos_as_xyz
  1  'x, y, z'
loop_
 _atom_site_type_symbol
 _atom_site_label
 _atom_site_symmetry_multiplicity
 _atom_site_fract_x
 _atom_site_fract_y
 _atom_site_fract_z
 _atom_site_occupancy
  Sc  Sc0  1  0.00000000  0.23090200  0.23090200  1
  Sc  Sc1  1  0.00000000  0.76909800  0.76909800  1
  Cd  Cd2  1  0.00000000  0.50000000  0.50000000  1
  Ga  Ga3  1  0.00000000  0.00000000  0.00000000  1
