# generated using pymatgen
data_Li2MnP2O7
_symmetry_space_group_name_H-M   'P 1'
_cell_length_a   7.11528203
_cell_length_b   8.66272234
_cell_length_c   10.21943547
_cell_angle_alpha   92.88116626
_cell_angle_beta   108.95972732
_cell_angle_gamma   95.00026040
_symmetry_Int_Tables_number   1
_chemical_formula_structural   Li2MnP2O7
_chemical_formula_sum   'Li8 Mn4 P8 O28'
_cell_volume   591.39350814
_cell_formula_units_Z   4
loop_
 _symmetry_equiv_pos_site_id
 _symmetry_equiv_pos_as_xyz
  1  'x, y, z'
loop_
 _atom_site_type_symbol
 _atom_site_label
 _atom_site_symmetry_multiplicity
 _atom_site_fract_x
 _atom_site_fract_y
 _atom_site_fract_z
 _atom_site_occupancy
  Li  Li0  1  0.62649300  0.85116600  0.29262200  1
  Li  Li1  1  0.62643000  0.85120500  0.79259100  1
  Li  Li2  1  0.33717100  0.67691700  0.00791600  1
  Li  Li3  1  0.33719000  0.67685100  0.50787100  1
  Li  Li4  1  0.92712100  0.39966500  0.02800000  1
  Li  Li5  1  0.92705300  0.39953800  0.52803600  1
  Li  Li6  1  0.37552500  0.15554300  0.20979800  1
  Li  Li7  1  0.37552100  0.15544300  0.70976800  1
  Mn  Mn8  1  0.50719600  0.49472400  0.75446200  1
  Mn  Mn9  1  0.00511000  0.00467900  0.50034100  1
  Mn  Mn10  1  0.50747600  0.49457000  0.25458700  1
  Mn  Mn11  1  0.00487400  0.00487400  0.00072200  1
  P  P12  1  0.18366700  0.79798000  0.27378700  1
  P  P13  1  0.18366700  0.79797500  0.77388900  1
  P  P14  1  0.77062300  0.69068100  0.06320600  1
  P  P15  1  0.77063800  0.69064100  0.56328400  1
  P  P16  1  0.22674000  0.31772900  0.43516100  1
  P  P17  1  0.22670300  0.31771400  0.93517100  1
  P  P18  1  0.81622700  0.20419100  0.23162600  1
  P  P19  1  0.81622200  0.20419700  0.73162600  1
  O  O20  1  0.21093700  0.94544400  0.20261100  1
  O  O21  1  0.21098200  0.94532200  0.70251900  1
  O  O22  1  0.76388700  0.84106300  0.49155100  1
  O  O23  1  0.76372700  0.84110400  0.99157900  1
  O  O24  1  0.13974900  0.82006200  0.40969200  1
  O  O25  1  0.13976800  0.82026200  0.90976200  1
  O  O26  1  0.62919900  0.68642800  0.15066500  1
  O  O27  1  0.62902400  0.68647100  0.65057300  1
  O  O28  1  0.36400800  0.70294700  0.29852300  1
  O  O29  1  0.36394000  0.70287900  0.79864300  1
  O  O30  1  0.99731800  0.68075900  0.16583000  1
  O  O31  1  0.99723700  0.68075900  0.66594400  1
  O  O32  1  0.73125600  0.54409100  0.46385700  1
  O  O33  1  0.73118100  0.54410900  0.96381500  1
  O  O34  1  0.26960600  0.46241800  0.03861100  1
  O  O35  1  0.26947600  0.46239900  0.53860000  1
  O  O36  1  0.98489700  0.32126000  0.35628100  1
  O  O37  1  0.98493100  0.32131200  0.85626200  1
  O  O38  1  0.62878400  0.28641600  0.21083800  1
  O  O39  1  0.62878700  0.28650700  0.71073900  1
  O  O40  1  0.32881100  0.32711400  0.32591000  1
  O  O41  1  0.32884100  0.32696100  0.82591900  1
  O  O42  1  0.89209500  0.20138400  0.10786700  1
  O  O43  1  0.89212500  0.20126700  0.60788100  1
  O  O44  1  0.24745900  0.16705600  0.00718300  1
  O  O45  1  0.24755100  0.16703200  0.50714400  1
  O  O46  1  0.79909800  0.04665000  0.29168500  1
  O  O47  1  0.79901600  0.04674200  0.79176000  1
