# generated using pymatgen
data_Na4Bi2C4SO16
_symmetry_space_group_name_H-M   'P 1'
_cell_length_a   10.27863600
_cell_length_b   10.29562159
_cell_length_c   17.83779577
_cell_angle_alpha   73.95334421
_cell_angle_beta   73.45097901
_cell_angle_gamma   60.74660925
_symmetry_Int_Tables_number   1
_chemical_formula_structural   Na4Bi2C4SO16
_chemical_formula_sum   'Na16 Bi8 C16 S4 O64'
_cell_volume   1557.32205106
_cell_formula_units_Z   4
loop_
 _symmetry_equiv_pos_site_id
 _symmetry_equiv_pos_as_xyz
  1  'x, y, z'
loop_
 _atom_site_type_symbol
 _atom_site_label
 _atom_site_symmetry_multiplicity
 _atom_site_fract_x
 _atom_site_fract_y
 _atom_site_fract_z
 _atom_site_occupancy
  Na  Na0  1  0.41372800  0.91374300  0.16387200  1
  Na  Na1  1  0.78354400  0.28381000  0.03417100  1
  Na  Na2  1  0.21101900  0.11903100  0.96053400  1
  Na  Na3  1  0.11695700  0.20076100  0.46076800  1
  Na  Na4  1  0.68977200  0.61969900  0.46060300  1
  Na  Na5  1  0.41466000  0.50574400  0.16446200  1
  Na  Na6  1  0.00542900  0.91469200  0.16465500  1
  Na  Na7  1  0.50114300  0.42223500  0.65995600  1
  Na  Na8  1  0.08942900  0.58733300  0.34032000  1
  Na  Na9  1  0.91290200  0.40698200  0.66819400  1
  Na  Na10  1  0.89572100  0.78307500  0.53459700  1
  Na  Na11  1  0.70144400  0.21970200  0.46032900  1
  Na  Na12  1  0.21238800  0.71197300  0.95896100  1
  Na  Na13  1  0.91990100  0.00657800  0.66521100  1
  Na  Na14  1  0.61867400  0.71055100  0.96223300  1
  Na  Na15  1  0.59064800  0.09244500  0.84104500  1
  Bi  Bi16  1  0.00332500  0.50519600  0.99978800  1
  Bi  Bi17  1  0.25118100  0.24285100  0.24881500  1
  Bi  Bi18  1  0.49136300  0.00486000  0.49943200  1
  Bi  Bi19  1  0.75012300  0.24978500  0.25353000  1
  Bi  Bi20  1  0.25243700  0.74950100  0.74940700  1
  Bi  Bi21  1  0.74272300  0.75343100  0.24799100  1
  Bi  Bi22  1  0.75192800  0.74190700  0.75293700  1
  Bi  Bi23  1  0.24650300  0.25164600  0.74838100  1
  C  C24  1  0.08175000  0.19061600  0.13463300  1
  C  C25  1  0.08841300  0.58583500  0.14197700  1
  C  C26  1  0.42009400  0.92191700  0.35845200  1
  C  C27  1  0.61236100  0.10921500  0.16957100  1
  C  C28  1  0.10696800  0.61145700  0.66968100  1
  C  C29  1  0.80251400  0.91638000  0.36112600  1
  C  C30  1  0.41643600  0.30009500  0.36067800  1
  C  C31  1  0.30231800  0.41979200  0.85866800  1
  C  C32  1  0.18698200  0.08623000  0.63729300  1
  C  C33  1  0.59128400  0.69018800  0.63546800  1
  C  C34  1  0.68907000  0.58084500  0.13615900  1
  C  C35  1  0.59215700  0.08111900  0.63974700  1
  C  C36  1  0.89077400  0.39308400  0.33722100  1
  C  C37  1  0.39066900  0.89269100  0.83717900  1
  C  C38  1  0.91871400  0.41983400  0.86159900  1
  C  C39  1  0.91892100  0.80045700  0.86044400  1
  S  S40  1  0.18439500  0.68893100  0.43728400  1
  S  S41  1  0.31244500  0.81228200  0.06254200  1
  S  S42  1  0.68753000  0.18768000  0.93752300  1
  S  S43  1  0.81192000  0.31216500  0.56260700  1
  O  O44  1  0.13302700  0.25709000  0.06893300  1
  O  O45  1  0.20874300  0.71791200  0.34833900  1
  O  O46  1  0.08784900  0.60191300  0.46566900  1
  O  O47  1  0.15571000  0.12920700  0.19313000  1
  O  O48  1  0.03880100  0.63896400  0.07518600  1
  O  O49  1  0.32872800  0.59878300  0.46726000  1
  O  O50  1  0.09141300  0.83569700  0.46853800  1
  O  O51  1  0.98613500  0.36406500  0.79631400  1
  O  O52  1  0.48141200  0.86046000  0.29478600  1
  O  O53  1  0.48532600  0.10827200  0.17301000  1
  O  O54  1  0.21164400  0.46176100  0.14956200  1
  O  O55  1  0.22870700  0.48564000  0.67390300  1
  O  O56  1  0.29677600  0.04761200  0.35954100  1
  O  O57  1  0.73616400  0.98376900  0.17193900  1
  O  O58  1  0.02398800  0.37941600  0.33750400  1
  O  O59  1  0.40046200  0.66479000  0.03262700  1
  O  O60  1  0.16476500  0.90028300  0.03311500  1
  O  O61  1  0.10618000  0.73632500  0.67335000  1
  O  O62  1  0.48666800  0.85993300  0.42014800  1
  O  O63  1  0.61719500  0.23581100  0.16576500  1
  O  O64  1  0.34925100  0.36891900  0.29924800  1
  O  O65  1  0.81219100  0.78628900  0.35862200  1
  O  O66  1  0.31046700  0.28868700  0.85903000  1
  O  O67  1  0.40177900  0.90115300  0.03312400  1
  O  O68  1  0.28224600  0.78313400  0.15128100  1
  O  O69  1  0.46566300  0.68331200  0.64271900  1
  O  O70  1  0.25064200  0.03721600  0.56988100  1
  O  O71  1  0.95566500  0.18201700  0.14149900  1
  O  O72  1  0.75459100  0.52831700  0.06919800  1
  O  O73  1  0.36050500  0.48484700  0.79475700  1
  O  O74  1  0.35374500  0.23569600  0.42257900  1
  O  O75  1  0.85318400  0.98837000  0.29777100  1
  O  O76  1  0.64330700  0.75773700  0.56954800  1
  O  O77  1  0.13062300  0.01045000  0.69604300  1
  O  O78  1  0.63015600  0.50766700  0.19487400  1
  O  O79  1  0.74060700  0.97299500  0.42667700  1
  O  O80  1  0.23394000  0.48576000  0.92050400  1
  O  O81  1  0.04953000  0.79378700  0.85725400  1
  O  O82  1  0.54736100  0.29168300  0.35970100  1
  O  O83  1  0.59791400  0.09836800  0.96575000  1
  O  O84  1  0.71660700  0.21626600  0.84835400  1
  O  O85  1  0.17600500  0.21325900  0.64494900  1
  O  O86  1  0.66821800  0.62657800  0.69310500  1
  O  O87  1  0.68055700  0.70741800  0.14243800  1
  O  O88  1  0.54147800  0.13429300  0.57399700  1
  O  O89  1  0.87582900  0.27394100  0.33888200  1
  O  O90  1  0.37646300  0.77466900  0.83728100  1
  O  O91  1  0.60102700  0.33521400  0.96822100  1
  O  O92  1  0.83521400  0.10103100  0.96761600  1
  O  O93  1  0.98060400  0.61567800  0.66386900  1
  O  O94  1  0.71793600  0.95554600  0.64598100  1
  O  O95  1  0.27484400  0.02404500  0.83806400  1
  O  O96  1  0.77410800  0.52413300  0.33714100  1
  O  O97  1  0.79425700  0.54533900  0.86202800  1
  O  O98  1  0.52454600  0.87895400  0.83811400  1
  O  O99  1  0.52084800  0.15273900  0.70018800  1
  O  O100  1  0.01467900  0.66069200  0.20133500  1
  O  O101  1  0.89867700  0.16482000  0.53263500  1
  O  O102  1  0.66401200  0.40006500  0.53334400  1
  O  O103  1  0.97620200  0.35457600  0.92616000  1
  O  O104  1  0.84642000  0.87185000  0.80067700  1
  O  O105  1  0.90103800  0.40116900  0.53324300  1
  O  O106  1  0.78139400  0.28282200  0.65137300  1
  O  O107  1  0.85977200  0.73245400  0.92228100  1
