# generated using pymatgen
data_V2TcMo
_symmetry_space_group_name_H-M   'P 1'
_cell_length_a   9.93239674
_cell_length_b   9.93239674
_cell_length_c   9.93239674
_cell_angle_alpha   128.06518825
_cell_angle_beta   120.53797770
_cell_angle_gamma   82.83847380
_symmetry_Int_Tables_number   1
_chemical_formula_structural   V2TcMo
_chemical_formula_sum   'V2 Tc1 Mo1'
_cell_volume   638.22450268
_cell_formula_units_Z   1
loop_
 _symmetry_equiv_pos_site_id
 _symmetry_equiv_pos_as_xyz
  1  'x, y, z'
loop_
 _atom_site_type_symbol
 _atom_site_label
 _atom_site_symmetry_multiplicity
 _atom_site_fract_x
 _atom_site_fract_y
 _atom_site_fract_z
 _atom_site_occupancy
  V  V0  1  0.00000000  0.25069600  0.25069600  1
  V  V1  1  0.00000000  0.74930400  0.74930400  1
  Tc  Tc2  1  0.00000000  0.50000000  0.50000000  1
  Mo  Mo3  1  0.00000000  0.00000000  0.00000000  1
