data_image0
_chemical_formula_structural       Cl12Cu4Rb4
_chemical_formula_sum              "Cl12 Cu4 Rb4"
_cell_length_a       6.76482
_cell_length_b       6.76482
_cell_length_c       11.6734
_cell_angle_alpha    89.1764
_cell_angle_beta     90.8236
_cell_angle_gamma    120.178

_space_group_name_H-M_alt    "P 1"
_space_group_IT_number       1

loop_
  _space_group_symop_operation_xyz
  'x, y, z'

loop_
  _atom_site_type_symbol
  _atom_site_label
  _atom_site_symmetry_multiplicity
  _atom_site_fract_x
  _atom_site_fract_y
  _atom_site_fract_z
  _atom_site_occupancy
  Cl  Cl1       1.0  0.31100  0.14500  0.87600  1.0000
  Cl  Cl2       1.0  0.14500  0.31100  0.12400  1.0000
  Cl  Cl3       1.0  0.80100  0.63400  0.37600  1.0000
  Cl  Cl4       1.0  0.63400  0.80100  0.62400  1.0000
  Cl  Cl5       1.0  0.81200  0.64700  0.87700  1.0000
  Cl  Cl6       1.0  0.64700  0.81200  0.12300  1.0000
  Cl  Cl7       1.0  0.14400  0.81200  0.12800  1.0000
  Cl  Cl8       1.0  0.81200  0.14400  0.87200  1.0000
  Cl  Cl9       1.0  0.13300  0.80200  0.62800  1.0000
  Cl  Cl10      1.0  0.80200  0.13300  0.37200  1.0000
  Cl  Cl11      1.0  0.29800  0.13300  0.37700  1.0000
  Cl  Cl12      1.0  0.13300  0.29800  0.62300  1.0000
  Cu  Cu1       1.0  0.97300  0.97300  0.25000  1.0000
  Cu  Cu2       1.0  0.97300  0.97300  0.75000  1.0000
  Cu  Cu3       1.0  0.96400  0.96400  0.50000  1.0000
  Cu  Cu4       1.0  0.98000  0.98000  0.00000  1.0000
  Rb  Rb1       1.0  0.31100  0.64500  0.87500  1.0000
  Rb  Rb2       1.0  0.64500  0.31100  0.12500  1.0000
  Rb  Rb3       1.0  0.30100  0.63500  0.37500  1.0000
  Rb  Rb4       1.0  0.63500  0.30100  0.62500  1.0000
