# generated using pymatgen
data_Ta2MnMo
_symmetry_space_group_name_H-M   'P 1'
_cell_length_a   10.35780545
_cell_length_b   10.35780545
_cell_length_c   10.35780545
_cell_angle_alpha   127.48769148
_cell_angle_beta   117.36762647
_cell_angle_gamma   86.08427778
_symmetry_Int_Tables_number   1
_chemical_formula_structural   Ta2MnMo
_chemical_formula_sum   'Ta2 Mn1 Mo1'
_cell_volume   746.95821396
_cell_formula_units_Z   1
loop_
 _symmetry_equiv_pos_site_id
 _symmetry_equiv_pos_as_xyz
  1  'x, y, z'
loop_
 _atom_site_type_symbol
 _atom_site_label
 _atom_site_symmetry_multiplicity
 _atom_site_fract_x
 _atom_site_fract_y
 _atom_site_fract_z
 _atom_site_occupancy
  Ta  Ta0  1  0.00000000  0.25341700  0.25341700  1
  Ta  Ta1  1  0.00000000  0.74658300  0.74658300  1
  Mn  Mn2  1  0.00000000  0.00000000  0.00000000  1
  Mo  Mo3  1  0.00000000  0.50000000  0.50000000  1
