# generated using pymatgen
data_VOF
_symmetry_space_group_name_H-M   'P 1'
_cell_length_a   4.70863763
_cell_length_b   9.47682183
_cell_length_c   6.22932600
_cell_angle_alpha   89.99991184
_cell_angle_beta   89.99994832
_cell_angle_gamma   90.60701443
_symmetry_Int_Tables_number   1
_chemical_formula_structural   VOF
_chemical_formula_sum   'V8 O8 F8'
_cell_volume   277.95511509
_cell_formula_units_Z   8
loop_
 _symmetry_equiv_pos_site_id
 _symmetry_equiv_pos_as_xyz
  1  'x, y, z'
loop_
 _atom_site_type_symbol
 _atom_site_label
 _atom_site_symmetry_multiplicity
 _atom_site_fract_x
 _atom_site_fract_y
 _atom_site_fract_z
 _atom_site_occupancy
  V  V0  1  0.99999900  0.49999900  0.00000100  1
  V  V1  1  0.99999900  0.00000200  0.00000000  1
  V  V2  1  0.99999700  0.00000000  0.50000000  1
  V  V3  1  0.00000200  0.50000000  0.50000100  1
  V  V4  1  0.52998400  0.23514600  0.25075200  1
  V  V5  1  0.47001400  0.26485500  0.75075000  1
  V  V6  1  0.52998800  0.73514400  0.24924800  1
  V  V7  1  0.47001400  0.76485300  0.74924900  1
  O  O8  1  0.18278800  0.41025600  0.75526900  1
  O  O9  1  0.18279000  0.91025500  0.74473100  1
  O  O10  1  0.31152100  0.15668300  0.00049700  1
  O  O11  1  0.31152200  0.65668200  0.49950300  1
  O  O12  1  0.68847900  0.34331600  0.50049800  1
  O  O13  1  0.68847800  0.84331700  0.99950300  1
  O  O14  1  0.81721200  0.08974500  0.25526800  1
  O  O15  1  0.81721300  0.58974400  0.24473200  1
  F  F16  1  0.20991500  0.39618200  0.24675300  1
  F  F17  1  0.20991500  0.89618200  0.25324700  1
  F  F18  1  0.29685000  0.14928200  0.50039700  1
  F  F19  1  0.29685100  0.64928100  0.99960400  1
  F  F20  1  0.70315000  0.35071800  0.00039500  1
  F  F21  1  0.70315000  0.85071800  0.49960400  1
  F  F22  1  0.79008500  0.10381900  0.74675200  1
  F  F23  1  0.79008500  0.60381800  0.75324600  1
