# generated using pymatgen
data_Ba2YI7
_symmetry_space_group_name_H-M   'P 1'
_cell_length_a   13.08309421
_cell_length_b   13.08309421
_cell_length_c   13.59048029
_cell_angle_alpha   63.92690720
_cell_angle_beta   63.92690720
_cell_angle_gamma   67.78473316
_symmetry_Int_Tables_number   1
_chemical_formula_structural   Ba2YI7
_chemical_formula_sum   'Ba8 Y4 I28'
_cell_volume   1826.91575630
_cell_formula_units_Z   4
loop_
 _symmetry_equiv_pos_site_id
 _symmetry_equiv_pos_as_xyz
  1  'x, y, z'
loop_
 _atom_site_type_symbol
 _atom_site_label
 _atom_site_symmetry_multiplicity
 _atom_site_fract_x
 _atom_site_fract_y
 _atom_site_fract_z
 _atom_site_occupancy
  Ba  Ba0  1  0.25671800  0.89578800  0.45272400  1
  Ba  Ba1  1  0.32061900  0.44056200  0.47754000  1
  Ba  Ba2  1  0.44056200  0.32061900  0.97754000  1
  Ba  Ba3  1  0.10421200  0.74328200  0.04727600  1
  Ba  Ba4  1  0.89578800  0.25671800  0.95272400  1
  Ba  Ba5  1  0.55943800  0.67938100  0.02246000  1
  Ba  Ba6  1  0.67938100  0.55943800  0.52246000  1
  Ba  Ba7  1  0.74328200  0.10421200  0.54727600  1
  Y  Y8  1  0.01282100  0.33110600  0.32848400  1
  Y  Y9  1  0.66889400  0.98717900  0.17151600  1
  Y  Y10  1  0.33110600  0.01282100  0.82848400  1
  Y  Y11  1  0.98717900  0.66889400  0.67151600  1
  I  I12  1  0.22644000  0.62003400  0.69362000  1
  I  I13  1  0.09298300  0.03686200  0.82162500  1
  I  I14  1  0.03536700  0.42422800  0.66096600  1
  I  I15  1  0.44759000  0.13193200  0.56869300  1
  I  I16  1  0.22580600  0.22165200  0.40159400  1
  I  I17  1  0.42422800  0.03536700  0.16096600  1
  I  I18  1  0.13193200  0.44759000  0.06869300  1
  I  I19  1  0.77834800  0.77419400  0.09840600  1
  I  I20  1  0.12762400  0.72685800  0.41503800  1
  I  I21  1  0.62003400  0.22644000  0.19362000  1
  I  I22  1  0.72685800  0.12762400  0.91503800  1
  I  I23  1  0.35136100  0.51704700  0.16337300  1
  I  I24  1  0.96313800  0.90701700  0.67837500  1
  I  I25  1  0.51704700  0.35136100  0.66337300  1
  I  I26  1  0.48295300  0.64863900  0.33662700  1
  I  I27  1  0.03686200  0.09298300  0.32162500  1
  I  I28  1  0.64863900  0.48295300  0.83662700  1
  I  I29  1  0.27314200  0.87237600  0.08496200  1
  I  I30  1  0.37996600  0.77356000  0.80638000  1
  I  I31  1  0.87237600  0.27314200  0.58496200  1
  I  I32  1  0.22165200  0.22580600  0.90159400  1
  I  I33  1  0.86806800  0.55241000  0.93130700  1
  I  I34  1  0.57577200  0.96463300  0.83903400  1
  I  I35  1  0.77419400  0.77834800  0.59840600  1
  I  I36  1  0.55241000  0.86806800  0.43130700  1
  I  I37  1  0.96463300  0.57577200  0.33903400  1
  I  I38  1  0.90701700  0.96313800  0.17837500  1
  I  I39  1  0.77356000  0.37996600  0.30638000  1
