# generated using pymatgen
data_Zr2N2O
_symmetry_space_group_name_H-M   'P 1'
_cell_length_a   5.57630484
_cell_length_b   5.57630484
_cell_length_c   14.79864744
_cell_angle_alpha   89.94694833
_cell_angle_beta   89.94694833
_cell_angle_gamma   59.80847245
_symmetry_Int_Tables_number   1
_chemical_formula_structural   Zr2N2O
_chemical_formula_sum   'Zr12 N12 O6'
_cell_volume   397.74434365
_cell_formula_units_Z   6
loop_
 _symmetry_equiv_pos_site_id
 _symmetry_equiv_pos_as_xyz
  1  'x, y, z'
loop_
 _atom_site_type_symbol
 _atom_site_label
 _atom_site_symmetry_multiplicity
 _atom_site_fract_x
 _atom_site_fract_y
 _atom_site_fract_z
 _atom_site_occupancy
  Zr  Zr0  1  0.99776500  0.99922200  0.64164400  1
  Zr  Zr1  1  0.99922200  0.99776500  0.14164400  1
  Zr  Zr2  1  0.67817000  0.67627900  0.80889700  1
  Zr  Zr3  1  0.67854300  0.67378100  0.52519100  1
  Zr  Zr4  1  0.67627900  0.67817000  0.30889700  1
  Zr  Zr5  1  0.67378100  0.67854300  0.02519100  1
  Zr  Zr6  1  0.32621900  0.32145700  0.97480900  1
  Zr  Zr7  1  0.32372100  0.32183000  0.69110300  1
  Zr  Zr8  1  0.32145700  0.32621900  0.47480900  1
  Zr  Zr9  1  0.32183000  0.32372100  0.19110300  1
  Zr  Zr10  1  0.00077800  0.00223500  0.85835600  1
  Zr  Zr11  1  0.00223500  0.00077800  0.35835600  1
  N  N12  1  0.00582700  0.28991900  0.75160800  1
  N  N13  1  0.28991900  0.00582700  0.25160800  1
  N  N14  1  0.36854700  0.95566400  0.91781800  1
  N  N15  1  0.95566400  0.36854700  0.41781800  1
  N  N16  1  0.33922400  0.03478800  0.58463600  1
  N  N17  1  0.03478800  0.33922400  0.08463600  1
  N  N18  1  0.96521200  0.66077600  0.91536400  1
  N  N19  1  0.66077600  0.96521200  0.41536400  1
  N  N20  1  0.04433600  0.63145300  0.58218200  1
  N  N21  1  0.63145300  0.04433600  0.08218200  1
  N  N22  1  0.71008100  0.99417300  0.74839200  1
  N  N23  1  0.99417300  0.71008100  0.24839200  1
  O  O24  1  0.66660800  0.35646200  0.91782300  1
  O  O25  1  0.35646200  0.66660800  0.41782300  1
  O  O26  1  0.64353800  0.33339200  0.58217700  1
  O  O27  1  0.33339200  0.64353800  0.08217700  1
  O  O28  1  0.31065300  0.68934700  0.75000000  1
  O  O29  1  0.68934700  0.31065300  0.25000000  1
