# generated using pymatgen
data_Li5Ti3Mn2(PO4)6
_symmetry_space_group_name_H-M   'P 1'
_cell_length_a   8.52967900
_cell_length_b   8.60783517
_cell_length_c   8.61100188
_cell_angle_alpha   62.61957926
_cell_angle_beta   63.04281211
_cell_angle_gamma   63.08521616
_symmetry_Int_Tables_number   1
_chemical_formula_structural   Li5Ti3Mn2(PO4)6
_chemical_formula_sum   'Li5 Ti3 Mn2 P6 O24'
_cell_volume   476.00056914
_cell_formula_units_Z   1
loop_
 _symmetry_equiv_pos_site_id
 _symmetry_equiv_pos_as_xyz
  1  'x, y, z'
loop_
 _atom_site_type_symbol
 _atom_site_label
 _atom_site_symmetry_multiplicity
 _atom_site_fract_x
 _atom_site_fract_y
 _atom_site_fract_z
 _atom_site_occupancy
  Li  Li0  1  0.24363800  0.64455500  0.85788000  1
  Li  Li1  1  0.80540300  0.33303400  0.14757800  1
  Li  Li2  1  0.33318300  0.14582900  0.80743300  1
  Li  Li3  1  0.14640100  0.80580100  0.33465500  1
  Li  Li4  1  0.15816400  0.15747700  0.16359600  1
  Ti  Ti5  1  0.85169200  0.85667100  0.85244800  1
  Ti  Ti6  1  0.64517900  0.64483600  0.64246200  1
  Ti  Ti7  1  0.35207000  0.34722000  0.35115900  1
  Mn  Mn8  1  0.99125800  0.00871400  0.00261100  1
  Mn  Mn9  1  0.51432500  0.50047600  0.49428400  1
  P  P10  1  0.74618400  0.04258000  0.45580400  1
  P  P11  1  0.44895600  0.74504300  0.04171400  1
  P  P12  1  0.04925200  0.45652500  0.74686200  1
  P  P13  1  0.94915900  0.54903300  0.24572200  1
  P  P14  1  0.54893700  0.24401400  0.94890500  1
  P  P15  1  0.24546200  0.94693400  0.54989400  1
  O  O16  1  0.88935600  0.51459100  0.67653800  1
  O  O17  1  0.66595400  0.89320400  0.50527400  1
  O  O18  1  0.95056800  0.73590300  0.08229600  1
  O  O19  1  0.47764900  0.67432600  0.89292400  1
  O  O20  1  0.96993200  0.39667800  0.18836800  1
  O  O21  1  0.75956400  0.58069300  0.40066300  1
  O  O22  1  0.74217200  0.09271800  0.93011000  1
  O  O23  1  0.56189100  0.41029300  0.76292200  1
  O  O24  1  0.81389500  0.00676400  0.60998500  1
  O  O25  1  0.39803000  0.75148700  0.58168900  1
  O  O26  1  0.90065800  0.05169100  0.26675900  1
  O  O27  1  0.61400200  0.80434300  0.99641700  1
  O  O28  1  0.39446000  0.18312500  0.97524400  1
  O  O29  1  0.09637000  0.92524500  0.74722200  1
  O  O30  1  0.59763000  0.24042600  0.42889300  1
  O  O31  1  0.18426100  0.97106000  0.39887600  1
  O  O32  1  0.43121300  0.59360000  0.23799600  1
  O  O33  1  0.26134600  0.90166200  0.05694100  1
  O  O34  1  0.24476000  0.42471300  0.59562100  1
  O  O35  1  0.03185000  0.60894800  0.80751500  1
  O  O36  1  0.51306200  0.30495400  0.10991300  1
  O  O37  1  0.05126800  0.26874800  0.90315100  1
  O  O38  1  0.30910600  0.10553500  0.51447500  1
  O  O39  1  0.11174100  0.50755400  0.31019900  1
