# generated using pymatgen
data_Na5Bi2P(CO4)4
_symmetry_space_group_name_H-M   'P 1'
_cell_length_a   10.35559400
_cell_length_b   10.37028637
_cell_length_c   17.92346497
_cell_angle_alpha   73.76720361
_cell_angle_beta   73.69425778
_cell_angle_gamma   60.31089046
_symmetry_Int_Tables_number   1
_chemical_formula_structural   Na5Bi2P(CO4)4
_chemical_formula_sum   'Na20 Bi8 P4 C16 O64'
_cell_volume   1581.93031841
_cell_formula_units_Z   4
loop_
 _symmetry_equiv_pos_site_id
 _symmetry_equiv_pos_as_xyz
  1  'x, y, z'
loop_
 _atom_site_type_symbol
 _atom_site_label
 _atom_site_symmetry_multiplicity
 _atom_site_fract_x
 _atom_site_fract_y
 _atom_site_fract_z
 _atom_site_occupancy
  Na  Na0  1  0.78346000  0.28240000  0.03321200  1
  Na  Na1  1  0.10038200  0.21689200  0.46484600  1
  Na  Na2  1  0.41070700  0.51720100  0.15540900  1
  Na  Na3  1  0.09340600  0.58988400  0.34198200  1
  Na  Na4  1  0.40361500  0.91492700  0.15950700  1
  Na  Na5  1  0.78233000  0.90369400  0.03197500  1
  Na  Na6  1  0.47082100  0.59286100  0.34280600  1
  Na  Na7  1  0.71576400  0.21541600  0.46573700  1
  Na  Na8  1  0.28332600  0.78311600  0.53287300  1
  Na  Na9  1  0.71462600  0.60418300  0.46667100  1
  Na  Na10  1  0.02806700  0.90772600  0.16263500  1
  Na  Na11  1  0.21682600  0.10024500  0.96514100  1
  Na  Na12  1  0.51673200  0.41035900  0.65546700  1
  Na  Na13  1  0.58991400  0.09395900  0.84197800  1
  Na  Na14  1  0.91511300  0.40394200  0.65912500  1
  Na  Na15  1  0.59208500  0.47068300  0.84250200  1
  Na  Na16  1  0.90364300  0.78197600  0.53199200  1
  Na  Na17  1  0.21526200  0.71633900  0.96544000  1
  Na  Na18  1  0.90679900  0.02849000  0.66257600  1
  Na  Na19  1  0.60443500  0.71468300  0.96663700  1
  Bi  Bi20  1  0.25057900  0.24611000  0.24827900  1
  Bi  Bi21  1  0.49617300  0.00850200  0.49934100  1
  Bi  Bi22  1  0.75450900  0.24500300  0.25253200  1
  Bi  Bi23  1  0.00762700  0.49701200  0.99950200  1
  Bi  Bi24  1  0.74699700  0.75487700  0.25000200  1
  Bi  Bi25  1  0.24597100  0.24985800  0.74823000  1
  Bi  Bi26  1  0.24530200  0.75290400  0.75198800  1
  Bi  Bi27  1  0.75358700  0.74610600  0.75064400  1
  P  P28  1  0.31445400  0.81066000  0.06248400  1
  P  P29  1  0.18727600  0.68738400  0.43753900  1
  P  P30  1  0.81059500  0.31445000  0.56248800  1
  P  P31  1  0.68769600  0.18731000  0.93748800  1
  C  C32  1  0.08063500  0.19301800  0.13619100  1
  C  C33  1  0.08058200  0.58828100  0.14091200  1
  C  C34  1  0.61287400  0.10828300  0.16808000  1
  C  C35  1  0.41702600  0.30442600  0.35927200  1
  C  C36  1  0.19281400  0.07983200  0.63668300  1
  C  C37  1  0.69361900  0.58307700  0.13873400  1
  C  C38  1  0.88533700  0.39506700  0.33469100  1
  C  C39  1  0.58904600  0.08005500  0.64034300  1
  C  C40  1  0.41842700  0.91818600  0.36116300  1
  C  C41  1  0.11070300  0.61154600  0.66824900  1
  C  C42  1  0.80320000  0.91602400  0.36116700  1
  C  C43  1  0.30471700  0.41961800  0.85903400  1
  C  C44  1  0.58330300  0.69351500  0.63852900  1
  C  C45  1  0.39457800  0.88716100  0.83451000  1
  C  C46  1  0.91648400  0.41988400  0.86029800  1
  C  C47  1  0.91724800  0.80234500  0.86238400  1
  O  O48  1  0.13289800  0.25625000  0.06994300  1
  O  O49  1  0.15350500  0.13358100  0.19472300  1
  O  O50  1  0.02623200  0.64302700  0.07507600  1
  O  O51  1  0.48458000  0.10921400  0.17459300  1
  O  O52  1  0.20334000  0.46443700  0.14712700  1
  O  O53  1  0.30079300  0.04766100  0.35618000  1
  O  O54  1  0.01634300  0.38438100  0.33357900  1
  O  O55  1  0.40573500  0.65901900  0.03003500  1
  O  O56  1  0.15922500  0.90292200  0.03347000  1
  O  O57  1  0.62035600  0.23055500  0.16718100  1
  O  O58  1  0.34721300  0.36923400  0.29873300  1
  O  O59  1  0.40562600  0.90350200  0.03199600  1
  O  O60  1  0.28730200  0.77679900  0.15452100  1
  O  O61  1  0.95453400  0.18670700  0.14289600  1
  O  O62  1  0.75812500  0.52831500  0.07341900  1
  O  O63  1  0.25908900  0.02656800  0.57041800  1
  O  O64  1  0.36219500  0.23441300  0.42102600  1
  O  O65  1  0.85465400  0.98543300  0.29750500  1
  O  O66  1  0.63497100  0.51295700  0.19896000  1
  O  O67  1  0.54178000  0.30923800  0.35691000  1
  O  O68  1  0.09096700  0.59881900  0.46648600  1
  O  O69  1  0.22001500  0.71265000  0.34509600  1
  O  O70  1  0.68648200  0.71009200  0.14326200  1
  O  O71  1  0.18523800  0.20429800  0.64334300  1
  O  O72  1  0.87181400  0.27614800  0.33683900  1
  O  O73  1  0.53846800  0.13475600  0.57415000  1
  O  O74  1  0.34260800  0.59939400  0.46730300  1
  O  O75  1  0.09563900  0.83859700  0.47117000  1
  O  O76  1  0.98631500  0.36239700  0.79661900  1
  O  O77  1  0.48439900  0.84598000  0.30152100  1
  O  O78  1  0.27777800  0.01683600  0.83418700  1
  O  O79  1  0.76573200  0.52593900  0.33499600  1
  O  O80  1  0.22964000  0.48361200  0.67518100  1
  O  O81  1  0.73639600  0.98136700  0.16362400  1
  O  O82  1  0.51714800  0.14975900  0.70044000  1
  O  O83  1  0.00977000  0.66214700  0.20011900  1
  O  O84  1  0.90297400  0.15940400  0.53345300  1
  O  O85  1  0.65888200  0.40589200  0.53001800  1
  O  O86  1  0.47380400  0.85917100  0.42686900  1
  O  O87  1  0.11827500  0.73535100  0.66559400  1
  O  O88  1  0.30922400  0.29401700  0.85524500  1
  O  O89  1  0.81115500  0.78696000  0.35976100  1
  O  O90  1  0.90368000  0.40545000  0.53195500  1
  O  O91  1  0.77653600  0.28742100  0.65450600  1
  O  O92  1  0.45808300  0.68830400  0.64328200  1
  O  O93  1  0.37091300  0.48492200  0.79971000  1
  O  O94  1  0.63823200  0.75899000  0.57409300  1
  O  O95  1  0.13261100  0.00779600  0.69457600  1
  O  O96  1  0.04652800  0.79678900  0.85900300  1
  O  O97  1  0.74157500  0.97425300  0.42549000  1
  O  O98  1  0.23335400  0.48335800  0.92125300  1
  O  O99  1  0.59907000  0.09099400  0.96656500  1
  O  O100  1  0.71311700  0.22023000  0.84504100  1
  O  O101  1  0.65454900  0.63128300  0.69861600  1
  O  O102  1  0.38289900  0.76708500  0.83492800  1
  O  O103  1  0.83896200  0.09532800  0.97126300  1
  O  O104  1  0.59968700  0.34274200  0.96709500  1
  O  O105  1  0.98253600  0.61996000  0.66500300  1
  O  O106  1  0.71488400  0.95525200  0.64605700  1
  O  O107  1  0.78729600  0.54162200  0.85918900  1
  O  O108  1  0.52657800  0.87379400  0.83577000  1
  O  O109  1  0.97355500  0.36013200  0.92512700  1
  O  O110  1  0.84828000  0.86582800  0.80157700  1
  O  O111  1  0.85717700  0.74119900  0.92706700  1
