# generated using pymatgen
data_Zr2N2O
_symmetry_space_group_name_H-M   'P 1'
_cell_length_a   8.88088400
_cell_length_b   8.87573839
_cell_length_c   8.86223392
_cell_angle_alpha   109.24776415
_cell_angle_beta   109.45969405
_cell_angle_gamma   109.63509910
_symmetry_Int_Tables_number   1
_chemical_formula_structural   Zr2N2O
_chemical_formula_sum   'Zr16 N16 O8'
_cell_volume   538.21871593
_cell_formula_units_Z   8
loop_
 _symmetry_equiv_pos_site_id
 _symmetry_equiv_pos_as_xyz
  1  'x, y, z'
loop_
 _atom_site_type_symbol
 _atom_site_label
 _atom_site_symmetry_multiplicity
 _atom_site_fract_x
 _atom_site_fract_y
 _atom_site_fract_z
 _atom_site_occupancy
  Zr  Zr0  1  0.75345900  0.96807600  0.20669000  1
  Zr  Zr1  1  0.99560100  0.98886300  0.98956000  1
  Zr  Zr2  1  0.03416200  0.77680900  0.24545400  1
  Zr  Zr3  1  0.50204700  0.50363400  0.00290700  1
  Zr  Zr4  1  0.53038600  0.28029700  0.24624800  1
  Zr  Zr5  1  0.49861300  0.99202200  0.50089400  1
  Zr  Zr6  1  0.25704400  0.54234800  0.28809500  1
  Zr  Zr7  1  0.29304800  0.26752800  0.55176100  1
  Zr  Zr8  1  0.71305500  0.74448200  0.45955300  1
  Zr  Zr9  1  0.78644900  0.25029200  0.03763700  1
  Zr  Zr10  1  0.20739500  0.74807800  0.96144000  1
  Zr  Zr11  1  0.75512400  0.46325400  0.72383100  1
  Zr  Zr12  1  0.00840900  0.49875900  0.49961700  1
  Zr  Zr13  1  0.46420100  0.71530100  0.74399000  1
  Zr  Zr14  1  0.96413800  0.21687900  0.74982600  1
  Zr  Zr15  1  0.24003300  0.02903200  0.78715600  1
  N  N16  1  0.73221200  0.96781900  0.96021300  1
  N  N17  1  0.75587700  0.22470700  0.27466000  1
  N  N18  1  0.45255800  0.48330000  0.22439300  1
  N  N19  1  0.72278800  0.23503600  0.77149100  1
  N  N20  1  0.77183400  0.73298300  0.24048000  1
  N  N21  1  0.22830100  0.27191000  0.76219200  1
  N  N22  1  0.98705200  0.53185600  0.25746500  1
  N  N23  1  0.51219800  0.77553800  0.54438600  1
  N  N24  1  0.95385700  0.72869700  0.96798700  1
  N  N25  1  0.54581300  0.51258500  0.77464700  1
  N  N26  1  0.22404900  0.45041900  0.48576200  1
  N  N27  1  0.27891000  0.76744800  0.22936900  1
  N  N28  1  0.96249100  0.95090700  0.72641100  1
  N  N29  1  0.24009900  0.77453700  0.72437900  1
  N  N30  1  0.01052600  0.46638000  0.73882800  1
  N  N31  1  0.27273700  0.03864900  0.04599300  1
  O  O32  1  0.53719100  0.26550500  0.99097500  1
  O  O33  1  0.73712600  0.01200000  0.46637800  1
  O  O34  1  0.04369400  0.27233200  0.03037900  1
  O  O35  1  0.76761300  0.54310400  0.51224100  1
  O  O36  1  0.03788600  0.04753400  0.27587200  1
  O  O37  1  0.46679100  0.73927800  0.01302400  1
  O  O38  1  0.26532100  0.99292300  0.53222400  1
  O  O39  1  0.48991500  0.22890100  0.45559300  1
