# generated using pymatgen
data_Ba2NaCd
_symmetry_space_group_name_H-M   'P 1'
_cell_length_a   14.61707944
_cell_length_b   14.61707944
_cell_length_c   14.61707944
_cell_angle_alpha   120.39844493
_cell_angle_beta   119.23712344
_cell_angle_gamma   90.31882400
_symmetry_Int_Tables_number   1
_chemical_formula_structural   Ba2NaCd
_chemical_formula_sum   'Ba2 Na1 Cd1'
_cell_volume   2214.10721508
_cell_formula_units_Z   1
loop_
 _symmetry_equiv_pos_site_id
 _symmetry_equiv_pos_as_xyz
  1  'x, y, z'
loop_
 _atom_site_type_symbol
 _atom_site_label
 _atom_site_symmetry_multiplicity
 _atom_site_fract_x
 _atom_site_fract_y
 _atom_site_fract_z
 _atom_site_occupancy
  Ba  Ba0  1  0.73587700  0.00000000  0.73587700  1
  Ba  Ba1  1  0.26412300  0.00000000  0.26412300  1
  Na  Na2  1  0.00000000  0.00000000  0.00000000  1
  Cd  Cd3  1  0.50000000  0.00000000  0.50000000  1
