# generated using pymatgen
data_VOF3
_symmetry_space_group_name_H-M   'P 1'
_cell_length_a   5.47449700
_cell_length_b   5.49658980
_cell_length_c   10.43528246
_cell_angle_alpha   89.20385312
_cell_angle_beta   89.39920396
_cell_angle_gamma   60.45502180
_symmetry_Int_Tables_number   1
_chemical_formula_structural   VOF3
_chemical_formula_sum   'V4 O4 F12'
_cell_volume   273.14908604
_cell_formula_units_Z   4
loop_
 _symmetry_equiv_pos_site_id
 _symmetry_equiv_pos_as_xyz
  1  'x, y, z'
loop_
 _atom_site_type_symbol
 _atom_site_label
 _atom_site_symmetry_multiplicity
 _atom_site_fract_x
 _atom_site_fract_y
 _atom_site_fract_z
 _atom_site_occupancy
  V  V0  1  0.00000000  0.00000000  0.00000000  1
  V  V1  1  0.00000000  0.00000000  0.50000000  1
  V  V2  1  0.43102800  0.00009000  0.24408500  1
  V  V3  1  0.56897200  0.99991000  0.75591500  1
  O  O4  1  0.69226900  0.06653000  0.89471900  1
  O  O5  1  0.16905700  0.06693300  0.35205000  1
  O  O6  1  0.83094300  0.93306700  0.64795000  1
  O  O7  1  0.30773100  0.93347000  0.10528100  1
  F  F8  1  0.68821400  0.07501700  0.40548400  1
  F  F9  1  0.82883300  0.35961000  0.04168300  1
  F  F10  1  0.84027800  0.35842000  0.54148200  1
  F  F11  1  0.16553700  0.07430600  0.86084300  1
  F  F12  1  0.68364400  0.66008200  0.29337700  1
  F  F13  1  0.63055300  0.65803100  0.78879000  1
  F  F14  1  0.36944700  0.34196900  0.21121000  1
  F  F15  1  0.31635600  0.33991800  0.70662300  1
  F  F16  1  0.83446300  0.92569400  0.13915700  1
  F  F17  1  0.17116700  0.64039000  0.95831700  1
  F  F18  1  0.15972200  0.64158000  0.45851800  1
  F  F19  1  0.31178600  0.92498300  0.59451600  1
