# generated using pymatgen
data_WN2
_symmetry_space_group_name_H-M   'P 1'
_cell_length_a   9.74391200
_cell_length_b   9.74391200
_cell_length_c   3.04100000
_cell_angle_alpha   90.00000000
_cell_angle_beta   90.00000000
_cell_angle_gamma   90.00000000
_symmetry_Int_Tables_number   1
_chemical_formula_structural   WN2
_chemical_formula_sum   'W8 N16'
_cell_volume   288.72415985
_cell_formula_units_Z   8
loop_
 _symmetry_equiv_pos_site_id
 _symmetry_equiv_pos_as_xyz
  1  'x, y, z'
loop_
 _atom_site_type_symbol
 _atom_site_label
 _atom_site_symmetry_multiplicity
 _atom_site_fract_x
 _atom_site_fract_y
 _atom_site_fract_z
 _atom_site_occupancy
  W  W0  1  0.49719500  0.74956600  0.16966400  1
  W  W1  1  0.24956600  0.00280500  0.66966400  1
  W  W2  1  0.75043400  0.99719500  0.66966400  1
  W  W3  1  0.50280500  0.25043400  0.16966400  1
  W  W4  1  0.00280500  0.75043400  0.33033600  1
  W  W5  1  0.25043400  0.49719500  0.83033600  1
  W  W6  1  0.74956600  0.50280500  0.83033600  1
  W  W7  1  0.99719500  0.24956600  0.33033600  1
  N  N8  1  0.35202300  0.89847800  0.28790900  1
  N  N9  1  0.60152200  0.85202300  0.78790900  1
  N  N10  1  0.39847800  0.14797700  0.78790900  1
  N  N11  1  0.64797700  0.10152200  0.28790900  1
  N  N12  1  0.84900200  0.90103900  0.25078000  1
  N  N13  1  0.34900200  0.40103900  0.24922000  1
  N  N14  1  0.09896100  0.84900200  0.74922000  1
  N  N15  1  0.59896100  0.34900200  0.75078000  1
  N  N16  1  0.40103900  0.65099800  0.75078000  1
  N  N17  1  0.90103900  0.15099800  0.74922000  1
  N  N18  1  0.15099800  0.09896100  0.25078000  1
  N  N19  1  0.65099800  0.59896100  0.24922000  1
  N  N20  1  0.85202300  0.39847800  0.21209100  1
  N  N21  1  0.10152200  0.35202300  0.71209100  1
  N  N22  1  0.89847800  0.64797700  0.71209100  1
  N  N23  1  0.14797700  0.60152200  0.21209100  1
