# generated using pymatgen
data_Ti2N2O
_symmetry_space_group_name_H-M   'P 1'
_cell_length_a   8.23576602
_cell_length_b   8.23181707
_cell_length_c   8.22768973
_cell_angle_alpha   109.55984507
_cell_angle_beta   109.50919679
_cell_angle_gamma   109.47548265
_symmetry_Int_Tables_number   1
_chemical_formula_structural   Ti2N2O
_chemical_formula_sum   'Ti16 N16 O8'
_cell_volume   428.69869880
_cell_formula_units_Z   8
loop_
 _symmetry_equiv_pos_site_id
 _symmetry_equiv_pos_as_xyz
  1  'x, y, z'
loop_
 _atom_site_type_symbol
 _atom_site_label
 _atom_site_symmetry_multiplicity
 _atom_site_fract_x
 _atom_site_fract_y
 _atom_site_fract_z
 _atom_site_occupancy
  Ti  Ti0  1  0.49352800  0.01210900  0.00327800  1
  Ti  Ti1  1  0.94964400  0.23665000  0.20558300  1
  Ti  Ti2  1  0.79329700  0.04413300  0.75019400  1
  Ti  Ti3  1  0.69646400  0.45301700  0.24013700  1
  Ti  Ti4  1  0.75275800  0.78570800  0.05331600  1
  Ti  Ti5  1  0.76254800  0.29802300  0.55055100  1
  Ti  Ti6  1  0.99878700  0.48520200  0.98925400  1
  Ti  Ti7  1  0.50223800  0.51112800  0.50454000  1
  Ti  Ti8  1  0.53297200  0.73729500  0.29218200  1
  Ti  Ti9  1  0.01304000  0.00177400  0.50427500  1
  Ti  Ti10  1  0.45768600  0.25660700  0.71228700  1
  Ti  Ti11  1  0.25366300  0.71835400  0.45508900  1
  Ti  Ti12  1  0.24124700  0.20496600  0.95089600  1
  Ti  Ti13  1  0.20814800  0.95477500  0.24826700  1
  Ti  Ti14  1  0.29785100  0.54597500  0.75202200  1
  Ti  Ti15  1  0.05689800  0.76039400  0.79231300  1
  N  N16  1  0.00722600  0.05014700  0.27232000  1
  N  N17  1  0.73673400  0.22676500  0.27626800  1
  N  N18  1  0.45095700  0.46039700  0.22872800  1
  N  N19  1  0.77134600  0.72053600  0.25953600  1
  N  N20  1  0.72592000  0.26535800  0.77269200  1
  N  N21  1  0.27654400  0.73547500  0.22376500  1
  N  N22  1  0.51051600  0.23554800  0.95875800  1
  N  N23  1  0.54201500  0.77417300  0.55133100  1
  N  N24  1  0.22202000  0.27630700  0.73194800  1
  N  N25  1  0.27576300  0.00600600  0.05097400  1
  N  N26  1  0.54942300  0.54286600  0.77410600  1
  N  N27  1  0.23471500  0.95935000  0.50930700  1
  N  N28  1  0.04823700  0.27437400  0.01048700  1
  N  N29  1  0.26541200  0.77386000  0.72572100  1
  N  N30  1  0.03757400  0.48892800  0.76335800  1
  N  N31  1  0.98838900  0.94527000  0.72077100  1
  O  O32  1  0.96394600  0.51156300  0.23945500  1
  O  O33  1  0.94958500  0.72490800  0.99625400  1
  O  O34  1  0.76603200  0.04192600  0.49298500  1
  O  O35  1  0.72340800  0.99229300  0.94851200  1
  O  O36  1  0.45545800  0.22530400  0.44939900  1
  O  O37  1  0.49384500  0.76658900  0.03905200  1
  O  O38  1  0.76840200  0.54502800  0.54302700  1
  O  O39  1  0.22576200  0.45092000  0.45706100  1
