# generated using pymatgen
data_CaHg2Pd
_symmetry_space_group_name_H-M   'P 1'
_cell_length_a   12.40390034
_cell_length_b   12.40390034
_cell_length_c   12.40390034
_cell_angle_alpha   123.59406248
_cell_angle_beta   118.75277962
_cell_angle_gamma   88.03227481
_symmetry_Int_Tables_number   1
_chemical_formula_structural   CaHg2Pd
_chemical_formula_sum   'Ca1 Hg2 Pd1'
_cell_volume   1321.59001713
_cell_formula_units_Z   1
loop_
 _symmetry_equiv_pos_site_id
 _symmetry_equiv_pos_as_xyz
  1  'x, y, z'
loop_
 _atom_site_type_symbol
 _atom_site_label
 _atom_site_symmetry_multiplicity
 _atom_site_fract_x
 _atom_site_fract_y
 _atom_site_fract_z
 _atom_site_occupancy
  Ca  Ca0  1  0.00000000  0.00000000  0.00000000  1
  Hg  Hg1  1  0.00000000  0.27358800  0.27358800  1
  Hg  Hg2  1  0.00000000  0.72641200  0.72641200  1
  Pd  Pd3  1  0.00000000  0.50000000  0.50000000  1
