# generated using pymatgen
data_V3Cr3(SbO8)2
_symmetry_space_group_name_H-M   'P 1'
_cell_length_a   5.93810100
_cell_length_b   5.95317860
_cell_length_c   9.34060376
_cell_angle_alpha   90.66215186
_cell_angle_beta   89.70366860
_cell_angle_gamma   119.78595142
_symmetry_Int_Tables_number   1
_chemical_formula_structural   V3Cr3(SbO8)2
_chemical_formula_sum   'V3 Cr3 Sb2 O16'
_cell_volume   286.55346881
_cell_formula_units_Z   1
loop_
 _symmetry_equiv_pos_site_id
 _symmetry_equiv_pos_as_xyz
  1  'x, y, z'
loop_
 _atom_site_type_symbol
 _atom_site_label
 _atom_site_symmetry_multiplicity
 _atom_site_fract_x
 _atom_site_fract_y
 _atom_site_fract_z
 _atom_site_occupancy
  V  V0  1  0.66400600  0.83069700  0.78424300  1
  V  V1  1  0.83618300  0.17504400  0.27853100  1
  V  V2  1  0.82759400  0.66577000  0.29470100  1
  Cr  Cr3  1  0.17197000  0.34054800  0.79056100  1
  Cr  Cr4  1  0.17268400  0.83272100  0.79127000  1
  Cr  Cr5  1  0.34161200  0.16875600  0.29061900  1
  Sb  Sb6  1  0.32194200  0.65894300  0.51097700  1
  Sb  Sb7  1  0.65573600  0.33173200  0.00965100  1
  O  O8  1  0.16466200  0.33253900  0.40108100  1
  O  O9  1  0.04509900  0.52233300  0.66295700  1
  O  O10  1  0.36142000  0.68232100  0.89490900  1
  O  O11  1  0.98430200  0.99103100  0.69724100  1
  O  O12  1  0.99304500  0.00073100  0.19637900  1
  O  O13  1  0.16310200  0.82504800  0.39750000  1
  O  O14  1  0.49195400  0.53259500  0.66086900  1
  O  O15  1  0.49059000  0.95719800  0.66034000  1
  O  O16  1  0.32802900  0.16638900  0.90373700  1
  O  O17  1  0.65520300  0.82058400  0.39483700  1
  O  O18  1  0.52878400  0.04335400  0.15902100  1
  O  O19  1  0.52499400  0.48097900  0.16472500  1
  O  O20  1  0.68244600  0.33476500  0.39260300  1
  O  O21  1  0.81894200  0.16156200  0.89378700  1
  O  O22  1  0.95665400  0.48377200  0.15915900  1
  O  O23  1  0.81904500  0.66038600  0.89458000  1
