# generated using pymatgen
data_TePO5
_symmetry_space_group_name_H-M   'P 1'
_cell_length_a   6.61792600
_cell_length_b   7.56232200
_cell_length_c   7.59623600
_cell_angle_alpha   90.00000000
_cell_angle_beta   90.00000000
_cell_angle_gamma   90.00000000
_symmetry_Int_Tables_number   1
_chemical_formula_structural   TePO5
_chemical_formula_sum   'Te4 P4 O20'
_cell_volume   380.16796764
_cell_formula_units_Z   4
loop_
 _symmetry_equiv_pos_site_id
 _symmetry_equiv_pos_as_xyz
  1  'x, y, z'
loop_
 _atom_site_type_symbol
 _atom_site_label
 _atom_site_symmetry_multiplicity
 _atom_site_fract_x
 _atom_site_fract_y
 _atom_site_fract_z
 _atom_site_occupancy
  Te  Te0  1  0.25000000  0.13791100  0.74331000  1
  Te  Te1  1  0.75000000  0.36208900  0.24331000  1
  Te  Te2  1  0.25000000  0.63791100  0.75669000  1
  Te  Te3  1  0.75000000  0.86208900  0.25669000  1
  P  P4  1  0.75000000  0.12506300  0.62677000  1
  P  P5  1  0.25000000  0.37493700  0.12677000  1
  P  P6  1  0.75000000  0.62506300  0.87323000  1
  P  P7  1  0.25000000  0.87493700  0.37323000  1
  O  O8  1  0.25000000  0.05255800  0.47593600  1
  O  O9  1  0.75000000  0.11011300  0.17499300  1
  O  O10  1  0.56548000  0.13375200  0.75185200  1
  O  O11  1  0.93452000  0.13375200  0.75185200  1
  O  O12  1  0.25000000  0.20985000  0.00468700  1
  O  O13  1  0.75000000  0.29015000  0.50468700  1
  O  O14  1  0.06548000  0.36624800  0.25185200  1
  O  O15  1  0.43452000  0.36624800  0.25185200  1
  O  O16  1  0.25000000  0.38988700  0.67499300  1
  O  O17  1  0.75000000  0.44744200  0.97593600  1
  O  O18  1  0.25000000  0.55255800  0.02406400  1
  O  O19  1  0.75000000  0.61011300  0.32500700  1
  O  O20  1  0.56548000  0.63375200  0.74814800  1
  O  O21  1  0.93452000  0.63375200  0.74814800  1
  O  O22  1  0.25000000  0.70985000  0.49531300  1
  O  O23  1  0.75000000  0.79015000  0.99531300  1
  O  O24  1  0.06548000  0.86624800  0.24814800  1
  O  O25  1  0.43452000  0.86624800  0.24814800  1
  O  O26  1  0.25000000  0.88988700  0.82500700  1
  O  O27  1  0.75000000  0.94744200  0.52406400  1
