# generated using pymatgen
data_Li6Co3P8O29
_symmetry_space_group_name_H-M   'P 1'
_cell_length_a   9.74445997
_cell_length_b   9.70782061
_cell_length_c   13.84816242
_cell_angle_alpha   90.20358084
_cell_angle_beta   90.13613199
_cell_angle_gamma   59.90556002
_symmetry_Int_Tables_number   1
_chemical_formula_structural   Li6Co3P8O29
_chemical_formula_sum   'Li12 Co6 P16 O58'
_cell_volume   1133.40565603
_cell_formula_units_Z   2
loop_
 _symmetry_equiv_pos_site_id
 _symmetry_equiv_pos_as_xyz
  1  'x, y, z'
loop_
 _atom_site_type_symbol
 _atom_site_label
 _atom_site_symmetry_multiplicity
 _atom_site_fract_x
 _atom_site_fract_y
 _atom_site_fract_z
 _atom_site_occupancy
  Li  Li0  1  0.05127000  0.93491400  0.51334400  1
  Li  Li1  1  0.09308600  0.22709800  0.56156000  1
  Li  Li2  1  0.09413800  0.69100800  0.06275200  1
  Li  Li3  1  0.67468400  0.08893400  0.56231100  1
  Li  Li4  1  0.32271300  0.77217100  0.93403600  1
  Li  Li5  1  0.68311600  0.22600200  0.06447500  1
  Li  Li6  1  0.32984200  0.90354300  0.43477100  1
  Li  Li7  1  0.77148400  0.31472200  0.43707600  1
  Li  Li8  1  0.66613700  0.66862200  0.12018900  1
  Li  Li9  1  0.91072000  0.31068800  0.93492100  1
  Li  Li10  1  0.77046500  0.91139700  0.93536600  1
  Li  Li11  1  0.90666100  0.76264700  0.43795800  1
  Co  Co12  1  0.99768500  0.43500600  0.74938700  1
  Co  Co13  1  0.99878500  0.56614200  0.25004800  1
  Co  Co14  1  0.43332500  0.99854600  0.25087600  1
  Co  Co15  1  0.56161500  0.00173000  0.75156500  1
  Co  Co16  1  0.43142200  0.56560600  0.74680400  1
  Co  Co17  1  0.56344100  0.43936700  0.25463400  1
  P  P18  1  0.09195900  0.23143600  0.33859600  1
  P  P19  1  0.23105000  0.08934300  0.84123700  1
  P  P20  1  0.09240000  0.67836200  0.83964500  1
  P  P21  1  0.33448200  0.33068100  0.13538600  1
  P  P22  1  0.33711900  0.33049400  0.62999400  1
  P  P23  1  0.22494000  0.68650000  0.33637300  1
  P  P24  1  0.32858600  0.76828500  0.15667000  1
  P  P25  1  0.67439800  0.09084000  0.34062800  1
  P  P26  1  0.32063900  0.90880300  0.65891800  1
  P  P27  1  0.67209800  0.23459200  0.83915000  1
  P  P28  1  0.76847100  0.31668900  0.65728100  1
  P  P29  1  0.66376200  0.66808600  0.87219700  1
  P  P30  1  0.66851100  0.66836000  0.37263200  1
  P  P31  1  0.90335900  0.32813500  0.15939300  1
  P  P32  1  0.76514000  0.90737500  0.15904500  1
  P  P33  1  0.90632900  0.77700100  0.65884800  1
  O  O34  1  0.00132400  0.21351800  0.24712500  1
  O  O35  1  0.97988700  0.25821200  0.06514800  1
  O  O36  1  0.08363600  0.25642700  0.84270900  1
  O  O37  1  0.20366900  0.01257200  0.74430700  1
  O  O38  1  0.23238800  0.98836300  0.56549400  1
  O  O39  1  0.25755100  0.07943900  0.33939200  1
  O  O40  1  0.10140100  0.38448500  0.32734800  1
  O  O41  1  0.19265900  0.31318900  0.65775100  1
  O  O42  1  0.10591500  0.51610900  0.82202000  1
  O  O43  1  0.98017600  0.79478300  0.56739500  1
  O  O44  1  0.99811300  0.79411000  0.75067400  1
  O  O45  1  0.08075300  0.66046600  0.33776000  1
  O  O46  1  0.33135300  0.18509700  0.18030200  1
  O  O47  1  0.38167200  0.10369100  0.82545600  1
  O  O48  1  0.17826500  0.48704700  0.16623400  1
  O  O49  1  0.34447800  0.31471600  0.02672400  1
  O  O50  1  0.35189200  0.34035900  0.52168100  1
  O  O51  1  0.31886200  0.48800000  0.67644600  1
  O  O52  1  0.51555900  0.09545700  0.33108200  1
  O  O53  1  0.49434600  0.17982800  0.66570100  1
  O  O54  1  0.25592400  0.66713800  0.83956500  1
  O  O55  1  0.20574200  0.78104200  0.23746500  1
  O  O56  1  0.26351500  0.74657200  0.06269300  1
  O  O57  1  0.20693400  0.79642600  0.41871600  1
  O  O58  1  0.38398700  0.52888600  0.33417800  1
  O  O59  1  0.48357000  0.34112300  0.16958900  1
  O  O60  1  0.33947300  0.74223800  0.66267900  1
  O  O61  1  0.51129200  0.38533000  0.82314100  1
  O  O62  1  0.65665200  0.08339000  0.83948900  1
  O  O63  1  0.24084700  0.99259100  0.92687400  1
  O  O64  1  0.75208300  0.99656400  0.06752300  1
  O  O65  1  0.78251500  0.00357300  0.24742500  1
  O  O66  1  0.34002500  0.92012300  0.15995400  1
  O  O67  1  0.49675200  0.62507100  0.18070600  1
  O  O68  1  0.65692400  0.25805200  0.34068900  1
  O  O69  1  0.50767500  0.67498700  0.83665600  1
  O  O70  1  0.61459700  0.47879800  0.66820200  1
  O  O71  1  0.77332000  0.22252500  0.56810900  1
  O  O72  1  0.75214300  0.23884400  0.93169800  1
  O  O73  1  0.78975400  0.20926400  0.75077300  1
  O  O74  1  0.73756200  0.34242500  0.16461000  1
  O  O75  1  0.51005400  0.81399200  0.33304500  1
  O  O76  1  0.47904000  0.90601400  0.67023300  1
  O  O77  1  0.67587200  0.50875900  0.34060400  1
  O  O78  1  0.67268900  0.66842100  0.98184700  1
  O  O79  1  0.67178700  0.67905600  0.48129700  1
  O  O80  1  0.80968900  0.51320300  0.83336900  1
  O  O81  1  0.62227000  0.88215500  0.17683700  1
  O  O82  1  0.67066800  0.81915800  0.83605900  1
  O  O83  1  0.91662400  0.33488900  0.65676900  1
  O  O84  1  0.00636100  0.22900000  0.42964100  1
  O  O85  1  0.88090500  0.49710800  0.17799500  1
  O  O86  1  0.81763600  0.67489300  0.33319300  1
  O  O87  1  0.90882100  0.61913800  0.66690700  1
  O  O88  1  0.73673400  0.92289800  0.66484400  1
  O  O89  1  0.76680500  0.00208200  0.42976000  1
  O  O90  1  0.91922200  0.74322100  0.15859200  1
  O  O91  1  0.00171000  0.75425300  0.93160800  1
