# generated using pymatgen
data_FeCo3O8
_symmetry_space_group_name_H-M   'P 1'
_cell_length_a   7.99254073
_cell_length_b   8.00518955
_cell_length_c   8.00655304
_cell_angle_alpha   90.03663762
_cell_angle_beta   90.04431877
_cell_angle_gamma   89.91588505
_symmetry_Int_Tables_number   1
_chemical_formula_structural   FeCo3O8
_chemical_formula_sum   'Fe4 Co12 O32'
_cell_volume   512.27289415
_cell_formula_units_Z   4
loop_
 _symmetry_equiv_pos_site_id
 _symmetry_equiv_pos_as_xyz
  1  'x, y, z'
loop_
 _atom_site_type_symbol
 _atom_site_label
 _atom_site_symmetry_multiplicity
 _atom_site_fract_x
 _atom_site_fract_y
 _atom_site_fract_z
 _atom_site_occupancy
  Fe  Fe0  1  0.12516400  0.87498800  0.37529900  1
  Fe  Fe1  1  0.37514000  0.12534600  0.87507000  1
  Fe  Fe2  1  0.62506400  0.62502100  0.62472600  1
  Fe  Fe3  1  0.87514700  0.37474900  0.12493800  1
  Co  Co4  1  0.12572100  0.12451100  0.62512000  1
  Co  Co5  1  0.12523500  0.37471300  0.87560600  1
  Co  Co6  1  0.12401100  0.62534200  0.12571300  1
  Co  Co7  1  0.37562500  0.37506600  0.62537700  1
  Co  Co8  1  0.37519800  0.62565700  0.37528900  1
  Co  Co9  1  0.37398200  0.87589000  0.12478800  1
  Co  Co10  1  0.62567300  0.37543000  0.37494100  1
  Co  Co11  1  0.62523300  0.12527600  0.12440600  1
  Co  Co12  1  0.62396500  0.87474600  0.87419300  1
  Co  Co13  1  0.87569400  0.12490200  0.37461900  1
  Co  Co14  1  0.87523100  0.87431500  0.62471800  1
  Co  Co15  1  0.87390300  0.62412200  0.87518900  1
  O  O16  1  0.11197200  0.10982400  0.38928500  1
  O  O17  1  0.11169100  0.88839200  0.61002800  1
  O  O18  1  0.10674300  0.60724000  0.89347900  1
  O  O19  1  0.14020000  0.13870800  0.86106800  1
  O  O20  1  0.11027700  0.38929700  0.11161100  1
  O  O21  1  0.14277000  0.35716300  0.64317800  1
  O  O22  1  0.13896000  0.64018100  0.36170400  1
  O  O23  1  0.13747500  0.86142500  0.14052200  1
  O  O24  1  0.36209200  0.13903900  0.64017300  1
  O  O25  1  0.36164200  0.36008100  0.86148800  1
  O  O26  1  0.35685000  0.64342700  0.14267100  1
  O  O27  1  0.38999000  0.61116000  0.61134800  1
  O  O28  1  0.36027000  0.86170900  0.36081600  1
  O  O29  1  0.39281100  0.39315500  0.39281900  1
  O  O30  1  0.38886200  0.11201000  0.10991000  1
  O  O31  1  0.38748500  0.89055500  0.88874900  1
  O  O32  1  0.61197400  0.39008300  0.61080700  1
  O  O33  1  0.61154400  0.61148200  0.39005800  1
  O  O34  1  0.60683800  0.89268500  0.10658400  1
  O  O35  1  0.64011000  0.36136600  0.13893200  1
  O  O36  1  0.61017600  0.11068000  0.88845400  1
  O  O37  1  0.64291900  0.14286400  0.35679400  1
  O  O38  1  0.63890200  0.85984900  0.63820600  1
  O  O39  1  0.63745200  0.63873500  0.85936900  1
  O  O40  1  0.86201600  0.36089700  0.35983300  1
  O  O41  1  0.86172400  0.13994500  0.13849100  1
  O  O42  1  0.85685900  0.85658900  0.85724700  1
  O  O43  1  0.89007200  0.88887200  0.38867600  1
  O  O44  1  0.86024700  0.63818700  0.63916100  1
  O  O45  1  0.89280500  0.10682400  0.60719600  1
  O  O46  1  0.88889500  0.38804500  0.89018900  1
  O  O47  1  0.88739400  0.60960000  0.11130200  1
