# generated using pymatgen
data_Ti2N2O
_symmetry_space_group_name_H-M   'P 1'
_cell_length_a   5.17154268
_cell_length_b   5.17154268
_cell_length_c   15.72121023
_cell_angle_alpha   76.62115917
_cell_angle_beta   76.62115917
_cell_angle_gamma   33.61200660
_symmetry_Int_Tables_number   1
_chemical_formula_structural   Ti2N2O
_chemical_formula_sum   'Ti8 N8 O4'
_cell_volume   225.85159494
_cell_formula_units_Z   4
loop_
 _symmetry_equiv_pos_site_id
 _symmetry_equiv_pos_as_xyz
  1  'x, y, z'
loop_
 _atom_site_type_symbol
 _atom_site_label
 _atom_site_symmetry_multiplicity
 _atom_site_fract_x
 _atom_site_fract_y
 _atom_site_fract_z
 _atom_site_occupancy
  Ti  Ti0  1  0.76258100  0.76258100  0.91380700  1
  Ti  Ti1  1  0.00064900  0.00064900  0.66831500  1
  Ti  Ti2  1  0.23014300  0.23014300  0.42414300  1
  Ti  Ti3  1  0.99935100  0.99935100  0.33168500  1
  Ti  Ti4  1  0.23741900  0.23741900  0.08619300  1
  Ti  Ti5  1  0.23279500  0.23279500  0.75764100  1
  Ti  Ti6  1  0.76985700  0.76985700  0.57585600  1
  Ti  Ti7  1  0.76720500  0.76720500  0.24235900  1
  N  N8  1  0.85236300  0.85236300  0.78505500  1
  N  N9  1  0.14763700  0.14763700  0.21494500  1
  N  N10  1  0.14818500  0.14818500  0.55106300  1
  N  N11  1  0.37867700  0.37867700  0.29421000  1
  N  N12  1  0.61903300  0.61903300  0.37099300  1
  N  N13  1  0.38096700  0.38096700  0.62900700  1
  N  N14  1  0.85181500  0.85181500  0.44893700  1
  N  N15  1  0.62132300  0.62132300  0.70579000  1
  O  O16  1  0.64747500  0.64747500  0.04398000  1
  O  O17  1  0.35252500  0.35252500  0.95602000  1
  O  O18  1  0.14791300  0.14791300  0.87946300  1
  O  O19  1  0.85208700  0.85208700  0.12053700  1
