# generated using pymatgen
data_ZrAlFe2
_symmetry_space_group_name_H-M   'P 1'
_cell_length_a   10.30706165
_cell_length_b   10.30706165
_cell_length_c   10.30706165
_cell_angle_alpha   127.52571809
_cell_angle_beta   117.41058474
_cell_angle_gamma   86.01580652
_symmetry_Int_Tables_number   1
_chemical_formula_structural   ZrAlFe2
_chemical_formula_sum   'Zr1 Al1 Fe2'
_cell_volume   735.49526033
_cell_formula_units_Z   1
loop_
 _symmetry_equiv_pos_site_id
 _symmetry_equiv_pos_as_xyz
  1  'x, y, z'
loop_
 _atom_site_type_symbol
 _atom_site_label
 _atom_site_symmetry_multiplicity
 _atom_site_fract_x
 _atom_site_fract_y
 _atom_site_fract_z
 _atom_site_occupancy
  Zr  Zr0  1  0.00000000  0.50000000  0.50000000  1
  Al  Al1  1  0.00000000  0.00000000  0.00000000  1
  Fe  Fe2  1  0.00000000  0.26342400  0.26342400  1
  Fe  Fe3  1  0.00000000  0.73657600  0.73657600  1
