# generated using pymatgen
data_V9O22
_symmetry_space_group_name_H-M   'P 1'
_cell_length_a   5.61139600
_cell_length_b   9.71175578
_cell_length_c   13.97734231
_cell_angle_alpha   90.23493086
_cell_angle_beta   90.19924152
_cell_angle_gamma   90.37298323
_symmetry_Int_Tables_number   1
_chemical_formula_structural   V9O22
_chemical_formula_sum   'V18 O44'
_cell_volume   761.68912127
_cell_formula_units_Z   2
loop_
 _symmetry_equiv_pos_site_id
 _symmetry_equiv_pos_as_xyz
  1  'x, y, z'
loop_
 _atom_site_type_symbol
 _atom_site_label
 _atom_site_symmetry_multiplicity
 _atom_site_fract_x
 _atom_site_fract_y
 _atom_site_fract_z
 _atom_site_occupancy
  V  V0  1  0.97200200  0.00698700  0.14323900  1
  V  V1  1  0.51849300  0.01917100  0.50900100  1
  V  V2  1  0.50219000  0.16791800  0.78238600  1
  V  V3  1  0.24296600  0.22457200  0.99056500  1
  V  V4  1  0.21429000  0.27896600  0.48205800  1
  V  V5  1  0.00974000  0.33370500  0.21324200  1
  V  V6  1  0.50914400  0.49501500  0.13554400  1
  V  V7  1  0.50466300  0.48625100  0.63734000  1
  V  V8  1  0.47539300  0.50330400  0.35575100  1
  V  V9  1  0.96764000  0.50724400  0.98361300  1
  V  V10  1  0.48038200  0.52100500  0.85549300  1
  V  V11  1  0.98509600  0.66579600  0.72116500  1
  V  V12  1  0.75499600  0.72114400  0.50180800  1
  V  V13  1  0.27987700  0.77123100  0.02193400  1
  V  V14  1  0.51467800  0.83244100  0.28758400  1
  V  V15  1  0.98953100  0.97280200  0.86013600  1
  V  V16  1  0.00271700  0.99325100  0.36289300  1
  V  V17  1  0.02304300  0.01437400  0.64193700  1
  O  O18  1  0.75914700  0.07119400  0.41721800  1
  O  O19  1  0.75388000  0.07230200  0.08543700  1
  O  O20  1  0.23760200  0.07889000  0.74598800  1
  O  O21  1  0.76550200  0.08255000  0.74968000  1
  O  O22  1  0.25791400  0.08622000  0.42582800  1
  O  O23  1  0.23235200  0.09848100  0.07998500  1
  O  O24  1  0.51123700  0.16194800  0.57198900  1
  O  O25  1  0.01443400  0.15655800  0.24508200  1
  O  O26  1  0.02504000  0.15689800  0.91697900  1
  O  O27  1  0.01822800  0.16093300  0.57943900  1
  O  O28  1  0.48615500  0.17212300  0.90785500  1
  O  O29  1  0.00455100  0.32755000  0.40977300  1
  O  O30  1  0.48424200  0.34494900  0.07756500  1
  O  O31  1  0.47578400  0.33918000  0.41268700  1
  O  O32  1  0.02096000  0.33610700  0.08814400  1
  O  O33  1  0.48569300  0.34157500  0.75185400  1
  O  O34  1  0.23033200  0.40978100  0.93033800  1
  O  O35  1  0.25024300  0.40639000  0.57533200  1
  O  O36  1  0.74716400  0.41742800  0.24136600  1
  O  O37  1  0.73036800  0.41043200  0.58963200  1
  O  O38  1  0.74463300  0.42775300  0.91803300  1
  O  O39  1  0.27885200  0.42676000  0.24555100  1
  O  O40  1  0.23925300  0.57262100  0.75186400  1
  O  O41  1  0.75842800  0.56838300  0.08373200  1
  O  O42  1  0.71283100  0.57947900  0.75119500  1
  O  O43  1  0.26442900  0.58228800  0.41014400  1
  O  O44  1  0.26100400  0.59071400  0.07986500  1
  O  O45  1  0.74334100  0.58936300  0.41711400  1
  O  O46  1  0.51382400  0.65868900  0.25292300  1
  O  O47  1  0.00009600  0.65798500  0.92888400  1
  O  O48  1  0.51511900  0.65281400  0.58247600  1
  O  O49  1  0.46775800  0.66568600  0.92113400  1
  O  O50  1  0.98639300  0.67213900  0.59918900  1
  O  O51  1  0.49682100  0.83152300  0.08662300  1
  O  O52  1  0.00221300  0.84430700  0.42199400  1
  O  O53  1  0.02888700  0.84379300  0.08737200  1
  O  O54  1  0.52467600  0.83484000  0.41330800  1
  O  O55  1  0.99172800  0.84734900  0.74884600  1
  O  O56  1  0.23142800  0.90070200  0.92025500  1
  O  O57  1  0.74746700  0.91918800  0.57421500  1
  O  O58  1  0.75839800  0.91795300  0.91562200  1
  O  O59  1  0.79048800  0.92371700  0.25492200  1
  O  O60  1  0.25254100  0.93452100  0.58253300  1
  O  O61  1  0.25869500  0.92232900  0.26265300  1
