# generated using pymatgen
data_Ti3Mn3(SnO8)2
_symmetry_space_group_name_H-M   'P 1'
_cell_length_a   5.89911728
_cell_length_b   5.89911728
_cell_length_c   9.52037695
_cell_angle_alpha   89.27704702
_cell_angle_beta   89.27704702
_cell_angle_gamma   60.04386413
_symmetry_Int_Tables_number   1
_chemical_formula_structural   Ti3Mn3(SnO8)2
_chemical_formula_sum   'Ti3 Mn3 Sn2 O16'
_cell_volume   287.01494286
_cell_formula_units_Z   1
loop_
 _symmetry_equiv_pos_site_id
 _symmetry_equiv_pos_as_xyz
  1  'x, y, z'
loop_
 _atom_site_type_symbol
 _atom_site_label
 _atom_site_symmetry_multiplicity
 _atom_site_fract_x
 _atom_site_fract_y
 _atom_site_fract_z
 _atom_site_occupancy
  Ti  Ti0  1  0.83977100  0.83977100  0.28732500  1
  Ti  Ti1  1  0.67046900  0.17188300  0.78749300  1
  Ti  Ti2  1  0.17188300  0.67046900  0.78749300  1
  Mn  Mn3  1  0.17218500  0.17218500  0.78667200  1
  Mn  Mn4  1  0.83312700  0.34044000  0.28761600  1
  Mn  Mn5  1  0.34044000  0.83312700  0.28761600  1
  Sn  Sn6  1  0.33023500  0.33023500  0.50741500  1
  Sn  Sn7  1  0.66593600  0.66593600  0.01066400  1
  O  O8  1  0.67348700  0.16102500  0.39386800  1
  O  O9  1  0.47873500  0.47873500  0.66590600  1
  O  O10  1  0.32985200  0.32985200  0.89378700  1
  O  O11  1  0.00410700  0.00410700  0.68871400  1
  O  O12  1  0.00497900  0.00497900  0.18844500  1
  O  O13  1  0.16102500  0.67348700  0.39386800  1
  O  O14  1  0.47405000  0.03900600  0.66896900  1
  O  O15  1  0.03900600  0.47405000  0.66896900  1
  O  O16  1  0.83423300  0.83423300  0.89259200  1
  O  O17  1  0.15875100  0.15875100  0.39363900  1
  O  O18  1  0.96030100  0.51523000  0.16906700  1
  O  O19  1  0.51523000  0.96030100  0.16906700  1
  O  O20  1  0.66206800  0.66206800  0.39157500  1
  O  O21  1  0.83522700  0.32624800  0.89460700  1
  O  O22  1  0.51882800  0.51882800  0.17431300  1
  O  O23  1  0.32624800  0.83522700  0.89460700  1
