# generated using pymatgen
data_ScAgHg2
_symmetry_space_group_name_H-M   'P 1'
_cell_length_a   12.02598148
_cell_length_b   12.02598148
_cell_length_c   12.02598148
_cell_angle_alpha   123.06254620
_cell_angle_beta   119.11096597
_cell_angle_gamma   88.16296369
_symmetry_Int_Tables_number   1
_chemical_formula_structural   ScAgHg2
_chemical_formula_sum   'Sc1 Ag1 Hg2'
_cell_volume   1207.08693950
_cell_formula_units_Z   1
loop_
 _symmetry_equiv_pos_site_id
 _symmetry_equiv_pos_as_xyz
  1  'x, y, z'
loop_
 _atom_site_type_symbol
 _atom_site_label
 _atom_site_symmetry_multiplicity
 _atom_site_fract_x
 _atom_site_fract_y
 _atom_site_fract_z
 _atom_site_occupancy
  Sc  Sc0  1  0.00000000  0.00000000  0.00000000  1
  Ag  Ag1  1  0.00000000  0.50000000  0.50000000  1
  Hg  Hg2  1  0.00000000  0.25771600  0.25771600  1
  Hg  Hg3  1  0.00000000  0.74228400  0.74228400  1
