# generated using pymatgen
data_Mn5(SeO3)8
_symmetry_space_group_name_H-M   'P 1'
_cell_length_a   8.13868900
_cell_length_b   10.46814158
_cell_length_c   14.28839376
_cell_angle_alpha   81.38886345
_cell_angle_beta   83.11142459
_cell_angle_gamma   72.03600345
_symmetry_Int_Tables_number   1
_chemical_formula_structural   Mn5(SeO3)8
_chemical_formula_sum   'Mn10 Se16 O48'
_cell_volume   1141.40356279
_cell_formula_units_Z   2
loop_
 _symmetry_equiv_pos_site_id
 _symmetry_equiv_pos_as_xyz
  1  'x, y, z'
loop_
 _atom_site_type_symbol
 _atom_site_label
 _atom_site_symmetry_multiplicity
 _atom_site_fract_x
 _atom_site_fract_y
 _atom_site_fract_z
 _atom_site_occupancy
  Mn  Mn0  1  0.74833900  0.00400100  0.74836600  1
  Mn  Mn1  1  0.75138500  0.49492000  0.74515100  1
  Mn  Mn2  1  0.44219300  0.77576100  0.78060900  1
  Mn  Mn3  1  0.09945400  0.64590300  0.78413100  1
  Mn  Mn4  1  0.55780700  0.22423900  0.21939100  1
  Mn  Mn5  1  0.25166100  0.99599900  0.25163400  1
  Mn  Mn6  1  0.24861500  0.50508000  0.25484900  1
  Mn  Mn7  1  0.90054600  0.35409700  0.21586900  1
  Mn  Mn8  1  0.93752000  0.77360700  0.27944700  1
  Mn  Mn9  1  0.06248000  0.22639300  0.72055300  1
  Se  Se10  1  0.41597300  0.47474600  0.89439700  1
  Se  Se11  1  0.36203200  0.05583500  0.88135200  1
  Se  Se12  1  0.63796800  0.94416500  0.11864800  1
  Se  Se13  1  0.58402700  0.52525400  0.10560300  1
  Se  Se14  1  0.86694200  0.20951900  0.90026300  1
  Se  Se15  1  0.77251700  0.73856100  0.90963800  1
  Se  Se16  1  0.22748300  0.26143900  0.09036200  1
  Se  Se17  1  0.13305800  0.79048100  0.09973700  1
  Se  Se18  1  0.36553700  0.20880500  0.40048200  1
  Se  Se19  1  0.27923000  0.73427600  0.40873400  1
  Se  Se20  1  0.72077000  0.26572400  0.59126600  1
  Se  Se21  1  0.63446300  0.79119500  0.59951800  1
  Se  Se22  1  0.89171100  0.48694700  0.39253100  1
  Se  Se23  1  0.86200300  0.05547800  0.38271200  1
  Se  Se24  1  0.13799700  0.94452200  0.61728800  1
  Se  Se25  1  0.10828900  0.51305300  0.60746900  1
  O  O26  1  0.58055900  0.41620600  0.80742200  1
  O  O27  1  0.64369000  0.66837200  0.84866200  1
  O  O28  1  0.28367900  0.13982300  0.77700300  1
  O  O29  1  0.58319500  0.03831000  0.86115000  1
  O  O30  1  0.32151400  0.64921100  0.84743000  1
  O  O31  1  0.36196700  0.88889300  0.88113000  1
  O  O32  1  0.25884800  0.41930400  0.86900600  1
  O  O33  1  0.86495300  0.82477000  0.81204400  1
  O  O34  1  0.93987000  0.10958400  0.80211400  1
  O  O35  1  0.94186200  0.34291300  0.82150400  1
  O  O36  1  0.74115200  0.58069600  0.13099400  1
  O  O37  1  0.63803300  0.11110700  0.11887000  1
  O  O38  1  0.67848600  0.35078900  0.15257000  1
  O  O39  1  0.94601100  0.60242700  0.91404600  1
  O  O40  1  0.41680500  0.96169000  0.13885000  1
  O  O41  1  0.98173300  0.84876800  0.02459000  1
  O  O42  1  0.71632100  0.86017700  0.22299700  1
  O  O43  1  0.01826700  0.15123200  0.97541000  1
  O  O44  1  0.35631000  0.33162800  0.15133800  1
  O  O45  1  0.41944100  0.58379400  0.19257800  1
  O  O46  1  0.05398900  0.39757300  0.08595400  1
  O  O47  1  0.05813800  0.65708700  0.17849600  1
  O  O48  1  0.06013000  0.89041600  0.19788600  1
  O  O49  1  0.13504700  0.17523000  0.18795600  1
  O  O50  1  0.36616200  0.82363800  0.31344300  1
  O  O51  1  0.43816800  0.10832700  0.30234200  1
  O  O52  1  0.43425800  0.34374000  0.31968500  1
  O  O53  1  0.43114400  0.59020100  0.42488600  1
  O  O54  1  0.06951700  0.42445500  0.30537000  1
  O  O55  1  0.13855300  0.66633300  0.34518400  1
  O  O56  1  0.47939600  0.84909200  0.52711100  1
  O  O57  1  0.78357600  0.15241700  0.27743700  1
  O  O58  1  0.52060400  0.15090800  0.47288900  1
  O  O59  1  0.08034200  0.04477300  0.36096100  1
  O  O60  1  0.56885600  0.40979900  0.57511400  1
  O  O61  1  0.81098300  0.65429800  0.34895300  1
  O  O62  1  0.85999900  0.89234500  0.37889900  1
  O  O63  1  0.77262900  0.40499700  0.35088700  1
  O  O64  1  0.56574200  0.65626000  0.68031500  1
  O  O65  1  0.56183200  0.89167300  0.69765800  1
  O  O66  1  0.63383800  0.17636200  0.68655700  1
  O  O67  1  0.22737100  0.59500300  0.64911300  1
  O  O68  1  0.14000100  0.10765500  0.62110100  1
  O  O69  1  0.18901700  0.34570200  0.65104700  1
  O  O70  1  0.91965800  0.95522700  0.63903900  1
  O  O71  1  0.21642400  0.84758300  0.72256300  1
  O  O72  1  0.86144700  0.33366700  0.65481600  1
  O  O73  1  0.93048300  0.57554500  0.69463000  1
