# generated using pymatgen
data_Ba6YI15
_symmetry_space_group_name_H-M   'P 1'
_cell_length_a   12.01637460
_cell_length_b   12.01637460
_cell_length_c   34.38486203
_cell_angle_alpha   89.96809024
_cell_angle_beta   89.96809024
_cell_angle_gamma   91.90164801
_symmetry_Int_Tables_number   1
_chemical_formula_structural   Ba6YI15
_chemical_formula_sum   'Ba24 Y4 I60'
_cell_volume   4962.20629985
_cell_formula_units_Z   4
loop_
 _symmetry_equiv_pos_site_id
 _symmetry_equiv_pos_as_xyz
  1  'x, y, z'
loop_
 _atom_site_type_symbol
 _atom_site_label
 _atom_site_symmetry_multiplicity
 _atom_site_fract_x
 _atom_site_fract_y
 _atom_site_fract_z
 _atom_site_occupancy
  Ba  Ba0  1  0.00519500  0.02660900  0.61612600  1
  Ba  Ba1  1  0.02660900  0.00519500  0.11612600  1
  Ba  Ba2  1  0.94463100  0.45408200  0.63512500  1
  Ba  Ba3  1  0.18185300  0.24877000  0.74253700  1
  Ba  Ba4  1  0.45408200  0.94463100  0.13512500  1
  Ba  Ba5  1  0.24877000  0.18185300  0.24253700  1
  Ba  Ba6  1  0.43622200  0.07982200  0.62916600  1
  Ba  Ba7  1  0.22422600  0.32124600  0.52341000  1
  Ba  Ba8  1  0.07982200  0.43622200  0.12916600  1
  Ba  Ba9  1  0.32124600  0.22422600  0.02341000  1
  Ba  Ba10  1  0.39375700  0.54220100  0.64271600  1
  Ba  Ba11  1  0.54220100  0.39375700  0.14271600  1
  Ba  Ba12  1  0.45779900  0.60624300  0.85728400  1
  Ba  Ba13  1  0.60624300  0.45779900  0.35728400  1
  Ba  Ba14  1  0.67875400  0.77577400  0.97659000  1
  Ba  Ba15  1  0.92017800  0.56377800  0.87083400  1
  Ba  Ba16  1  0.77577400  0.67875400  0.47659000  1
  Ba  Ba17  1  0.56377800  0.92017800  0.37083400  1
  Ba  Ba18  1  0.75123000  0.81814700  0.75746300  1
  Ba  Ba19  1  0.54591800  0.05536900  0.86487500  1
  Ba  Ba20  1  0.81814700  0.75123000  0.25746300  1
  Ba  Ba21  1  0.05536900  0.54591800  0.36487500  1
  Ba  Ba22  1  0.97339100  0.99480500  0.88387400  1
  Ba  Ba23  1  0.99480500  0.97339100  0.38387400  1
  Y  Y24  1  0.25235800  0.29294500  0.88689000  1
  Y  Y25  1  0.29294500  0.25235800  0.38689000  1
  Y  Y26  1  0.70705500  0.74764200  0.61311000  1
  Y  Y27  1  0.74764200  0.70705500  0.11311000  1
  I  I28  1  0.17783400  0.10152500  0.94575200  1
  I  I29  1  0.10152500  0.17783400  0.44575200  1
  I  I30  1  0.21591700  0.08985000  0.82843200  1
  I  I31  1  0.24316500  0.04283700  0.55655500  1
  I  I32  1  0.08985000  0.21591700  0.32843200  1
  I  I33  1  0.04283700  0.24316500  0.05655500  1
  I  I34  1  0.46932000  0.24063100  0.93648500  1
  I  I35  1  0.15480800  0.51226000  0.70247100  1
  I  I36  1  0.24063100  0.46932000  0.43648500  1
  I  I37  1  0.70798500  0.01341700  0.61268200  1
  I  I38  1  0.51226000  0.15480800  0.20247100  1
  I  I39  1  0.45836600  0.31926200  0.82827400  1
  I  I40  1  0.01341700  0.70798500  0.11268200  1
  I  I41  1  0.16968900  0.55881400  0.57879700  1
  I  I42  1  0.43449900  0.29200300  0.69881200  1
  I  I43  1  0.26406500  0.49361200  0.93834500  1
  I  I44  1  0.74030700  0.03878800  0.93891100  1
  I  I45  1  0.99743200  0.78894900  0.81261600  1
  I  I46  1  0.31926200  0.45836600  0.32827400  1
  I  I47  1  0.55881400  0.16968900  0.07879700  1
  I  I48  1  0.29200300  0.43449900  0.19881200  1
  I  I49  1  0.49361200  0.26406500  0.43834500  1
  I  I50  1  0.03878800  0.74030700  0.43891100  1
  I  I51  1  0.78894900  0.99743200  0.31261600  1
  I  I52  1  0.18773900  0.47936100  0.82327300  1
  I  I53  1  0.46367500  0.33415500  0.57757000  1
  I  I54  1  0.78796300  0.06951900  0.80821100  1
  I  I55  1  0.47936100  0.18773900  0.32327300  1
  I  I56  1  0.33415500  0.46367500  0.07757000  1
  I  I57  1  0.06951900  0.78796300  0.30821100  1
  I  I58  1  0.93048100  0.21203700  0.69178900  1
  I  I59  1  0.66584500  0.53632500  0.92243000  1
  I  I60  1  0.52063900  0.81226100  0.67672700  1
  I  I61  1  0.21203700  0.93048100  0.19178900  1
  I  I62  1  0.53632500  0.66584500  0.42243000  1
  I  I63  1  0.81226100  0.52063900  0.17672700  1
  I  I64  1  0.21105100  0.00256800  0.68738400  1
  I  I65  1  0.96121200  0.25969300  0.56108900  1
  I  I66  1  0.50638800  0.73593500  0.56165500  1
  I  I67  1  0.70799700  0.56550100  0.80118800  1
  I  I68  1  0.44118600  0.83031100  0.92120300  1
  I  I69  1  0.68073800  0.54163400  0.67172600  1
  I  I70  1  0.00256800  0.21105100  0.18738400  1
  I  I71  1  0.25969300  0.96121200  0.06108900  1
  I  I72  1  0.73593500  0.50638800  0.06165500  1
  I  I73  1  0.56550100  0.70799700  0.30118800  1
  I  I74  1  0.83031100  0.44118600  0.42120300  1
  I  I75  1  0.98658300  0.29201500  0.88731800  1
  I  I76  1  0.54163400  0.68073800  0.17172600  1
  I  I77  1  0.48774000  0.84519200  0.79752900  1
  I  I78  1  0.29201500  0.98658300  0.38731800  1
  I  I79  1  0.75936900  0.53068000  0.56351500  1
  I  I80  1  0.84519200  0.48774000  0.29752900  1
  I  I81  1  0.53068000  0.75936900  0.06351500  1
  I  I82  1  0.95716300  0.75683500  0.94344500  1
  I  I83  1  0.91015000  0.78408300  0.67156800  1
  I  I84  1  0.75683500  0.95716300  0.44344500  1
  I  I85  1  0.78408300  0.91015000  0.17156800  1
  I  I86  1  0.89847500  0.82216600  0.55424800  1
  I  I87  1  0.82216600  0.89847500  0.05424800  1
