# generated using pymatgen
data_Li4V2Fe3Co3O16
_symmetry_space_group_name_H-M   'P 1'
_cell_length_a   5.77107929
_cell_length_b   5.74867701
_cell_length_c   9.39100105
_cell_angle_alpha   89.99032045
_cell_angle_beta   91.28661856
_cell_angle_gamma   119.88315399
_symmetry_Int_Tables_number   1
_chemical_formula_structural   Li4V2Fe3Co3O16
_chemical_formula_sum   'Li4 V2 Fe3 Co3 O16'
_cell_volume   270.04305795
_cell_formula_units_Z   1
loop_
 _symmetry_equiv_pos_site_id
 _symmetry_equiv_pos_as_xyz
  1  'x, y, z'
loop_
 _atom_site_type_symbol
 _atom_site_label
 _atom_site_symmetry_multiplicity
 _atom_site_fract_x
 _atom_site_fract_y
 _atom_site_fract_z
 _atom_site_occupancy
  Li  Li0  1  0.32936700  0.66460300  0.89936000  1
  Li  Li1  1  0.00970100  0.00489500  0.99324800  1
  Li  Li2  1  0.01248300  0.00616900  0.49218600  1
  Li  Li3  1  0.66717500  0.33365500  0.39348600  1
  V  V4  1  0.33225500  0.66621400  0.49961400  1
  V  V5  1  0.66437100  0.33208300  0.00306600  1
  Fe  Fe6  1  0.64527600  0.82270200  0.22252800  1
  Fe  Fe7  1  0.82479800  0.64456100  0.71999100  1
  Fe  Fe8  1  0.82541900  0.18043000  0.71977200  1
  Co  Co9  1  0.17655300  0.83167500  0.21333000  1
  Co  Co10  1  0.17658200  0.34482600  0.21336800  1
  Co  Co11  1  0.34856700  0.17456200  0.71361500  1
  O  O12  1  0.18033200  0.83213600  0.59332300  1
  O  O13  1  0.05059700  0.52522900  0.33235800  1
  O  O14  1  0.32546500  0.66280100  0.10730800  1
  O  O15  1  0.00860900  0.00428500  0.29997800  1
  O  O16  1  0.00782200  0.00446200  0.79727600  1
  O  O17  1  0.18021500  0.34803100  0.59332200  1
  O  O18  1  0.46799400  0.96042800  0.34461200  1
  O  O19  1  0.46788300  0.50764200  0.34459400  1
  O  O20  1  0.34305900  0.17153800  0.10153900  1
  O  O21  1  0.65546300  0.82807000  0.58368400  1
  O  O22  1  0.50897900  0.46734400  0.84487000  1
  O  O23  1  0.50885100  0.04162200  0.84482700  1
  O  O24  1  0.66019400  0.32951000  0.60216100  1
  O  O25  1  0.83121900  0.65502000  0.09065000  1
  O  O26  1  0.95966600  0.47972300  0.85305400  1
  O  O27  1  0.83110600  0.17608600  0.09071800  1
