# generated using pymatgen
data_Mn3(O2F)2
_symmetry_space_group_name_H-M   'P 1'
_cell_length_a   4.66012300
_cell_length_b   5.53168699
_cell_length_c   7.66061859
_cell_angle_alpha   85.24314008
_cell_angle_beta   86.91342360
_cell_angle_gamma   86.25868424
_symmetry_Int_Tables_number   1
_chemical_formula_structural   Mn3(O2F)2
_chemical_formula_sum   'Mn6 O8 F4'
_cell_volume   196.14537708
_cell_formula_units_Z   2
loop_
 _symmetry_equiv_pos_site_id
 _symmetry_equiv_pos_as_xyz
  1  'x, y, z'
loop_
 _atom_site_type_symbol
 _atom_site_label
 _atom_site_symmetry_multiplicity
 _atom_site_fract_x
 _atom_site_fract_y
 _atom_site_fract_z
 _atom_site_occupancy
  Mn  Mn0  1  0.47424000  0.15075900  0.82403800  1
  Mn  Mn1  1  0.50000000  0.50000000  0.50000000  1
  Mn  Mn2  1  0.52576000  0.84924100  0.17596200  1
  Mn  Mn3  1  0.00000000  0.00000000  0.50000000  1
  Mn  Mn4  1  0.98328600  0.31985600  0.16345000  1
  Mn  Mn5  1  0.01671400  0.68014400  0.83655000  1
  O  O6  1  0.80675700  0.03641100  0.27297700  1
  O  O7  1  0.69237000  0.86986400  0.93483700  1
  O  O8  1  0.69159400  0.20028300  0.60302000  1
  O  O9  1  0.69880300  0.53828400  0.26889700  1
  O  O10  1  0.30840600  0.79971700  0.39698000  1
  O  O11  1  0.30763000  0.13013600  0.06516300  1
  O  O12  1  0.30119700  0.46171600  0.73110300  1
  O  O13  1  0.19324300  0.96358900  0.72702300  1
  F  F14  1  0.80151900  0.70102700  0.59724400  1
  F  F15  1  0.80009400  0.37793000  0.92163900  1
  F  F16  1  0.19848100  0.29897300  0.40275600  1
  F  F17  1  0.19990600  0.62207000  0.07836100  1
