# generated using pymatgen
data_Ti2Nb(PO4)3
_symmetry_space_group_name_H-M   'P 1'
_cell_length_a   8.67940569
_cell_length_b   8.67940569
_cell_length_c   8.67940614
_cell_angle_alpha   60.31140033
_cell_angle_beta   60.31140033
_cell_angle_gamma   60.31140079
_symmetry_Int_Tables_number   1
_chemical_formula_structural   Ti2Nb(PO4)3
_chemical_formula_sum   'Ti4 Nb2 P6 O24'
_cell_volume   465.59080989
_cell_formula_units_Z   2
loop_
 _symmetry_equiv_pos_site_id
 _symmetry_equiv_pos_as_xyz
  1  'x, y, z'
loop_
 _atom_site_type_symbol
 _atom_site_label
 _atom_site_symmetry_multiplicity
 _atom_site_fract_x
 _atom_site_fract_y
 _atom_site_fract_z
 _atom_site_occupancy
  Ti  Ti0  1  0.14362900  0.14362900  0.14362900  1
  Ti  Ti1  1  0.35637100  0.35637100  0.35637100  1
  Ti  Ti2  1  0.64362900  0.64362900  0.64362900  1
  Ti  Ti3  1  0.85637100  0.85637100  0.85637100  1
  Nb  Nb4  1  0.00000000  0.00000000  0.00000000  1
  Nb  Nb5  1  0.50000000  0.50000000  0.50000000  1
  P  P6  1  0.54044700  0.25000000  0.95955300  1
  P  P7  1  0.95955300  0.54044700  0.25000000  1
  P  P8  1  0.25000000  0.95955300  0.54044700  1
  P  P9  1  0.75000000  0.04044700  0.45955300  1
  P  P10  1  0.04044700  0.45955300  0.75000000  1
  P  P11  1  0.45955300  0.75000000  0.04044700  1
  O  O12  1  0.31039200  0.11662400  0.50272800  1
  O  O13  1  0.50272800  0.31039200  0.11662400  1
  O  O14  1  0.91273800  0.05885500  0.26495400  1
  O  O15  1  0.11662400  0.50272800  0.31039200  1
  O  O16  1  0.81039200  0.00272800  0.61662400  1
  O  O17  1  0.58726200  0.23504600  0.44114500  1
  O  O18  1  0.05885500  0.26495400  0.91273800  1
  O  O19  1  0.23504600  0.44114500  0.58726200  1
  O  O20  1  0.38337600  0.18960800  0.99727200  1
  O  O21  1  0.44114500  0.58726200  0.23504600  1
  O  O22  1  0.73504600  0.08726200  0.94114500  1
  O  O23  1  0.99727200  0.38337600  0.18960800  1
  O  O24  1  0.00272800  0.61662400  0.81039200  1
  O  O25  1  0.26495400  0.91273800  0.05885500  1
  O  O26  1  0.55885500  0.41273800  0.76495400  1
  O  O27  1  0.61662400  0.81039200  0.00272800  1
  O  O28  1  0.76495400  0.55885500  0.41273800  1
  O  O29  1  0.94114500  0.73504600  0.08726200  1
  O  O30  1  0.41273800  0.76495400  0.55885500  1
  O  O31  1  0.18960800  0.99727200  0.38337600  1
  O  O32  1  0.88337600  0.49727200  0.68960800  1
  O  O33  1  0.08726200  0.94114500  0.73504600  1
  O  O34  1  0.49727200  0.68960800  0.88337600  1
  O  O35  1  0.68960800  0.88337600  0.49727200  1
