# generated using pymatgen
data_Fe10O11F9
_symmetry_space_group_name_H-M   'P 1'
_cell_length_a   15.32941600
_cell_length_b   4.73659400
_cell_length_c   4.74183260
_cell_angle_alpha   87.74483019
_cell_angle_beta   90.00000000
_cell_angle_gamma   90.00000000
_symmetry_Int_Tables_number   1
_chemical_formula_structural   Fe10O11F9
_chemical_formula_sum   'Fe10 O11 F9'
_cell_volume   344.03410112
_cell_formula_units_Z   1
loop_
 _symmetry_equiv_pos_site_id
 _symmetry_equiv_pos_as_xyz
  1  'x, y, z'
loop_
 _atom_site_type_symbol
 _atom_site_label
 _atom_site_symmetry_multiplicity
 _atom_site_fract_x
 _atom_site_fract_y
 _atom_site_fract_z
 _atom_site_occupancy
  Fe  Fe0  1  0.39592000  0.99830800  0.98519500  1
  Fe  Fe1  1  0.60408000  0.99830800  0.98519500  1
  Fe  Fe2  1  0.80132200  0.94791300  0.00736000  1
  Fe  Fe3  1  0.00000000  0.00961400  0.94587100  1
  Fe  Fe4  1  0.19867800  0.94791300  0.00736000  1
  Fe  Fe5  1  0.50000000  0.49751500  0.49076700  1
  Fe  Fe6  1  0.89830800  0.51861400  0.52062000  1
  Fe  Fe7  1  0.69247100  0.53274100  0.51190200  1
  Fe  Fe8  1  0.10169200  0.51861400  0.52062000  1
  Fe  Fe9  1  0.30752900  0.53274100  0.51190200  1
  O  O10  1  0.69842000  0.80507000  0.81513500  1
  O  O11  1  0.89994300  0.80611600  0.80420300  1
  O  O12  1  0.10005700  0.80611600  0.80420300  1
  O  O13  1  0.30158000  0.80507000  0.81513500  1
  O  O14  1  0.40713100  0.69726000  0.29797200  1
  O  O15  1  0.59286900  0.69726000  0.29797200  1
  O  O16  1  0.79792600  0.68131400  0.32318100  1
  O  O17  1  0.20207400  0.68131400  0.32318100  1
  O  O18  1  0.40574400  0.30804800  0.68779800  1
  O  O19  1  0.59425600  0.30804800  0.68779800  1
  O  O20  1  0.00000000  0.32138500  0.67490300  1
  F  F21  1  0.50000000  0.81312400  0.79867700  1
  F  F22  1  0.00000000  0.71087900  0.29108000  1
  F  F23  1  0.79741600  0.29440100  0.71265700  1
  F  F24  1  0.20258400  0.29440100  0.71265700  1
  F  F25  1  0.50000000  0.19026100  0.17918300  1
  F  F26  1  0.89969800  0.19573000  0.19278900  1
  F  F27  1  0.70069400  0.19309500  0.20094700  1
  F  F28  1  0.29930600  0.19309500  0.20094700  1
  F  F29  1  0.10030200  0.19573000  0.19278900  1
