# generated using pymatgen
data_HfCo2Sb
_symmetry_space_group_name_H-M   'P 1'
_cell_length_a   10.22090738
_cell_length_b   10.22090738
_cell_length_c   10.22090738
_cell_angle_alpha   126.16014720
_cell_angle_beta   117.76463543
_cell_angle_gamma   86.79636799
_symmetry_Int_Tables_number   1
_chemical_formula_structural   HfCo2Sb
_chemical_formula_sum   'Hf1 Co2 Sb1'
_cell_volume   726.09856326
_cell_formula_units_Z   1
loop_
 _symmetry_equiv_pos_site_id
 _symmetry_equiv_pos_as_xyz
  1  'x, y, z'
loop_
 _atom_site_type_symbol
 _atom_site_label
 _atom_site_symmetry_multiplicity
 _atom_site_fract_x
 _atom_site_fract_y
 _atom_site_fract_z
 _atom_site_occupancy
  Hf  Hf0  1  0.00000000  0.50000000  0.50000000  1
  Co  Co1  1  0.00000000  0.26997400  0.26997400  1
  Co  Co2  1  0.00000000  0.73002600  0.73002600  1
  Sb  Sb3  1  0.00000000  0.00000000  0.00000000  1
