# generated using pymatgen
data_Sr2PdPt
_symmetry_space_group_name_H-M   'P 1'
_cell_length_a   12.15222898
_cell_length_b   12.15222898
_cell_length_c   12.15222898
_cell_angle_alpha   126.85791046
_cell_angle_beta   117.82024315
_cell_angle_gamma   86.18519327
_symmetry_Int_Tables_number   1
_chemical_formula_structural   Sr2PdPt
_chemical_formula_sum   'Sr2 Pd1 Pt1'
_cell_volume   1210.81198854
_cell_formula_units_Z   1
loop_
 _symmetry_equiv_pos_site_id
 _symmetry_equiv_pos_as_xyz
  1  'x, y, z'
loop_
 _atom_site_type_symbol
 _atom_site_label
 _atom_site_symmetry_multiplicity
 _atom_site_fract_x
 _atom_site_fract_y
 _atom_site_fract_z
 _atom_site_occupancy
  Sr  Sr0  1  0.00000000  0.25128900  0.25128900  1
  Sr  Sr1  1  0.00000000  0.74871100  0.74871100  1
  Pd  Pd2  1  0.00000000  0.00000000  0.00000000  1
  Pt  Pt3  1  0.00000000  0.50000000  0.50000000  1
