# generated using pymatgen
data_VFeP2(O4F)2
_symmetry_space_group_name_H-M   'P 1'
_cell_length_a   7.05181091
_cell_length_b   7.63564959
_cell_length_c   7.38247467
_cell_angle_alpha   91.71745767
_cell_angle_beta   117.43802545
_cell_angle_gamma   88.14406318
_symmetry_Int_Tables_number   1
_chemical_formula_structural   VFeP2(O4F)2
_chemical_formula_sum   'V2 Fe2 P4 O16 F4'
_cell_volume   352.55865211
_cell_formula_units_Z   2
loop_
 _symmetry_equiv_pos_site_id
 _symmetry_equiv_pos_as_xyz
  1  'x, y, z'
loop_
 _atom_site_type_symbol
 _atom_site_label
 _atom_site_symmetry_multiplicity
 _atom_site_fract_x
 _atom_site_fract_y
 _atom_site_fract_z
 _atom_site_occupancy
  V  V0  1  0.49996100  0.50005500  0.00006600  1
  V  V1  1  0.00015300  0.99993100  0.00009700  1
  Fe  Fe2  1  0.00008300  0.49988900  0.50018800  1
  Fe  Fe3  1  0.50015000  0.00001600  0.49992100  1
  P  P4  1  0.26642600  0.84878500  0.75153800  1
  P  P5  1  0.76643000  0.34877300  0.75165900  1
  P  P6  1  0.73347500  0.15124700  0.24828200  1
  P  P7  1  0.23361900  0.65119800  0.24847800  1
  O  O8  1  0.19396300  0.94045900  0.90393900  1
  O  O9  1  0.69388200  0.44047100  0.90392400  1
  O  O10  1  0.80612500  0.05953800  0.09611000  1
  O  O11  1  0.30597800  0.55956700  0.09605400  1
  O  O12  1  0.58180500  0.24324000  0.59359500  1
  O  O13  1  0.08172700  0.74326800  0.59357900  1
  O  O14  1  0.41830800  0.75669500  0.40643200  1
  O  O15  1  0.91805600  0.25680200  0.40633400  1
  O  O16  1  0.34588600  0.99076300  0.66545300  1
  O  O17  1  0.84589600  0.49078700  0.66553200  1
  O  O18  1  0.65400000  0.00924600  0.33438300  1
  O  O19  1  0.15411500  0.50922900  0.33453600  1
  O  O20  1  0.54204600  0.27921000  0.11732000  1
  O  O21  1  0.04224400  0.77930100  0.11755600  1
  O  O22  1  0.45778900  0.72073100  0.88243600  1
  O  O23  1  0.95785100  0.22076300  0.88257200  1
  F  F24  1  0.22529000  0.08523100  0.24642200  1
  F  F25  1  0.72514000  0.58520200  0.24641300  1
  F  F26  1  0.77485200  0.91484000  0.75360000  1
  F  F27  1  0.27475100  0.41476500  0.75358000  1
