# generated using pymatgen
data_Na4Co2O5
_symmetry_space_group_name_H-M   'P 1'
_cell_length_a   9.69830500
_cell_length_b   10.79080600
_cell_length_c   11.52112145
_cell_angle_alpha   88.21151924
_cell_angle_beta   90.00000000
_cell_angle_gamma   90.00000000
_symmetry_Int_Tables_number   1
_chemical_formula_structural   Na4Co2O5
_chemical_formula_sum   'Na32 Co16 O40'
_cell_volume   1205.12712557
_cell_formula_units_Z   8
loop_
 _symmetry_equiv_pos_site_id
 _symmetry_equiv_pos_as_xyz
  1  'x, y, z'
loop_
 _atom_site_type_symbol
 _atom_site_label
 _atom_site_symmetry_multiplicity
 _atom_site_fract_x
 _atom_site_fract_y
 _atom_site_fract_z
 _atom_site_occupancy
  Na  Na0  1  0.33337700  0.97946200  0.74082200  1
  Na  Na1  1  0.16662300  0.97946200  0.24082200  1
  Na  Na2  1  0.12960700  0.92809100  0.95299100  1
  Na  Na3  1  0.61549500  0.90058300  0.94691600  1
  Na  Na4  1  0.37039300  0.92809100  0.45299100  1
  Na  Na5  1  0.88450500  0.90058300  0.44691600  1
  Na  Na6  1  0.58768500  0.81815700  0.66102000  1
  Na  Na7  1  0.91231500  0.81815700  0.16102000  1
  Na  Na8  1  0.36106400  0.68808300  0.83185200  1
  Na  Na9  1  0.13893600  0.68808300  0.33185200  1
  Na  Na10  1  0.87215300  0.60069500  0.52840100  1
  Na  Na11  1  0.62784700  0.60069500  0.02840100  1
  Na  Na12  1  0.37198500  0.56927800  0.56886700  1
  Na  Na13  1  0.12801500  0.56927800  0.06886700  1
  Na  Na14  1  0.09237400  0.52926900  0.74134600  1
  Na  Na15  1  0.59237400  0.47073100  0.75865400  1
  Na  Na16  1  0.40762600  0.52926900  0.24134600  1
  Na  Na17  1  0.90762600  0.47073100  0.25865400  1
  Na  Na18  1  0.87198500  0.43072200  0.93113300  1
  Na  Na19  1  0.62801500  0.43072200  0.43113300  1
  Na  Na20  1  0.37215300  0.39930500  0.97159900  1
  Na  Na21  1  0.12784700  0.39930500  0.47159900  1
  Na  Na22  1  0.86106400  0.31191700  0.66814800  1
  Na  Na23  1  0.63893600  0.31191700  0.16814800  1
  Na  Na24  1  0.08768500  0.18184300  0.83898000  1
  Na  Na25  1  0.41231500  0.18184300  0.33898000  1
  Na  Na26  1  0.11549500  0.09941700  0.55308400  1
  Na  Na27  1  0.62960700  0.07190900  0.54700900  1
  Na  Na28  1  0.38450500  0.09941700  0.05308400  1
  Na  Na29  1  0.87039300  0.07190900  0.04700900  1
  Na  Na30  1  0.83337700  0.02053800  0.75917800  1
  Na  Na31  1  0.66662300  0.02053800  0.25917800  1
  Co  Co32  1  0.02606700  0.83633400  0.72669800  1
  Co  Co33  1  0.47393300  0.83633400  0.22669800  1
  Co  Co34  1  0.18048000  0.77041500  0.56559300  1
  Co  Co35  1  0.31952000  0.77041500  0.06559300  1
  Co  Co36  1  0.93286900  0.73171800  0.93576000  1
  Co  Co37  1  0.56713100  0.73171800  0.43576000  1
  Co  Co38  1  0.78386000  0.66473000  0.76890300  1
  Co  Co39  1  0.71614000  0.66473000  0.26890300  1
  Co  Co40  1  0.28386000  0.33527000  0.73109700  1
  Co  Co41  1  0.21614000  0.33527000  0.23109700  1
  Co  Co42  1  0.43286900  0.26828200  0.56424000  1
  Co  Co43  1  0.06713100  0.26828200  0.06424000  1
  Co  Co44  1  0.68048000  0.22958500  0.93440700  1
  Co  Co45  1  0.81952000  0.22958500  0.43440700  1
  Co  Co46  1  0.52606700  0.16366600  0.77330200  1
  Co  Co47  1  0.97393300  0.16366600  0.27330200  1
  O  O48  1  0.09159300  0.98519000  0.74921500  1
  O  O49  1  0.40840700  0.98519000  0.24921500  1
  O  O50  1  0.36810900  0.88454700  0.96034700  1
  O  O51  1  0.87834100  0.88555800  0.95347600  1
  O  O52  1  0.13189100  0.88454700  0.46034700  1
  O  O53  1  0.62165900  0.88555800  0.45347600  1
  O  O54  1  0.85881000  0.79882400  0.66682300  1
  O  O55  1  0.33986800  0.79194100  0.63779300  1
  O  O56  1  0.64119000  0.79882400  0.16682300  1
  O  O57  1  0.16013200  0.79194100  0.13779300  1
  O  O58  1  0.08954000  0.71599900  0.84922000  1
  O  O59  1  0.62233100  0.69383900  0.83107400  1
  O  O60  1  0.41046000  0.71599900  0.34922000  1
  O  O61  1  0.87766900  0.69383900  0.33107400  1
  O  O62  1  0.12595800  0.61660200  0.54607700  1
  O  O63  1  0.61123000  0.61541900  0.53715500  1
  O  O64  1  0.37404200  0.61660200  0.04607700  1
  O  O65  1  0.88877000  0.61541900  0.03715500  1
  O  O66  1  0.84823800  0.51743300  0.73660800  1
  O  O67  1  0.65176200  0.51743300  0.23660800  1
  O  O68  1  0.34823800  0.48256700  0.76339200  1
  O  O69  1  0.15176200  0.48256700  0.26339200  1
  O  O70  1  0.11123000  0.38458100  0.96284500  1
  O  O71  1  0.62595800  0.38339800  0.95392300  1
  O  O72  1  0.38877000  0.38458100  0.46284500  1
  O  O73  1  0.87404200  0.38339800  0.45392300  1
  O  O74  1  0.12233100  0.30616100  0.66892600  1
  O  O75  1  0.58954000  0.28400100  0.65078000  1
  O  O76  1  0.37766900  0.30616100  0.16892600  1
  O  O77  1  0.91046000  0.28400100  0.15078000  1
  O  O78  1  0.83986800  0.20805900  0.86220700  1
  O  O79  1  0.35881000  0.20117600  0.83317700  1
  O  O80  1  0.66013200  0.20805900  0.36220700  1
  O  O81  1  0.14119000  0.20117600  0.33317700  1
  O  O82  1  0.37834100  0.11444200  0.54652400  1
  O  O83  1  0.86810900  0.11545300  0.53965300  1
  O  O84  1  0.12165900  0.11444200  0.04652400  1
  O  O85  1  0.63189100  0.11545300  0.03965300  1
  O  O86  1  0.59159300  0.01481000  0.75078500  1
  O  O87  1  0.90840700  0.01481000  0.25078500  1
