# generated using pymatgen
data_Fe6O5F7
_symmetry_space_group_name_H-M   'P 1'
_cell_length_a   5.68210211
_cell_length_b   5.68210211
_cell_length_c   7.40481740
_cell_angle_alpha   72.09975975
_cell_angle_beta   72.09975975
_cell_angle_gamma   72.12908418
_symmetry_Int_Tables_number   1
_chemical_formula_structural   Fe6O5F7
_chemical_formula_sum   'Fe6 O5 F7'
_cell_volume   210.44879469
_cell_formula_units_Z   1
loop_
 _symmetry_equiv_pos_site_id
 _symmetry_equiv_pos_as_xyz
  1  'x, y, z'
loop_
 _atom_site_type_symbol
 _atom_site_label
 _atom_site_symmetry_multiplicity
 _atom_site_fract_x
 _atom_site_fract_y
 _atom_site_fract_z
 _atom_site_occupancy
  Fe  Fe0  1  0.30432700  0.30432700  0.16415200  1
  Fe  Fe1  1  0.66187900  0.66187900  0.33198600  1
  Fe  Fe2  1  0.35501000  0.35501000  0.68378000  1
  Fe  Fe3  1  0.67129700  0.67129700  0.83781900  1
  Fe  Fe4  1  0.01960900  0.01960900  0.48395800  1
  Fe  Fe5  1  0.99168600  0.99168600  0.00046400  1
  O  O6  1  0.96658700  0.36181700  0.33304400  1
  O  O7  1  0.77555900  0.77555900  0.04042000  1
  O  O8  1  0.22198000  0.22198000  0.95678800  1
  O  O9  1  0.57094000  0.57094000  0.62571300  1
  O  O10  1  0.36181700  0.96658700  0.33304400  1
  F  F11  1  0.65075300  0.04923800  0.65030600  1
  F  F12  1  0.10001900  0.10001900  0.70296800  1
  F  F13  1  0.42632300  0.42632300  0.37522900  1
  F  F14  1  0.90085100  0.90085100  0.30098900  1
  F  F15  1  0.04923800  0.65075300  0.65030600  1
  F  F16  1  0.68218400  0.28994400  0.01451800  1
  F  F17  1  0.28994400  0.68218400  0.01451800  1
