# generated using pymatgen
data_LaTa2NO5
_symmetry_space_group_name_H-M   'P 1'
_cell_length_a   5.53339800
_cell_length_b   7.73470700
_cell_length_c   11.31170876
_cell_angle_alpha   89.94742348
_cell_angle_beta   90.00000000
_cell_angle_gamma   90.00000000
_symmetry_Int_Tables_number   1
_chemical_formula_structural   LaTa2NO5
_chemical_formula_sum   'La4 Ta8 N4 O20'
_cell_volume   484.13202034
_cell_formula_units_Z   4
loop_
 _symmetry_equiv_pos_site_id
 _symmetry_equiv_pos_as_xyz
  1  'x, y, z'
loop_
 _atom_site_type_symbol
 _atom_site_label
 _atom_site_symmetry_multiplicity
 _atom_site_fract_x
 _atom_site_fract_y
 _atom_site_fract_z
 _atom_site_occupancy
  La  La0  1  0.79625000  0.74433600  0.03560500  1
  La  La1  1  0.29574900  0.25746200  0.45584700  1
  La  La2  1  0.20375000  0.74433600  0.53560500  1
  La  La3  1  0.70425100  0.25746200  0.95584700  1
  Ta  Ta4  1  0.29212500  0.00264000  0.14238600  1
  Ta  Ta5  1  0.28922500  0.49367000  0.14889700  1
  Ta  Ta6  1  0.78429700  0.00487400  0.35778300  1
  Ta  Ta7  1  0.79500800  0.49913600  0.35496300  1
  Ta  Ta8  1  0.70787500  0.00264000  0.64238600  1
  Ta  Ta9  1  0.71077500  0.49367000  0.64889700  1
  Ta  Ta10  1  0.20499200  0.49913600  0.85496300  1
  Ta  Ta11  1  0.21570300  0.00487400  0.85778300  1
  N  N12  1  0.12208600  0.44637200  0.29097700  1
  N  N13  1  0.70136800  0.24806300  0.35584900  1
  N  N14  1  0.87791400  0.44637200  0.79097700  1
  N  N15  1  0.29863200  0.24806300  0.85584900  1
  O  O16  1  0.02404800  0.03375700  0.02432500  1
  O  O17  1  0.02507600  0.46691700  0.02631500  1
  O  O18  1  0.39925100  0.24722300  0.12255700  1
  O  O19  1  0.20530300  0.75250500  0.14238000  1
  O  O20  1  0.61964800  0.55918200  0.20979300  1
  O  O21  1  0.61575200  0.94141900  0.21132700  1
  O  O22  1  0.11972100  0.05133400  0.28672800  1
  O  O23  1  0.89928600  0.75147900  0.37978100  1
  O  O24  1  0.51650000  0.53688100  0.47649700  1
  O  O25  1  0.51890000  0.96275000  0.47799300  1
  O  O26  1  0.97595200  0.03375700  0.52432500  1
  O  O27  1  0.97492400  0.46691700  0.52631500  1
  O  O28  1  0.60074900  0.24722300  0.62255700  1
  O  O29  1  0.79469700  0.75250500  0.64238000  1
  O  O30  1  0.38035200  0.55918200  0.70979300  1
  O  O31  1  0.38424800  0.94141900  0.71132700  1
  O  O32  1  0.88027900  0.05133400  0.78672800  1
  O  O33  1  0.10071400  0.75147900  0.87978100  1
  O  O34  1  0.48350000  0.53688100  0.97649700  1
  O  O35  1  0.48110000  0.96275000  0.97799300  1
