# generated using pymatgen
data_K2AgAu
_symmetry_space_group_name_H-M   'P 1'
_cell_length_a   12.75585197
_cell_length_b   12.75585197
_cell_length_c   12.75585197
_cell_angle_alpha   121.27500804
_cell_angle_beta   119.65102869
_cell_angle_gamma   89.20571678
_symmetry_Int_Tables_number   1
_chemical_formula_structural   K2AgAu
_chemical_formula_sum   'K2 Ag1 Au1'
_cell_volume   1456.82412685
_cell_formula_units_Z   1
loop_
 _symmetry_equiv_pos_site_id
 _symmetry_equiv_pos_as_xyz
  1  'x, y, z'
loop_
 _atom_site_type_symbol
 _atom_site_label
 _atom_site_symmetry_multiplicity
 _atom_site_fract_x
 _atom_site_fract_y
 _atom_site_fract_z
 _atom_site_occupancy
  K  K0  1  0.00000000  0.25519500  0.25519500  1
  K  K1  1  0.00000000  0.74480500  0.74480500  1
  Ag  Ag2  1  0.00000000  0.00000000  0.00000000  1
  Au  Au3  1  0.00000000  0.50000000  0.50000000  1
