# generated using pymatgen
data_Fe6O5F7
_symmetry_space_group_name_H-M   'P 1'
_cell_length_a   5.72377900
_cell_length_b   5.72996781
_cell_length_c   7.58883884
_cell_angle_alpha   70.58339522
_cell_angle_beta   70.44856705
_cell_angle_gamma   70.34124626
_symmetry_Int_Tables_number   1
_chemical_formula_structural   Fe6O5F7
_chemical_formula_sum   'Fe6 O5 F7'
_cell_volume   213.98476068
_cell_formula_units_Z   1
loop_
 _symmetry_equiv_pos_site_id
 _symmetry_equiv_pos_as_xyz
  1  'x, y, z'
loop_
 _atom_site_type_symbol
 _atom_site_label
 _atom_site_symmetry_multiplicity
 _atom_site_fract_x
 _atom_site_fract_y
 _atom_site_fract_z
 _atom_site_occupancy
  Fe  Fe0  1  0.64701300  0.67096300  0.83834900  1
  Fe  Fe1  1  0.35042200  0.31646600  0.65593300  1
  Fe  Fe2  1  0.67224500  0.62702700  0.33255400  1
  Fe  Fe3  1  0.33972300  0.36760700  0.17115500  1
  Fe  Fe4  1  0.97511200  0.01560400  0.50031700  1
  Fe  Fe5  1  0.99434600  0.01724900  0.99950200  1
  O  O6  1  0.44416300  0.43574900  0.36376500  1
  O  O7  1  0.98216400  0.35538900  0.33156200  1
  O  O8  1  0.65177100  0.00761400  0.67195600  1
  O  O9  1  0.29165600  0.71492600  0.99733800  1
  O  O10  1  0.69822100  0.30992200  0.99632200  1
  F  F11  1  0.03333900  0.63567200  0.66707900  1
  F  F12  1  0.36594400  0.95616400  0.33872400  1
  F  F13  1  0.89294200  0.89558200  0.29752200  1
  F  F14  1  0.22727100  0.23466700  0.96658500  1
  F  F15  1  0.57873900  0.57421900  0.62427400  1
  F  F16  1  0.76591500  0.77485400  0.04251000  1
  F  F17  1  0.08901100  0.09032800  0.70455300  1
