# generated using pymatgen
data_Y2Sb2O7
_symmetry_space_group_name_H-M   'P 1'
_cell_length_a   7.55935794
_cell_length_b   7.55935794
_cell_length_c   18.57285300
_cell_angle_alpha   90.00000000
_cell_angle_beta   90.00000000
_cell_angle_gamma   119.99999951
_symmetry_Int_Tables_number   1
_chemical_formula_structural   Y2Sb2O7
_chemical_formula_sum   'Y12 Sb12 O42'
_cell_volume   919.13451648
_cell_formula_units_Z   6
loop_
 _symmetry_equiv_pos_site_id
 _symmetry_equiv_pos_as_xyz
  1  'x, y, z'
loop_
 _atom_site_type_symbol
 _atom_site_label
 _atom_site_symmetry_multiplicity
 _atom_site_fract_x
 _atom_site_fract_y
 _atom_site_fract_z
 _atom_site_occupancy
  Y  Y0  1  0.00000000  0.82146200  0.66666700  1
  Y  Y1  1  0.00000000  0.83460300  0.16666700  1
  Y  Y2  1  0.18110800  0.68099900  0.01133100  1
  Y  Y3  1  0.17853800  0.17853800  0.00000000  1
  Y  Y4  1  0.49989100  0.81889200  0.67799800  1
  Y  Y5  1  0.16539700  0.16539700  0.50000000  1
  Y  Y6  1  0.31900100  0.50010900  0.34466500  1
  Y  Y7  1  0.50010900  0.31900100  0.65533500  1
  Y  Y8  1  0.68099900  0.18110800  0.98866900  1
  Y  Y9  1  0.81889200  0.49989100  0.32200200  1
  Y  Y10  1  0.83460300  0.00000000  0.83333300  1
  Y  Y11  1  0.82146200  0.00000000  0.33333300  1
  Sb  Sb12  1  0.00000000  0.32359500  0.16666700  1
  Sb  Sb13  1  0.00000000  0.29904000  0.66666700  1
  Sb  Sb14  1  0.16398900  0.66545400  0.50067700  1
  Sb  Sb15  1  0.50146400  0.83601100  0.16734400  1
  Sb  Sb16  1  0.33454600  0.49853600  0.83401100  1
  Sb  Sb17  1  0.29904000  0.00000000  0.33333300  1
  Sb  Sb18  1  0.67640500  0.67640500  0.50000000  1
  Sb  Sb19  1  0.32359500  0.00000000  0.83333300  1
  Sb  Sb20  1  0.70096000  0.70096000  0.00000000  1
  Sb  Sb21  1  0.49853600  0.33454600  0.16598900  1
  Sb  Sb22  1  0.66545400  0.16398900  0.49932300  1
  Sb  Sb23  1  0.83601100  0.50146400  0.83265600  1
  O  O24  1  0.01794200  0.85202300  0.28452600  1
  O  O25  1  0.99405500  0.80175800  0.80574400  1
  O  O26  1  0.10603900  0.65648900  0.39380700  1
  O  O27  1  0.05681800  0.44316600  0.80622100  1
  O  O28  1  0.32725000  0.99305800  0.95577700  1
  O  O29  1  0.22635400  0.69476300  0.60624100  1
  O  O30  1  0.00694200  0.33419200  0.28911100  1
  O  O31  1  0.20340400  0.68598400  0.13994300  1
  O  O32  1  0.38634900  0.94318200  0.47288700  1
  O  O33  1  0.46840900  0.77364600  0.27290800  1
  O  O34  1  0.48258000  0.79659600  0.80661000  1
  O  O35  1  0.34351100  0.44955000  0.72714000  1
  O  O36  1  0.14797700  0.16591800  0.61785900  1
  O  O37  1  0.31401600  0.51742000  0.47327600  1
  O  O38  1  0.19824200  0.19229700  0.13907800  1
  O  O39  1  0.16591800  0.14797700  0.38214100  1
  O  O40  1  0.30523700  0.53159100  0.93957500  1
  O  O41  1  0.19229700  0.19824200  0.86092200  1
  O  O42  1  0.55045000  0.89396100  0.06047400  1
  O  O43  1  0.55683400  0.61365100  0.13955400  1
  O  O44  1  0.80770300  0.00594500  0.47241100  1
  O  O45  1  0.66580800  0.67275000  0.62244400  1
  O  O46  1  0.44955000  0.34351100  0.27286000  1
  O  O47  1  0.61365100  0.55683400  0.86044600  1
  O  O48  1  0.33419200  0.00694200  0.71088900  1
  O  O49  1  0.83408200  0.98205800  0.95119300  1
  O  O50  1  0.53159100  0.30523700  0.06042500  1
  O  O51  1  0.67275000  0.66580800  0.37755600  1
  O  O52  1  0.51742000  0.31401600  0.52672400  1
  O  O53  1  0.44316600  0.05681800  0.19377900  1
  O  O54  1  0.69476300  0.22635400  0.39375900  1
  O  O55  1  0.68598400  0.20340400  0.86005700  1
  O  O56  1  0.89396100  0.55045000  0.93952600  1
  O  O57  1  0.98205800  0.83408200  0.04880700  1
  O  O58  1  0.79659600  0.48258000  0.19339000  1
  O  O59  1  0.00594500  0.80770300  0.52758900  1
  O  O60  1  0.77364600  0.46840900  0.72709200  1
  O  O61  1  0.65648900  0.10603900  0.60619300  1
  O  O62  1  0.94318200  0.38634900  0.52711300  1
  O  O63  1  0.80175800  0.99405500  0.19425600  1
  O  O64  1  0.99305800  0.32725000  0.04422300  1
  O  O65  1  0.85202300  0.01794200  0.71547400  1
