# generated using pymatgen
data_InSnHg2
_symmetry_space_group_name_H-M   'P 1'
_cell_length_a   12.07508924
_cell_length_b   12.07508924
_cell_length_c   12.07508924
_cell_angle_alpha   121.54319890
_cell_angle_beta   119.80002090
_cell_angle_gamma   88.84738598
_symmetry_Int_Tables_number   1
_chemical_formula_structural   InSnHg2
_chemical_formula_sum   'In1 Sn1 Hg2'
_cell_volume   1231.68795003
_cell_formula_units_Z   1
loop_
 _symmetry_equiv_pos_site_id
 _symmetry_equiv_pos_as_xyz
  1  'x, y, z'
loop_
 _atom_site_type_symbol
 _atom_site_label
 _atom_site_symmetry_multiplicity
 _atom_site_fract_x
 _atom_site_fract_y
 _atom_site_fract_z
 _atom_site_occupancy
  In  In0  1  0.00000000  0.00000000  0.00000000  1
  Sn  Sn1  1  0.00000000  0.50000000  0.50000000  1
  Hg  Hg2  1  0.00000000  0.25578900  0.25578900  1
  Hg  Hg3  1  0.00000000  0.74421100  0.74421100  1
