# generated using pymatgen
data_Fe5(OF4)2
_symmetry_space_group_name_H-M   'P 1'
_cell_length_a   4.82021250
_cell_length_b   4.82402700
_cell_length_c   16.06278257
_cell_angle_alpha   90.00000000
_cell_angle_beta   89.47994190
_cell_angle_gamma   90.00000000
_symmetry_Int_Tables_number   1
_chemical_formula_structural   Fe5(OF4)2
_chemical_formula_sum   'Fe10 O4 F16'
_cell_volume   373.48985104
_cell_formula_units_Z   2
loop_
 _symmetry_equiv_pos_site_id
 _symmetry_equiv_pos_as_xyz
  1  'x, y, z'
loop_
 _atom_site_type_symbol
 _atom_site_label
 _atom_site_symmetry_multiplicity
 _atom_site_fract_x
 _atom_site_fract_y
 _atom_site_fract_z
 _atom_site_occupancy
  Fe  Fe0  1  0.00000000  0.00000000  0.00000000  1
  Fe  Fe1  1  0.99592400  0.01310800  0.19226100  1
  Fe  Fe2  1  0.97375800  0.97195200  0.39910300  1
  Fe  Fe3  1  0.02624200  0.02804800  0.60089700  1
  Fe  Fe4  1  0.00407600  0.98689200  0.80773900  1
  Fe  Fe5  1  0.52624200  0.47195200  0.10089700  1
  Fe  Fe6  1  0.50000000  0.50000000  0.50000000  1
  Fe  Fe7  1  0.50407600  0.51310800  0.30773900  1
  Fe  Fe8  1  0.49592400  0.48689200  0.69226100  1
  Fe  Fe9  1  0.47375800  0.52804800  0.89910300  1
  O  O10  1  0.17400200  0.82355500  0.89531200  1
  O  O11  1  0.32599800  0.32355500  0.60468800  1
  O  O12  1  0.67400200  0.67644500  0.39531200  1
  O  O13  1  0.82599800  0.17644500  0.10468800  1
  F  F14  1  0.21757400  0.78676100  0.11007500  1
  F  F15  1  0.19400800  0.79736600  0.29000700  1
  F  F16  1  0.19447400  0.80346700  0.49890700  1
  F  F17  1  0.20429500  0.80408700  0.70784600  1
  F  F18  1  0.30552600  0.30346700  0.00109300  1
  F  F19  1  0.30599200  0.29736600  0.20999300  1
  F  F20  1  0.28242600  0.28676100  0.38992500  1
  F  F21  1  0.29570500  0.30408700  0.79215400  1
  F  F22  1  0.69447400  0.69653300  0.99890700  1
  F  F23  1  0.70429500  0.69591300  0.20784600  1
  F  F24  1  0.71757400  0.71323900  0.61007500  1
  F  F25  1  0.69400800  0.70263400  0.79000700  1
  F  F26  1  0.80552600  0.19653300  0.50109300  1
  F  F27  1  0.79570500  0.19591300  0.29215400  1
  F  F28  1  0.78242600  0.21323900  0.88992500  1
  F  F29  1  0.80599200  0.20263400  0.70999300  1
