# generated using pymatgen
data_Na2FeO2
_symmetry_space_group_name_H-M   'P 1'
_cell_length_a   5.95859500
_cell_length_b   6.91263300
_cell_length_c   15.94450700
_cell_angle_alpha   90.00000000
_cell_angle_beta   90.00000000
_cell_angle_gamma   90.00000000
_symmetry_Int_Tables_number   1
_chemical_formula_structural   Na2FeO2
_chemical_formula_sum   'Na16 Fe8 O16'
_cell_volume   656.74755350
_cell_formula_units_Z   8
loop_
 _symmetry_equiv_pos_site_id
 _symmetry_equiv_pos_as_xyz
  1  'x, y, z'
loop_
 _atom_site_type_symbol
 _atom_site_label
 _atom_site_symmetry_multiplicity
 _atom_site_fract_x
 _atom_site_fract_y
 _atom_site_fract_z
 _atom_site_occupancy
  Na  Na0  1  0.25000000  0.08507700  0.00000000  1
  Na  Na1  1  0.25000000  0.64490700  0.00000000  1
  Na  Na2  1  0.75000000  0.35509300  0.00000000  1
  Na  Na3  1  0.75000000  0.91492300  0.00000000  1
  Na  Na4  1  0.59099100  0.12382200  0.16193500  1
  Na  Na5  1  0.09099100  0.87617800  0.16193500  1
  Na  Na6  1  0.09099100  0.37617800  0.33806500  1
  Na  Na7  1  0.59099100  0.62382200  0.33806500  1
  Na  Na8  1  0.25000000  0.14490700  0.50000000  1
  Na  Na9  1  0.75000000  0.41492300  0.50000000  1
  Na  Na10  1  0.25000000  0.58507700  0.50000000  1
  Na  Na11  1  0.75000000  0.85509300  0.50000000  1
  Na  Na12  1  0.40900900  0.37617800  0.66193500  1
  Na  Na13  1  0.90900900  0.62382200  0.66193500  1
  Na  Na14  1  0.90900900  0.12382200  0.83806500  1
  Na  Na15  1  0.40900900  0.87617800  0.83806500  1
  Fe  Fe16  1  0.07850400  0.37131700  0.12919900  1
  Fe  Fe17  1  0.57850400  0.62868300  0.12919900  1
  Fe  Fe18  1  0.57850400  0.12868300  0.37080100  1
  Fe  Fe19  1  0.07850400  0.87131700  0.37080100  1
  Fe  Fe20  1  0.92149600  0.12868300  0.62919900  1
  Fe  Fe21  1  0.42149600  0.87131700  0.62919900  1
  Fe  Fe22  1  0.42149600  0.37131700  0.87080100  1
  Fe  Fe23  1  0.92149600  0.62868300  0.87080100  1
  O  O24  1  0.43497300  0.85973300  0.09592800  1
  O  O25  1  0.93497300  0.14026700  0.09592800  1
  O  O26  1  0.39992400  0.39588500  0.11934200  1
  O  O27  1  0.89992400  0.60411500  0.11934200  1
  O  O28  1  0.89992400  0.10411500  0.38065800  1
  O  O29  1  0.39992400  0.89588500  0.38065800  1
  O  O30  1  0.43497300  0.35973300  0.40407200  1
  O  O31  1  0.93497300  0.64026700  0.40407200  1
  O  O32  1  0.06502700  0.35973300  0.59592800  1
  O  O33  1  0.56502700  0.64026700  0.59592800  1
  O  O34  1  0.60007600  0.10411500  0.61934200  1
  O  O35  1  0.10007600  0.89588500  0.61934200  1
  O  O36  1  0.10007600  0.39588500  0.88065800  1
  O  O37  1  0.60007600  0.60411500  0.88065800  1
  O  O38  1  0.56502700  0.14026700  0.90407200  1
  O  O39  1  0.06502700  0.85973300  0.90407200  1
