# generated using pymatgen
data_Fe10O11F9
_symmetry_space_group_name_H-M   'P 1'
_cell_length_a   4.72927200
_cell_length_b   4.73815118
_cell_length_c   15.38700410
_cell_angle_alpha   90.13466235
_cell_angle_beta   90.12940431
_cell_angle_gamma   92.26205410
_symmetry_Int_Tables_number   1
_chemical_formula_structural   Fe10O11F9
_chemical_formula_sum   'Fe10 O11 F9'
_cell_volume   344.52149280
_cell_formula_units_Z   1
loop_
 _symmetry_equiv_pos_site_id
 _symmetry_equiv_pos_as_xyz
  1  'x, y, z'
loop_
 _atom_site_type_symbol
 _atom_site_label
 _atom_site_symmetry_multiplicity
 _atom_site_fract_x
 _atom_site_fract_y
 _atom_site_fract_z
 _atom_site_occupancy
  Fe  Fe0  1  0.00465200  0.98768200  0.99665500  1
  Fe  Fe1  1  0.01150300  0.99570200  0.20344800  1
  Fe  Fe2  1  0.99141000  0.94715800  0.40016600  1
  Fe  Fe3  1  0.04781700  0.99949400  0.59966800  1
  Fe  Fe4  1  0.04533700  0.99789400  0.79993200  1
  Fe  Fe5  1  0.50523200  0.49408800  0.09992200  1
  Fe  Fe6  1  0.47884100  0.51696100  0.49765200  1
  Fe  Fe7  1  0.48657300  0.53189300  0.29187000  1
  Fe  Fe8  1  0.46210700  0.49856100  0.70225900  1
  Fe  Fe9  1  0.46895900  0.51192700  0.90826500  1
  O  O10  1  0.18271900  0.80414100  0.29754100  1
  O  O11  1  0.19082900  0.80144400  0.49917600  1
  O  O12  1  0.20453000  0.81334400  0.70025600  1
  O  O13  1  0.19178300  0.81134900  0.90265800  1
  O  O14  1  0.30465400  0.30111400  0.00792600  1
  O  O15  1  0.30911500  0.30480600  0.19386300  1
  O  O16  1  0.31663100  0.31597600  0.59770500  1
  O  O17  1  0.31090800  0.31815100  0.80468500  1
  O  O18  1  0.69444300  0.69021300  0.00644300  1
  O  O19  1  0.69868800  0.69478600  0.19214100  1
  O  O20  1  0.67520100  0.68021000  0.39755900  1
  F  F21  1  0.19504500  0.80705000  0.10017100  1
  F  F22  1  0.28669300  0.29269800  0.39639200  1
  F  F23  1  0.70391900  0.70681800  0.60132500  1
  F  F24  1  0.70215400  0.70698300  0.80224900  1
  F  F25  1  0.81505900  0.18549000  0.10000000  1
  F  F26  1  0.80304900  0.19192800  0.49857000  1
  F  F27  1  0.79777300  0.19193000  0.29957500  1
  F  F28  1  0.80309300  0.19727900  0.90079600  1
  F  F29  1  0.81128100  0.20292900  0.70113200  1
