# generated using pymatgen
data_V2O3
_symmetry_space_group_name_H-M   'P 1'
_cell_length_a   3.08176300
_cell_length_b   6.98211136
_cell_length_c   7.62146937
_cell_angle_alpha   81.37564602
_cell_angle_beta   89.99604932
_cell_angle_gamma   77.24832494
_symmetry_Int_Tables_number   1
_chemical_formula_structural   V2O3
_chemical_formula_sum   'V6 O9'
_cell_volume   158.04666525
_cell_formula_units_Z   3
loop_
 _symmetry_equiv_pos_site_id
 _symmetry_equiv_pos_as_xyz
  1  'x, y, z'
loop_
 _atom_site_type_symbol
 _atom_site_label
 _atom_site_symmetry_multiplicity
 _atom_site_fract_x
 _atom_site_fract_y
 _atom_site_fract_z
 _atom_site_occupancy
  V  V0  1  0.03334400  0.93339400  0.81551000  1
  V  V1  1  0.65058000  0.69884700  0.49522600  1
  V  V2  1  0.68535900  0.62921400  0.13225300  1
  V  V3  1  0.31464600  0.37078600  0.86774700  1
  V  V4  1  0.34942400  0.30115000  0.50477600  1
  V  V5  1  0.96662800  0.06661500  0.18448900  1
  O  O6  1  0.55982000  0.88029900  0.66859300  1
  O  O7  1  0.17494100  0.65009500  0.96369900  1
  O  O8  1  0.11324600  0.77356400  0.29149800  1
  O  O9  1  0.22552900  0.54894300  0.62939200  1
  O  O10  1  0.77447100  0.45106000  0.37060900  1
  O  O11  1  0.88675500  0.22644500  0.70849500  1
  O  O12  1  0.82506700  0.34989300  0.03630500  1
  O  O13  1  0.44020300  0.11969300  0.33141500  1
  O  O14  1  0.49998600  0.00000200  0.99999200  1
