# generated using pymatgen
data_Ti3Fe2Cu(PO4)6
_symmetry_space_group_name_H-M   'P 1'
_cell_length_a   8.52973611
_cell_length_b   8.52973611
_cell_length_c   8.52973536
_cell_angle_alpha   61.18826570
_cell_angle_beta   61.18826570
_cell_angle_gamma   61.18826405
_symmetry_Int_Tables_number   1
_chemical_formula_structural   Ti3Fe2Cu(PO4)6
_chemical_formula_sum   'Ti3 Fe2 Cu1 P6 O24'
_cell_volume   450.55572821
_cell_formula_units_Z   1
loop_
 _symmetry_equiv_pos_site_id
 _symmetry_equiv_pos_as_xyz
  1  'x, y, z'
loop_
 _atom_site_type_symbol
 _atom_site_label
 _atom_site_symmetry_multiplicity
 _atom_site_fract_x
 _atom_site_fract_y
 _atom_site_fract_z
 _atom_site_occupancy
  Ti  Ti0  1  0.85779700  0.85779700  0.85779700  1
  Ti  Ti1  1  0.64468600  0.64468600  0.64468600  1
  Ti  Ti2  1  0.35482600  0.35482600  0.35482600  1
  Fe  Fe3  1  0.00369300  0.00369300  0.00369300  1
  Fe  Fe4  1  0.50116600  0.50116600  0.50116600  1
  Cu  Cu5  1  0.14515600  0.14515600  0.14515600  1
  P  P6  1  0.95440500  0.24793800  0.54254600  1
  P  P7  1  0.54254600  0.95440500  0.24793800  1
  P  P8  1  0.74937700  0.45670200  0.04439500  1
  P  P9  1  0.45670200  0.04439500  0.74937700  1
  P  P10  1  0.04439500  0.74937700  0.45670200  1
  P  P11  1  0.24793800  0.54254600  0.95440500  1
  O  O12  1  0.88590300  0.67333500  0.51280000  1
  O  O13  1  0.67333500  0.51280000  0.88590300  1
  O  O14  1  0.94221400  0.09019100  0.74210200  1
  O  O15  1  0.51280000  0.88590300  0.67333500  1
  O  O16  1  0.98152800  0.18631200  0.39178700  1
  O  O17  1  0.75946400  0.41126900  0.56770500  1
  O  O18  1  0.74210200  0.94221400  0.09019100  1
  O  O19  1  0.56770500  0.75946400  0.41126900  1
  O  O20  1  0.81470200  0.62006300  0.99805500  1
  O  O21  1  0.41126900  0.56770500  0.75946400  1
  O  O22  1  0.90311700  0.26436700  0.05132200  1
  O  O23  1  0.62006300  0.99805500  0.81470200  1
  O  O24  1  0.39178700  0.98152800  0.18631200  1
  O  O25  1  0.09019100  0.74210200  0.94221400  1
  O  O26  1  0.58650500  0.44762300  0.23864100  1
  O  O27  1  0.18631200  0.39178700  0.98152800  1
  O  O28  1  0.44762300  0.23864100  0.58650500  1
  O  O29  1  0.26436700  0.05132200  0.90311700  1
  O  O30  1  0.23864100  0.58650500  0.44762300  1
  O  O31  1  0.99805500  0.81470200  0.62006300  1
  O  O32  1  0.49606600  0.11992600  0.31231700  1
  O  O33  1  0.05132200  0.90311700  0.26436700  1
  O  O34  1  0.31231700  0.49606600  0.11992600  1
  O  O35  1  0.11992600  0.31231700  0.49606600  1
