# generated using pymatgen
data_LaZrAu2
_symmetry_space_group_name_H-M   'P 1'
_cell_length_a   12.07816030
_cell_length_b   12.07816030
_cell_length_c   12.07816030
_cell_angle_alpha   125.97765955
_cell_angle_beta   118.06016327
_cell_angle_gamma   86.68254303
_symmetry_Int_Tables_number   1
_chemical_formula_structural   LaZrAu2
_chemical_formula_sum   'La1 Zr1 Au2'
_cell_volume   1197.94166128
_cell_formula_units_Z   1
loop_
 _symmetry_equiv_pos_site_id
 _symmetry_equiv_pos_as_xyz
  1  'x, y, z'
loop_
 _atom_site_type_symbol
 _atom_site_label
 _atom_site_symmetry_multiplicity
 _atom_site_fract_x
 _atom_site_fract_y
 _atom_site_fract_z
 _atom_site_occupancy
  La  La0  1  0.00000000  0.50000000  0.50000000  1
  Zr  Zr1  1  0.00000000  0.00000000  0.00000000  1
  Au  Au2  1  0.00000000  0.24980600  0.24980600  1
  Au  Au3  1  0.00000000  0.75019400  0.75019400  1
