# generated using pymatgen
data_Cr3Sb5O16
_symmetry_space_group_name_H-M   'P 1'
_cell_length_a   6.15202987
_cell_length_b   6.15202987
_cell_length_c   9.90460599
_cell_angle_alpha   89.85054659
_cell_angle_beta   89.85054659
_cell_angle_gamma   60.13632401
_symmetry_Int_Tables_number   1
_chemical_formula_structural   Cr3Sb5O16
_chemical_formula_sum   'Cr3 Sb5 O16'
_cell_volume   325.08556300
_cell_formula_units_Z   1
loop_
 _symmetry_equiv_pos_site_id
 _symmetry_equiv_pos_as_xyz
  1  'x, y, z'
loop_
 _atom_site_type_symbol
 _atom_site_label
 _atom_site_symmetry_multiplicity
 _atom_site_fract_x
 _atom_site_fract_y
 _atom_site_fract_z
 _atom_site_occupancy
  Cr  Cr0  1  0.34270000  0.83148500  0.80405900  1
  Cr  Cr1  1  0.83148500  0.34270000  0.80405900  1
  Cr  Cr2  1  0.16624700  0.16624700  0.27416900  1
  Sb  Sb3  1  0.65303900  0.65303900  0.53713900  1
  Sb  Sb4  1  0.32648300  0.32648300  0.00390800  1
  Sb  Sb5  1  0.83273600  0.83273600  0.79988100  1
  Sb  Sb6  1  0.16634800  0.67254000  0.27293100  1
  Sb  Sb7  1  0.67254000  0.16634800  0.27293100  1
  O  O8  1  0.31312900  0.83967400  0.37433800  1
  O  O9  1  0.52040600  0.52040600  0.69089500  1
  O  O10  1  0.67154800  0.67154800  0.90438400  1
  O  O11  1  0.00000100  0.00000100  0.71368400  1
  O  O12  1  0.00251300  0.00251300  0.16600700  1
  O  O13  1  0.83967400  0.31312900  0.37433800  1
  O  O14  1  0.52192800  0.96021200  0.68276100  1
  O  O15  1  0.96021200  0.52192800  0.68276100  1
  O  O16  1  0.16691800  0.16691800  0.90914900  1
  O  O17  1  0.83678200  0.83678200  0.37071700  1
  O  O18  1  0.05026400  0.48010200  0.15203700  1
  O  O19  1  0.48010200  0.05026400  0.15203700  1
  O  O20  1  0.33715300  0.33715300  0.37706500  1
  O  O21  1  0.16655200  0.66180900  0.90964000  1
  O  O22  1  0.47956100  0.47956100  0.14577300  1
  O  O23  1  0.66180900  0.16655200  0.90964000  1
