# generated using pymatgen
data_Ca2TlGa
_symmetry_space_group_name_H-M   'P 1'
_cell_length_a   13.91750078
_cell_length_b   13.91750078
_cell_length_c   13.91750078
_cell_angle_alpha   128.42351274
_cell_angle_beta   116.35357672
_cell_angle_gamma   86.25140679
_symmetry_Int_Tables_number   1
_chemical_formula_structural   Ca2TlGa
_chemical_formula_sum   'Ca2 Tl1 Ga1'
_cell_volume   1805.40276404
_cell_formula_units_Z   1
loop_
 _symmetry_equiv_pos_site_id
 _symmetry_equiv_pos_as_xyz
  1  'x, y, z'
loop_
 _atom_site_type_symbol
 _atom_site_label
 _atom_site_symmetry_multiplicity
 _atom_site_fract_x
 _atom_site_fract_y
 _atom_site_fract_z
 _atom_site_occupancy
  Ca  Ca0  1  0.00000000  0.24145100  0.24145100  1
  Ca  Ca1  1  0.00000000  0.75854900  0.75854900  1
  Tl  Tl2  1  0.00000000  0.50000000  0.50000000  1
  Ga  Ga3  1  0.00000000  0.00000000  0.00000000  1
