# generated using pymatgen
data_Na4Ti11O24
_symmetry_space_group_name_H-M   'P 1'
_cell_length_a   10.50339217
_cell_length_b   10.50339217
_cell_length_c   6.15520938
_cell_angle_alpha   73.95641705
_cell_angle_beta   73.95641705
_cell_angle_gamma   119.97407326
_symmetry_Int_Tables_number   1
_chemical_formula_structural   Na4Ti11O24
_chemical_formula_sum   'Na4 Ti11 O24'
_cell_volume   490.28803128
_cell_formula_units_Z   1
loop_
 _symmetry_equiv_pos_site_id
 _symmetry_equiv_pos_as_xyz
  1  'x, y, z'
loop_
 _atom_site_type_symbol
 _atom_site_label
 _atom_site_symmetry_multiplicity
 _atom_site_fract_x
 _atom_site_fract_y
 _atom_site_fract_z
 _atom_site_occupancy
  Na  Na0  1  0.74246300  0.41937900  0.76885900  1
  Na  Na1  1  0.41937900  0.74246300  0.76885900  1
  Na  Na2  1  0.70914800  0.70914800  0.87434900  1
  Na  Na3  1  0.09193500  0.09193500  0.72820300  1
  Ti  Ti4  1  0.70685100  0.70685100  0.36955000  1
  Ti  Ti5  1  0.87564900  0.03937300  0.35675500  1
  Ti  Ti6  1  0.70999300  0.20819800  0.37376700  1
  Ti  Ti7  1  0.03937300  0.87564900  0.35675500  1
  Ti  Ti8  1  0.37672300  0.03766600  0.87918100  1
  Ti  Ti9  1  0.03840900  0.37584900  0.37255400  1
  Ti  Ti10  1  0.20819800  0.70999300  0.37376700  1
  Ti  Ti11  1  0.53902900  0.37841100  0.39277600  1
  Ti  Ti12  1  0.37841100  0.53902900  0.39277600  1
  Ti  Ti13  1  0.37584900  0.03840900  0.37255400  1
  Ti  Ti14  1  0.03766600  0.37672300  0.87918100  1
  O  O15  1  0.94087000  0.94087000  0.15029000  1
  O  O16  1  0.47656400  0.47656400  0.60113500  1
  O  O17  1  0.67330100  0.82550900  0.55405400  1
  O  O18  1  0.82551000  0.67330100  0.55405400  1
  O  O19  1  0.94237900  0.42935000  0.15753200  1
  O  O20  1  0.47395600  0.98806000  0.59341100  1
  O  O21  1  0.30672600  0.10280900  0.12043300  1
  O  O22  1  0.10280900  0.30672600  0.12043300  1
  O  O23  1  0.98596200  0.98596200  0.51456300  1
  O  O24  1  0.81729600  0.14646700  0.55475800  1
  O  O25  1  0.60547600  0.26157200  0.62308400  1
  O  O26  1  0.14646700  0.81729600  0.55475800  1
  O  O27  1  0.15477200  0.81067100  0.12587000  1
  O  O28  1  0.59962600  0.26945000  0.19579700  1
  O  O29  1  0.26945000  0.59962600  0.19579700  1
  O  O30  1  0.42760700  0.42760700  0.23606200  1
  O  O31  1  0.98806000  0.47395600  0.59341100  1
  O  O32  1  0.42935000  0.94237900  0.15753200  1
  O  O33  1  0.74512700  0.59161000  0.19615300  1
  O  O34  1  0.59161000  0.74512700  0.19615300  1
  O  O35  1  0.31707000  0.11179200  0.62764400  1
  O  O36  1  0.11179200  0.31707000  0.62764400  1
  O  O37  1  0.26157200  0.60547600  0.62308400  1
  O  O38  1  0.81067100  0.15477200  0.12587000  1
