# generated using pymatgen
data_Fe5O3F7
_symmetry_space_group_name_H-M   'P 1'
_cell_length_a   4.76672549
_cell_length_b   4.77642816
_cell_length_c   15.63644961
_cell_angle_alpha   90.15364183
_cell_angle_beta   90.28295398
_cell_angle_gamma   91.33084221
_symmetry_Int_Tables_number   1
_chemical_formula_structural   Fe5O3F7
_chemical_formula_sum   'Fe10 O6 F14'
_cell_volume   355.90769743
_cell_formula_units_Z   2
loop_
 _symmetry_equiv_pos_site_id
 _symmetry_equiv_pos_as_xyz
  1  'x, y, z'
loop_
 _atom_site_type_symbol
 _atom_site_label
 _atom_site_symmetry_multiplicity
 _atom_site_fract_x
 _atom_site_fract_y
 _atom_site_fract_z
 _atom_site_occupancy
  Fe  Fe0  1  0.96393100  0.96484000  0.99966500  1
  Fe  Fe1  1  0.02111900  0.02049500  0.20005000  1
  Fe  Fe2  1  0.03534500  0.00959800  0.40506000  1
  Fe  Fe3  1  0.01958700  0.96910900  0.59986500  1
  Fe  Fe4  1  0.04141400  0.02087800  0.79443800  1
  Fe  Fe5  1  0.49871200  0.49920800  0.09894300  1
  Fe  Fe6  1  0.47512600  0.50875500  0.49401600  1
  Fe  Fe7  1  0.48102400  0.47050000  0.29736600  1
  Fe  Fe8  1  0.46499500  0.51720600  0.70755200  1
  Fe  Fe9  1  0.50210000  0.49332600  0.90230700  1
  O  O10  1  0.18037800  0.81665100  0.50252100  1
  O  O11  1  0.19404900  0.81228100  0.69972200  1
  O  O12  1  0.31776300  0.31716400  0.19882800  1
  O  O13  1  0.30679300  0.30172700  0.39469600  1
  O  O14  1  0.31191600  0.31281500  0.79782700  1
  O  O15  1  0.67378600  0.67242600  0.00443700  1
  F  F16  1  0.19793200  0.79208800  0.10327300  1
  F  F17  1  0.20631900  0.80347000  0.30504400  1
  F  F18  1  0.19431200  0.80498700  0.89175800  1
  F  F19  1  0.28022100  0.27918900  0.00471700  1
  F  F20  1  0.29594100  0.30590100  0.60594300  1
  F  F21  1  0.70689600  0.70343600  0.20370200  1
  F  F22  1  0.71077300  0.71277600  0.39163000  1
  F  F23  1  0.68622400  0.69272700  0.60418700  1
  F  F24  1  0.71081700  0.71485000  0.79331200  1
  F  F25  1  0.79166800  0.19831700  0.10284300  1
  F  F26  1  0.80516200  0.19346600  0.50453000  1
  F  F27  1  0.81131500  0.20030600  0.30644600  1
  F  F28  1  0.81116200  0.18772900  0.88908600  1
  F  F29  1  0.80322100  0.20378100  0.69623900  1
