# generated using pymatgen
data_TiMn4O10
_symmetry_space_group_name_H-M   'P 1'
_cell_length_a   5.84580539
_cell_length_b   5.84580539
_cell_length_c   24.15565984
_cell_angle_alpha   83.24415893
_cell_angle_beta   83.24415893
_cell_angle_gamma   59.69530369
_symmetry_Int_Tables_number   1
_chemical_formula_structural   TiMn4O10
_chemical_formula_sum   'Ti4 Mn16 O40'
_cell_volume   706.09787810
_cell_formula_units_Z   4
loop_
 _symmetry_equiv_pos_site_id
 _symmetry_equiv_pos_as_xyz
  1  'x, y, z'
loop_
 _atom_site_type_symbol
 _atom_site_label
 _atom_site_symmetry_multiplicity
 _atom_site_fract_x
 _atom_site_fract_y
 _atom_site_fract_z
 _atom_site_occupancy
  Ti  Ti0  1  0.29979800  0.29979800  0.10018800  1
  Ti  Ti1  1  0.70020200  0.70020200  0.89981200  1
  Ti  Ti2  1  0.29999700  0.29999700  0.60004100  1
  Ti  Ti3  1  0.70000300  0.70000300  0.39995900  1
  Mn  Mn4  1  0.50000000  0.50000000  0.00000000  1
  Mn  Mn5  1  0.50000000  0.00000000  0.00000000  1
  Mn  Mn6  1  0.00000000  0.50000000  0.00000000  1
  Mn  Mn7  1  0.90026800  0.90026800  0.79958700  1
  Mn  Mn8  1  0.09936900  0.09936900  0.70008600  1
  Mn  Mn9  1  0.90000500  0.40017600  0.79953900  1
  Mn  Mn10  1  0.80004700  0.29979100  0.60001600  1
  Mn  Mn11  1  0.40017600  0.90000500  0.79953900  1
  Mn  Mn12  1  0.29979100  0.80004700  0.60001600  1
  Mn  Mn13  1  0.50000000  0.50000000  0.50000000  1
  Mn  Mn14  1  0.19995300  0.70020900  0.39998400  1
  Mn  Mn15  1  0.70020900  0.19995300  0.39998400  1
  Mn  Mn16  1  0.09973200  0.09973200  0.20041300  1
  Mn  Mn17  1  0.90063100  0.90063100  0.29991400  1
  Mn  Mn18  1  0.59982400  0.09999500  0.20046100  1
  Mn  Mn19  1  0.09999500  0.59982400  0.20046100  1
  O  O20  1  0.83074800  0.38483800  0.95395500  1
  O  O21  1  0.38483800  0.83074800  0.95395500  1
  O  O22  1  0.61516200  0.16925200  0.04604500  1
  O  O23  1  0.16925200  0.61516200  0.04604500  1
  O  O24  1  0.56954300  0.56954300  0.84558100  1
  O  O25  1  0.34676100  0.34676100  0.95933300  1
  O  O26  1  0.16971200  0.16971200  0.04598900  1
  O  O27  1  0.05342600  0.05342600  0.84036100  1
  O  O28  1  0.83028800  0.83028800  0.95401100  1
  O  O29  1  0.65323900  0.65323900  0.04066700  1
  O  O30  1  0.22852100  0.78935100  0.75289600  1
  O  O31  1  0.78935100  0.22852100  0.75289600  1
  O  O32  1  0.56891000  0.01571400  0.84570900  1
  O  O33  1  0.01571400  0.56891000  0.84570900  1
  O  O34  1  0.74695600  0.74695600  0.75898100  1
  O  O35  1  0.97137300  0.97137300  0.64668100  1
  O  O36  1  0.45583000  0.45583000  0.64140600  1
  O  O37  1  0.22806100  0.22806100  0.75270300  1
  O  O38  1  0.63406900  0.18807500  0.55230400  1
  O  O39  1  0.18807500  0.63406900  0.55230400  1
  O  O40  1  0.96529500  0.41171700  0.64785700  1
  O  O41  1  0.41171700  0.96529500  0.64785700  1
  O  O42  1  0.81192500  0.36593100  0.44769600  1
  O  O43  1  0.36593100  0.81192500  0.44769600  1
  O  O44  1  0.37180900  0.37180900  0.44682800  1
  O  O45  1  0.54417000  0.54417000  0.35859400  1
  O  O46  1  0.14419900  0.14419900  0.55869500  1
  O  O47  1  0.02862700  0.02862700  0.35331900  1
  O  O48  1  0.62819100  0.62819100  0.55317200  1
  O  O49  1  0.85580100  0.85580100  0.44130500  1
  O  O50  1  0.03470500  0.58828300  0.35214300  1
  O  O51  1  0.58828300  0.03470500  0.35214300  1
  O  O52  1  0.21064900  0.77147900  0.24710400  1
  O  O53  1  0.77147900  0.21064900  0.24710400  1
  O  O54  1  0.77193900  0.77193900  0.24729700  1
  O  O55  1  0.94657400  0.94657400  0.15963900  1
  O  O56  1  0.25304400  0.25304400  0.24101900  1
  O  O57  1  0.43045700  0.43045700  0.15441900  1
  O  O58  1  0.98428600  0.43109000  0.15429100  1
  O  O59  1  0.43109000  0.98428600  0.15429100  1
