# generated using pymatgen
data_V4(OF3)3
_symmetry_space_group_name_H-M   'P 1'
_cell_length_a   5.22456100
_cell_length_b   5.39703620
_cell_length_c   17.42900908
_cell_angle_alpha   89.76478967
_cell_angle_beta   97.99466450
_cell_angle_gamma   118.47874004
_symmetry_Int_Tables_number   1
_chemical_formula_structural   V4(OF3)3
_chemical_formula_sum   'V8 O6 F18'
_cell_volume   426.68773346
_cell_formula_units_Z   2
loop_
 _symmetry_equiv_pos_site_id
 _symmetry_equiv_pos_as_xyz
  1  'x, y, z'
loop_
 _atom_site_type_symbol
 _atom_site_label
 _atom_site_symmetry_multiplicity
 _atom_site_fract_x
 _atom_site_fract_y
 _atom_site_fract_z
 _atom_site_occupancy
  V  V0  1  0.75668100  0.35686500  0.11894900  1
  V  V1  1  0.73508500  0.88045100  0.62528800  1
  V  V2  1  0.52027300  0.72092500  0.24771400  1
  V  V3  1  0.50427900  0.23764200  0.74817700  1
  V  V4  1  0.26048600  0.09623300  0.37951700  1
  V  V5  1  0.24266500  0.63689900  0.88160400  1
  V  V6  1  0.99972700  0.99735400  0.99986700  1
  V  V7  1  0.03166300  0.52275100  0.50518400  1
  O  O8  1  0.32141900  0.67093200  0.57806100  1
  O  O9  1  0.83073500  0.20777400  0.04601100  1
  O  O10  1  0.17132900  0.78666300  0.95460200  1
  O  O11  1  0.65979800  0.54026700  0.20738000  1
  O  O12  1  0.64333100  0.05323600  0.70822900  1
  O  O13  1  0.20827800  0.82244300  0.43409500  1
  F  F14  1  0.32612600  0.15428900  0.08738500  1
  F  F15  1  0.76961700  0.67635700  0.06180800  1
  F  F16  1  0.77798400  0.19672700  0.56008100  1
  F  F17  1  0.72411700  0.06743700  0.19189000  1
  F  F18  1  0.34038700  0.95218200  0.28896300  1
  F  F19  1  0.33009300  0.46102800  0.79302600  1
  F  F20  1  0.17100000  0.59527800  0.16588800  1
  F  F21  1  0.16175400  0.10295900  0.66466400  1
  F  F22  1  0.17441600  0.29277600  0.45888700  1
  F  F23  1  0.29449900  0.42902900  0.31525400  1
  F  F24  1  0.71433000  0.57280800  0.69079000  1
  F  F25  1  0.83485500  0.92018200  0.33526900  1
  F  F26  1  0.82437500  0.71358900  0.53786900  1
  F  F27  1  0.82162800  0.40439800  0.83798300  1
  F  F28  1  0.68181500  0.33867300  0.41614200  1
  F  F29  1  0.26309500  0.93086000  0.81021800  1
  F  F30  1  0.23088000  0.31791100  0.93745400  1
  F  F31  1  0.67327600  0.84308200  0.91174800  1
