# generated using pymatgen
data_Na5Bi2P(CO4)4
_symmetry_space_group_name_H-M   'P 1'
_cell_length_a   10.37307000
_cell_length_b   10.39163523
_cell_length_c   17.96776448
_cell_angle_alpha   74.09231848
_cell_angle_beta   73.28605049
_cell_angle_gamma   60.27966533
_symmetry_Int_Tables_number   1
_chemical_formula_structural   Na5Bi2P(CO4)4
_chemical_formula_sum   'Na20 Bi8 P4 C16 O64'
_cell_volume   1590.70227635
_cell_formula_units_Z   4
loop_
 _symmetry_equiv_pos_site_id
 _symmetry_equiv_pos_as_xyz
  1  'x, y, z'
loop_
 _atom_site_type_symbol
 _atom_site_label
 _atom_site_symmetry_multiplicity
 _atom_site_fract_x
 _atom_site_fract_y
 _atom_site_fract_z
 _atom_site_occupancy
  Na  Na0  1  0.39889500  0.28455600  0.03399600  1
  Na  Na1  1  0.78151800  0.28427100  0.03272800  1
  Na  Na2  1  0.10110300  0.21590500  0.46617500  1
  Na  Na3  1  0.40953500  0.52230200  0.15887000  1
  Na  Na4  1  0.09176100  0.59246600  0.34212000  1
  Na  Na5  1  0.40925100  0.90873800  0.15930600  1
  Na  Na6  1  0.47263600  0.59259300  0.34250900  1
  Na  Na7  1  0.71678800  0.21503500  0.46592200  1
  Na  Na8  1  0.28266600  0.78326700  0.53284800  1
  Na  Na9  1  0.71592300  0.60274000  0.46601900  1
  Na  Na10  1  0.02409000  0.90821800  0.15934600  1
  Na  Na11  1  0.21013400  0.10032500  0.96453100  1
  Na  Na12  1  0.51640400  0.41044800  0.65582600  1
  Na  Na13  1  0.59241500  0.09237900  0.84191300  1
  Na  Na14  1  0.91502800  0.40411300  0.65867400  1
  Na  Na15  1  0.59085100  0.47412500  0.84304700  1
  Na  Na16  1  0.90254100  0.78284400  0.53222700  1
  Na  Na17  1  0.20139600  0.73036100  0.96553700  1
  Na  Na18  1  0.90689200  0.02925800  0.66172000  1
  Na  Na19  1  0.60404500  0.72108300  0.96748300  1
  Bi  Bi20  1  0.24826400  0.24269800  0.25296900  1
  Bi  Bi21  1  0.49630500  0.00906000  0.49919700  1
  Bi  Bi22  1  0.75638800  0.24254400  0.25202800  1
  Bi  Bi23  1  0.99507800  0.51029000  0.99922700  1
  Bi  Bi24  1  0.75010500  0.75530200  0.24565200  1
  Bi  Bi25  1  0.24543400  0.25042900  0.74819300  1
  Bi  Bi26  1  0.24424800  0.75486600  0.75193100  1
  Bi  Bi27  1  0.75368300  0.74655800  0.75081000  1
  P  P28  1  0.31311900  0.81217800  0.06239600  1
  P  P29  1  0.18772600  0.68715300  0.43762900  1
  P  P30  1  0.81045000  0.31458400  0.56259600  1
  P  P31  1  0.68392500  0.19073300  0.93711400  1
  C  C32  1  0.08496400  0.19620300  0.13494800  1
  C  C33  1  0.08992600  0.57909500  0.14012300  1
  C  C34  1  0.61024200  0.11325500  0.16778300  1
  C  C35  1  0.41729500  0.30400000  0.35972500  1
  C  C36  1  0.19250800  0.07945800  0.63704200  1
  C  C37  1  0.69093100  0.57920400  0.14034800  1
  C  C38  1  0.88463000  0.39508900  0.33447200  1
  C  C39  1  0.58963100  0.07903400  0.64041900  1
  C  C40  1  0.41934000  0.91688000  0.36156800  1
  C  C41  1  0.11145800  0.61121800  0.66812400  1
  C  C42  1  0.80364300  0.91584800  0.36072800  1
  C  C43  1  0.30460400  0.41824900  0.86088100  1
  C  C44  1  0.58366000  0.69432600  0.63811600  1
  C  C45  1  0.39369700  0.88772900  0.83433900  1
  C  C46  1  0.91500800  0.42067100  0.86062400  1
  C  C47  1  0.91626100  0.80224400  0.86077800  1
  O  O48  1  0.13660800  0.26242600  0.06997200  1
  O  O49  1  0.15800600  0.13505700  0.19319200  1
  O  O50  1  0.03838000  0.63333400  0.07474100  1
  O  O51  1  0.48168000  0.12051300  0.16667900  1
  O  O52  1  0.21368600  0.45449000  0.14617900  1
  O  O53  1  0.29940500  0.04521200  0.35796200  1
  O  O54  1  0.01608000  0.38262200  0.33486800  1
  O  O55  1  0.40404000  0.66058700  0.02968000  1
  O  O56  1  0.15850100  0.90488400  0.03380100  1
  O  O57  1  0.61956900  0.23511500  0.16508300  1
  O  O58  1  0.34619100  0.36797500  0.30036800  1
  O  O59  1  0.40320400  0.90575300  0.03216700  1
  O  O60  1  0.28465700  0.77938600  0.15422300  1
  O  O61  1  0.96011800  0.18858700  0.14136800  1
  O  O62  1  0.75606700  0.52569400  0.07433900  1
  O  O63  1  0.25849100  0.02653800  0.57061200  1
  O  O64  1  0.36358400  0.23326200  0.42147600  1
  O  O65  1  0.85697000  0.98551900  0.29826700  1
  O  O66  1  0.63242100  0.50785400  0.19958200  1
  O  O67  1  0.54166800  0.30966000  0.35635900  1
  O  O68  1  0.09012000  0.60009900  0.46614300  1
  O  O69  1  0.22236400  0.71022800  0.34530000  1
  O  O70  1  0.68242900  0.70521600  0.14610100  1
  O  O71  1  0.18460300  0.20417300  0.64384100  1
  O  O72  1  0.87182800  0.27639100  0.33572600  1
  O  O73  1  0.54009900  0.13251300  0.57446400  1
  O  O74  1  0.34290700  0.60042400  0.46660800  1
  O  O75  1  0.09561200  0.83771600  0.47225300  1
  O  O76  1  0.98683300  0.36044600  0.79719700  1
  O  O77  1  0.48659800  0.84740400  0.30063800  1
  O  O78  1  0.27737900  0.01771000  0.83379800  1
  O  O79  1  0.76689400  0.52579800  0.33423600  1
  O  O80  1  0.22941800  0.48280400  0.67497400  1
  O  O81  1  0.73021300  0.98501100  0.17265400  1
  O  O82  1  0.51737200  0.15035700  0.70012600  1
  O  O83  1  0.01801200  0.65178400  0.19992700  1
  O  O84  1  0.90312100  0.15969500  0.53312600  1
  O  O85  1  0.65931800  0.40541800  0.53057800  1
  O  O86  1  0.47327900  0.85872900  0.42666900  1
  O  O87  1  0.11995100  0.73376200  0.66550400  1
  O  O88  1  0.30987000  0.29367300  0.85472400  1
  O  O89  1  0.81119500  0.78837600  0.35744900  1
  O  O90  1  0.90353800  0.40524100  0.53215800  1
  O  O91  1  0.77596400  0.28801300  0.65440400  1
  O  O92  1  0.45948300  0.68732700  0.64367600  1
  O  O93  1  0.36450100  0.48867300  0.80186900  1
  O  O94  1  0.63782200  0.75984400  0.57383400  1
  O  O95  1  0.13265400  0.00802800  0.69494200  1
  O  O96  1  0.04480700  0.79605000  0.85907100  1
  O  O97  1  0.74144300  0.97283900  0.42570000  1
  O  O98  1  0.23980300  0.47245300  0.92680000  1
  O  O99  1  0.58351800  0.10702400  0.96580100  1
  O  O100  1  0.70622200  0.22717500  0.84518200  1
  O  O101  1  0.65518000  0.63320800  0.69771700  1
  O  O102  1  0.38150600  0.76865600  0.83458100  1
  O  O103  1  0.83328700  0.10471800  0.96855800  1
  O  O104  1  0.58894000  0.34777200  0.96933700  1
  O  O105  1  0.98290000  0.62026600  0.66494600  1
  O  O106  1  0.71479300  0.95409000  0.64612000  1
  O  O107  1  0.78572400  0.54150200  0.85846600  1
  O  O108  1  0.52555200  0.87392100  0.83602500  1
  O  O109  1  0.97021600  0.36444100  0.92506500  1
  O  O110  1  0.84702900  0.87117500  0.80055400  1
  O  O111  1  0.85644100  0.73500800  0.92168500  1
