# generated using pymatgen
data_Zn2IrPd
_symmetry_space_group_name_H-M   'P 1'
_cell_length_a   10.15047047
_cell_length_b   10.15047047
_cell_length_c   10.15047047
_cell_angle_alpha   122.97606531
_cell_angle_beta   117.74510976
_cell_angle_gamma   89.43690943
_symmetry_Int_Tables_number   1
_chemical_formula_structural   Zn2IrPd
_chemical_formula_sum   'Zn2 Ir1 Pd1'
_cell_volume   733.49993612
_cell_formula_units_Z   1
loop_
 _symmetry_equiv_pos_site_id
 _symmetry_equiv_pos_as_xyz
  1  'x, y, z'
loop_
 _atom_site_type_symbol
 _atom_site_label
 _atom_site_symmetry_multiplicity
 _atom_site_fract_x
 _atom_site_fract_y
 _atom_site_fract_z
 _atom_site_occupancy
  Zn  Zn0  1  0.00000000  0.25042300  0.25042300  1
  Zn  Zn1  1  0.00000000  0.74957700  0.74957700  1
  Ir  Ir2  1  0.00000000  0.50000000  0.50000000  1
  Pd  Pd3  1  0.00000000  0.00000000  0.00000000  1
