# generated using pymatgen
data_Fe5O3F7
_symmetry_space_group_name_H-M   'P 1'
_cell_length_a   4.79913700
_cell_length_b   4.80318100
_cell_length_c   15.56764572
_cell_angle_alpha   89.53963786
_cell_angle_beta   89.96590809
_cell_angle_gamma   88.57138830
_symmetry_Int_Tables_number   1
_chemical_formula_structural   Fe5O3F7
_chemical_formula_sum   'Fe10 O6 F14'
_cell_volume   358.72857488
_cell_formula_units_Z   2
loop_
 _symmetry_equiv_pos_site_id
 _symmetry_equiv_pos_as_xyz
  1  'x, y, z'
loop_
 _atom_site_type_symbol
 _atom_site_label
 _atom_site_symmetry_multiplicity
 _atom_site_fract_x
 _atom_site_fract_y
 _atom_site_fract_z
 _atom_site_occupancy
  Fe  Fe0  1  0.97786300  0.03932200  0.80753500  1
  Fe  Fe1  1  0.00000000  0.00000000  0.00000000  1
  Fe  Fe2  1  0.02213700  0.96067800  0.19246500  1
  Fe  Fe3  1  0.96228500  0.03715200  0.39887200  1
  Fe  Fe4  1  0.03771500  0.96284800  0.60112800  1
  Fe  Fe5  1  0.47339900  0.46236100  0.89685600  1
  Fe  Fe6  1  0.49404100  0.49624500  0.30018400  1
  Fe  Fe7  1  0.52660100  0.53763900  0.10314400  1
  Fe  Fe8  1  0.50000000  0.50000000  0.50000000  1
  Fe  Fe9  1  0.50595900  0.50375500  0.69981600  1
  O  O10  1  0.83320700  0.82318300  0.09429800  1
  O  O11  1  0.31243300  0.69273100  0.20871600  1
  O  O12  1  0.33130900  0.67150400  0.59992900  1
  O  O13  1  0.68756700  0.30726900  0.79128400  1
  O  O14  1  0.66869100  0.32849600  0.40007100  1
  O  O15  1  0.16679300  0.17681700  0.90570200  1
  F  F16  1  0.79322600  0.80238100  0.90055200  1
  F  F17  1  0.80139400  0.79950600  0.29517200  1
  F  F18  1  0.79477100  0.79391700  0.50009900  1
  F  F19  1  0.80434700  0.80305400  0.70584200  1
  F  F20  1  0.28434100  0.71193800  0.79200900  1
  F  F21  1  0.29418300  0.70522100  0.99834900  1
  F  F22  1  0.28474400  0.71292900  0.40119600  1
  F  F23  1  0.70581700  0.29477900  0.00165100  1
  F  F24  1  0.71565900  0.28806200  0.20799100  1
  F  F25  1  0.71525600  0.28707100  0.59880400  1
  F  F26  1  0.19565300  0.19694600  0.29415800  1
  F  F27  1  0.20677400  0.19761900  0.09944800  1
  F  F28  1  0.19860600  0.20049400  0.70482800  1
  F  F29  1  0.20522900  0.20608300  0.49990100  1
