# generated using pymatgen
data_VOF2
_symmetry_space_group_name_H-M   'P 1'
_cell_length_a   5.22621467
_cell_length_b   5.22621467
_cell_length_c   13.38555073
_cell_angle_alpha   89.03314732
_cell_angle_beta   89.03314732
_cell_angle_gamma   59.71124339
_symmetry_Int_Tables_number   1
_chemical_formula_structural   VOF2
_chemical_formula_sum   'V6 O6 F12'
_cell_volume   315.63715064
_cell_formula_units_Z   6
loop_
 _symmetry_equiv_pos_site_id
 _symmetry_equiv_pos_as_xyz
  1  'x, y, z'
loop_
 _atom_site_type_symbol
 _atom_site_label
 _atom_site_symmetry_multiplicity
 _atom_site_fract_x
 _atom_site_fract_y
 _atom_site_fract_z
 _atom_site_occupancy
  V  V0  1  0.00553600  0.01470900  0.49314300  1
  V  V1  1  0.01470900  0.00553600  0.99314300  1
  V  V2  1  0.64250700  0.71412300  0.82709900  1
  V  V3  1  0.30527000  0.36822400  0.65937600  1
  V  V4  1  0.71412300  0.64250700  0.32709900  1
  V  V5  1  0.36822400  0.30527000  0.15937600  1
  O  O6  1  0.31325700  0.92410600  0.91940200  1
  O  O7  1  0.00142700  0.57109800  0.25207500  1
  O  O8  1  0.09342300  0.65926900  0.58420500  1
  O  O9  1  0.57109800  0.00142700  0.75207500  1
  O  O10  1  0.92410600  0.31325700  0.41940200  1
  O  O11  1  0.65926900  0.09342300  0.08420500  1
  F  F12  1  0.98943000  0.40869500  0.75081800  1
  F  F13  1  0.39503300  0.59161500  0.75517900  1
  F  F14  1  0.34558600  0.73112400  0.41525300  1
  F  F15  1  0.06698300  0.27068800  0.08345200  1
  F  F16  1  0.27068800  0.06698300  0.58345200  1
  F  F17  1  0.59161500  0.39503300  0.25517900  1
  F  F18  1  0.73112400  0.34558600  0.91525300  1
  F  F19  1  0.40869500  0.98943000  0.25081800  1
  F  F20  1  0.25106000  0.68048300  0.08988100  1
  F  F21  1  0.74087700  0.91546600  0.42011600  1
  F  F22  1  0.91546600  0.74087700  0.92011600  1
  F  F23  1  0.68048300  0.25106000  0.58988100  1
