data_image0
_chemical_formula_structural       Mo16O44
_chemical_formula_sum              "Mo16 O44"
_cell_length_a       23.6153
_cell_length_b       5.69829
_cell_length_c       4.9483
_cell_angle_alpha    90.0035
_cell_angle_beta     108.878
_cell_angle_gamma    89.9919

_space_group_name_H-M_alt    "P 1"
_space_group_IT_number       1

loop_
  _space_group_symop_operation_xyz
  'x, y, z'

loop_
  _atom_site_type_symbol
  _atom_site_label
  _atom_site_symmetry_multiplicity
  _atom_site_fract_x
  _atom_site_fract_y
  _atom_site_fract_z
  _atom_site_occupancy
  Mo  Mo1       1.0  0.16600  0.20500  0.00938  1.0000
  Mo  Mo2       1.0  0.33000  0.69000  0.98400  1.0000
  Mo  Mo3       1.0  0.83000  0.81000  0.98400  1.0000
  Mo  Mo4       1.0  0.66600  0.29500  0.00950  1.0000
  Mo  Mo5       1.0  0.10000  0.74400  0.65800  1.0000
  Mo  Mo6       1.0  0.40500  0.26100  0.35200  1.0000
  Mo  Mo7       1.0  0.90500  0.24000  0.35200  1.0000
  Mo  Mo8       1.0  0.60000  0.75600  0.65800  1.0000
  Mo  Mo9       1.0  0.03710  0.19500  0.30900  1.0000
  Mo  Mo10      1.0  0.46500  0.71300  0.70300  1.0000
  Mo  Mo11      1.0  0.96500  0.78700  0.70300  1.0000
  Mo  Mo12      1.0  0.53700  0.30600  0.30900  1.0000
  Mo  Mo13      1.0  0.22000  0.72600  0.36000  1.0000
  Mo  Mo14      1.0  0.29200  0.17500  0.72100  1.0000
  Mo  Mo15      1.0  0.79200  0.32500  0.72100  1.0000
  Mo  Mo16      1.0  0.72000  0.77400  0.36000  1.0000
  O   O1        1.0  0.22700  0.08310  0.37100  1.0000
  O   O2        1.0  0.26900  0.49800  0.64700  1.0000
  O   O3        1.0  0.76900  0.00231  0.64700  1.0000
  O   O4        1.0  0.72700  0.41700  0.37100  1.0000
  O   O5        1.0  0.23200  0.15800  0.89700  1.0000
  O   O6        1.0  0.26700  0.67300  0.11400  1.0000
  O   O7        1.0  0.76700  0.82700  0.11400  1.0000
  O   O8        1.0  0.73200  0.34200  0.89700  1.0000
  O   O9        1.0  0.15300  0.85800  0.03520  1.0000
  O   O10       1.0  0.35600  0.37800  0.97900  1.0000
  O   O11       1.0  0.85600  0.12200  0.98000  1.0000
  O   O12       1.0  0.65300  0.64100  0.03510  1.0000
  O   O13       1.0  0.17500  0.45100  0.28300  1.0000
  O   O14       1.0  0.30500  0.85100  0.61700  1.0000
  O   O15       1.0  0.80500  0.64900  0.61700  1.0000
  O   O16       1.0  0.67500  0.04850  0.28300  1.0000
  O   O17       1.0  0.16400  0.80400  0.54300  1.0000
  O   O18       1.0  0.34900  0.22900  0.52000  1.0000
  O   O19       1.0  0.84900  0.27200  0.52100  1.0000
  O   O20       1.0  0.66400  0.69600  0.54200  1.0000
  O   O21       1.0  0.10000  0.09430  0.66600  1.0000
  O   O22       1.0  0.39000  0.61100  0.36900  1.0000
  O   O23       1.0  0.89000  0.88900  0.37000  1.0000
  O   O24       1.0  0.60000  0.40600  0.66700  1.0000
  O   O25       1.0  0.14600  0.47000  0.79100  1.0000
  O   O26       1.0  0.34900  0.00787  0.07980  1.0000
  O   O27       1.0  0.84900  0.49200  0.08020  1.0000
  O   O28       1.0  0.64600  0.03020  0.79000  1.0000
  O   O29       1.0  0.08240  0.20200  0.09470  1.0000
  O   O30       1.0  0.42100  0.73300  0.92800  1.0000
  O   O31       1.0  0.92100  0.76600  0.92800  1.0000
  O   O32       1.0  0.58200  0.29800  0.09520  1.0000
  O   O33       1.0  0.02540  0.86500  0.36300  1.0000
  O   O34       1.0  0.47600  0.38400  0.64100  1.0000
  O   O35       1.0  0.97600  0.11600  0.64200  1.0000
  O   O36       1.0  0.52500  0.63500  0.36400  1.0000
  O   O37       1.0  0.05080  0.48500  0.45700  1.0000
  O   O38       1.0  0.44700  0.98500  0.50600  1.0000
  O   O39       1.0  0.94700  0.51600  0.50500  1.0000
  O   O40       1.0  0.55100  0.01580  0.45700  1.0000
  O   O41       1.0  0.04200  0.71900  0.89500  1.0000
  O   O42       1.0  0.45900  0.25200  0.10400  1.0000
  O   O43       1.0  0.95900  0.24700  0.10400  1.0000
  O   O44       1.0  0.54200  0.78200  0.89600  1.0000
