# generated using pymatgen
data_Ti3Fe2Sb(PO4)6
_symmetry_space_group_name_H-M   'P 1'
_cell_length_a   8.65679944
_cell_length_b   8.65679944
_cell_length_c   8.65679922
_cell_angle_alpha   61.21341990
_cell_angle_beta   61.21341990
_cell_angle_gamma   61.21341934
_symmetry_Int_Tables_number   1
_chemical_formula_structural   Ti3Fe2Sb(PO4)6
_chemical_formula_sum   'Ti3 Fe2 Sb1 P6 O24'
_cell_volume   471.24974162
_cell_formula_units_Z   1
loop_
 _symmetry_equiv_pos_site_id
 _symmetry_equiv_pos_as_xyz
  1  'x, y, z'
loop_
 _atom_site_type_symbol
 _atom_site_label
 _atom_site_symmetry_multiplicity
 _atom_site_fract_x
 _atom_site_fract_y
 _atom_site_fract_z
 _atom_site_occupancy
  Ti  Ti0  1  0.85536900  0.85536900  0.85536900  1
  Ti  Ti1  1  0.64620500  0.64620500  0.64620500  1
  Ti  Ti2  1  0.35399000  0.35399000  0.35399000  1
  Fe  Fe3  1  0.00000500  0.00000500  0.00000500  1
  Fe  Fe4  1  0.50111200  0.50111200  0.50111200  1
  Sb  Sb5  1  0.14630100  0.14630100  0.14630100  1
  P  P6  1  0.94715000  0.25072500  0.55675100  1
  P  P7  1  0.55675100  0.94715000  0.25072500  1
  P  P8  1  0.73906200  0.46455300  0.04383800  1
  P  P9  1  0.46455300  0.04383800  0.73906200  1
  P  P10  1  0.04383800  0.73906200  0.46455300  1
  P  P11  1  0.25072500  0.55675100  0.94715000  1
  O  O12  1  0.88965600  0.66104900  0.52401100  1
  O  O13  1  0.66104900  0.52401100  0.88965600  1
  O  O14  1  0.93762700  0.09237500  0.74861300  1
  O  O15  1  0.52401100  0.88965600  0.66104900  1
  O  O16  1  0.96467900  0.18660900  0.41159400  1
  O  O17  1  0.75631000  0.41256400  0.57679600  1
  O  O18  1  0.74861300  0.93762700  0.09237500  1
  O  O19  1  0.57679600  0.75631000  0.41256400  1
  O  O20  1  0.81324900  0.61681500  0.00116700  1
  O  O21  1  0.41256400  0.57679600  0.75631000  1
  O  O22  1  0.88964300  0.27088700  0.04546500  1
  O  O23  1  0.61681500  0.00116700  0.81324900  1
  O  O24  1  0.41159400  0.96467900  0.18660900  1
  O  O25  1  0.09237500  0.74861300  0.93762700  1
  O  O26  1  0.58284500  0.45037700  0.23828500  1
  O  O27  1  0.18660900  0.41159400  0.96467900  1
  O  O28  1  0.45037700  0.23828500  0.58284500  1
  O  O29  1  0.27088700  0.04546500  0.88964300  1
  O  O30  1  0.23828500  0.58284500  0.45037700  1
  O  O31  1  0.00116700  0.81324900  0.61681500  1
  O  O32  1  0.49796200  0.11642100  0.30993900  1
  O  O33  1  0.04546500  0.88964300  0.27088700  1
  O  O34  1  0.30993900  0.49796200  0.11642100  1
  O  O35  1  0.11642100  0.30993900  0.49796200  1
