# generated using pymatgen
data_Al2OsRu
_symmetry_space_group_name_H-M   'P 1'
_cell_length_a   11.15856380
_cell_length_b   11.15856380
_cell_length_c   11.15856380
_cell_angle_alpha   128.35870518
_cell_angle_beta   119.21833542
_cell_angle_gamma   83.75836365
_symmetry_Int_Tables_number   1
_chemical_formula_structural   Al2OsRu
_chemical_formula_sum   'Al2 Os1 Ru1'
_cell_volume   911.77090813
_cell_formula_units_Z   1
loop_
 _symmetry_equiv_pos_site_id
 _symmetry_equiv_pos_as_xyz
  1  'x, y, z'
loop_
 _atom_site_type_symbol
 _atom_site_label
 _atom_site_symmetry_multiplicity
 _atom_site_fract_x
 _atom_site_fract_y
 _atom_site_fract_z
 _atom_site_occupancy
  Al  Al0  1  0.00000000  0.25000200  0.25000200  1
  Al  Al1  1  0.00000000  0.74999800  0.74999800  1
  Os  Os2  1  0.00000000  0.50000000  0.50000000  1
  Ru  Ru3  1  0.00000000  0.00000000  0.00000000  1
