# generated using pymatgen
data_Na2Co3O4
_symmetry_space_group_name_H-M   'P 1'
_cell_length_a   5.34502200
_cell_length_b   7.77077600
_cell_length_c   10.91854600
_cell_angle_alpha   90.00000000
_cell_angle_beta   90.00000000
_cell_angle_gamma   90.00000000
_symmetry_Int_Tables_number   1
_chemical_formula_structural   Na2Co3O4
_chemical_formula_sum   'Na8 Co12 O16'
_cell_volume   453.50146611
_cell_formula_units_Z   4
loop_
 _symmetry_equiv_pos_site_id
 _symmetry_equiv_pos_as_xyz
  1  'x, y, z'
loop_
 _atom_site_type_symbol
 _atom_site_label
 _atom_site_symmetry_multiplicity
 _atom_site_fract_x
 _atom_site_fract_y
 _atom_site_fract_z
 _atom_site_occupancy
  Na  Na0  1  0.00000000  0.00000000  0.00000000  1
  Na  Na1  1  0.00000000  0.50000000  0.00000000  1
  Na  Na2  1  0.51695500  0.75000000  0.02735600  1
  Na  Na3  1  0.01695500  0.25000000  0.47264400  1
  Na  Na4  1  0.50000000  0.00000000  0.50000000  1
  Na  Na5  1  0.50000000  0.50000000  0.50000000  1
  Na  Na6  1  0.98304500  0.75000000  0.52735600  1
  Na  Na7  1  0.48304500  0.25000000  0.97264400  1
  Co  Co8  1  0.80172300  0.25000000  0.20163300  1
  Co  Co9  1  0.85164800  0.58426700  0.26066200  1
  Co  Co10  1  0.85164800  0.91573300  0.26066200  1
  Co  Co11  1  0.35164800  0.08426700  0.23933800  1
  Co  Co12  1  0.35164800  0.41573300  0.23933800  1
  Co  Co13  1  0.30172300  0.75000000  0.29836700  1
  Co  Co14  1  0.69827700  0.25000000  0.70163300  1
  Co  Co15  1  0.64835200  0.58426700  0.76066200  1
  Co  Co16  1  0.64835200  0.91573300  0.76066200  1
  Co  Co17  1  0.14835200  0.08426700  0.73933800  1
  Co  Co18  1  0.14835200  0.41573300  0.73933800  1
  Co  Co19  1  0.19827700  0.75000000  0.79836700  1
  O  O20  1  0.64354100  0.47228600  0.13415200  1
  O  O21  1  0.64354100  0.02771400  0.13415200  1
  O  O22  1  0.07697300  0.75000000  0.15262200  1
  O  O23  1  0.14691100  0.25000000  0.14153500  1
  O  O24  1  0.64691100  0.75000000  0.35846500  1
  O  O25  1  0.57697300  0.25000000  0.34737800  1
  O  O26  1  0.14354100  0.52771400  0.36584800  1
  O  O27  1  0.14354100  0.97228600  0.36584800  1
  O  O28  1  0.85645900  0.02771400  0.63415200  1
  O  O29  1  0.85645900  0.47228600  0.63415200  1
  O  O30  1  0.42302700  0.75000000  0.65262200  1
  O  O31  1  0.35308900  0.25000000  0.64153500  1
  O  O32  1  0.85308900  0.75000000  0.85846500  1
  O  O33  1  0.92302700  0.25000000  0.84737800  1
  O  O34  1  0.35645900  0.52771400  0.86584800  1
  O  O35  1  0.35645900  0.97228600  0.86584800  1
