# generated using pymatgen
data_Ce(WO4)2
_symmetry_space_group_name_H-M   'P 1'
_cell_length_a   7.35574452
_cell_length_b   7.35574452
_cell_length_c   7.91400423
_cell_angle_alpha   63.75440439
_cell_angle_beta   63.75440439
_cell_angle_gamma   68.66419247
_symmetry_Int_Tables_number   1
_chemical_formula_structural   Ce(WO4)2
_chemical_formula_sum   'Ce2 W4 O16'
_cell_volume   336.84351293
_cell_formula_units_Z   2
loop_
 _symmetry_equiv_pos_site_id
 _symmetry_equiv_pos_as_xyz
  1  'x, y, z'
loop_
 _atom_site_type_symbol
 _atom_site_label
 _atom_site_symmetry_multiplicity
 _atom_site_fract_x
 _atom_site_fract_y
 _atom_site_fract_z
 _atom_site_occupancy
  Ce  Ce0  1  0.96509400  0.03490600  0.25000000  1
  Ce  Ce1  1  0.03490600  0.96509400  0.75000000  1
  W  W2  1  0.49350600  0.93889600  0.23170800  1
  W  W3  1  0.93889600  0.49350600  0.73170800  1
  W  W4  1  0.06110400  0.50649400  0.26829200  1
  W  W5  1  0.50649400  0.06110400  0.76829200  1
  O  O6  1  0.59048600  0.67389600  0.32471900  1
  O  O7  1  0.21959500  0.97818300  0.41506600  1
  O  O8  1  0.94944700  0.36033600  0.21402700  1
  O  O9  1  0.32397200  0.98778100  0.05930700  1
  O  O10  1  0.67389600  0.59048600  0.82471900  1
  O  O11  1  0.97818300  0.21959500  0.91506600  1
  O  O12  1  0.36033600  0.94944700  0.71402700  1
  O  O13  1  0.98778100  0.32397200  0.55930700  1
  O  O14  1  0.01221900  0.67602800  0.44069300  1
  O  O15  1  0.63966400  0.05055300  0.28597300  1
  O  O16  1  0.02181700  0.78040500  0.08493400  1
  O  O17  1  0.32610400  0.40951400  0.17528100  1
  O  O18  1  0.67602800  0.01221900  0.94069300  1
  O  O19  1  0.05055300  0.63966400  0.78597300  1
  O  O20  1  0.78040500  0.02181700  0.58493400  1
  O  O21  1  0.40951400  0.32610400  0.67528100  1
