# generated using pymatgen
data_CaHgPd2
_symmetry_space_group_name_H-M   'P 1'
_cell_length_a   11.75250768
_cell_length_b   11.75250768
_cell_length_c   11.75250768
_cell_angle_alpha   127.31512349
_cell_angle_beta   117.67047224
_cell_angle_gamma   85.95246685
_symmetry_Int_Tables_number   1
_chemical_formula_structural   CaHgPd2
_chemical_formula_sum   'Ca1 Hg1 Pd2'
_cell_volume   1090.89226841
_cell_formula_units_Z   1
loop_
 _symmetry_equiv_pos_site_id
 _symmetry_equiv_pos_as_xyz
  1  'x, y, z'
loop_
 _atom_site_type_symbol
 _atom_site_label
 _atom_site_symmetry_multiplicity
 _atom_site_fract_x
 _atom_site_fract_y
 _atom_site_fract_z
 _atom_site_occupancy
  Ca  Ca0  1  0.00000000  0.00000000  0.00000000  1
  Hg  Hg1  1  0.00000000  0.50000000  0.50000000  1
  Pd  Pd2  1  0.00000000  0.23934000  0.23934000  1
  Pd  Pd3  1  0.00000000  0.76066000  0.76066000  1
