# generated using pymatgen
data_Ti3FeNi2(PO4)6
_symmetry_space_group_name_H-M   'P 1'
_cell_length_a   8.49322578
_cell_length_b   8.49322578
_cell_length_c   8.49322625
_cell_angle_alpha   61.11989442
_cell_angle_beta   61.11989442
_cell_angle_gamma   61.11989115
_symmetry_Int_Tables_number   1
_chemical_formula_structural   Ti3FeNi2(PO4)6
_chemical_formula_sum   'Ti3 Fe1 Ni2 P6 O24'
_cell_volume   444.13368300
_cell_formula_units_Z   1
loop_
 _symmetry_equiv_pos_site_id
 _symmetry_equiv_pos_as_xyz
  1  'x, y, z'
loop_
 _atom_site_type_symbol
 _atom_site_label
 _atom_site_symmetry_multiplicity
 _atom_site_fract_x
 _atom_site_fract_y
 _atom_site_fract_z
 _atom_site_occupancy
  Ti  Ti0  1  0.14293800  0.14293800  0.14293800  1
  Ti  Ti1  1  0.35502000  0.35502000  0.35502000  1
  Ti  Ti2  1  0.64603300  0.64603300  0.64603300  1
  Fe  Fe3  1  0.85697000  0.85697000  0.85697000  1
  Ni  Ni4  1  0.99676000  0.99676000  0.99676000  1
  Ni  Ni5  1  0.49922900  0.49922900  0.49922900  1
  P  P6  1  0.95388500  0.54408700  0.25232600  1
  P  P7  1  0.25232600  0.95388500  0.54408700  1
  P  P8  1  0.54408700  0.25232600  0.95388500  1
  P  P9  1  0.45335900  0.75268900  0.04792500  1
  P  P10  1  0.75268900  0.04792500  0.45335900  1
  P  P11  1  0.04792500  0.45335900  0.75268900  1
  O  O12  1  0.48501300  0.33005300  0.11293300  1
  O  O13  1  0.11293300  0.48501300  0.33005300  1
  O  O14  1  0.25311000  0.91025200  0.05768800  1
  O  O15  1  0.33005300  0.11293300  0.48501300  1
  O  O16  1  0.60264500  0.81860700  0.01665600  1
  O  O17  1  0.43185600  0.58803800  0.24449400  1
  O  O18  1  0.91025200  0.05768800  0.25311000  1
  O  O19  1  0.58803800  0.24449400  0.43185600  1
  O  O20  1  0.00230000  0.38009500  0.18500800  1
  O  O21  1  0.24449400  0.43185600  0.58803800  1
  O  O22  1  0.94956600  0.73715500  0.09912600  1
  O  O23  1  0.18500800  0.00230000  0.38009500  1
  O  O24  1  0.81860700  0.01665600  0.60264500  1
  O  O25  1  0.05768800  0.25311000  0.91025200  1
  O  O26  1  0.75743200  0.55210700  0.41428700  1
  O  O27  1  0.01665600  0.60264500  0.81860700  1
  O  O28  1  0.41428700  0.75743200  0.55210700  1
  O  O29  1  0.09912600  0.94956600  0.73715500  1
  O  O30  1  0.55210700  0.41428700  0.75743200  1
  O  O31  1  0.38009500  0.18500800  0.00230000  1
  O  O32  1  0.68541100  0.88199100  0.50295700  1
  O  O33  1  0.73715500  0.09912600  0.94956600  1
  O  O34  1  0.88199100  0.50295700  0.68541100  1
  O  O35  1  0.50295700  0.68541100  0.88199100  1
