data_image0
_chemical_formula_structural       B80H64
_chemical_formula_sum              "B80 H64"
_cell_length_a       16.8038
_cell_length_b       16.8038
_cell_length_c       16.8038
_cell_angle_alpha    149.844
_cell_angle_beta     149.844
_cell_angle_gamma    43.171

_space_group_name_H-M_alt    "P 1"
_space_group_IT_number       1

loop_
  _space_group_symop_operation_xyz
  'x, y, z'

loop_
  _atom_site_type_symbol
  _atom_site_label
  _atom_site_symmetry_multiplicity
  _atom_site_fract_x
  _atom_site_fract_y
  _atom_site_fract_z
  _atom_site_occupancy
  B   B1        1.0  0.88500  0.11100  0.09170  1.0000
  B   B2        1.0  0.51900  0.79300  0.40800  1.0000
  B   B3        1.0  0.61500  0.70700  0.22600  1.0000
  B   B4        1.0  0.98100  0.38900  0.27400  1.0000
  B   B5        1.0  0.38900  0.61500  0.40800  1.0000
  B   B6        1.0  0.70700  0.98100  0.09170  1.0000
  B   B7        1.0  0.79300  0.88500  0.27400  1.0000
  B   B8        1.0  0.11100  0.51900  0.22600  1.0000
  B   B9        1.0  0.11500  0.88900  0.90800  1.0000
  B   B10       1.0  0.48100  0.20700  0.59200  1.0000
  B   B11       1.0  0.38500  0.29300  0.77400  1.0000
  B   B12       1.0  0.01910  0.61100  0.72600  1.0000
  B   B13       1.0  0.61100  0.38500  0.59200  1.0000
  B   B14       1.0  0.29300  0.01910  0.90800  1.0000
  B   B15       1.0  0.20700  0.11500  0.72600  1.0000
  B   B16       1.0  0.88900  0.48100  0.77400  1.0000
  B   B17       1.0  0.04660  0.91200  0.95900  1.0000
  B   B18       1.0  0.45300  0.08790  0.54100  1.0000
  B   B19       1.0  0.45300  0.41200  0.86500  1.0000
  B   B20       1.0  0.04690  0.58800  0.63500  1.0000
  B   B21       1.0  0.58800  0.45300  0.54100  1.0000
  B   B22       1.0  0.41200  0.04690  0.95900  1.0000
  B   B23       1.0  0.08790  0.04660  0.63500  1.0000
  B   B24       1.0  0.91200  0.45300  0.86500  1.0000
  B   B25       1.0  0.95300  0.08830  0.04140  1.0000
  B   B26       1.0  0.54700  0.91200  0.45900  1.0000
  B   B27       1.0  0.54700  0.58800  0.13500  1.0000
  B   B28       1.0  0.95300  0.41200  0.36500  1.0000
  B   B29       1.0  0.41200  0.54700  0.45900  1.0000
  B   B30       1.0  0.58800  0.95300  0.04140  1.0000
  B   B31       1.0  0.91200  0.95300  0.36500  1.0000
  B   B32       1.0  0.08830  0.54700  0.13500  1.0000
  B   B33       1.0  0.91100  0.93300  0.01160  1.0000
  B   B34       1.0  0.42100  0.89900  0.48800  1.0000
  B   B35       1.0  0.58900  0.60100  0.02210  1.0000
  B   B36       1.0  0.07880  0.56700  0.47800  1.0000
  B   B37       1.0  0.56700  0.58900  0.48800  1.0000
  B   B38       1.0  0.60100  0.07880  0.01160  1.0000
  B   B39       1.0  0.89900  0.91100  0.47800  1.0000
  B   B40       1.0  0.93300  0.42100  0.02210  1.0000
  B   B41       1.0  0.08920  0.06710  0.98800  1.0000
  B   B42       1.0  0.57900  0.10100  0.51200  1.0000
  B   B43       1.0  0.41100  0.39900  0.97800  1.0000
  B   B44       1.0  0.92100  0.43300  0.52200  1.0000
  B   B45       1.0  0.43300  0.41100  0.51200  1.0000
  B   B46       1.0  0.39900  0.92100  0.98800  1.0000
  B   B47       1.0  0.10100  0.08920  0.52200  1.0000
  B   B48       1.0  0.06710  0.57900  0.97800  1.0000
  B   B49       1.0  0.98700  0.81000  0.90400  1.0000
  B   B50       1.0  0.40600  0.08330  0.59600  1.0000
  B   B51       1.0  0.51300  0.41700  0.82300  1.0000
  B   B52       1.0  0.09410  0.69000  0.67700  1.0000
  B   B53       1.0  0.69000  0.51300  0.59600  1.0000
  B   B54       1.0  0.41700  0.09410  0.90400  1.0000
  B   B55       1.0  0.08330  0.98700  0.67700  1.0000
  B   B56       1.0  0.81000  0.40600  0.82300  1.0000
  B   B57       1.0  0.01310  0.19000  0.09640  1.0000
  B   B58       1.0  0.59400  0.91700  0.40400  1.0000
  B   B59       1.0  0.48700  0.58300  0.17700  1.0000
  B   B60       1.0  0.90600  0.31000  0.32300  1.0000
  B   B61       1.0  0.31000  0.48700  0.40400  1.0000
  B   B62       1.0  0.58300  0.90600  0.09640  1.0000
  B   B63       1.0  0.91700  0.01310  0.32300  1.0000
  B   B64       1.0  0.19000  0.59400  0.17700  1.0000
  B   B65       1.0  0.05960  0.01100  0.14600  1.0000
  B   B66       1.0  0.36500  0.91300  0.35400  1.0000
  B   B67       1.0  0.44000  0.58700  0.95100  1.0000
  B   B68       1.0  0.13500  0.48900  0.54900  1.0000
  B   B69       1.0  0.48900  0.44000  0.35400  1.0000
  B   B70       1.0  0.58700  0.13500  0.14600  1.0000
  B   B71       1.0  0.91300  0.05960  0.54900  1.0000
  B   B72       1.0  0.01100  0.36500  0.95100  1.0000
  B   B73       1.0  0.94000  0.98900  0.85400  1.0000
  B   B74       1.0  0.63500  0.08660  0.64600  1.0000
  B   B75       1.0  0.56000  0.41300  0.04870  1.0000
  B   B76       1.0  0.86500  0.51100  0.45100  1.0000
  B   B77       1.0  0.51100  0.56000  0.64600  1.0000
  B   B78       1.0  0.41300  0.86500  0.85400  1.0000
  B   B79       1.0  0.08660  0.94000  0.45100  1.0000
  B   B80       1.0  0.98900  0.63500  0.04870  1.0000
  H   H1        1.0  0.05400  0.68700  0.89000  1.0000
  H   H2        1.0  0.29700  0.16400  0.61000  1.0000
  H   H3        1.0  0.44600  0.33600  0.63300  1.0000
  H   H4        1.0  0.20300  0.81300  0.86700  1.0000
  H   H5        1.0  0.81300  0.44600  0.61000  1.0000
  H   H6        1.0  0.33600  0.20300  0.89000  1.0000
  H   H7        1.0  0.16400  0.05400  0.86700  1.0000
  H   H8        1.0  0.68700  0.29700  0.63300  1.0000
  H   H9        1.0  0.94600  0.31300  0.11000  1.0000
  H   H10       1.0  0.70300  0.83600  0.39000  1.0000
  H   H11       1.0  0.55400  0.66400  0.36700  1.0000
  H   H12       1.0  0.79700  0.18700  0.13300  1.0000
  H   H13       1.0  0.18700  0.55400  0.39000  1.0000
  H   H14       1.0  0.66400  0.79700  0.11000  1.0000
  H   H15       1.0  0.83600  0.94600  0.13300  1.0000
  H   H16       1.0  0.31300  0.70300  0.36700  1.0000
  H   H17       1.0  0.17200  0.07720  0.33200  1.0000
  H   H18       1.0  0.24500  0.84000  0.16800  1.0000
  H   H19       1.0  0.32800  0.66000  0.90500  1.0000
  H   H20       1.0  0.25500  0.42300  0.59500  1.0000
  H   H21       1.0  0.42300  0.32800  0.16800  1.0000
  H   H22       1.0  0.66000  0.25500  0.33200  1.0000
  H   H23       1.0  0.84000  0.17200  0.59500  1.0000
  H   H24       1.0  0.07720  0.24500  0.90500  1.0000
  H   H25       1.0  0.82800  0.92300  0.66800  1.0000
  H   H26       1.0  0.75500  0.16000  0.83200  1.0000
  H   H27       1.0  0.67200  0.34000  0.09480  1.0000
  H   H28       1.0  0.74500  0.57700  0.40500  1.0000
  H   H29       1.0  0.57700  0.67200  0.83200  1.0000
  H   H30       1.0  0.34000  0.74500  0.66800  1.0000
  H   H31       1.0  0.16000  0.82800  0.40500  1.0000
  H   H32       1.0  0.92300  0.75500  0.09480  1.0000
  H   H33       1.0  0.89700  0.90600  0.04560  1.0000
  H   H34       1.0  0.36000  0.85100  0.45400  1.0000
  H   H35       1.0  0.60300  0.64900  0.00933  1.0000
  H   H36       1.0  0.14000  0.59400  0.49100  1.0000
  H   H37       1.0  0.59400  0.60300  0.45400  1.0000
  H   H38       1.0  0.64900  0.14000  0.04560  1.0000
  H   H39       1.0  0.85100  0.89700  0.49100  1.0000
  H   H40       1.0  0.90600  0.36000  0.00933  1.0000
  H   H41       1.0  0.10300  0.09400  0.95400  1.0000
  H   H42       1.0  0.64000  0.14900  0.54600  1.0000
  H   H43       1.0  0.39700  0.35100  0.99100  1.0000
  H   H44       1.0  0.86000  0.40600  0.50900  1.0000
  H   H45       1.0  0.40600  0.39700  0.54600  1.0000
  H   H46       1.0  0.35100  0.86000  0.95400  1.0000
  H   H47       1.0  0.14900  0.10300  0.50900  1.0000
  H   H48       1.0  0.09400  0.64000  0.99100  1.0000
  H   H49       1.0  0.01590  0.31700  0.48200  1.0000
  H   H50       1.0  0.33500  0.53400  0.01770  1.0000
  H   H51       1.0  0.48400  0.96600  0.30100  1.0000
  H   H52       1.0  0.16500  0.18300  0.19900  1.0000
  H   H53       1.0  0.18300  0.48400  0.01770  1.0000
  H   H54       1.0  0.96600  0.16500  0.48200  1.0000
  H   H55       1.0  0.53400  0.01590  0.19900  1.0000
  H   H56       1.0  0.31700  0.33500  0.30100  1.0000
  H   H57       1.0  0.98400  0.68300  0.51800  1.0000
  H   H58       1.0  0.66500  0.46600  0.98200  1.0000
  H   H59       1.0  0.51600  0.03370  0.69900  1.0000
  H   H60       1.0  0.83500  0.81700  0.80100  1.0000
  H   H61       1.0  0.81700  0.51600  0.98200  1.0000
  H   H62       1.0  0.03370  0.83500  0.51800  1.0000
  H   H63       1.0  0.46600  0.98400  0.80100  1.0000
  H   H64       1.0  0.68300  0.66500  0.69900  1.0000
