# generated using pymatgen
data_Ce(IO3)2
_symmetry_space_group_name_H-M   'P 1'
_cell_length_a   11.50103400
_cell_length_b   7.13053200
_cell_length_c   8.95163878
_cell_angle_alpha   52.29563291
_cell_angle_beta   90.00000000
_cell_angle_gamma   90.00000000
_symmetry_Int_Tables_number   1
_chemical_formula_structural   Ce(IO3)2
_chemical_formula_sum   'Ce4 I8 O24'
_cell_volume   580.81119585
_cell_formula_units_Z   4
loop_
 _symmetry_equiv_pos_site_id
 _symmetry_equiv_pos_as_xyz
  1  'x, y, z'
loop_
 _atom_site_type_symbol
 _atom_site_label
 _atom_site_symmetry_multiplicity
 _atom_site_fract_x
 _atom_site_fract_y
 _atom_site_fract_z
 _atom_site_occupancy
  Ce  Ce0  1  0.93554300  0.21747600  0.78262300  1
  Ce  Ce1  1  0.43554300  0.78252400  0.71737700  1
  Ce  Ce2  1  0.56445700  0.21747600  0.28262300  1
  Ce  Ce3  1  0.06445700  0.78252400  0.21737700  1
  I  I4  1  0.10368000  0.78150700  0.68109300  1
  I  I5  1  0.60368000  0.21849300  0.81890700  1
  I  I6  1  0.25345300  0.27739000  0.67590200  1
  I  I7  1  0.75345300  0.72261000  0.82409800  1
  I  I8  1  0.24654700  0.27739000  0.17590200  1
  I  I9  1  0.74654700  0.72261000  0.32409800  1
  I  I10  1  0.39632000  0.78150700  0.18109300  1
  I  I11  1  0.89632000  0.21849300  0.31890700  1
  O  O12  1  0.10615100  0.39947700  0.55724100  1
  O  O13  1  0.49750100  0.45905900  0.72083800  1
  O  O14  1  0.91732000  0.07089000  0.57545500  1
  O  O15  1  0.73878500  0.38447200  0.78647100  1
  O  O16  1  0.23878500  0.61552800  0.71352900  1
  O  O17  1  0.54926700  0.07042000  0.58318700  1
  O  O18  1  0.99750100  0.54094100  0.77916200  1
  O  O19  1  0.26828000  0.04580300  0.63152400  1
  O  O20  1  0.76828000  0.95419700  0.86847600  1
  O  O21  1  0.39384900  0.39947700  0.05724100  1
  O  O22  1  0.04926700  0.92958000  0.91681300  1
  O  O23  1  0.58268000  0.07089000  0.07545500  1
  O  O24  1  0.41732000  0.92911000  0.92454500  1
  O  O25  1  0.95073300  0.07042000  0.08318700  1
  O  O26  1  0.60615100  0.60052300  0.94275900  1
  O  O27  1  0.23172000  0.04580300  0.13152400  1
  O  O28  1  0.73172000  0.95419700  0.36847600  1
  O  O29  1  0.00249900  0.45905900  0.22083800  1
  O  O30  1  0.45073300  0.92958000  0.41681300  1
  O  O31  1  0.76121500  0.38447200  0.28647100  1
  O  O32  1  0.26121500  0.61552800  0.21352900  1
  O  O33  1  0.08268000  0.92911000  0.42454500  1
  O  O34  1  0.50249900  0.54094100  0.27916200  1
  O  O35  1  0.89384900  0.60052300  0.44275900  1
