# generated using pymatgen
data_Co2OF3
_symmetry_space_group_name_H-M   'P 1'
_cell_length_a   4.67680914
_cell_length_b   4.67680914
_cell_length_c   15.90124200
_cell_angle_alpha   90.00000000
_cell_angle_beta   90.00000000
_cell_angle_gamma   93.40981506
_symmetry_Int_Tables_number   1
_chemical_formula_structural   Co2OF3
_chemical_formula_sum   'Co10 O5 F15'
_cell_volume   347.18488398
_cell_formula_units_Z   5
loop_
 _symmetry_equiv_pos_site_id
 _symmetry_equiv_pos_as_xyz
  1  'x, y, z'
loop_
 _atom_site_type_symbol
 _atom_site_label
 _atom_site_symmetry_multiplicity
 _atom_site_fract_x
 _atom_site_fract_y
 _atom_site_fract_z
 _atom_site_occupancy
  Co  Co0  1  0.97598300  0.97598300  0.89984500  1
  Co  Co1  1  0.97598300  0.97598300  0.10015500  1
  Co  Co2  1  0.02457600  0.02457600  0.29986700  1
  Co  Co3  1  0.01768800  0.01768800  0.50000000  1
  Co  Co4  1  0.02457600  0.02457600  0.70013300  1
  Co  Co5  1  0.52006500  0.52006500  0.00000000  1
  Co  Co6  1  0.48069700  0.48069700  0.39989100  1
  Co  Co7  1  0.50006800  0.50006800  0.20001100  1
  Co  Co8  1  0.50006800  0.50006800  0.79998900  1
  Co  Co9  1  0.48069700  0.48069700  0.60010900  1
  O  O10  1  0.29649400  0.29649400  0.50000000  1
  O  O11  1  0.30213100  0.30213100  0.70215000  1
  O  O12  1  0.30213100  0.30213100  0.29785000  1
  O  O13  1  0.69826600  0.69826600  0.89788100  1
  O  O14  1  0.69826600  0.69826600  0.10211900  1
  F  F15  1  0.80600600  0.19514100  0.00000000  1
  F  F16  1  0.80363500  0.19296400  0.39981500  1
  F  F17  1  0.80606400  0.19438200  0.20004600  1
  F  F18  1  0.80363500  0.19296400  0.60018500  1
  F  F19  1  0.80606400  0.19438200  0.79995400  1
  F  F20  1  0.28896900  0.28896900  0.90162300  1
  F  F21  1  0.28896900  0.28896900  0.09837700  1
  F  F22  1  0.71134900  0.71134900  0.30170300  1
  F  F23  1  0.70643300  0.70643300  0.50000000  1
  F  F24  1  0.71134900  0.71134900  0.69829700  1
  F  F25  1  0.19514100  0.80600600  0.00000000  1
  F  F26  1  0.19296400  0.80363500  0.39981500  1
  F  F27  1  0.19438200  0.80606400  0.20004600  1
  F  F28  1  0.19438200  0.80606400  0.79995400  1
  F  F29  1  0.19296400  0.80363500  0.60018500  1
