# generated using pymatgen
data_Zr2CoRe
_symmetry_space_group_name_H-M   'P 1'
_cell_length_a   10.48870798
_cell_length_b   10.48870798
_cell_length_c   10.48870798
_cell_angle_alpha   127.23644927
_cell_angle_beta   116.37827993
_cell_angle_gamma   87.16836101
_symmetry_Int_Tables_number   1
_chemical_formula_structural   Zr2CoRe
_chemical_formula_sum   'Zr2 Co1 Re1'
_cell_volume   783.09441434
_cell_formula_units_Z   1
loop_
 _symmetry_equiv_pos_site_id
 _symmetry_equiv_pos_as_xyz
  1  'x, y, z'
loop_
 _atom_site_type_symbol
 _atom_site_label
 _atom_site_symmetry_multiplicity
 _atom_site_fract_x
 _atom_site_fract_y
 _atom_site_fract_z
 _atom_site_occupancy
  Zr  Zr0  1  0.00000000  0.24580600  0.24580600  1
  Zr  Zr1  1  0.00000000  0.75419400  0.75419400  1
  Co  Co2  1  0.00000000  0.00000000  0.00000000  1
  Re  Re3  1  0.00000000  0.50000000  0.50000000  1
