# generated using pymatgen
data_ZrBeRh2
_symmetry_space_group_name_H-M   'P 1'
_cell_length_a   10.55732066
_cell_length_b   10.55732066
_cell_length_c   10.55732066
_cell_angle_alpha   129.76000311
_cell_angle_beta   116.96181704
_cell_angle_gamma   84.66551709
_symmetry_Int_Tables_number   1
_chemical_formula_structural   ZrBeRh2
_chemical_formula_sum   'Zr1 Be1 Rh2'
_cell_volume   772.19130526
_cell_formula_units_Z   1
loop_
 _symmetry_equiv_pos_site_id
 _symmetry_equiv_pos_as_xyz
  1  'x, y, z'
loop_
 _atom_site_type_symbol
 _atom_site_label
 _atom_site_symmetry_multiplicity
 _atom_site_fract_x
 _atom_site_fract_y
 _atom_site_fract_z
 _atom_site_occupancy
  Zr  Zr0  1  0.00000000  0.50000000  0.50000000  1
  Be  Be1  1  0.00000000  0.00000000  0.00000000  1
  Rh  Rh2  1  0.00000000  0.24939100  0.24939100  1
  Rh  Rh3  1  0.00000000  0.75060900  0.75060900  1
