# generated using pymatgen
data_Mg4N6O19
_symmetry_space_group_name_H-M   'P 1'
_cell_length_a   14.82682156
_cell_length_b   14.82682156
_cell_length_c   7.08602300
_cell_angle_alpha   90.00000000
_cell_angle_beta   90.00000000
_cell_angle_gamma   119.99999803
_symmetry_Int_Tables_number   1
_chemical_formula_structural   Mg4N6O19
_chemical_formula_sum   'Mg12 N18 O57'
_cell_volume   1349.05395548
_cell_formula_units_Z   3
loop_
 _symmetry_equiv_pos_site_id
 _symmetry_equiv_pos_as_xyz
  1  'x, y, z'
loop_
 _atom_site_type_symbol
 _atom_site_label
 _atom_site_symmetry_multiplicity
 _atom_site_fract_x
 _atom_site_fract_y
 _atom_site_fract_z
 _atom_site_occupancy
  Mg  Mg0  1  0.52244600  0.27929200  0.52083900  1
  Mg  Mg1  1  0.66666700  0.33333300  0.16153100  1
  Mg  Mg2  1  0.33333300  0.66666700  0.87480300  1
  Mg  Mg3  1  0.75684600  0.47755400  0.52083900  1
  Mg  Mg4  1  0.46986100  0.77627400  0.51411900  1
  Mg  Mg5  1  0.72070800  0.24315400  0.52083900  1
  Mg  Mg6  1  0.86194400  0.89262200  0.34357300  1
  Mg  Mg7  1  0.03067800  0.13805600  0.34357300  1
  Mg  Mg8  1  0.00000000  0.00000000  0.98427000  1
  Mg  Mg9  1  0.30641300  0.53013900  0.51411900  1
  Mg  Mg10  1  0.10737800  0.96932200  0.34357300  1
  Mg  Mg11  1  0.22372600  0.69358700  0.51411900  1
  N  N12  1  0.51220500  0.62124300  0.32117600  1
  N  N13  1  0.44293400  0.23845300  0.12979800  1
  N  N14  1  0.57835300  0.47653700  0.71120100  1
  N  N15  1  0.37875700  0.89096200  0.32117600  1
  N  N16  1  0.52346300  0.10181500  0.71120100  1
  N  N17  1  0.79552000  0.55706600  0.12979800  1
  N  N18  1  0.54083700  0.84944400  0.90698600  1
  N  N19  1  0.76154700  0.20448000  0.12979800  1
  N  N20  1  0.89818500  0.42164700  0.71120100  1
  N  N21  1  0.82531100  0.04962400  0.53814700  1
  N  N22  1  0.10903800  0.48779500  0.32117600  1
  N  N23  1  0.78998900  0.82018500  0.95169900  1
  N  N24  1  0.03019700  0.21001100  0.95169900  1
  N  N25  1  0.95037600  0.77568700  0.53814700  1
  N  N26  1  0.30860700  0.45916300  0.90698600  1
  N  N27  1  0.22431300  0.17468900  0.53814700  1
  N  N28  1  0.17981500  0.96980300  0.95169900  1
  N  N29  1  0.15055600  0.69139300  0.90698600  1
  O  O30  1  0.36048500  0.55526500  0.96427400  1
  O  O31  1  0.44073700  0.54685800  0.42099400  1
  O  O32  1  0.57584000  0.60921700  0.23353800  1
  O  O33  1  0.36071600  0.19724800  0.04449000  1
  O  O34  1  0.54666600  0.52463900  0.80168900  1
  O  O35  1  0.45537900  0.29136000  0.28297800  1
  O  O36  1  0.53573100  0.37615200  0.72842300  1
  O  O37  1  0.65520900  0.52278600  0.59433800  1
  O  O38  1  0.47721400  0.13242300  0.59433800  1
  O  O39  1  0.39078300  0.96662200  0.23353800  1
  O  O40  1  0.52233400  0.23208900  0.07065700  1
  O  O41  1  0.47536100  0.02202700  0.80168900  1
  O  O42  1  0.70975500  0.47766600  0.07065700  1
  O  O43  1  0.66666700  0.33333300  0.43559500  1
  O  O44  1  0.33333300  0.66666700  0.59928500  1
  O  O45  1  0.83653200  0.63928400  0.04449000  1
  O  O46  1  0.45314200  0.89387900  0.42099400  1
  O  O47  1  0.44473500  0.80522100  0.96427400  1
  O  O48  1  0.62384800  0.15957900  0.72842300  1
  O  O49  1  0.83598100  0.54462100  0.28297800  1
  O  O50  1  0.84042100  0.46426900  0.72842300  1
  O  O51  1  0.76791100  0.29024500  0.07065700  1
  O  O52  1  0.70864000  0.16401900  0.28297800  1
  O  O53  1  0.55811300  0.82090200  0.74445300  1
  O  O54  1  0.51367900  0.70975900  0.31754700  1
  O  O55  1  0.61131000  0.91413700  0.00315100  1
  O  O56  1  0.86757700  0.34479100  0.59433800  1
  O  O57  1  0.80275200  0.16346800  0.04449000  1
  O  O58  1  0.97797300  0.45333400  0.80168900  1
  O  O59  1  0.76526300  0.06611300  0.62973300  1
  O  O60  1  0.03337800  0.42416000  0.23353800  1
  O  O61  1  0.10612100  0.55926300  0.42099400  1
  O  O62  1  0.71950800  0.75642700  0.85619400  1
  O  O63  1  0.89521700  0.12071300  0.43188000  1
  O  O64  1  0.82029200  0.95976500  0.54491300  1
  O  O65  1  0.77363900  0.85012200  0.11396800  1
  O  O66  1  0.19477900  0.63951500  0.96427400  1
  O  O67  1  0.03691900  0.28049200  0.85619400  1
  O  O68  1  0.97662200  0.11354200  0.89517700  1
  O  O69  1  0.88645800  0.86308000  0.89517700  1
  O  O70  1  0.07648300  0.22636100  0.11396800  1
  O  O71  1  0.19608000  0.48632100  0.31754700  1
  O  O72  1  0.87928700  0.77450400  0.43188000  1
  O  O73  1  0.00000000  0.00000000  0.26001900  1
  O  O74  1  0.13947300  0.17970800  0.54491300  1
  O  O75  1  0.26278900  0.44188700  0.74445300  1
  O  O76  1  0.93388700  0.69915100  0.62973300  1
  O  O77  1  0.30282600  0.38869000  0.00315100  1
  O  O78  1  0.13692000  0.02337800  0.89517700  1
  O  O79  1  0.04023500  0.86052700  0.54491300  1
  O  O80  1  0.22549600  0.10478300  0.43188000  1
  O  O81  1  0.30084900  0.23473700  0.62973300  1
  O  O82  1  0.14987800  0.92351700  0.11396800  1
  O  O83  1  0.08586300  0.69717400  0.00315100  1
  O  O84  1  0.24357300  0.96308100  0.85619400  1
  O  O85  1  0.17909800  0.73721100  0.74445300  1
  O  O86  1  0.29024100  0.80392000  0.31754700  1
