# generated using pymatgen
data_In3NO3
_symmetry_space_group_name_H-M   'P 1'
_cell_length_a   6.59776632
_cell_length_b   6.59776632
_cell_length_c   6.59776551
_cell_angle_alpha   59.32398050
_cell_angle_beta   59.32398050
_cell_angle_gamma   59.32398327
_symmetry_Int_Tables_number   1
_chemical_formula_structural   In3NO3
_chemical_formula_sum   'In6 N2 O6'
_cell_volume   199.95838950
_cell_formula_units_Z   2
loop_
 _symmetry_equiv_pos_site_id
 _symmetry_equiv_pos_as_xyz
  1  'x, y, z'
loop_
 _atom_site_type_symbol
 _atom_site_label
 _atom_site_symmetry_multiplicity
 _atom_site_fract_x
 _atom_site_fract_y
 _atom_site_fract_z
 _atom_site_occupancy
  In  In0  1  0.50000000  0.00000000  0.50000000  1
  In  In1  1  0.86489500  0.86489500  0.86489500  1
  In  In2  1  0.50000000  0.50000000  0.50000000  1
  In  In3  1  0.13510500  0.13510500  0.13510500  1
  In  In4  1  0.50000000  0.50000000  0.00000000  1
  In  In5  1  0.00000000  0.50000000  0.50000000  1
  N  N6  1  0.73373200  0.73373200  0.73373200  1
  N  N7  1  0.26626800  0.26626800  0.26626800  1
  O  O8  1  0.73281900  0.26055500  0.26055500  1
  O  O9  1  0.26055500  0.26055500  0.73281900  1
  O  O10  1  0.73944500  0.26718100  0.73944500  1
  O  O11  1  0.73944500  0.73944500  0.26718100  1
  O  O12  1  0.26718100  0.73944500  0.73944500  1
  O  O13  1  0.26055500  0.73281900  0.26055500  1
