# generated using pymatgen
data_Rb3DyO3
_symmetry_space_group_name_H-M   'P 1'
_cell_length_a   7.39395700
_cell_length_b   8.01509900
_cell_length_c   11.76353604
_cell_angle_alpha   85.98267563
_cell_angle_beta   90.00000000
_cell_angle_gamma   90.00000000
_symmetry_Int_Tables_number   1
_chemical_formula_structural   Rb3DyO3
_chemical_formula_sum   'Rb12 Dy4 O12'
_cell_volume   695.43298559
_cell_formula_units_Z   4
loop_
 _symmetry_equiv_pos_site_id
 _symmetry_equiv_pos_as_xyz
  1  'x, y, z'
loop_
 _atom_site_type_symbol
 _atom_site_label
 _atom_site_symmetry_multiplicity
 _atom_site_fract_x
 _atom_site_fract_y
 _atom_site_fract_z
 _atom_site_occupancy
  Rb  Rb0  1  0.33191600  0.35819000  0.07932000  1
  Rb  Rb1  1  0.62159500  0.93055400  0.15525400  1
  Rb  Rb2  1  0.80384300  0.37565700  0.19232800  1
  Rb  Rb3  1  0.30384300  0.62434300  0.30767200  1
  Rb  Rb4  1  0.12159500  0.06944600  0.34474600  1
  Rb  Rb5  1  0.83191600  0.64181000  0.42068000  1
  Rb  Rb6  1  0.16808400  0.35819000  0.57932000  1
  Rb  Rb7  1  0.87840500  0.93055400  0.65525400  1
  Rb  Rb8  1  0.69615700  0.37565700  0.69232800  1
  Rb  Rb9  1  0.19615700  0.62434300  0.80767200  1
  Rb  Rb10  1  0.37840500  0.06944600  0.84474600  1
  Rb  Rb11  1  0.66808400  0.64181000  0.92068000  1
  Dy  Dy12  1  0.08944400  0.83782200  0.06747900  1
  Dy  Dy13  1  0.58944400  0.16217800  0.43252100  1
  Dy  Dy14  1  0.41055600  0.83782200  0.56747900  1
  Dy  Dy15  1  0.91055600  0.16217800  0.93252100  1
  O  O16  1  0.35612100  0.74624500  0.04349200  1
  O  O17  1  0.05075500  0.10701400  0.09642300  1
  O  O18  1  0.94113300  0.68862500  0.18917300  1
  O  O19  1  0.44113300  0.31137500  0.31082700  1
  O  O20  1  0.55075500  0.89298600  0.40357700  1
  O  O21  1  0.85612100  0.25375500  0.45650800  1
  O  O22  1  0.14387900  0.74624500  0.54349200  1
  O  O23  1  0.44924500  0.10701400  0.59642300  1
  O  O24  1  0.55886700  0.68862500  0.68917300  1
  O  O25  1  0.05886700  0.31137500  0.81082700  1
  O  O26  1  0.94924500  0.89298600  0.90357700  1
  O  O27  1  0.64387900  0.25375500  0.95650800  1
