# generated using pymatgen
data_DyP5O14
_symmetry_space_group_name_H-M   'P 1'
_cell_length_a   8.97147000
_cell_length_b   8.76979600
_cell_length_c   13.01941393
_cell_angle_alpha   89.40376505
_cell_angle_beta   90.00000000
_cell_angle_gamma   90.00000000
_symmetry_Int_Tables_number   1
_chemical_formula_structural   DyP5O14
_chemical_formula_sum   'Dy4 P20 O56'
_cell_volume   1024.28548835
_cell_formula_units_Z   4
loop_
 _symmetry_equiv_pos_site_id
 _symmetry_equiv_pos_as_xyz
  1  'x, y, z'
loop_
 _atom_site_type_symbol
 _atom_site_label
 _atom_site_symmetry_multiplicity
 _atom_site_fract_x
 _atom_site_fract_y
 _atom_site_fract_z
 _atom_site_occupancy
  Dy  Dy0  1  0.81399200  0.77799200  0.50158100  1
  Dy  Dy1  1  0.68600800  0.77799200  0.00158100  1
  Dy  Dy2  1  0.31399200  0.22200800  0.99841900  1
  Dy  Dy3  1  0.18600800  0.22200800  0.49841900  1
  P  P4  1  0.00749800  0.99070100  0.70314200  1
  P  P5  1  0.49250200  0.99070100  0.20314200  1
  P  P6  1  0.25672200  0.81546100  0.99976600  1
  P  P7  1  0.24327800  0.81546100  0.49976600  1
  P  P8  1  0.45508500  0.74598800  0.66314600  1
  P  P9  1  0.04491500  0.74598800  0.16314600  1
  P  P10  1  0.04937900  0.72374000  0.83822500  1
  P  P11  1  0.45062100  0.72374000  0.33822500  1
  P  P12  1  0.50275200  0.50754000  0.82730700  1
  P  P13  1  0.99724800  0.50754000  0.32730700  1
  P  P14  1  0.00275200  0.49246000  0.67269300  1
  P  P15  1  0.49724800  0.49246000  0.17269300  1
  P  P16  1  0.54937900  0.27626000  0.66177500  1
  P  P17  1  0.95062100  0.27626000  0.16177500  1
  P  P18  1  0.95508500  0.25401200  0.83685400  1
  P  P19  1  0.54491500  0.25401200  0.33685400  1
  P  P20  1  0.75672200  0.18453900  0.50023400  1
  P  P21  1  0.74327800  0.18453900  0.00023400  1
  P  P22  1  0.50749800  0.00929900  0.79685800  1
  P  P23  1  0.99250200  0.00929900  0.29685800  1
  O  O24  1  0.18941200  0.97135400  0.99317600  1
  O  O25  1  0.31058800  0.97135400  0.49317600  1
  O  O26  1  0.61986000  0.91382200  0.85171800  1
  O  O27  1  0.88491600  0.91019500  0.64890100  1
  O  O28  1  0.43141600  0.91184200  0.70552700  1
  O  O29  1  0.88014000  0.91382200  0.35171800  1
  O  O30  1  0.61508400  0.91019500  0.14890100  1
  O  O31  1  0.06858400  0.91184200  0.20552700  1
  O  O32  1  0.09953300  0.86933200  0.77382100  1
  O  O33  1  0.40046700  0.86933200  0.27382100  1
  O  O34  1  0.42003800  0.78912100  0.99841900  1
  O  O35  1  0.07996200  0.78912100  0.49841900  1
  O  O36  1  0.90090500  0.72978500  0.88686300  1
  O  O37  1  0.59909500  0.72978500  0.38686300  1
  O  O38  1  0.30666600  0.72296600  0.60016400  1
  O  O39  1  0.59510300  0.71936700  0.60618200  1
  O  O40  1  0.19333400  0.72296600  0.10016400  1
  O  O41  1  0.90489700  0.71936700  0.10618200  1
  O  O42  1  0.18524700  0.70280000  0.91365000  1
  O  O43  1  0.31475300  0.70280000  0.41365000  1
  O  O44  1  0.41946700  0.63712800  0.75679200  1
  O  O45  1  0.08053300  0.63712800  0.25679200  1
  O  O46  1  0.08317200  0.58582500  0.76525500  1
  O  O47  1  0.88472300  0.58749000  0.62371500  1
  O  O48  1  0.62273000  0.58203900  0.88788800  1
  O  O49  1  0.41682800  0.58582500  0.26525500  1
  O  O50  1  0.61527700  0.58749000  0.12371500  1
  O  O51  1  0.87727000  0.58203900  0.38788800  1
  O  O52  1  0.12273000  0.41796100  0.61211200  1
  O  O53  1  0.38472300  0.41251000  0.87628500  1
  O  O54  1  0.58317200  0.41417500  0.73474500  1
  O  O55  1  0.37727000  0.41796100  0.11211200  1
  O  O56  1  0.11527700  0.41251000  0.37628500  1
  O  O57  1  0.91682800  0.41417500  0.23474500  1
  O  O58  1  0.91946700  0.36287200  0.74320800  1
  O  O59  1  0.58053300  0.36287200  0.24320800  1
  O  O60  1  0.68524700  0.29720000  0.58635000  1
  O  O61  1  0.81475300  0.29720000  0.08635000  1
  O  O62  1  0.09510300  0.28063300  0.89381800  1
  O  O63  1  0.80666600  0.27703400  0.89983600  1
  O  O64  1  0.40489700  0.28063300  0.39381800  1
  O  O65  1  0.69333400  0.27703400  0.39983600  1
  O  O66  1  0.40090500  0.27021500  0.61313700  1
  O  O67  1  0.09909500  0.27021500  0.11313700  1
  O  O68  1  0.92003800  0.21087900  0.50158100  1
  O  O69  1  0.57996200  0.21087900  0.00158100  1
  O  O70  1  0.59953300  0.13066800  0.72617900  1
  O  O71  1  0.90046700  0.13066800  0.22617900  1
  O  O72  1  0.93141600  0.08815800  0.79447300  1
  O  O73  1  0.38491600  0.08980500  0.85109900  1
  O  O74  1  0.11986000  0.08617800  0.64828200  1
  O  O75  1  0.56858400  0.08815800  0.29447300  1
  O  O76  1  0.11508400  0.08980500  0.35109900  1
  O  O77  1  0.38014000  0.08617800  0.14828200  1
  O  O78  1  0.68941200  0.02864600  0.50682400  1
  O  O79  1  0.81058800  0.02864600  0.00682400  1
