# generated using pymatgen
data_Tm3TaO7
_symmetry_space_group_name_H-M   'P 1'
_cell_length_a   6.38592374
_cell_length_b   6.38592431
_cell_length_c   7.42868000
_cell_angle_alpha   90.00000000
_cell_angle_beta   90.00000000
_cell_angle_gamma   110.19791223
_symmetry_Int_Tables_number   1
_chemical_formula_structural   Tm3TaO7
_chemical_formula_sum   'Tm6 Ta2 O14'
_cell_volume   284.31254040
_cell_formula_units_Z   2
loop_
 _symmetry_equiv_pos_site_id
 _symmetry_equiv_pos_as_xyz
  1  'x, y, z'
loop_
 _atom_site_type_symbol
 _atom_site_label
 _atom_site_symmetry_multiplicity
 _atom_site_fract_x
 _atom_site_fract_y
 _atom_site_fract_z
 _atom_site_occupancy
  Tm  Tm0  1  0.51404300  0.05247800  0.25000000  1
  Tm  Tm1  1  0.94752200  0.48595700  0.75000000  1
  Tm  Tm2  1  0.00000000  0.00000000  0.00000000  1
  Tm  Tm3  1  0.00000000  0.00000000  0.50000000  1
  Tm  Tm4  1  0.48595700  0.94752200  0.75000000  1
  Tm  Tm5  1  0.05247800  0.51404300  0.25000000  1
  Ta  Ta6  1  0.50000000  0.50000000  0.00000000  1
  Ta  Ta7  1  0.50000000  0.50000000  0.50000000  1
  O  O8  1  0.88659300  0.15297700  0.25000000  1
  O  O9  1  0.84702300  0.11340700  0.75000000  1
  O  O10  1  0.82483200  0.56362600  0.03666800  1
  O  O11  1  0.82483200  0.56362600  0.46333200  1
  O  O12  1  0.43637400  0.17516800  0.96333200  1
  O  O13  1  0.43637400  0.17516800  0.53666800  1
  O  O14  1  0.58598600  0.58598600  0.75000000  1
  O  O15  1  0.41401400  0.41401400  0.25000000  1
  O  O16  1  0.56362600  0.82483200  0.03666800  1
  O  O17  1  0.17516800  0.43637400  0.53666800  1
  O  O18  1  0.17516800  0.43637400  0.96333200  1
  O  O19  1  0.56362600  0.82483200  0.46333200  1
  O  O20  1  0.11340700  0.84702300  0.75000000  1
  O  O21  1  0.15297700  0.88659300  0.25000000  1
