# generated using pymatgen
data_MgZrPt2
_symmetry_space_group_name_H-M   'P 1'
_cell_length_a   10.85678346
_cell_length_b   10.85678346
_cell_length_c   10.85678346
_cell_angle_alpha   125.48702240
_cell_angle_beta   117.61968145
_cell_angle_gamma   87.47134865
_symmetry_Int_Tables_number   1
_chemical_formula_structural   MgZrPt2
_chemical_formula_sum   'Mg1 Zr1 Pt2'
_cell_volume   877.19089510
_cell_formula_units_Z   1
loop_
 _symmetry_equiv_pos_site_id
 _symmetry_equiv_pos_as_xyz
  1  'x, y, z'
loop_
 _atom_site_type_symbol
 _atom_site_label
 _atom_site_symmetry_multiplicity
 _atom_site_fract_x
 _atom_site_fract_y
 _atom_site_fract_z
 _atom_site_occupancy
  Mg  Mg0  1  0.00000000  0.00000000  0.00000000  1
  Zr  Zr1  1  0.00000000  0.50000000  0.50000000  1
  Pt  Pt2  1  0.00000000  0.26180700  0.26180700  1
  Pt  Pt3  1  0.00000000  0.73819300  0.73819300  1
