# generated using pymatgen
data_Be2P2O7
_symmetry_space_group_name_H-M   'P 1'
_cell_length_a   10.57355375
_cell_length_b   10.57355375
_cell_length_c   8.86750497
_cell_angle_alpha   82.56689585
_cell_angle_beta   82.56689585
_cell_angle_gamma   43.82964228
_symmetry_Int_Tables_number   1
_chemical_formula_structural   Be2P2O7
_chemical_formula_sum   'Be12 P12 O42'
_cell_volume   679.84439465
_cell_formula_units_Z   6
loop_
 _symmetry_equiv_pos_site_id
 _symmetry_equiv_pos_as_xyz
  1  'x, y, z'
loop_
 _atom_site_type_symbol
 _atom_site_label
 _atom_site_symmetry_multiplicity
 _atom_site_fract_x
 _atom_site_fract_y
 _atom_site_fract_z
 _atom_site_occupancy
  Be  Be0  1  0.85356700  0.22048500  0.95091200  1
  Be  Be1  1  0.70878100  0.57413500  0.87881200  1
  Be  Be2  1  0.49446400  0.92599600  0.77056800  1
  Be  Be3  1  0.07400400  0.50553600  0.72943200  1
  Be  Be4  1  0.42586500  0.29121900  0.62118800  1
  Be  Be5  1  0.77951500  0.14643300  0.54908800  1
  Be  Be6  1  0.22048500  0.85356700  0.45091200  1
  Be  Be7  1  0.57413500  0.70878100  0.37881200  1
  Be  Be8  1  0.92599600  0.49446400  0.27056800  1
  Be  Be9  1  0.50553600  0.07400400  0.22943200  1
  Be  Be10  1  0.29121900  0.42586500  0.12118800  1
  Be  Be11  1  0.14643300  0.77951500  0.04908800  1
  P  P12  1  0.93732600  0.85167600  0.80709500  1
  P  P13  1  0.26028400  0.22064200  0.97263800  1
  P  P14  1  0.47956100  0.40212800  0.86394800  1
  P  P15  1  0.59787200  0.52043900  0.63605200  1
  P  P16  1  0.77935800  0.73971600  0.52736200  1
  P  P17  1  0.14832400  0.06267400  0.69290500  1
  P  P18  1  0.85167600  0.93732600  0.30709500  1
  P  P19  1  0.22064200  0.26028400  0.47263800  1
  P  P20  1  0.40212800  0.47956100  0.36394800  1
  P  P21  1  0.52043900  0.59787200  0.13605200  1
  P  P22  1  0.73971600  0.77935800  0.02736200  1
  P  P23  1  0.06267400  0.14832400  0.19290500  1
  O  O24  1  0.03776100  0.86814900  0.89877400  1
  O  O25  1  0.79296700  0.87345000  0.92934500  1
  O  O26  1  0.67800900  0.73652800  0.90589300  1
  O  O27  1  0.31873900  0.51392300  0.98620700  1
  O  O28  1  0.66736100  0.27408500  0.92710600  1
  O  O29  1  0.98749700  0.18117200  0.80854100  1
  O  O30  1  0.33709800  0.93638000  0.75582800  1
  O  O31  1  0.09995000  0.39220500  0.88469300  1
  O  O32  1  0.69198500  0.54576100  0.72246400  1
  O  O33  1  0.41985600  0.08427800  0.86549800  1
  O  O34  1  0.44308500  0.55691500  0.75000000  1
  O  O35  1  0.91572200  0.58014400  0.63450200  1
  O  O36  1  0.45423900  0.30801500  0.77753600  1
  O  O37  1  0.60779500  0.90005000  0.61530700  1
  O  O38  1  0.06362000  0.66290200  0.74417200  1
  O  O39  1  0.81882800  0.01250300  0.69145900  1
  O  O40  1  0.72591500  0.33263900  0.57289400  1
  O  O41  1  0.86814900  0.03776100  0.39877400  1
  O  O42  1  0.87345000  0.79296700  0.42934500  1
  O  O43  1  0.48607700  0.68126100  0.51379300  1
  O  O44  1  0.73652800  0.67800900  0.40589300  1
  O  O45  1  0.26347200  0.32199100  0.59410700  1
  O  O46  1  0.51392300  0.31873900  0.48620700  1
  O  O47  1  0.12655000  0.20703300  0.57065500  1
  O  O48  1  0.13185100  0.96223900  0.60122600  1
  O  O49  1  0.27408500  0.66736100  0.42710600  1
  O  O50  1  0.18117200  0.98749700  0.30854100  1
  O  O51  1  0.93638000  0.33709800  0.25582800  1
  O  O52  1  0.39220500  0.09995000  0.38469300  1
  O  O53  1  0.54576100  0.69198500  0.22246400  1
  O  O54  1  0.08427800  0.41985600  0.36549800  1
  O  O55  1  0.55691500  0.44308500  0.25000000  1
  O  O56  1  0.58014400  0.91572200  0.13450200  1
  O  O57  1  0.30801500  0.45423900  0.27753600  1
  O  O58  1  0.90005000  0.60779500  0.11530700  1
  O  O59  1  0.66290200  0.06362000  0.24417200  1
  O  O60  1  0.01250300  0.81882800  0.19145900  1
  O  O61  1  0.33263900  0.72591500  0.07289400  1
  O  O62  1  0.68126100  0.48607700  0.01379300  1
  O  O63  1  0.32199100  0.26347200  0.09410700  1
  O  O64  1  0.20703300  0.12655000  0.07065500  1
  O  O65  1  0.96223900  0.13185100  0.10122600  1
