# generated using pymatgen
data_BaNa6O4
_symmetry_space_group_name_H-M   'P 1'
_cell_length_a   9.97717210
_cell_length_b   9.97717210
_cell_length_c   9.97717210
_cell_angle_alpha   109.47122063
_cell_angle_beta   109.47122063
_cell_angle_gamma   109.47122063
_symmetry_Int_Tables_number   1
_chemical_formula_structural   BaNa6O4
_chemical_formula_sum   'Ba4 Na24 O16'
_cell_volume   764.54050759
_cell_formula_units_Z   4
loop_
 _symmetry_equiv_pos_site_id
 _symmetry_equiv_pos_as_xyz
  1  'x, y, z'
loop_
 _atom_site_type_symbol
 _atom_site_label
 _atom_site_symmetry_multiplicity
 _atom_site_fract_x
 _atom_site_fract_y
 _atom_site_fract_z
 _atom_site_occupancy
  Ba  Ba0  1  0.74877300  0.00000000  0.00000000  1
  Ba  Ba1  1  0.25122700  0.25122700  0.25122700  1
  Ba  Ba2  1  0.00000000  0.74877300  0.00000000  1
  Ba  Ba3  1  0.00000000  0.00000000  0.74877300  1
  Na  Na4  1  0.71991600  0.47242900  0.00000000  1
  Na  Na5  1  0.71991600  0.00000000  0.47242900  1
  Na  Na6  1  0.47306100  0.22062500  0.00000000  1
  Na  Na7  1  0.47306100  0.00000000  0.22062500  1
  Na  Na8  1  0.75251300  0.28008400  0.28008400  1
  Na  Na9  1  0.77937500  0.25243600  0.77937500  1
  Na  Na10  1  0.77937500  0.77937500  0.25243600  1
  Na  Na11  1  0.22062500  0.47306100  0.00000000  1
  Na  Na12  1  0.22062500  0.00000000  0.47306100  1
  Na  Na13  1  0.52757100  0.24748700  0.52757100  1
  Na  Na14  1  0.52757100  0.52757100  0.24748700  1
  Na  Na15  1  0.47242900  0.71991600  0.00000000  1
  Na  Na16  1  0.47242900  0.00000000  0.71991600  1
  Na  Na17  1  0.74756400  0.52693900  0.52693900  1
  Na  Na18  1  0.00000000  0.47306100  0.22062500  1
  Na  Na19  1  0.00000000  0.22062500  0.47306100  1
  Na  Na20  1  0.28008400  0.75251300  0.28008400  1
  Na  Na21  1  0.28008400  0.28008400  0.75251300  1
  Na  Na22  1  0.52693900  0.74756400  0.52693900  1
  Na  Na23  1  0.52693900  0.52693900  0.74756400  1
  Na  Na24  1  0.24748700  0.52757100  0.52757100  1
  Na  Na25  1  0.00000000  0.71991600  0.47242900  1
  Na  Na26  1  0.00000000  0.47242900  0.71991600  1
  Na  Na27  1  0.25243600  0.77937500  0.77937500  1
  O  O28  1  0.72350300  0.24509400  0.00000000  1
  O  O29  1  0.72350300  0.00000000  0.24509400  1
  O  O30  1  0.00000000  0.00000000  0.00000000  1
  O  O31  1  0.50000000  0.50000000  0.00000000  1
  O  O32  1  0.50000000  0.00000000  0.50000000  1
  O  O33  1  0.52159200  0.27649700  0.27649700  1
  O  O34  1  0.75490600  0.47840800  0.75490600  1
  O  O35  1  0.75490600  0.75490600  0.47840800  1
  O  O36  1  0.24509400  0.72350300  0.00000000  1
  O  O37  1  0.24509400  0.00000000  0.72350300  1
  O  O38  1  0.27649700  0.52159200  0.27649700  1
  O  O39  1  0.27649700  0.27649700  0.52159200  1
  O  O40  1  0.00000000  0.72350300  0.24509400  1
  O  O41  1  0.00000000  0.24509400  0.72350300  1
  O  O42  1  0.00000000  0.50000000  0.50000000  1
  O  O43  1  0.47840800  0.75490600  0.75490600  1
