# generated using pymatgen
data_TaVRe2
_symmetry_space_group_name_H-M   'P 1'
_cell_length_a   10.76026467
_cell_length_b   10.76026467
_cell_length_c   10.76026467
_cell_angle_alpha   128.63795286
_cell_angle_beta   118.09298396
_cell_angle_gamma   84.53135559
_symmetry_Int_Tables_number   1
_chemical_formula_structural   TaVRe2
_chemical_formula_sum   'Ta1 V1 Re2'
_cell_volume   822.01992143
_cell_formula_units_Z   1
loop_
 _symmetry_equiv_pos_site_id
 _symmetry_equiv_pos_as_xyz
  1  'x, y, z'
loop_
 _atom_site_type_symbol
 _atom_site_label
 _atom_site_symmetry_multiplicity
 _atom_site_fract_x
 _atom_site_fract_y
 _atom_site_fract_z
 _atom_site_occupancy
  Ta  Ta0  1  0.00000000  0.50000000  0.50000000  1
  V  V1  1  0.00000000  0.00000000  0.00000000  1
  Re  Re2  1  0.00000000  0.24750700  0.24750700  1
  Re  Re3  1  0.00000000  0.75249300  0.75249300  1
