# generated using pymatgen
data_GdOF
_symmetry_space_group_name_H-M   'P 1'
_cell_length_a   7.08740167
_cell_length_b   6.66306689
_cell_length_c   5.86301525
_cell_angle_alpha   68.57492060
_cell_angle_beta   61.06411705
_cell_angle_gamma   50.36096235
_symmetry_Int_Tables_number   1
_chemical_formula_structural   GdOF
_chemical_formula_sum   'Gd4 O4 F4'
_cell_volume   185.93763751
_cell_formula_units_Z   4
loop_
 _symmetry_equiv_pos_site_id
 _symmetry_equiv_pos_as_xyz
  1  'x, y, z'
loop_
 _atom_site_type_symbol
 _atom_site_label
 _atom_site_symmetry_multiplicity
 _atom_site_fract_x
 _atom_site_fract_y
 _atom_site_fract_z
 _atom_site_occupancy
  Gd  Gd0  1  0.19922100  0.80077900  0.19922100  1
  Gd  Gd1  1  0.44922100  0.05077900  0.44922100  1
  Gd  Gd2  1  0.80077900  0.19922100  0.80077900  1
  Gd  Gd3  1  0.05077900  0.44922100  0.05077900  1
  O  O4  1  0.13245400  0.13245400  0.86754600  1
  O  O5  1  0.86754600  0.86754600  0.13245400  1
  O  O6  1  0.38245400  0.38245400  0.11754600  1
  O  O7  1  0.11754600  0.11754600  0.38245400  1
  F  F8  1  0.62500000  0.62500000  0.12500000  1
  F  F9  1  0.62500000  0.62500000  0.62500000  1
  F  F10  1  0.62500000  0.12500000  0.62500000  1
  F  F11  1  0.12500000  0.62500000  0.62500000  1
