# generated using pymatgen
data_NaScP2(HO4)2
_symmetry_space_group_name_H-M   'P 1'
_cell_length_a   9.77250491
_cell_length_b   9.77250491
_cell_length_c   9.18436058
_cell_angle_alpha   73.12987275
_cell_angle_beta   73.12987275
_cell_angle_gamma   115.07192207
_symmetry_Int_Tables_number   1
_chemical_formula_structural   NaScP2(HO4)2
_chemical_formula_sum   'Na4 Sc4 P8 H8 O32'
_cell_volume   668.35404375
_cell_formula_units_Z   4
loop_
 _symmetry_equiv_pos_site_id
 _symmetry_equiv_pos_as_xyz
  1  'x, y, z'
loop_
 _atom_site_type_symbol
 _atom_site_label
 _atom_site_symmetry_multiplicity
 _atom_site_fract_x
 _atom_site_fract_y
 _atom_site_fract_z
 _atom_site_occupancy
  Na  Na0  1  0.86857900  0.21456600  0.36560600  1
  Na  Na1  1  0.41458700  0.79153900  0.28618200  1
  Na  Na2  1  0.21456600  0.86857900  0.86560600  1
  Na  Na3  1  0.79153900  0.41458700  0.78618200  1
  Sc  Sc4  1  0.36078100  0.58422500  0.03661200  1
  Sc  Sc5  1  0.58422500  0.36078100  0.53661200  1
  Sc  Sc6  1  0.13298900  0.86380200  0.50282800  1
  Sc  Sc7  1  0.86380200  0.13298900  0.00282800  1
  P  P8  1  0.15762200  0.15505500  0.15216900  1
  P  P9  1  0.03164400  0.58068600  0.32576600  1
  P  P10  1  0.15505500  0.15762200  0.65216900  1
  P  P11  1  0.56534100  0.17990200  0.25397000  1
  P  P12  1  0.58068600  0.03164400  0.82576600  1
  P  P13  1  0.17990200  0.56534100  0.75397000  1
  P  P14  1  0.66006900  0.69121200  0.18071700  1
  P  P15  1  0.69121200  0.66006900  0.68071700  1
  H  H16  1  0.49011200  0.32735800  0.10099900  1
  H  H17  1  0.21874000  0.34673100  0.40451100  1
  H  H18  1  0.32735800  0.49011200  0.60099900  1
  H  H19  1  0.34673100  0.21874000  0.90451100  1
  H  H20  1  0.90952800  0.68120100  0.20665600  1
  H  H21  1  0.83947100  0.87347100  0.42052400  1
  H  H22  1  0.68120100  0.90952800  0.70665600  1
  H  H23  1  0.87347100  0.83947100  0.92052400  1
  O  O24  1  0.01010700  0.16482700  0.13507000  1
  O  O25  1  0.24586900  0.11443800  0.00912400  1
  O  O26  1  0.08191500  0.00232900  0.32818000  1
  O  O27  1  0.39548500  0.00847200  0.32799500  1
  O  O28  1  0.29958500  0.32708200  0.12514400  1
  O  O29  1  0.16482700  0.01010700  0.63507000  1
  O  O30  1  0.11443800  0.24586900  0.50912400  1
  O  O31  1  0.02332300  0.69590400  0.16665100  1
  O  O32  1  0.00232900  0.08191500  0.82818000  1
  O  O33  1  0.13292000  0.51140300  0.24903900  1
  O  O34  1  0.59039900  0.31691100  0.08374900  1
  O  O35  1  0.71986900  0.16600400  0.19313500  1
  O  O36  1  0.56670700  0.24626900  0.38554600  1
  O  O37  1  0.00847200  0.39548500  0.82799500  1
  O  O38  1  0.12295700  0.69398200  0.39533200  1
  O  O39  1  0.32708200  0.29958500  0.62514400  1
  O  O40  1  0.47770800  0.58997500  0.20247300  1
  O  O41  1  0.69590400  0.02332300  0.66665100  1
  O  O42  1  0.51140300  0.13292000  0.74903900  1
  O  O43  1  0.31691100  0.59039900  0.58374900  1
  O  O44  1  0.80271700  0.71894300  0.01414600  1
  O  O45  1  0.16600400  0.71986900  0.69313500  1
  O  O46  1  0.67868500  0.59342400  0.33050500  1
  O  O47  1  0.24626900  0.56670700  0.88554600  1
  O  O48  1  0.69398200  0.12295700  0.89533200  1
  O  O49  1  0.84471400  0.43291200  0.46384400  1
  O  O50  1  0.58997500  0.47770800  0.70247300  1
  O  O51  1  0.70303800  0.86810500  0.16063400  1
  O  O52  1  0.71894300  0.80271700  0.51414600  1
  O  O53  1  0.59342400  0.67868500  0.83050500  1
  O  O54  1  0.43291200  0.84471400  0.96384400  1
  O  O55  1  0.86810500  0.70303800  0.66063400  1
