data_image0
_chemical_formula_structural       B72H88
_chemical_formula_sum              "B72 H88"
_cell_length_a       8.68931
_cell_length_b       12.6026
_cell_length_c       11.8768
_cell_angle_alpha    90
_cell_angle_beta     110.05
_cell_angle_gamma    90

_space_group_name_H-M_alt    "P 1"
_space_group_IT_number       1

loop_
  _space_group_symop_operation_xyz
  'x, y, z'

loop_
  _atom_site_type_symbol
  _atom_site_label
  _atom_site_symmetry_multiplicity
  _atom_site_fract_x
  _atom_site_fract_y
  _atom_site_fract_z
  _atom_site_occupancy
  B   B1        1.0  0.00570  0.08650  0.36700  1.0000
  B   B2        1.0  0.99400  0.58600  0.13300  1.0000
  B   B3        1.0  0.99400  0.91400  0.63300  1.0000
  B   B4        1.0  0.00570  0.41400  0.86700  1.0000
  B   B5        1.0  0.05730  0.08040  0.23400  1.0000
  B   B6        1.0  0.94300  0.58000  0.26600  1.0000
  B   B7        1.0  0.94300  0.92000  0.76600  1.0000
  B   B8        1.0  0.05730  0.42000  0.73400  1.0000
  B   B9        1.0  0.72300  0.10700  0.05860  1.0000
  B   B10       1.0  0.27700  0.60700  0.44100  1.0000
  B   B11       1.0  0.27700  0.89300  0.94100  1.0000
  B   B12       1.0  0.72300  0.39300  0.55900  1.0000
  B   B13       1.0  0.79300  0.06230  0.32000  1.0000
  B   B14       1.0  0.20700  0.56200  0.18000  1.0000
  B   B15       1.0  0.20700  0.93800  0.68000  1.0000
  B   B16       1.0  0.79300  0.43800  0.82000  1.0000
  B   B17       1.0  0.92700  0.98500  0.26900  1.0000
  B   B18       1.0  0.07280  0.48500  0.23100  1.0000
  B   B19       1.0  0.07280  0.01520  0.73100  1.0000
  B   B20       1.0  0.92700  0.51500  0.76900  1.0000
  B   B21       1.0  0.89200  0.02360  0.12000  1.0000
  B   B22       1.0  0.10800  0.52400  0.38000  1.0000
  B   B23       1.0  0.10800  0.97600  0.88000  1.0000
  B   B24       1.0  0.89200  0.47600  0.62000  1.0000
  B   B25       1.0  0.66200  0.14700  0.18500  1.0000
  B   B26       1.0  0.33800  0.64700  0.31500  1.0000
  B   B27       1.0  0.33800  0.85300  0.81500  1.0000
  B   B28       1.0  0.66200  0.35300  0.68500  1.0000
  B   B29       1.0  0.72500  0.01630  0.17400  1.0000
  B   B30       1.0  0.27500  0.51600  0.32600  1.0000
  B   B31       1.0  0.27500  0.98400  0.82600  1.0000
  B   B32       1.0  0.72500  0.48400  0.67400  1.0000
  B   B33       1.0  0.92700  0.15700  0.09280  1.0000
  B   B34       1.0  0.07270  0.65700  0.40700  1.0000
  B   B35       1.0  0.07270  0.84300  0.90700  1.0000
  B   B36       1.0  0.92700  0.34300  0.59300  1.0000
  B   B37       1.0  0.72300  0.28400  0.23400  1.0000
  B   B38       1.0  0.27700  0.78400  0.26600  1.0000
  B   B39       1.0  0.27700  0.71600  0.76600  1.0000
  B   B40       1.0  0.72300  0.21600  0.73400  1.0000
  B   B41       1.0  0.42300  0.15000  0.12100  1.0000
  B   B42       1.0  0.57700  0.65000  0.37900  1.0000
  B   B43       1.0  0.57700  0.85000  0.87900  1.0000
  B   B44       1.0  0.42300  0.35000  0.62100  1.0000
  B   B45       1.0  0.33600  0.22900  0.99300  1.0000
  B   B46       1.0  0.66400  0.72900  0.50700  1.0000
  B   B47       1.0  0.66400  0.77100  0.00694  1.0000
  B   B48       1.0  0.33600  0.27100  0.49300  1.0000
  B   B49       1.0  0.43800  0.35300  0.02870  1.0000
  B   B50       1.0  0.56200  0.85300  0.47100  1.0000
  B   B51       1.0  0.56200  0.64700  0.97100  1.0000
  B   B52       1.0  0.43800  0.14700  0.52900  1.0000
  B   B53       1.0  0.53800  0.22900  0.24000  1.0000
  B   B54       1.0  0.46200  0.72900  0.26000  1.0000
  B   B55       1.0  0.46200  0.77100  0.76000  1.0000
  B   B56       1.0  0.53800  0.27100  0.74000  1.0000
  B   B57       1.0  0.36100  0.28300  0.13000  1.0000
  B   B58       1.0  0.63900  0.78300  0.37000  1.0000
  B   B59       1.0  0.63900  0.71700  0.87000  1.0000
  B   B60       1.0  0.36100  0.21700  0.63000  1.0000
  B   B61       1.0  0.54300  0.35900  0.18300  1.0000
  B   B62       1.0  0.45700  0.85900  0.31700  1.0000
  B   B63       1.0  0.45700  0.64100  0.81700  1.0000
  B   B64       1.0  0.54300  0.14100  0.68300  1.0000
  B   B65       1.0  0.67200  0.35800  0.09800  1.0000
  B   B66       1.0  0.32800  0.85800  0.40200  1.0000
  B   B67       1.0  0.32800  0.64200  0.90200  1.0000
  B   B68       1.0  0.67200  0.14200  0.59800  1.0000
  B   B69       1.0  0.76900  0.23300  0.11500  1.0000
  B   B70       1.0  0.23100  0.73300  0.38500  1.0000
  B   B71       1.0  0.23100  0.76700  0.88500  1.0000
  B   B72       1.0  0.76900  0.26700  0.61500  1.0000
  H   H1        1.0  0.88100  0.14700  0.36700  1.0000
  H   H2        1.0  0.11900  0.64700  0.13300  1.0000
  H   H3        1.0  0.11900  0.85300  0.63300  1.0000
  H   H4        1.0  0.88100  0.35300  0.86700  1.0000
  H   H5        1.0  0.43700  0.27900  0.94900  1.0000
  H   H6        1.0  0.56300  0.77900  0.55100  1.0000
  H   H7        1.0  0.56300  0.72100  0.05140  1.0000
  H   H8        1.0  0.43700  0.22100  0.44900  1.0000
  H   H9        1.0  0.05990  0.16000  0.30800  1.0000
  H   H10       1.0  0.94000  0.66000  0.19200  1.0000
  H   H11       1.0  0.94000  0.84000  0.69200  1.0000
  H   H12       1.0  0.05990  0.34000  0.80800  1.0000
  H   H13       1.0  0.98500  0.18000  0.01880  1.0000
  H   H14       1.0  0.01460  0.68000  0.48100  1.0000
  H   H15       1.0  0.01460  0.82000  0.98100  1.0000
  H   H16       1.0  0.98500  0.32000  0.51900  1.0000
  H   H17       1.0  0.42700  0.14100  0.01130  1.0000
  H   H18       1.0  0.57300  0.64100  0.48900  1.0000
  H   H19       1.0  0.57300  0.85900  0.98900  1.0000
  H   H20       1.0  0.42700  0.35900  0.51100  1.0000
  H   H21       1.0  0.93600  0.24300  0.15700  1.0000
  H   H22       1.0  0.06440  0.74300  0.34300  1.0000
  H   H23       1.0  0.06440  0.75700  0.84300  1.0000
  H   H24       1.0  0.93600  0.25700  0.65700  1.0000
  H   H25       1.0  0.62200  0.94900  0.15200  1.0000
  H   H26       1.0  0.37800  0.44900  0.34800  1.0000
  H   H27       1.0  0.37800  0.05070  0.84800  1.0000
  H   H28       1.0  0.62200  0.55100  0.65200  1.0000
  H   H29       1.0  0.96300  0.89500  0.29700  1.0000
  H   H30       1.0  0.03670  0.39500  0.20300  1.0000
  H   H31       1.0  0.03670  0.10500  0.70300  1.0000
  H   H32       1.0  0.96300  0.60500  0.79700  1.0000
  H   H33       1.0  0.92500  0.96300  0.05470  1.0000
  H   H34       1.0  0.07510  0.46300  0.44500  1.0000
  H   H35       1.0  0.07500  0.03750  0.94500  1.0000
  H   H36       1.0  0.92500  0.53700  0.55500  1.0000
  H   H37       1.0  0.63100  0.09470  0.95900  1.0000
  H   H38       1.0  0.36900  0.59500  0.54100  1.0000
  H   H39       1.0  0.36900  0.90500  0.04150  1.0000
  H   H40       1.0  0.63100  0.40500  0.45900  1.0000
  H   H41       1.0  0.73000  0.03630  0.39000  1.0000
  H   H42       1.0  0.27000  0.53600  0.11000  1.0000
  H   H43       1.0  0.27000  0.96400  0.61000  1.0000
  H   H44       1.0  0.73000  0.46400  0.89000  1.0000
  H   H45       1.0  0.09820  0.08400  0.46800  1.0000
  H   H46       1.0  0.90200  0.58400  0.03210  1.0000
  H   H47       1.0  0.90200  0.91600  0.53200  1.0000
  H   H48       1.0  0.09820  0.41600  0.96800  1.0000
  H   H49       1.0  0.19700  0.06660  0.24400  1.0000
  H   H50       1.0  0.80300  0.56700  0.25600  1.0000
  H   H51       1.0  0.80300  0.93300  0.75600  1.0000
  H   H52       1.0  0.19700  0.43300  0.74400  1.0000
  H   H53       1.0  0.74300  0.43600  0.08760  1.0000
  H   H54       1.0  0.25700  0.93600  0.41200  1.0000
  H   H55       1.0  0.25700  0.56400  0.91200  1.0000
  H   H56       1.0  0.74300  0.06450  0.58800  1.0000
  H   H57       1.0  0.68500  0.29200  0.01660  1.0000
  H   H58       1.0  0.31500  0.79200  0.48300  1.0000
  H   H59       1.0  0.31500  0.70800  0.98300  1.0000
  H   H60       1.0  0.68500  0.20800  0.51700  1.0000
  H   H61       1.0  0.24600  0.30900  0.15700  1.0000
  H   H62       1.0  0.75400  0.80900  0.34300  1.0000
  H   H63       1.0  0.75400  0.69100  0.84300  1.0000
  H   H64       1.0  0.24600  0.19100  0.65700  1.0000
  H   H65       1.0  0.54200  0.44200  0.23100  1.0000
  H   H66       1.0  0.45800  0.94200  0.26900  1.0000
  H   H67       1.0  0.45800  0.55800  0.76900  1.0000
  H   H68       1.0  0.54200  0.05820  0.73100  1.0000
  H   H69       1.0  0.53300  0.20500  0.33500  1.0000
  H   H70       1.0  0.46700  0.70500  0.16500  1.0000
  H   H71       1.0  0.46700  0.79500  0.66500  1.0000
  H   H72       1.0  0.53300  0.29500  0.83500  1.0000
  H   H73       1.0  0.21300  0.21000  0.91100  1.0000
  H   H74       1.0  0.78700  0.71000  0.58900  1.0000
  H   H75       1.0  0.78700  0.79000  0.08860  1.0000
  H   H76       1.0  0.21400  0.29000  0.41100  1.0000
  H   H77       1.0  0.37800  0.42800  0.97000  1.0000
  H   H78       1.0  0.62200  0.92800  0.53000  1.0000
  H   H79       1.0  0.62200  0.57200  0.03040  1.0000
  H   H80       1.0  0.37800  0.07190  0.47000  1.0000
  H   H81       1.0  0.83200  0.30800  0.32300  1.0000
  H   H82       1.0  0.16800  0.80800  0.17700  1.0000
  H   H83       1.0  0.16800  0.69200  0.67700  1.0000
  H   H84       1.0  0.83200  0.19200  0.82300  1.0000
  H   H85       1.0  0.35500  0.07190  0.13600  1.0000
  H   H86       1.0  0.64500  0.57200  0.36400  1.0000
  H   H87       1.0  0.64500  0.92800  0.86400  1.0000
  H   H88       1.0  0.35500  0.42800  0.63600  1.0000
