# generated using pymatgen
data_Ba2MgO3
_symmetry_space_group_name_H-M   'P 1'
_cell_length_a   6.51939133
_cell_length_b   6.51939133
_cell_length_c   12.74137867
_cell_angle_alpha   88.68220070
_cell_angle_beta   88.68220070
_cell_angle_gamma   125.19389198
_symmetry_Int_Tables_number   1
_chemical_formula_structural   Ba2MgO3
_chemical_formula_sum   'Ba8 Mg4 O12'
_cell_volume   441.99706917
_cell_formula_units_Z   4
loop_
 _symmetry_equiv_pos_site_id
 _symmetry_equiv_pos_as_xyz
  1  'x, y, z'
loop_
 _atom_site_type_symbol
 _atom_site_label
 _atom_site_symmetry_multiplicity
 _atom_site_fract_x
 _atom_site_fract_y
 _atom_site_fract_z
 _atom_site_occupancy
  Ba  Ba0  1  0.86846700  0.65198000  0.42492000  1
  Ba  Ba1  1  0.96935500  0.55510200  0.85018700  1
  Ba  Ba2  1  0.55510200  0.96935500  0.35018700  1
  Ba  Ba3  1  0.34802000  0.13153300  0.07508000  1
  Ba  Ba4  1  0.65198000  0.86846700  0.92492000  1
  Ba  Ba5  1  0.44489800  0.03064500  0.64981300  1
  Ba  Ba6  1  0.03064500  0.44489800  0.14981300  1
  Ba  Ba7  1  0.13153300  0.34802000  0.57508000  1
  Mg  Mg8  1  0.73805300  0.73046400  0.66595200  1
  Mg  Mg9  1  0.73046400  0.73805300  0.16595200  1
  Mg  Mg10  1  0.26953600  0.26194700  0.83404800  1
  Mg  Mg11  1  0.26194700  0.26953600  0.33404800  1
  O  O12  1  0.87993600  0.68240300  0.03753300  1
  O  O13  1  0.84773700  0.50506200  0.63264900  1
  O  O14  1  0.58742400  0.41257600  0.25000000  1
  O  O15  1  0.99797200  0.00202800  0.25000000  1
  O  O16  1  0.49493800  0.15226300  0.86735100  1
  O  O17  1  0.31759700  0.12006400  0.46246700  1
  O  O18  1  0.68240300  0.87993600  0.53753300  1
  O  O19  1  0.50506200  0.84773700  0.13264900  1
  O  O20  1  0.41257600  0.58742400  0.75000000  1
  O  O21  1  0.00202800  0.99797200  0.75000000  1
  O  O22  1  0.15226300  0.49493800  0.36735100  1
  O  O23  1  0.12006400  0.31759700  0.96246700  1
