# generated using pymatgen
data_Dy2P4O13
_symmetry_space_group_name_H-M   'P 1'
_cell_length_a   9.71825900
_cell_length_b   8.85384000
_cell_length_c   14.13157420
_cell_angle_alpha   74.18417929
_cell_angle_beta   90.00000000
_cell_angle_gamma   90.00000000
_symmetry_Int_Tables_number   1
_chemical_formula_structural   Dy2P4O13
_chemical_formula_sum   'Dy8 P16 O52'
_cell_volume   1169.90394195
_cell_formula_units_Z   4
loop_
 _symmetry_equiv_pos_site_id
 _symmetry_equiv_pos_as_xyz
  1  'x, y, z'
loop_
 _atom_site_type_symbol
 _atom_site_label
 _atom_site_symmetry_multiplicity
 _atom_site_fract_x
 _atom_site_fract_y
 _atom_site_fract_z
 _atom_site_occupancy
  Dy  Dy0  1  0.99926700  0.71641700  0.99320600  1
  Dy  Dy1  1  0.99434900  0.78578900  0.51249700  1
  Dy  Dy2  1  0.50073300  0.71641700  0.49320600  1
  Dy  Dy3  1  0.50565100  0.78578900  0.01249700  1
  Dy  Dy4  1  0.49434900  0.21421100  0.98750300  1
  Dy  Dy5  1  0.49926700  0.28358300  0.50679400  1
  Dy  Dy6  1  0.00565100  0.21421100  0.48750300  1
  Dy  Dy7  1  0.00073300  0.28358300  0.00679400  1
  P  P8  1  0.72117200  0.97099400  0.59499900  1
  P  P9  1  0.75506400  0.89013200  0.81301800  1
  P  P10  1  0.26660100  0.76575600  0.68668300  1
  P  P11  1  0.77882800  0.97099400  0.09499900  1
  P  P12  1  0.74493600  0.89013200  0.31301800  1
  P  P13  1  0.27982900  0.54223500  0.90283100  1
  P  P14  1  0.23339900  0.76575600  0.18668300  1
  P  P15  1  0.77982900  0.45776500  0.59716900  1
  P  P16  1  0.22017100  0.54223500  0.40283100  1
  P  P17  1  0.76660100  0.23424400  0.81331700  1
  P  P18  1  0.72017100  0.45776500  0.09716900  1
  P  P19  1  0.25506400  0.10986800  0.68698200  1
  P  P20  1  0.22117200  0.02900600  0.90500100  1
  P  P21  1  0.73339900  0.23424400  0.31331700  1
  P  P22  1  0.24493600  0.10986800  0.18698200  1
  P  P23  1  0.27882800  0.02900600  0.40500100  1
  O  O24  1  0.30535000  0.92877200  0.71091000  1
  O  O25  1  0.15428700  0.87460600  0.90454300  1
  O  O26  1  0.87326500  0.98840400  0.56024300  1
  O  O27  1  0.62434000  0.86448200  0.87176900  1
  O  O28  1  0.72452400  0.86421000  0.70795400  1
  O  O29  1  0.63968500  0.87787300  0.53871300  1
  O  O30  1  0.87421300  0.78464100  0.85570700  1
  O  O31  1  0.19465000  0.92877200  0.21091000  1
  O  O32  1  0.34571300  0.87460600  0.40454300  1
  O  O33  1  0.62673500  0.98840400  0.06024300  1
  O  O34  1  0.36720500  0.63419200  0.95690000  1
  O  O35  1  0.12372400  0.77375700  0.64450300  1
  O  O36  1  0.87566000  0.86448200  0.37176900  1
  O  O37  1  0.77547600  0.86421000  0.20795400  1
  O  O38  1  0.38098900  0.72585000  0.62612600  1
  O  O39  1  0.26726200  0.64018000  0.78960700  1
  O  O40  1  0.86031500  0.87787300  0.03871300  1
  O  O41  1  0.84552200  0.61300800  0.59780100  1
  O  O42  1  0.12862900  0.52010400  0.94210600  1
  O  O43  1  0.62578700  0.78464100  0.35570700  1
  O  O44  1  0.13279500  0.63419200  0.45690000  1
  O  O45  1  0.37627600  0.77375700  0.14450300  1
  O  O46  1  0.11901100  0.72585000  0.12612600  1
  O  O47  1  0.23273800  0.64018000  0.28960700  1
  O  O48  1  0.62862900  0.47989600  0.55789400  1
  O  O49  1  0.34552200  0.38699200  0.90219900  1
  O  O50  1  0.65447800  0.61300800  0.09780100  1
  O  O51  1  0.37137100  0.52010400  0.44210600  1
  O  O52  1  0.76726200  0.35982000  0.71039300  1
  O  O53  1  0.88098900  0.27415000  0.87387400  1
  O  O54  1  0.62372400  0.22624300  0.85549700  1
  O  O55  1  0.86720500  0.36580800  0.54310000  1
  O  O56  1  0.37421300  0.21535900  0.64429300  1
  O  O57  1  0.87137100  0.47989600  0.05789400  1
  O  O58  1  0.15447800  0.38699200  0.40219900  1
  O  O59  1  0.13968500  0.12212700  0.96128700  1
  O  O60  1  0.73273800  0.35982000  0.21039300  1
  O  O61  1  0.61901100  0.27415000  0.37387400  1
  O  O62  1  0.22452400  0.13579000  0.79204600  1
  O  O63  1  0.12434000  0.13551800  0.62823100  1
  O  O64  1  0.87627600  0.22624300  0.35549700  1
  O  O65  1  0.63279500  0.36580800  0.04310000  1
  O  O66  1  0.37326500  0.01159600  0.93975700  1
  O  O67  1  0.65428700  0.12539400  0.59545700  1
  O  O68  1  0.80535000  0.07122800  0.78909000  1
  O  O69  1  0.12578700  0.21535900  0.14429300  1
  O  O70  1  0.36031500  0.12212700  0.46128700  1
  O  O71  1  0.27547600  0.13579000  0.29204600  1
  O  O72  1  0.37566000  0.13551800  0.12823100  1
  O  O73  1  0.12673500  0.01159600  0.43975700  1
  O  O74  1  0.84571300  0.12539400  0.09545700  1
  O  O75  1  0.69465000  0.07122800  0.28909000  1
