# generated using pymatgen
data_Sm3NbO7
_symmetry_space_group_name_H-M   'P 1'
_cell_length_a   7.60380000
_cell_length_b   7.72281400
_cell_length_c   10.83230500
_cell_angle_alpha   90.00000000
_cell_angle_beta   90.00000000
_cell_angle_gamma   90.00000000
_symmetry_Int_Tables_number   1
_chemical_formula_structural   Sm3NbO7
_chemical_formula_sum   'Sm12 Nb4 O28'
_cell_volume   636.10255530
_cell_formula_units_Z   4
loop_
 _symmetry_equiv_pos_site_id
 _symmetry_equiv_pos_as_xyz
  1  'x, y, z'
loop_
 _atom_site_type_symbol
 _atom_site_label
 _atom_site_symmetry_multiplicity
 _atom_site_fract_x
 _atom_site_fract_y
 _atom_site_fract_z
 _atom_site_occupancy
  Sm  Sm0  1  0.01475500  0.79825200  0.25000000  1
  Sm  Sm1  1  0.24994000  0.96272200  0.52274700  1
  Sm  Sm2  1  0.24994000  0.96272200  0.97725300  1
  Sm  Sm3  1  0.25006000  0.46272200  0.02274700  1
  Sm  Sm4  1  0.25006000  0.46272200  0.47725300  1
  Sm  Sm5  1  0.48524500  0.29825200  0.75000000  1
  Sm  Sm6  1  0.51475500  0.70174800  0.25000000  1
  Sm  Sm7  1  0.74994000  0.53727800  0.52274700  1
  Sm  Sm8  1  0.74994000  0.53727800  0.97725300  1
  Sm  Sm9  1  0.75006000  0.03727800  0.02274700  1
  Sm  Sm10  1  0.75006000  0.03727800  0.47725300  1
  Sm  Sm11  1  0.98524500  0.20174800  0.75000000  1
  Nb  Nb12  1  0.99574800  0.74636500  0.75000000  1
  Nb  Nb13  1  0.50425200  0.24636500  0.25000000  1
  Nb  Nb14  1  0.49574800  0.75363500  0.75000000  1
  Nb  Nb15  1  0.00425200  0.25363500  0.25000000  1
  O  O16  1  0.03623500  0.04879000  0.12575800  1
  O  O17  1  0.03623500  0.04879000  0.37424200  1
  O  O18  1  0.04084100  0.59167900  0.61183200  1
  O  O19  1  0.04084100  0.59167900  0.88816800  1
  O  O20  1  0.24832500  0.33179800  0.25000000  1
  O  O21  1  0.25688500  0.73161200  0.11659300  1
  O  O22  1  0.25688500  0.73161200  0.38340700  1
  O  O23  1  0.24311500  0.23161200  0.61659300  1
  O  O24  1  0.24311500  0.23161200  0.88340700  1
  O  O25  1  0.25167500  0.83179800  0.75000000  1
  O  O26  1  0.45915900  0.09167900  0.11183200  1
  O  O27  1  0.45915900  0.09167900  0.38816800  1
  O  O28  1  0.46376500  0.54879000  0.62575800  1
  O  O29  1  0.46376500  0.54879000  0.87424200  1
  O  O30  1  0.53623500  0.45121000  0.12575800  1
  O  O31  1  0.53623500  0.45121000  0.37424200  1
  O  O32  1  0.54084100  0.90832100  0.61183200  1
  O  O33  1  0.54084100  0.90832100  0.88816800  1
  O  O34  1  0.74832500  0.16820200  0.25000000  1
  O  O35  1  0.75688500  0.76838800  0.11659300  1
  O  O36  1  0.75688500  0.76838800  0.38340700  1
  O  O37  1  0.74311500  0.26838800  0.61659300  1
  O  O38  1  0.74311500  0.26838800  0.88340700  1
  O  O39  1  0.75167500  0.66820200  0.75000000  1
  O  O40  1  0.95915900  0.40832100  0.11183200  1
  O  O41  1  0.95915900  0.40832100  0.38816800  1
  O  O42  1  0.96376500  0.95121000  0.62575800  1
  O  O43  1  0.96376500  0.95121000  0.87424200  1
