data_image0
_chemical_formula_structural       Pu4Si4
_chemical_formula_sum              "Pu4 Si4"
_cell_length_a       5.67502
_cell_length_b       7.96658
_cell_length_c       3.86427
_cell_angle_alpha    90
_cell_angle_beta     90
_cell_angle_gamma    90.0003

_space_group_name_H-M_alt    "P 1"
_space_group_IT_number       1

loop_
  _space_group_symop_operation_xyz
  'x, y, z'

loop_
  _atom_site_type_symbol
  _atom_site_label
  _atom_site_symmetry_multiplicity
  _atom_site_fract_x
  _atom_site_fract_y
  _atom_site_fract_z
  _atom_site_occupancy
  Pu  Pu1       1.0  0.11000  0.17900  0.25000  1.0000
  Pu  Pu2       1.0  0.39000  0.67900  0.25000  1.0000
  Pu  Pu3       1.0  0.61000  0.32100  0.75000  1.0000
  Pu  Pu4       1.0  0.89000  0.82100  0.75000  1.0000
  Si  Si1       1.0  0.62100  0.03210  0.25000  1.0000
  Si  Si2       1.0  0.87900  0.53200  0.25000  1.0000
  Si  Si3       1.0  0.12100  0.46800  0.75000  1.0000
  Si  Si4       1.0  0.37900  0.96800  0.75000  1.0000
