# generated using pymatgen
data_Ba2MgHg
_symmetry_space_group_name_H-M   'P 1'
_cell_length_a   13.77633716
_cell_length_b   13.77633716
_cell_length_c   13.77633716
_cell_angle_alpha   120.81878473
_cell_angle_beta   117.90930539
_cell_angle_gamma   91.12319571
_symmetry_Int_Tables_number   1
_chemical_formula_structural   Ba2MgHg
_chemical_formula_sum   'Ba2 Mg1 Hg1'
_cell_volume   1864.69934633
_cell_formula_units_Z   1
loop_
 _symmetry_equiv_pos_site_id
 _symmetry_equiv_pos_as_xyz
  1  'x, y, z'
loop_
 _atom_site_type_symbol
 _atom_site_label
 _atom_site_symmetry_multiplicity
 _atom_site_fract_x
 _atom_site_fract_y
 _atom_site_fract_z
 _atom_site_occupancy
  Ba  Ba0  1  0.26421800  0.00000000  0.26421800  1
  Ba  Ba1  1  0.73578200  0.00000000  0.73578200  1
  Mg  Mg2  1  0.00000000  0.00000000  0.00000000  1
  Hg  Hg3  1  0.50000000  0.00000000  0.50000000  1
