# generated using pymatgen
data_Na5CuO4
_symmetry_space_group_name_H-M   'P 1'
_cell_length_a   10.41431100
_cell_length_b   10.47530100
_cell_length_c   10.53772800
_cell_angle_alpha   90.00000000
_cell_angle_beta   90.00000000
_cell_angle_gamma   90.00000000
_symmetry_Int_Tables_number   1
_chemical_formula_structural   Na5CuO4
_chemical_formula_sum   'Na40 Cu8 O32'
_cell_volume   1149.59280785
_cell_formula_units_Z   8
loop_
 _symmetry_equiv_pos_site_id
 _symmetry_equiv_pos_as_xyz
  1  'x, y, z'
loop_
 _atom_site_type_symbol
 _atom_site_label
 _atom_site_symmetry_multiplicity
 _atom_site_fract_x
 _atom_site_fract_y
 _atom_site_fract_z
 _atom_site_occupancy
  Na  Na0  1  0.10735700  0.83732000  0.11285300  1
  Na  Na1  1  0.10735700  0.66268000  0.61285300  1
  Na  Na2  1  0.11321100  0.14527700  0.39518400  1
  Na  Na3  1  0.11321100  0.35472300  0.89518400  1
  Na  Na4  1  0.12125000  0.39564700  0.16413900  1
  Na  Na5  1  0.12125000  0.10435300  0.66413900  1
  Na  Na6  1  0.11939600  0.59125200  0.35102200  1
  Na  Na7  1  0.11939600  0.90874800  0.85102200  1
  Na  Na8  1  0.15789800  0.86537800  0.38536600  1
  Na  Na9  1  0.15789800  0.63462200  0.88536600  1
  Na  Na10  1  0.34210200  0.13462200  0.88536600  1
  Na  Na11  1  0.34210200  0.36537800  0.38536600  1
  Na  Na12  1  0.38060400  0.09125200  0.35102200  1
  Na  Na13  1  0.38060400  0.40874800  0.85102200  1
  Na  Na14  1  0.37875000  0.60435300  0.66413900  1
  Na  Na15  1  0.37875000  0.89564700  0.16413900  1
  Na  Na16  1  0.38678900  0.64527700  0.39518400  1
  Na  Na17  1  0.38678900  0.85472300  0.89518400  1
  Na  Na18  1  0.39264300  0.16268000  0.61285300  1
  Na  Na19  1  0.39264300  0.33732000  0.11285300  1
  Na  Na20  1  0.60735700  0.66268000  0.88714700  1
  Na  Na21  1  0.60735700  0.83732000  0.38714700  1
  Na  Na22  1  0.61321100  0.14527700  0.10481600  1
  Na  Na23  1  0.61321100  0.35472300  0.60481600  1
  Na  Na24  1  0.62125000  0.39564700  0.33586100  1
  Na  Na25  1  0.62125000  0.10435300  0.83586100  1
  Na  Na26  1  0.61939600  0.59125200  0.14897800  1
  Na  Na27  1  0.61939600  0.90874800  0.64897800  1
  Na  Na28  1  0.65789800  0.63462200  0.61463400  1
  Na  Na29  1  0.65789800  0.86537800  0.11463400  1
  Na  Na30  1  0.84210200  0.13462200  0.61463400  1
  Na  Na31  1  0.84210200  0.36537800  0.11463400  1
  Na  Na32  1  0.88060400  0.09125200  0.14897800  1
  Na  Na33  1  0.88060400  0.40874800  0.64897800  1
  Na  Na34  1  0.87875000  0.60435300  0.83586100  1
  Na  Na35  1  0.87875000  0.89564700  0.33586100  1
  Na  Na36  1  0.88678900  0.64527700  0.10481600  1
  Na  Na37  1  0.88678900  0.85472300  0.60481600  1
  Na  Na38  1  0.89264300  0.16268000  0.88714700  1
  Na  Na39  1  0.89264300  0.33732000  0.38714700  1
  Cu  Cu40  1  0.14913000  0.11574400  0.12236500  1
  Cu  Cu41  1  0.14913000  0.38425600  0.62236500  1
  Cu  Cu42  1  0.35087000  0.88425600  0.62236500  1
  Cu  Cu43  1  0.35087000  0.61574400  0.12236500  1
  Cu  Cu44  1  0.64913000  0.11574400  0.37763500  1
  Cu  Cu45  1  0.64913000  0.38425600  0.87763500  1
  Cu  Cu46  1  0.85087000  0.61574400  0.37763500  1
  Cu  Cu47  1  0.85087000  0.88425600  0.87763500  1
  O  O48  1  0.02154100  0.23403700  0.05378900  1
  O  O49  1  0.02154100  0.26596300  0.55378900  1
  O  O50  1  0.05345200  0.00176000  0.24251400  1
  O  O51  1  0.05345200  0.49824000  0.74251400  1
  O  O52  1  0.23926000  0.99661600  0.02040900  1
  O  O53  1  0.23926000  0.50338400  0.52040900  1
  O  O54  1  0.24261000  0.22624800  0.23687200  1
  O  O55  1  0.24261000  0.27375200  0.73687200  1
  O  O56  1  0.25739000  0.72624800  0.23687200  1
  O  O57  1  0.25739000  0.77375200  0.73687200  1
  O  O58  1  0.26074000  0.00338400  0.52040900  1
  O  O59  1  0.26074000  0.49661600  0.02040900  1
  O  O60  1  0.44654800  0.50176000  0.24251400  1
  O  O61  1  0.44654800  0.99824000  0.74251400  1
  O  O62  1  0.47845900  0.76596300  0.55378900  1
  O  O63  1  0.47845900  0.73403700  0.05378900  1
  O  O64  1  0.52154100  0.26596300  0.94621100  1
  O  O65  1  0.52154100  0.23403700  0.44621100  1
  O  O66  1  0.55345200  0.00176000  0.25748600  1
  O  O67  1  0.55345200  0.49824000  0.75748600  1
  O  O68  1  0.73926000  0.50338400  0.97959100  1
  O  O69  1  0.73926000  0.99661600  0.47959100  1
  O  O70  1  0.74261000  0.22624800  0.26312800  1
  O  O71  1  0.74261000  0.27375200  0.76312800  1
  O  O72  1  0.75739000  0.72624800  0.26312800  1
  O  O73  1  0.75739000  0.77375200  0.76312800  1
  O  O74  1  0.76074000  0.00338400  0.97959100  1
  O  O75  1  0.76074000  0.49661600  0.47959100  1
  O  O76  1  0.94654800  0.99824000  0.75748600  1
  O  O77  1  0.94654800  0.50176000  0.25748600  1
  O  O78  1  0.97845900  0.76596300  0.94621100  1
  O  O79  1  0.97845900  0.73403700  0.44621100  1
