# generated using pymatgen
data_Y2MgZn
_symmetry_space_group_name_H-M   'P 1'
_cell_length_a   12.56757920
_cell_length_b   12.56757920
_cell_length_c   12.56757920
_cell_angle_alpha   121.90308917
_cell_angle_beta   119.29508204
_cell_angle_gamma   88.98055669
_symmetry_Int_Tables_number   1
_chemical_formula_structural   Y2MgZn
_chemical_formula_sum   'Y2 Mg1 Zn1'
_cell_volume   1389.71968766
_cell_formula_units_Z   1
loop_
 _symmetry_equiv_pos_site_id
 _symmetry_equiv_pos_as_xyz
  1  'x, y, z'
loop_
 _atom_site_type_symbol
 _atom_site_label
 _atom_site_symmetry_multiplicity
 _atom_site_fract_x
 _atom_site_fract_y
 _atom_site_fract_z
 _atom_site_occupancy
  Y  Y0  1  0.00000000  0.26432400  0.26432400  1
  Y  Y1  1  0.00000000  0.73567600  0.73567600  1
  Mg  Mg2  1  0.00000000  0.00000000  0.00000000  1
  Zn  Zn3  1  0.00000000  0.50000000  0.50000000  1
