# generated using pymatgen
data_Fe2OF3
_symmetry_space_group_name_H-M   'P 1'
_cell_length_a   4.84070261
_cell_length_b   4.84070261
_cell_length_c   15.61306500
_cell_angle_alpha   90.00000000
_cell_angle_beta   90.00000000
_cell_angle_gamma   91.85638488
_symmetry_Int_Tables_number   1
_chemical_formula_structural   Fe2OF3
_chemical_formula_sum   'Fe10 O5 F15'
_cell_volume   365.65960042
_cell_formula_units_Z   5
loop_
 _symmetry_equiv_pos_site_id
 _symmetry_equiv_pos_as_xyz
  1  'x, y, z'
loop_
 _atom_site_type_symbol
 _atom_site_label
 _atom_site_symmetry_multiplicity
 _atom_site_fract_x
 _atom_site_fract_y
 _atom_site_fract_z
 _atom_site_occupancy
  Fe  Fe0  1  0.97828000  0.97828000  0.89991200  1
  Fe  Fe1  1  0.97828000  0.97828000  0.10008800  1
  Fe  Fe2  1  0.02246100  0.02246100  0.29981000  1
  Fe  Fe3  1  0.01162500  0.01162500  0.50000000  1
  Fe  Fe4  1  0.02246100  0.02246100  0.70019000  1
  Fe  Fe5  1  0.52474900  0.52474900  0.00000000  1
  Fe  Fe6  1  0.47529400  0.47529400  0.39967900  1
  Fe  Fe7  1  0.50021300  0.50021300  0.19965900  1
  Fe  Fe8  1  0.47529400  0.47529400  0.60032100  1
  Fe  Fe9  1  0.50021300  0.50021300  0.80034100  1
  O  O10  1  0.32018800  0.32018800  0.29693100  1
  O  O11  1  0.31080500  0.31080500  0.50000000  1
  O  O12  1  0.32018800  0.32018800  0.70306900  1
  O  O13  1  0.68023800  0.68023800  0.89751800  1
  O  O14  1  0.68023800  0.68023800  0.10248200  1
  F  F15  1  0.78538600  0.20465800  0.00000000  1
  F  F16  1  0.79243000  0.20824200  0.19987400  1
  F  F17  1  0.79301900  0.21215300  0.39974900  1
  F  F18  1  0.79301900  0.21215300  0.60025100  1
  F  F19  1  0.79243000  0.20824200  0.80012600  1
  F  F20  1  0.29595900  0.29595900  0.90219000  1
  F  F21  1  0.29595900  0.29595900  0.09781000  1
  F  F22  1  0.70422600  0.70422600  0.30215500  1
  F  F23  1  0.69736600  0.69736600  0.50000000  1
  F  F24  1  0.70422600  0.70422600  0.69784500  1
  F  F25  1  0.20465800  0.78538600  0.00000000  1
  F  F26  1  0.21215300  0.79301900  0.39974900  1
  F  F27  1  0.20824200  0.79243000  0.19987400  1
  F  F28  1  0.20824200  0.79243000  0.80012600  1
  F  F29  1  0.21215300  0.79301900  0.60025100  1
