# generated using pymatgen
data_TaMn2Si
_symmetry_space_group_name_H-M   'P 1'
_cell_length_a   10.02441760
_cell_length_b   10.02441760
_cell_length_c   10.02441760
_cell_angle_alpha   124.21330764
_cell_angle_beta   118.81892041
_cell_angle_gamma   87.45990576
_symmetry_Int_Tables_number   1
_chemical_formula_structural   TaMn2Si
_chemical_formula_sum   'Ta1 Mn2 Si1'
_cell_volume   693.19627593
_cell_formula_units_Z   1
loop_
 _symmetry_equiv_pos_site_id
 _symmetry_equiv_pos_as_xyz
  1  'x, y, z'
loop_
 _atom_site_type_symbol
 _atom_site_label
 _atom_site_symmetry_multiplicity
 _atom_site_fract_x
 _atom_site_fract_y
 _atom_site_fract_z
 _atom_site_occupancy
  Ta  Ta0  1  0.00000000  0.50000000  0.50000000  1
  Mn  Mn1  1  0.00000000  0.25238100  0.25238100  1
  Mn  Mn2  1  0.00000000  0.74761900  0.74761900  1
  Si  Si3  1  0.00000000  0.00000000  0.00000000  1
