# generated using pymatgen
data_NaBi5O8
_symmetry_space_group_name_H-M   'P 1'
_cell_length_a   16.42652600
_cell_length_b   7.91049000
_cell_length_c   10.92396788
_cell_angle_alpha   49.53465566
_cell_angle_beta   90.00000000
_cell_angle_gamma   90.00000000
_symmetry_Int_Tables_number   1
_chemical_formula_structural   NaBi5O8
_chemical_formula_sum   'Na4 Bi20 O32'
_cell_volume   1079.93908221
_cell_formula_units_Z   4
loop_
 _symmetry_equiv_pos_site_id
 _symmetry_equiv_pos_as_xyz
  1  'x, y, z'
loop_
 _atom_site_type_symbol
 _atom_site_label
 _atom_site_symmetry_multiplicity
 _atom_site_fract_x
 _atom_site_fract_y
 _atom_site_fract_z
 _atom_site_occupancy
  Na  Na0  1  0.48411500  0.86363300  0.08101300  1
  Na  Na1  1  0.95408800  0.38628500  0.35421000  1
  Na  Na2  1  0.51588500  0.86363300  0.58101300  1
  Na  Na3  1  0.04591200  0.38628500  0.85421000  1
  Bi  Bi4  1  0.44429800  0.50907000  0.02526100  1
  Bi  Bi5  1  0.20429100  0.60915200  0.10159300  1
  Bi  Bi6  1  0.20788700  0.14706800  0.10694900  1
  Bi  Bi7  1  0.72864700  0.67840900  0.26424100  1
  Bi  Bi8  1  0.95822000  0.03890800  0.27246600  1
  Bi  Bi9  1  0.71925100  0.20862200  0.28224300  1
  Bi  Bi10  1  0.36299100  0.77207700  0.42522400  1
  Bi  Bi11  1  0.34772900  0.32064000  0.41104100  1
  Bi  Bi12  1  0.14621800  0.54526400  0.45366900  1
  Bi  Bi13  1  0.13815600  0.08166100  0.46327700  1
  Bi  Bi14  1  0.55570200  0.50907000  0.52526100  1
  Bi  Bi15  1  0.79570900  0.60915200  0.60159300  1
  Bi  Bi16  1  0.79211300  0.14706800  0.60694900  1
  Bi  Bi17  1  0.27135300  0.67840900  0.76424100  1
  Bi  Bi18  1  0.28074900  0.20862200  0.78224300  1
  Bi  Bi19  1  0.04178000  0.03890800  0.77246600  1
  Bi  Bi20  1  0.65227100  0.32064000  0.91104100  1
  Bi  Bi21  1  0.63700900  0.77207700  0.92522400  1
  Bi  Bi22  1  0.85378200  0.54526400  0.95366900  1
  Bi  Bi23  1  0.86184400  0.08166100  0.96327700  1
  O  O24  1  0.95425900  0.39087400  0.12456300  1
  O  O25  1  0.75679500  0.55865600  0.10785800  1
  O  O26  1  0.60351600  0.43350500  0.04843600  1
  O  O27  1  0.97810000  0.03692200  0.07909800  1
  O  O28  1  0.61973700  0.80399700  0.10498000  1
  O  O29  1  0.79896700  0.21161700  0.10568100  1
  O  O30  1  0.27733700  0.62456300  0.27405200  1
  O  O31  1  0.44608500  0.47241000  0.23792700  1
  O  O32  1  0.10708500  0.43106100  0.30930600  1
  O  O33  1  0.25483400  0.27514100  0.26221200  1
  O  O34  1  0.49569900  0.82485000  0.38214400  1
  O  O35  1  0.08901300  0.02501000  0.30368300  1
  O  O36  1  0.67352700  0.69791600  0.44268600  1
  O  O37  1  0.68599200  0.33371200  0.42465700  1
  O  O38  1  0.84144900  0.47070800  0.46371000  1
  O  O39  1  0.82921300  0.11134400  0.42941300  1
  O  O40  1  0.24320500  0.55865600  0.60785800  1
  O  O41  1  0.04574100  0.39087400  0.62456300  1
  O  O42  1  0.38026300  0.80399700  0.60498000  1
  O  O43  1  0.39648400  0.43350500  0.54843600  1
  O  O44  1  0.02190000  0.03692200  0.57909800  1
  O  O45  1  0.20103300  0.21161700  0.60568100  1
  O  O46  1  0.72266300  0.62456300  0.77405200  1
  O  O47  1  0.55391500  0.47241000  0.73792700  1
  O  O48  1  0.89291500  0.43106100  0.80930600  1
  O  O49  1  0.74516600  0.27514100  0.76221200  1
  O  O50  1  0.50430100  0.82485000  0.88214400  1
  O  O51  1  0.91098700  0.02501000  0.80368300  1
  O  O52  1  0.32647300  0.69791600  0.94268600  1
  O  O53  1  0.31400800  0.33371200  0.92465700  1
  O  O54  1  0.15855100  0.47070800  0.96371000  1
  O  O55  1  0.17078700  0.11134400  0.92941300  1
