# generated using pymatgen
data_Na5GdO4
_symmetry_space_group_name_H-M   'P 1'
_cell_length_a   10.88045100
_cell_length_b   10.99416400
_cell_length_c   11.01851600
_cell_angle_alpha   90.00000000
_cell_angle_beta   90.00000000
_cell_angle_gamma   90.00000000
_symmetry_Int_Tables_number   1
_chemical_formula_structural   Na5GdO4
_chemical_formula_sum   'Na40 Gd8 O32'
_cell_volume   1318.05100057
_cell_formula_units_Z   8
loop_
 _symmetry_equiv_pos_site_id
 _symmetry_equiv_pos_as_xyz
  1  'x, y, z'
loop_
 _atom_site_type_symbol
 _atom_site_label
 _atom_site_symmetry_multiplicity
 _atom_site_fract_x
 _atom_site_fract_y
 _atom_site_fract_z
 _atom_site_occupancy
  Na  Na0  1  0.17058600  0.89357100  0.12014100  1
  Na  Na1  1  0.32941400  0.89357100  0.62014100  1
  Na  Na2  1  0.85924000  0.88920400  0.40005200  1
  Na  Na3  1  0.64076000  0.88920400  0.90005200  1
  Na  Na4  1  0.60103600  0.88317100  0.15975300  1
  Na  Na5  1  0.89896400  0.88317100  0.65975300  1
  Na  Na6  1  0.40092900  0.86960900  0.35456800  1
  Na  Na7  1  0.09907100  0.86960900  0.85456800  1
  Na  Na8  1  0.12982700  0.85276900  0.38065400  1
  Na  Na9  1  0.37017300  0.85276900  0.88065400  1
  Na  Na10  1  0.87017300  0.64723100  0.88065400  1
  Na  Na11  1  0.62982700  0.64723100  0.38065400  1
  Na  Na12  1  0.90092900  0.63039100  0.35456800  1
  Na  Na13  1  0.59907100  0.63039100  0.85456800  1
  Na  Na14  1  0.39896400  0.61682900  0.65975300  1
  Na  Na15  1  0.10103600  0.61682900  0.15975300  1
  Na  Na16  1  0.35924000  0.61079600  0.40005200  1
  Na  Na17  1  0.14076000  0.61079600  0.90005200  1
  Na  Na18  1  0.82941400  0.60642900  0.62014100  1
  Na  Na19  1  0.67058600  0.60642900  0.12014100  1
  Na  Na20  1  0.32941400  0.39357100  0.87985900  1
  Na  Na21  1  0.17058600  0.39357100  0.37985900  1
  Na  Na22  1  0.85924000  0.38920400  0.09994800  1
  Na  Na23  1  0.64076000  0.38920400  0.59994800  1
  Na  Na24  1  0.60103600  0.38317100  0.34024700  1
  Na  Na25  1  0.89896400  0.38317100  0.84024700  1
  Na  Na26  1  0.40092900  0.36960900  0.14543200  1
  Na  Na27  1  0.09907100  0.36960900  0.64543200  1
  Na  Na28  1  0.37017300  0.35276900  0.61934600  1
  Na  Na29  1  0.12982700  0.35276900  0.11934600  1
  Na  Na30  1  0.87017300  0.14723100  0.61934600  1
  Na  Na31  1  0.62982700  0.14723100  0.11934600  1
  Na  Na32  1  0.90092900  0.13039100  0.14543200  1
  Na  Na33  1  0.59907100  0.13039100  0.64543200  1
  Na  Na34  1  0.39896400  0.11682900  0.84024700  1
  Na  Na35  1  0.10103600  0.11682900  0.34024700  1
  Na  Na36  1  0.35924000  0.11079600  0.09994800  1
  Na  Na37  1  0.14076000  0.11079600  0.59994800  1
  Na  Na38  1  0.82941400  0.10642900  0.87985900  1
  Na  Na39  1  0.67058600  0.10642900  0.37985900  1
  Gd  Gd40  1  0.88393000  0.85348200  0.11927700  1
  Gd  Gd41  1  0.61607000  0.85348200  0.61927700  1
  Gd  Gd42  1  0.11607000  0.64651800  0.61927700  1
  Gd  Gd43  1  0.38393000  0.64651800  0.11927700  1
  Gd  Gd44  1  0.88393000  0.35348200  0.38072300  1
  Gd  Gd45  1  0.61607000  0.35348200  0.88072300  1
  Gd  Gd46  1  0.38393000  0.14651800  0.38072300  1
  Gd  Gd47  1  0.11607000  0.14651800  0.88072300  1
  O  O48  1  0.75986000  0.99038200  0.04070700  1
  O  O49  1  0.74014000  0.99038200  0.54070700  1
  O  O50  1  0.99840600  0.95978000  0.24111900  1
  O  O51  1  0.50159400  0.95978000  0.74111900  1
  O  O52  1  0.01583300  0.74859200  0.00885500  1
  O  O53  1  0.48416700  0.74859200  0.50885500  1
  O  O54  1  0.76586700  0.75347100  0.24517200  1
  O  O55  1  0.73413300  0.75347100  0.74517200  1
  O  O56  1  0.26586700  0.74652900  0.24517200  1
  O  O57  1  0.23413300  0.74652900  0.74517200  1
  O  O58  1  0.98416700  0.75140800  0.50885500  1
  O  O59  1  0.51583300  0.75140800  0.00885500  1
  O  O60  1  0.49840600  0.54022000  0.24111900  1
  O  O61  1  0.00159400  0.54022000  0.74111900  1
  O  O62  1  0.24014000  0.50961800  0.54070700  1
  O  O63  1  0.25986000  0.50961800  0.04070700  1
  O  O64  1  0.74014000  0.49038200  0.95929300  1
  O  O65  1  0.75986000  0.49038200  0.45929300  1
  O  O66  1  0.99840600  0.45978000  0.25888100  1
  O  O67  1  0.50159400  0.45978000  0.75888100  1
  O  O68  1  0.48416700  0.24859200  0.99114500  1
  O  O69  1  0.01583300  0.24859200  0.49114500  1
  O  O70  1  0.76586700  0.25347100  0.25482800  1
  O  O71  1  0.73413300  0.25347100  0.75482800  1
  O  O72  1  0.26586700  0.24652900  0.25482800  1
  O  O73  1  0.23413300  0.24652900  0.75482800  1
  O  O74  1  0.98416700  0.25140800  0.99114500  1
  O  O75  1  0.51583300  0.25140800  0.49114500  1
  O  O76  1  0.00159400  0.04022000  0.75888100  1
  O  O77  1  0.49840600  0.04022000  0.25888100  1
  O  O78  1  0.24014000  0.00961800  0.95929300  1
  O  O79  1  0.25986000  0.00961800  0.45929300  1
