# generated using pymatgen
data_LaAlO3
_symmetry_space_group_name_H-M   'P 1'
_cell_length_a   8.92658200
_cell_length_b   8.80158800
_cell_length_c   10.76172607
_cell_angle_alpha   79.35831772
_cell_angle_beta   90.00000000
_cell_angle_gamma   90.00000000
_symmetry_Int_Tables_number   1
_chemical_formula_structural   LaAlO3
_chemical_formula_sum   'La12 Al12 O36'
_cell_volume   830.98632045
_cell_formula_units_Z   12
loop_
 _symmetry_equiv_pos_site_id
 _symmetry_equiv_pos_as_xyz
  1  'x, y, z'
loop_
 _atom_site_type_symbol
 _atom_site_label
 _atom_site_symmetry_multiplicity
 _atom_site_fract_x
 _atom_site_fract_y
 _atom_site_fract_z
 _atom_site_occupancy
  La  La0  1  0.47275500  0.04370000  0.17333500  1
  La  La1  1  0.02724500  0.04370000  0.67333500  1
  La  La2  1  0.64039000  0.16950400  0.44302600  1
  La  La3  1  0.85961000  0.16950400  0.94302600  1
  La  La4  1  0.43445200  0.48652700  0.16936300  1
  La  La5  1  0.93445200  0.51347300  0.33063700  1
  La  La6  1  0.06554800  0.48652700  0.66936300  1
  La  La7  1  0.56554800  0.51347300  0.83063700  1
  La  La8  1  0.14039000  0.83049600  0.05697400  1
  La  La9  1  0.35961000  0.83049600  0.55697400  1
  La  La10  1  0.97275500  0.95630000  0.32666500  1
  La  La11  1  0.52724500  0.95630000  0.82666500  1
  Al  Al12  1  0.23430900  0.20644500  0.42064800  1
  Al  Al13  1  0.09064700  0.27023800  0.14256600  1
  Al  Al14  1  0.26569100  0.20644500  0.92064800  1
  Al  Al15  1  0.74589400  0.32083300  0.16182500  1
  Al  Al16  1  0.40935300  0.27023800  0.64256600  1
  Al  Al17  1  0.75410600  0.32083300  0.66182500  1
  Al  Al18  1  0.24589400  0.67916700  0.33817500  1
  Al  Al19  1  0.59064700  0.72976200  0.35743400  1
  Al  Al20  1  0.25410600  0.67916700  0.83817500  1
  Al  Al21  1  0.73430900  0.79355500  0.07935200  1
  Al  Al22  1  0.90935300  0.72976200  0.85743400  1
  Al  Al23  1  0.76569100  0.79355500  0.57935200  1
  O  O24  1  0.66669000  0.98495900  0.01417400  1
  O  O25  1  0.03787100  0.08271000  0.11044400  1
  O  O26  1  0.83331000  0.98495900  0.51417400  1
  O  O27  1  0.74144100  0.12502200  0.24227200  1
  O  O28  1  0.46212900  0.08271000  0.61044400  1
  O  O29  1  0.75855900  0.12502200  0.74227200  1
  O  O30  1  0.40126300  0.23354200  0.32566500  1
  O  O31  1  0.08365700  0.25709900  0.31034000  1
  O  O32  1  0.26431500  0.30040900  0.05801700  1
  O  O33  1  0.60207000  0.34266100  0.04592300  1
  O  O34  1  0.09873700  0.23354200  0.82566500  1
  O  O35  1  0.41634300  0.25709900  0.81034000  1
  O  O36  1  0.23568500  0.30040900  0.55801700  1
  O  O37  1  0.92314300  0.37623500  0.09969800  1
  O  O38  1  0.89793000  0.34266100  0.54592300  1
  O  O39  1  0.69204200  0.42353700  0.28181000  1
  O  O40  1  0.57685700  0.37623500  0.59969800  1
  O  O41  1  0.80795800  0.42353700  0.78181000  1
  O  O42  1  0.19204200  0.57646300  0.21819000  1
  O  O43  1  0.42314300  0.62376500  0.40030200  1
  O  O44  1  0.30795800  0.57646300  0.71819000  1
  O  O45  1  0.10207000  0.65733900  0.45407700  1
  O  O46  1  0.07685700  0.62376500  0.90030200  1
  O  O47  1  0.76431500  0.69959100  0.44198300  1
  O  O48  1  0.58365700  0.74290100  0.18966000  1
  O  O49  1  0.90126300  0.76645800  0.17433500  1
  O  O50  1  0.39793000  0.65733900  0.95407700  1
  O  O51  1  0.73568500  0.69959100  0.94198300  1
  O  O52  1  0.91634300  0.74290100  0.68966000  1
  O  O53  1  0.59873700  0.76645800  0.67433500  1
  O  O54  1  0.24144100  0.87497800  0.25772800  1
  O  O55  1  0.53787100  0.91729000  0.38955600  1
  O  O56  1  0.25855900  0.87497800  0.75772800  1
  O  O57  1  0.16669000  0.01504100  0.48582600  1
  O  O58  1  0.96212900  0.91729000  0.88955600  1
  O  O59  1  0.33331000  0.01504100  0.98582600  1
