# generated using pymatgen
data_V6O5F19
_symmetry_space_group_name_H-M   'P 1'
_cell_length_a   5.37837700
_cell_length_b   5.62311359
_cell_length_c   14.83136297
_cell_angle_alpha   100.38171783
_cell_angle_beta   89.58446822
_cell_angle_gamma   93.35484931
_symmetry_Int_Tables_number   1
_chemical_formula_structural   V6O5F19
_chemical_formula_sum   'V6 O5 F19'
_cell_volume   440.44648012
_cell_formula_units_Z   1
loop_
 _symmetry_equiv_pos_site_id
 _symmetry_equiv_pos_as_xyz
  1  'x, y, z'
loop_
 _atom_site_type_symbol
 _atom_site_label
 _atom_site_symmetry_multiplicity
 _atom_site_fract_x
 _atom_site_fract_y
 _atom_site_fract_z
 _atom_site_occupancy
  V  V0  1  0.04038900  0.94170500  0.99587200  1
  V  V1  1  0.54356900  0.79948300  0.67061900  1
  V  V2  1  0.96781900  0.73513000  0.33718300  1
  V  V3  1  0.51004200  0.48571500  0.00120300  1
  V  V4  1  0.03466100  0.28815100  0.66269800  1
  V  V5  1  0.51533100  0.22422300  0.33462300  1
  O  O6  1  0.79442000  0.97007700  0.35827600  1
  O  O7  1  0.77116900  0.63963200  0.68923200  1
  O  O8  1  0.70609900  0.46945000  0.35603800  1
  O  O9  1  0.21069300  0.70537300  0.97683400  1
  O  O10  1  0.20374700  0.05641000  0.64406000  1
  F  F11  1  0.72682000  0.79171100  0.02288200  1
  F  F12  1  0.27221600  0.86416500  0.30962600  1
  F  F13  1  0.91562000  0.97071200  0.88884600  1
  F  F14  1  0.56293600  0.80875900  0.55204900  1
  F  F15  1  0.91261500  0.60386800  0.22102200  1
  F  F16  1  0.40287100  0.88157300  0.77935000  1
  F  F17  1  0.07113000  0.68824500  0.44556100  1
  F  F18  1  0.39955600  0.55477400  0.11500500  1
  F  F19  1  0.77849000  0.32331800  0.02470900  1
  F  F20  1  0.28742600  0.53608100  0.63982300  1
  F  F21  1  0.23426400  0.34955500  0.30675600  1
  F  F22  1  0.55889900  0.46908400  0.88204300  1
  F  F23  1  0.90316300  0.29598500  0.55407600  1
  F  F24  1  0.58811700  0.09428400  0.22072900  1
  F  F25  1  0.07070000  0.40491500  0.78117100  1
  F  F26  1  0.42583600  0.18514100  0.44630400  1
  F  F27  1  0.07037100  0.06026900  0.11359700  1
  F  F28  1  0.72483100  0.11873200  0.69317300  1
  F  F29  1  0.29620000  0.18347900  0.97664300  1
