# generated using pymatgen
data_Mn12O5F19
_symmetry_space_group_name_H-M   'P 1'
_cell_length_a   4.85144900
_cell_length_b   5.86391710
_cell_length_c   15.99572058
_cell_angle_alpha   90.22939042
_cell_angle_beta   90.10279111
_cell_angle_gamma   91.74394597
_symmetry_Int_Tables_number   1
_chemical_formula_structural   Mn12O5F19
_chemical_formula_sum   'Mn12 O5 F19'
_cell_volume   454.83891618
_cell_formula_units_Z   1
loop_
 _symmetry_equiv_pos_site_id
 _symmetry_equiv_pos_as_xyz
  1  'x, y, z'
loop_
 _atom_site_type_symbol
 _atom_site_label
 _atom_site_symmetry_multiplicity
 _atom_site_fract_x
 _atom_site_fract_y
 _atom_site_fract_z
 _atom_site_occupancy
  Mn  Mn0  1  0.99376100  0.83111500  0.59102800  1
  Mn  Mn1  1  0.01016500  0.14880600  0.75073100  1
  Mn  Mn2  1  0.99270700  0.82306200  0.92013900  1
  Mn  Mn3  1  0.01619300  0.85412400  0.24921400  1
  Mn  Mn4  1  0.02385000  0.17131000  0.41606200  1
  Mn  Mn5  1  0.01056300  0.16554500  0.08945000  1
  Mn  Mn6  1  0.50204600  0.64784500  0.41386500  1
  Mn  Mn7  1  0.50961600  0.65350100  0.07692900  1
  Mn  Mn8  1  0.48960800  0.67988800  0.73871300  1
  Mn  Mn9  1  0.52377200  0.34831800  0.91477100  1
  Mn  Mn10  1  0.50986700  0.35008100  0.58540100  1
  Mn  Mn11  1  0.47488000  0.33291300  0.25324400  1
  O  O12  1  0.20853300  0.87919900  0.69343600  1
  O  O13  1  0.21868300  0.12761100  0.19940800  1
  O  O14  1  0.28657700  0.38873300  0.35466300  1
  O  O15  1  0.71322500  0.60848900  0.97798800  1
  O  O16  1  0.70990600  0.63163300  0.63856100  1
  F  F17  1  0.23417900  0.88481300  0.36295100  1
  F  F18  1  0.23744100  0.88943700  0.02935300  1
  F  F19  1  0.23715300  0.11614000  0.86610000  1
  F  F20  1  0.23015900  0.09932700  0.53262500  1
  F  F21  1  0.27877700  0.61872900  0.85051700  1
  F  F22  1  0.26372500  0.38344900  0.69254600  1
  F  F23  1  0.25794400  0.60061800  0.52384300  1
  F  F24  1  0.27544800  0.62829200  0.18234500  1
  F  F25  1  0.26496300  0.39311100  0.02475000  1
  F  F26  1  0.73481200  0.39346600  0.80188800  1
  F  F27  1  0.73829400  0.38778000  0.47283400  1
  F  F28  1  0.70128100  0.37502800  0.14549500  1
  F  F29  1  0.73451600  0.60551700  0.29721100  1
  F  F30  1  0.75803200  0.89492400  0.81109600  1
  F  F31  1  0.78231200  0.87809100  0.47653000  1
  F  F32  1  0.76568600  0.11852300  0.64121300  1
  F  F33  1  0.77799100  0.11538800  0.97787400  1
  F  F34  1  0.77064300  0.87621200  0.13716200  1
  F  F35  1  0.76269000  0.09898400  0.31006300  1
