# generated using pymatgen
data_Na6Co2B4SO16
_symmetry_space_group_name_H-M   'P 1'
_cell_length_a   9.78172772
_cell_length_b   9.78172772
_cell_length_c   9.78172772
_cell_angle_alpha   60.00000000
_cell_angle_beta   60.00000000
_cell_angle_gamma   60.00000000
_symmetry_Int_Tables_number   1
_chemical_formula_structural   Na6Co2B4SO16
_chemical_formula_sum   'Na12 Co4 B8 S2 O32'
_cell_volume   661.80754054
_cell_formula_units_Z   2
loop_
 _symmetry_equiv_pos_site_id
 _symmetry_equiv_pos_as_xyz
  1  'x, y, z'
loop_
 _atom_site_type_symbol
 _atom_site_label
 _atom_site_symmetry_multiplicity
 _atom_site_fract_x
 _atom_site_fract_y
 _atom_site_fract_z
 _atom_site_occupancy
  Na  Na0  1  0.21830700  0.21830700  0.78169300  1
  Na  Na1  1  0.78169300  0.21830700  0.21830700  1
  Na  Na2  1  0.21830700  0.78169300  0.21830700  1
  Na  Na3  1  0.78169300  0.21830700  0.78169300  1
  Na  Na4  1  0.46830700  0.46830700  0.03169300  1
  Na  Na5  1  0.03169300  0.46830700  0.46830700  1
  Na  Na6  1  0.21830700  0.78169300  0.78169300  1
  Na  Na7  1  0.78169300  0.78169300  0.21830700  1
  Na  Na8  1  0.46830700  0.03169300  0.46830700  1
  Na  Na9  1  0.03169300  0.46830700  0.03169300  1
  Na  Na10  1  0.03169300  0.03169300  0.46830700  1
  Na  Na11  1  0.46830700  0.03169300  0.03169300  1
  Co  Co12  1  0.62500000  0.12500000  0.62500000  1
  Co  Co13  1  0.12500000  0.62500000  0.62500000  1
  Co  Co14  1  0.62500000  0.62500000  0.12500000  1
  Co  Co15  1  0.62500000  0.62500000  0.62500000  1
  B  B16  1  0.41577600  0.41577600  0.41577600  1
  B  B17  1  0.75267200  0.41577600  0.41577600  1
  B  B18  1  0.41577600  0.41577600  0.75267200  1
  B  B19  1  0.41577600  0.75267200  0.41577600  1
  B  B20  1  0.83422400  0.49732800  0.83422400  1
  B  B21  1  0.83422400  0.83422400  0.49732800  1
  B  B22  1  0.49732800  0.83422400  0.83422400  1
  B  B23  1  0.83422400  0.83422400  0.83422400  1
  S  S24  1  0.25000000  0.25000000  0.25000000  1
  S  S25  1  0.00000000  0.00000000  0.00000000  1
  O  O26  1  0.18751000  0.18751000  0.18751000  1
  O  O27  1  0.18751000  0.18751000  0.43747000  1
  O  O28  1  0.43747000  0.18751000  0.18751000  1
  O  O29  1  0.18751000  0.43747000  0.18751000  1
  O  O30  1  0.44584500  0.25794700  0.53407700  1
  O  O31  1  0.53407700  0.44584500  0.25794700  1
  O  O32  1  0.76213100  0.25794700  0.44584500  1
  O  O33  1  0.25794700  0.53407700  0.44584500  1
  O  O34  1  0.53407700  0.25794700  0.76213100  1
  O  O35  1  0.25794700  0.44584500  0.76213100  1
  O  O36  1  0.76213100  0.53407700  0.25794700  1
  O  O37  1  0.76213100  0.44584500  0.53407700  1
  O  O38  1  0.44584500  0.76213100  0.25794700  1
  O  O39  1  0.44584500  0.53407700  0.76213100  1
  O  O40  1  0.25794700  0.76213100  0.53407700  1
  O  O41  1  0.71592300  0.48786900  0.80415500  1
  O  O42  1  0.53407700  0.76213100  0.44584500  1
  O  O43  1  0.99205300  0.48786900  0.71592300  1
  O  O44  1  0.80415500  0.71592300  0.48786900  1
  O  O45  1  0.80415500  0.48786900  0.99205300  1
  O  O46  1  0.48786900  0.80415500  0.71592300  1
  O  O47  1  0.48786900  0.71592300  0.99205300  1
  O  O48  1  0.99205300  0.80415500  0.48786900  1
  O  O49  1  0.71592300  0.99205300  0.48786900  1
  O  O50  1  0.99205300  0.71592300  0.80415500  1
  O  O51  1  0.48786900  0.99205300  0.80415500  1
  O  O52  1  0.71592300  0.80415500  0.99205300  1
  O  O53  1  0.80415500  0.99205300  0.71592300  1
  O  O54  1  0.06249000  0.81253000  0.06249000  1
  O  O55  1  0.06249000  0.06249000  0.81253000  1
  O  O56  1  0.81253000  0.06249000  0.06249000  1
  O  O57  1  0.06249000  0.06249000  0.06249000  1
