# generated using pymatgen
data_La2P4O13
_symmetry_space_group_name_H-M   'P 1'
_cell_length_a   10.17224500
_cell_length_b   9.22125900
_cell_length_c   14.48132750
_cell_angle_alpha   73.61066977
_cell_angle_beta   90.00000000
_cell_angle_gamma   90.00000000
_symmetry_Int_Tables_number   1
_chemical_formula_structural   La2P4O13
_chemical_formula_sum   'La8 P16 O52'
_cell_volume   1303.16669738
_cell_formula_units_Z   4
loop_
 _symmetry_equiv_pos_site_id
 _symmetry_equiv_pos_as_xyz
  1  'x, y, z'
loop_
 _atom_site_type_symbol
 _atom_site_label
 _atom_site_symmetry_multiplicity
 _atom_site_fract_x
 _atom_site_fract_y
 _atom_site_fract_z
 _atom_site_occupancy
  La  La0  1  0.99873800  0.72207500  0.99383200  1
  La  La1  1  0.99411000  0.77847900  0.51467100  1
  La  La2  1  0.50126200  0.72207500  0.49383200  1
  La  La3  1  0.50589000  0.77847900  0.01467100  1
  La  La4  1  0.49411000  0.22152100  0.98532900  1
  La  La5  1  0.49873800  0.27792500  0.50616800  1
  La  La6  1  0.00589000  0.22152100  0.48532900  1
  La  La7  1  0.00126200  0.27792500  0.00616800  1
  P  P8  1  0.72397000  0.97268300  0.59724800  1
  P  P9  1  0.75360600  0.89746300  0.81106700  1
  P  P10  1  0.26641700  0.77156600  0.68881300  1
  P  P11  1  0.77603000  0.97268300  0.09724800  1
  P  P12  1  0.74639400  0.89746300  0.31106700  1
  P  P13  1  0.27810200  0.54451400  0.89910100  1
  P  P14  1  0.23358300  0.77156600  0.18881300  1
  P  P15  1  0.77810200  0.45548600  0.60089900  1
  P  P16  1  0.22189800  0.54451400  0.39910100  1
  P  P17  1  0.76641700  0.22843400  0.81118700  1
  P  P18  1  0.72189800  0.45548600  0.10089900  1
  P  P19  1  0.25360600  0.10253700  0.68893300  1
  P  P20  1  0.22397000  0.02731700  0.90275200  1
  P  P21  1  0.73358300  0.22843400  0.31118700  1
  P  P22  1  0.24639400  0.10253700  0.18893300  1
  P  P23  1  0.27603000  0.02731700  0.40275200  1
  O  O24  1  0.29953500  0.92746000  0.71425300  1
  O  O25  1  0.16195100  0.87699600  0.90332900  1
  O  O26  1  0.86879800  0.98749400  0.56325900  1
  O  O27  1  0.62962300  0.87063100  0.86972600  1
  O  O28  1  0.72512600  0.87046300  0.70910300  1
  O  O29  1  0.64331800  0.88268500  0.54437500  1
  O  O30  1  0.86929500  0.79881900  0.85329100  1
  O  O31  1  0.20046500  0.92746000  0.21425300  1
  O  O32  1  0.33804900  0.87699600  0.40332900  1
  O  O33  1  0.63120200  0.98749400  0.06325900  1
  O  O34  1  0.36378800  0.62696700  0.95441200  1
  O  O35  1  0.13051600  0.77624500  0.64765500  1
  O  O36  1  0.87037700  0.87063100  0.36972600  1
  O  O37  1  0.77487400  0.87046300  0.20910300  1
  O  O38  1  0.37724900  0.73995600  0.62833000  1
  O  O39  1  0.27064000  0.64734700  0.78886800  1
  O  O40  1  0.85668200  0.88268500  0.04437500  1
  O  O41  1  0.83894700  0.60445600  0.60481900  1
  O  O42  1  0.13402300  0.52406300  0.93664500  1
  O  O43  1  0.63070500  0.79881900  0.35329100  1
  O  O44  1  0.13621200  0.62696700  0.45441200  1
  O  O45  1  0.36948400  0.77624500  0.14765500  1
  O  O46  1  0.12275100  0.73995600  0.12833000  1
  O  O47  1  0.22936000  0.64734700  0.28886800  1
  O  O48  1  0.63402300  0.47593700  0.56335500  1
  O  O49  1  0.33894700  0.39554400  0.89518100  1
  O  O50  1  0.66105300  0.60445600  0.10481900  1
  O  O51  1  0.36597700  0.52406300  0.43664500  1
  O  O52  1  0.77064000  0.35265300  0.71113200  1
  O  O53  1  0.87724900  0.26004400  0.87167000  1
  O  O54  1  0.63051600  0.22375500  0.85234500  1
  O  O55  1  0.86378800  0.37303300  0.54558800  1
  O  O56  1  0.36929500  0.20118100  0.64670900  1
  O  O57  1  0.86597700  0.47593700  0.06335500  1
  O  O58  1  0.16105300  0.39554400  0.39518100  1
  O  O59  1  0.14331800  0.11731500  0.95562500  1
  O  O60  1  0.72936000  0.35265300  0.21113200  1
  O  O61  1  0.62275100  0.26004400  0.37167000  1
  O  O62  1  0.22512600  0.12953700  0.79089700  1
  O  O63  1  0.12962300  0.12936900  0.63027400  1
  O  O64  1  0.86948400  0.22375500  0.35234500  1
  O  O65  1  0.63621200  0.37303300  0.04558800  1
  O  O66  1  0.36879800  0.01250600  0.93674100  1
  O  O67  1  0.66195100  0.12300400  0.59667100  1
  O  O68  1  0.79953500  0.07254000  0.78574700  1
  O  O69  1  0.13070500  0.20118100  0.14670900  1
  O  O70  1  0.35668200  0.11731500  0.45562500  1
  O  O71  1  0.27487400  0.12953700  0.29089700  1
  O  O72  1  0.37037700  0.12936900  0.13027400  1
  O  O73  1  0.13120200  0.01250600  0.43674100  1
  O  O74  1  0.83804900  0.12300400  0.09667100  1
  O  O75  1  0.70046500  0.07254000  0.28574700  1
