# generated using pymatgen
data_Na2V2O5
_symmetry_space_group_name_H-M   'P 1'
_cell_length_a   24.42260800
_cell_length_b   5.35747400
_cell_length_c   8.77648687
_cell_angle_alpha   89.61818795
_cell_angle_beta   90.00000000
_cell_angle_gamma   90.00000000
_symmetry_Int_Tables_number   1
_chemical_formula_structural   Na2V2O5
_chemical_formula_sum   'Na16 V16 O40'
_cell_volume   1148.32065148
_cell_formula_units_Z   8
loop_
 _symmetry_equiv_pos_site_id
 _symmetry_equiv_pos_as_xyz
  1  'x, y, z'
loop_
 _atom_site_type_symbol
 _atom_site_label
 _atom_site_symmetry_multiplicity
 _atom_site_fract_x
 _atom_site_fract_y
 _atom_site_fract_z
 _atom_site_occupancy
  Na  Na0  1  0.73870100  0.78887300  0.51846300  1
  Na  Na1  1  0.76129900  0.78887300  0.01846300  1
  Na  Na2  1  0.28090700  0.77265700  0.72952400  1
  Na  Na3  1  0.21909300  0.77265700  0.22952400  1
  Na  Na4  1  0.52959300  0.73313800  0.90645600  1
  Na  Na5  1  0.97040700  0.73313800  0.40645600  1
  Na  Na6  1  0.01538500  0.70338100  0.83959900  1
  Na  Na7  1  0.48461500  0.70338100  0.33959900  1
  Na  Na8  1  0.51538500  0.29661900  0.66040100  1
  Na  Na9  1  0.98461500  0.29661900  0.16040100  1
  Na  Na10  1  0.02959300  0.26686200  0.59354400  1
  Na  Na11  1  0.47040700  0.26686200  0.09354400  1
  Na  Na12  1  0.78090700  0.22734300  0.77047600  1
  Na  Na13  1  0.71909300  0.22734300  0.27047600  1
  Na  Na14  1  0.23870100  0.21112700  0.98153700  1
  Na  Na15  1  0.26129900  0.21112700  0.48153700  1
  V  V16  1  0.58807300  0.83053300  0.54037600  1
  V  V17  1  0.91192700  0.83053300  0.04037600  1
  V  V18  1  0.11276600  0.80218800  0.52045100  1
  V  V19  1  0.38723400  0.80218800  0.02045100  1
  V  V20  1  0.86444600  0.69535100  0.69898200  1
  V  V21  1  0.63555400  0.69535100  0.19898200  1
  V  V22  1  0.16303800  0.67056100  0.86106000  1
  V  V23  1  0.33696200  0.67056100  0.36106000  1
  V  V24  1  0.66303800  0.32943900  0.63894000  1
  V  V25  1  0.83696200  0.32943900  0.13894000  1
  V  V26  1  0.36444600  0.30464900  0.80101800  1
  V  V27  1  0.13555400  0.30464900  0.30101800  1
  V  V28  1  0.61276600  0.19781200  0.97954900  1
  V  V29  1  0.88723400  0.19781200  0.47954900  1
  V  V30  1  0.08807300  0.16946700  0.95962400  1
  V  V31  1  0.41192700  0.16946700  0.45962400  1
  O  O32  1  0.88651200  0.85734800  0.51939200  1
  O  O33  1  0.61348800  0.85734800  0.01939200  1
  O  O34  1  0.10122400  0.83746900  0.93246400  1
  O  O35  1  0.39877600  0.83746900  0.43246400  1
  O  O36  1  0.79707500  0.77964000  0.74409600  1
  O  O37  1  0.70292500  0.77964000  0.24409600  1
  O  O38  1  0.92014600  0.76101900  0.83524000  1
  O  O39  1  0.53080000  0.73378400  0.64023400  1
  O  O40  1  0.57985400  0.76101900  0.33524000  1
  O  O41  1  0.96920000  0.73378400  0.14023400  1
  O  O42  1  0.22118200  0.76597500  0.95780600  1
  O  O43  1  0.27881800  0.76597500  0.45780600  1
  O  O44  1  0.16879800  0.73954100  0.65627800  1
  O  O45  1  0.33120200  0.73954100  0.15627800  1
  O  O46  1  0.04579700  0.71924700  0.57190800  1
  O  O47  1  0.45420300  0.71924700  0.07190800  1
  O  O48  1  0.65095400  0.66335600  0.60905100  1
  O  O49  1  0.84904600  0.66335600  0.10905100  1
  O  O50  1  0.36593400  0.64270600  0.84086100  1
  O  O51  1  0.13406600  0.64270600  0.34086100  1
  O  O52  1  0.86593400  0.35729400  0.65913900  1
  O  O53  1  0.63406600  0.35729400  0.15913900  1
  O  O54  1  0.15095400  0.33664400  0.89094900  1
  O  O55  1  0.34904600  0.33664400  0.39094900  1
  O  O56  1  0.54579700  0.28075300  0.92809200  1
  O  O57  1  0.95420300  0.28075300  0.42809200  1
  O  O58  1  0.66879800  0.26045900  0.84372200  1
  O  O59  1  0.83120200  0.26045900  0.34372200  1
  O  O60  1  0.72118200  0.23402500  0.54219400  1
  O  O61  1  0.77881800  0.23402500  0.04219400  1
  O  O62  1  0.03080000  0.26621600  0.85976600  1
  O  O63  1  0.42014600  0.23898100  0.66476000  1
  O  O64  1  0.46920000  0.26621600  0.35976600  1
  O  O65  1  0.07985400  0.23898100  0.16476000  1
  O  O66  1  0.29707500  0.22036000  0.75590400  1
  O  O67  1  0.20292500  0.22036000  0.25590400  1
  O  O68  1  0.60122400  0.16253100  0.56753600  1
  O  O69  1  0.89877600  0.16253100  0.06753600  1
  O  O70  1  0.38651200  0.14265200  0.98060800  1
  O  O71  1  0.11348800  0.14265200  0.48060800  1
