# generated using pymatgen
data_Na3(W3O8)4
_symmetry_space_group_name_H-M   'P 1'
_cell_length_a   17.87694000
_cell_length_b   17.87694000
_cell_length_c   3.88802800
_cell_angle_alpha   90.00000000
_cell_angle_beta   90.00000000
_cell_angle_gamma   90.00000000
_symmetry_Int_Tables_number   1
_chemical_formula_structural   Na3(W3O8)4
_chemical_formula_sum   'Na6 W24 O64'
_cell_volume   1242.55536525
_cell_formula_units_Z   2
loop_
 _symmetry_equiv_pos_site_id
 _symmetry_equiv_pos_as_xyz
  1  'x, y, z'
loop_
 _atom_site_type_symbol
 _atom_site_label
 _atom_site_symmetry_multiplicity
 _atom_site_fract_x
 _atom_site_fract_y
 _atom_site_fract_z
 _atom_site_occupancy
  Na  Na0  1  0.50000000  0.00000000  0.57749400  1
  Na  Na1  1  0.42808700  0.26585500  0.54592800  1
  Na  Na2  1  0.73414500  0.42808700  0.54592800  1
  Na  Na3  1  0.00000000  0.50000000  0.57749400  1
  Na  Na4  1  0.26585500  0.57191300  0.54592800  1
  Na  Na5  1  0.57191300  0.73414500  0.54592800  1
  W  W6  1  0.36359400  0.06730700  0.07404000  1
  W  W7  1  0.14180400  0.07287700  0.06820700  1
  W  W8  1  0.74832100  0.07895300  0.07100400  1
  W  W9  1  0.92712300  0.14180400  0.06820700  1
  W  W10  1  0.56743400  0.14552600  0.07601500  1
  W  W11  1  0.26479600  0.25065500  0.07262000  1
  W  W12  1  0.07895300  0.25167900  0.07100400  1
  W  W13  1  0.74934500  0.26479600  0.07262000  1
  W  W14  1  0.55991300  0.35968000  0.07973900  1
  W  W15  1  0.93269300  0.36359400  0.07404000  1
  W  W16  1  0.14552600  0.43256600  0.07601500  1
  W  W17  1  0.35968000  0.44008700  0.07973900  1
  W  W18  1  0.64032000  0.55991300  0.07973900  1
  W  W19  1  0.85447400  0.56743400  0.07601500  1
  W  W20  1  0.06730700  0.63640600  0.07404000  1
  W  W21  1  0.44008700  0.64032000  0.07973900  1
  W  W22  1  0.25065500  0.73520400  0.07262000  1
  W  W23  1  0.92104700  0.74832100  0.07100400  1
  W  W24  1  0.73520400  0.74934500  0.07262000  1
  W  W25  1  0.43256600  0.85447400  0.07601500  1
  W  W26  1  0.07287700  0.85819600  0.06820700  1
  W  W27  1  0.25167900  0.92104700  0.07100400  1
  W  W28  1  0.85819600  0.92712300  0.06820700  1
  W  W29  1  0.63640600  0.93269300  0.07404000  1
  O  O30  1  0.25244000  0.03549600  0.07090300  1
  O  O31  1  0.63165700  0.04692200  0.07394700  1
  O  O32  1  0.86702500  0.04191300  0.06870600  1
  O  O33  1  0.36714300  0.06691000  0.57412900  1
  O  O34  1  0.14110200  0.07290900  0.56869600  1
  O  O35  1  0.74825900  0.07941000  0.57102800  1
  O  O36  1  0.47809100  0.08704600  0.07572700  1
  O  O37  1  0.92709100  0.14110200  0.56869600  1
  O  O38  1  0.04191300  0.13297500  0.06870600  1
  O  O39  1  0.56640900  0.14488600  0.57600600  1
  O  O40  1  0.81607800  0.17349600  0.07064500  1
  O  O41  1  0.34256400  0.17777800  0.07467300  1
  O  O42  1  0.67704800  0.17576200  0.07354500  1
  O  O43  1  0.17349600  0.18392200  0.07064500  1
  O  O44  1  0.53024800  0.25025300  0.07952900  1
  O  O45  1  0.96450300  0.25244000  0.07090300  1
  O  O46  1  0.07941000  0.25174100  0.57102800  1
  O  O47  1  0.26393300  0.24997100  0.57337700  1
  O  O48  1  0.75002900  0.26393300  0.57337700  1
  O  O49  1  0.17576200  0.32295200  0.07354500  1
  O  O50  1  0.66670300  0.33043400  0.07746500  1
  O  O51  1  0.33043400  0.33329700  0.07746500  1
  O  O52  1  0.82222200  0.34256400  0.07467300  1
  O  O53  1  0.55885800  0.35705000  0.58003800  1
  O  O54  1  0.93309000  0.36714300  0.57412900  1
  O  O55  1  0.04692200  0.36834300  0.07394700  1
  O  O56  1  0.45909000  0.39674200  0.08188900  1
  O  O57  1  0.14488600  0.43359100  0.57600600  1
  O  O58  1  0.35705000  0.44114200  0.58003800  1
  O  O59  1  0.60325800  0.45909000  0.08188900  1
  O  O60  1  0.25025300  0.46975200  0.07952900  1
  O  O61  1  0.91295400  0.47809100  0.07572700  1
  O  O62  1  0.08704600  0.52190900  0.07572700  1
  O  O63  1  0.74974700  0.53024800  0.07952900  1
  O  O64  1  0.39674200  0.54091000  0.08188900  1
  O  O65  1  0.64295000  0.55885800  0.58003800  1
  O  O66  1  0.85511400  0.56640900  0.57600600  1
  O  O67  1  0.54091000  0.60325800  0.08188900  1
  O  O68  1  0.95307800  0.63165700  0.07394700  1
  O  O69  1  0.06691000  0.63285700  0.57412900  1
  O  O70  1  0.44114200  0.64295000  0.58003800  1
  O  O71  1  0.17777800  0.65743600  0.07467300  1
  O  O72  1  0.66956600  0.66670300  0.07746500  1
  O  O73  1  0.33329700  0.66956600  0.07746500  1
  O  O74  1  0.82423800  0.67704800  0.07354500  1
  O  O75  1  0.24997100  0.73606700  0.57337700  1
  O  O76  1  0.73606700  0.75002900  0.57337700  1
  O  O77  1  0.92059000  0.74825900  0.57102800  1
  O  O78  1  0.03549600  0.74756000  0.07090300  1
  O  O79  1  0.46975200  0.74974700  0.07952900  1
  O  O80  1  0.82650400  0.81607800  0.07064500  1
  O  O81  1  0.32295200  0.82423800  0.07354500  1
  O  O82  1  0.65743600  0.82222200  0.07467300  1
  O  O83  1  0.18392200  0.82650400  0.07064500  1
  O  O84  1  0.43359100  0.85511400  0.57600600  1
  O  O85  1  0.95808700  0.86702500  0.06870600  1
  O  O86  1  0.07290900  0.85889800  0.56869600  1
  O  O87  1  0.52190900  0.91295400  0.07572700  1
  O  O88  1  0.25174100  0.92059000  0.57102800  1
  O  O89  1  0.85889800  0.92709100  0.56869600  1
  O  O90  1  0.63285700  0.93309000  0.57412900  1
  O  O91  1  0.13297500  0.95808700  0.06870600  1
  O  O92  1  0.36834300  0.95307800  0.07394700  1
  O  O93  1  0.74756000  0.96450300  0.07090300  1
