# generated using pymatgen
data_Na4Bi2O5
_symmetry_space_group_name_H-M   'P 1'
_cell_length_a   5.65884200
_cell_length_b   9.86490300
_cell_length_c   14.79973100
_cell_angle_alpha   90.00000000
_cell_angle_beta   90.00000000
_cell_angle_gamma   90.00000000
_symmetry_Int_Tables_number   1
_chemical_formula_structural   Na4Bi2O5
_chemical_formula_sum   'Na16 Bi8 O20'
_cell_volume   826.17910921
_cell_formula_units_Z   4
loop_
 _symmetry_equiv_pos_site_id
 _symmetry_equiv_pos_as_xyz
  1  'x, y, z'
loop_
 _atom_site_type_symbol
 _atom_site_label
 _atom_site_symmetry_multiplicity
 _atom_site_fract_x
 _atom_site_fract_y
 _atom_site_fract_z
 _atom_site_occupancy
  Na  Na0  1  0.48177000  0.85705400  0.02365100  1
  Na  Na1  1  0.01823000  0.64294600  0.02365100  1
  Na  Na2  1  0.25000000  0.75000000  0.19436200  1
  Na  Na3  1  0.50000000  0.07801600  0.25000000  1
  Na  Na4  1  0.00000000  0.42198400  0.25000000  1
  Na  Na5  1  0.75000000  0.75000000  0.30563800  1
  Na  Na6  1  0.98177000  0.64294600  0.47634900  1
  Na  Na7  1  0.51823000  0.85705400  0.47634900  1
  Na  Na8  1  0.48177000  0.14294600  0.52365100  1
  Na  Na9  1  0.01823000  0.35705400  0.52365100  1
  Na  Na10  1  0.25000000  0.25000000  0.69436200  1
  Na  Na11  1  0.00000000  0.57801600  0.75000000  1
  Na  Na12  1  0.50000000  0.92198400  0.75000000  1
  Na  Na13  1  0.75000000  0.25000000  0.80563800  1
  Na  Na14  1  0.98177000  0.35705400  0.97634900  1
  Na  Na15  1  0.51823000  0.14294600  0.97634900  1
  Bi  Bi16  1  0.53037700  0.45469300  0.11653700  1
  Bi  Bi17  1  0.96962300  0.04530700  0.11653700  1
  Bi  Bi18  1  0.03037700  0.04530700  0.38346300  1
  Bi  Bi19  1  0.46962300  0.45469300  0.38346300  1
  Bi  Bi20  1  0.53037700  0.54530700  0.61653700  1
  Bi  Bi21  1  0.96962300  0.95469300  0.61653700  1
  Bi  Bi22  1  0.03037700  0.95469300  0.88346300  1
  Bi  Bi23  1  0.46962300  0.54530700  0.88346300  1
  O  O24  1  0.05278100  0.86779300  0.04580300  1
  O  O25  1  0.44721900  0.63220700  0.04580300  1
  O  O26  1  0.89764600  0.46457100  0.11217200  1
  O  O27  1  0.60235400  0.03542900  0.11217200  1
  O  O28  1  0.00000000  0.92613700  0.25000000  1
  O  O29  1  0.50000000  0.57386300  0.25000000  1
  O  O30  1  0.10235400  0.46457100  0.38782800  1
  O  O31  1  0.39764600  0.03542900  0.38782800  1
  O  O32  1  0.55278100  0.63220700  0.45419700  1
  O  O33  1  0.94721900  0.86779300  0.45419700  1
  O  O34  1  0.05278100  0.13220700  0.54580300  1
  O  O35  1  0.44721900  0.36779300  0.54580300  1
  O  O36  1  0.60235400  0.96457100  0.61217200  1
  O  O37  1  0.89764600  0.53542900  0.61217200  1
  O  O38  1  0.00000000  0.07386300  0.75000000  1
  O  O39  1  0.50000000  0.42613700  0.75000000  1
  O  O40  1  0.10235400  0.53542900  0.88782800  1
  O  O41  1  0.39764600  0.96457100  0.88782800  1
  O  O42  1  0.55278100  0.36779300  0.95419700  1
  O  O43  1  0.94721900  0.13220700  0.95419700  1
