# generated using pymatgen
data_Mn7P12WO48
_symmetry_space_group_name_H-M   'P 1'
_cell_length_a   8.49952800
_cell_length_b   8.51644592
_cell_length_c   11.84655509
_cell_angle_alpha   89.95924693
_cell_angle_beta   89.92899059
_cell_angle_gamma   89.95252960
_symmetry_Int_Tables_number   1
_chemical_formula_structural   Mn7P12WO48
_chemical_formula_sum   'Mn7 P12 W1 O48'
_cell_volume   857.52084948
_cell_formula_units_Z   1
loop_
 _symmetry_equiv_pos_site_id
 _symmetry_equiv_pos_as_xyz
  1  'x, y, z'
loop_
 _atom_site_type_symbol
 _atom_site_label
 _atom_site_symmetry_multiplicity
 _atom_site_fract_x
 _atom_site_fract_y
 _atom_site_fract_z
 _atom_site_occupancy
  Mn  Mn0  1  0.03213000  0.24930700  0.61871300  1
  Mn  Mn1  1  0.46547300  0.25078000  0.38052500  1
  Mn  Mn2  1  0.96490500  0.24973900  0.11765300  1
  Mn  Mn3  1  0.53454200  0.25047400  0.88312000  1
  Mn  Mn4  1  0.46461300  0.75062400  0.11963100  1
  Mn  Mn5  1  0.03378600  0.74994600  0.88357000  1
  Mn  Mn6  1  0.96712500  0.74926200  0.38128900  1
  P  P7  1  0.75565000  0.04325600  0.49639400  1
  P  P8  1  0.60764800  0.10656200  0.14583700  1
  P  P9  1  0.89153000  0.10667600  0.85505300  1
  P  P10  1  0.39056500  0.38276300  0.64621400  1
  P  P11  1  0.10769500  0.39243500  0.35473300  1
  P  P12  1  0.24978300  0.46360400  0.00058400  1
  P  P13  1  0.74959000  0.53728000  0.00048200  1
  P  P14  1  0.60854500  0.60363800  0.34916300  1
  P  P15  1  0.90241700  0.60372000  0.64580300  1
  P  P16  1  0.38732900  0.89908600  0.86139700  1
  P  P17  1  0.10781900  0.89320200  0.14576900  1
  P  P18  1  0.24259000  0.96795600  0.49600400  1
  W  W19  1  0.53234700  0.75032200  0.62084200  1
  O  O20  1  0.35606900  0.06207200  0.42297500  1
  O  O21  1  0.13937500  0.05937400  0.57823700  1
  O  O22  1  0.09867600  0.07459300  0.15897700  1
  O  O23  1  0.39865700  0.07724600  0.84401700  1
  O  O24  1  0.84054800  0.14694500  0.58259000  1
  O  O25  1  0.65634200  0.14446700  0.41772500  1
  O  O26  1  0.56182900  0.15861200  0.02669400  1
  O  O27  1  0.93857200  0.15922000  0.97365900  1
  O  O28  1  0.77810000  0.15301700  0.17636500  1
  O  O29  1  0.72146000  0.15253400  0.82428100  1
  O  O30  1  0.48610400  0.18021500  0.22721600  1
  O  O31  1  0.01332600  0.17877200  0.77233900  1
  O  O32  1  0.98621500  0.32034700  0.27195600  1
  O  O33  1  0.51310000  0.31665100  0.72821600  1
  O  O34  1  0.21958400  0.34714800  0.67654200  1
  O  O35  1  0.27772000  0.34732200  0.32333500  1
  O  O36  1  0.43621100  0.34011700  0.52625900  1
  O  O37  1  0.06100600  0.33979100  0.47357800  1
  O  O38  1  0.15902400  0.35316600  0.08159600  1
  O  O39  1  0.34191800  0.35552800  0.91926900  1
  O  O40  1  0.90099300  0.42414300  0.65967000  1
  O  O41  1  0.60194000  0.42359500  0.34396900  1
  O  O42  1  0.85950600  0.44061600  0.07685300  1
  O  O43  1  0.64113400  0.44109000  0.92283700  1
  O  O44  1  0.35866200  0.55994700  0.07743500  1
  O  O45  1  0.14027800  0.55983200  0.92349600  1
  O  O46  1  0.40802200  0.56866300  0.65611000  1
  O  O47  1  0.09977700  0.57408500  0.34136800  1
  O  O48  1  0.65844400  0.64612000  0.08196800  1
  O  O49  1  0.84015200  0.64666100  0.91821800  1
  O  O50  1  0.93995800  0.65796000  0.52673600  1
  O  O51  1  0.56210400  0.66245100  0.47160800  1
  O  O52  1  0.77774800  0.65362500  0.32425200  1
  O  O53  1  0.72565100  0.65292700  0.67131700  1
  O  O54  1  0.48531200  0.67996500  0.27220300  1
  O  O55  1  0.01538200  0.68374300  0.72826500  1
  O  O56  1  0.98626800  0.81899000  0.22760300  1
  O  O57  1  0.50610300  0.82417200  0.77217300  1
  O  O58  1  0.27788600  0.84748500  0.17661600  1
  O  O59  1  0.22204600  0.84720700  0.82573400  1
  O  O60  1  0.43969800  0.84013800  0.97500000  1
  O  O61  1  0.06154500  0.84151200  0.02680000  1
  O  O62  1  0.34484900  0.85754500  0.57598000  1
  O  O63  1  0.15824100  0.85290100  0.41783600  1
  O  O64  1  0.89945100  0.92520100  0.84236700  1
  O  O65  1  0.59946800  0.92552000  0.15912700  1
  O  O66  1  0.86160400  0.94122200  0.42267400  1
  O  O67  1  0.64786600  0.93491300  0.57318700  1
