# generated using pymatgen
data_Ti3V2Ni(PO4)6
_symmetry_space_group_name_H-M   'P 1'
_cell_length_a   8.53711003
_cell_length_b   8.53711003
_cell_length_c   8.53711000
_cell_angle_alpha   60.93003496
_cell_angle_beta   60.93003496
_cell_angle_gamma   60.93003701
_symmetry_Int_Tables_number   1
_chemical_formula_structural   Ti3V2Ni(PO4)6
_chemical_formula_sum   'Ti3 V2 Ni1 P6 O24'
_cell_volume   449.18564471
_cell_formula_units_Z   1
loop_
 _symmetry_equiv_pos_site_id
 _symmetry_equiv_pos_as_xyz
  1  'x, y, z'
loop_
 _atom_site_type_symbol
 _atom_site_label
 _atom_site_symmetry_multiplicity
 _atom_site_fract_x
 _atom_site_fract_y
 _atom_site_fract_z
 _atom_site_occupancy
  Ti  Ti0  1  0.35470600  0.35470600  0.35470600  1
  Ti  Ti1  1  0.14210600  0.14210600  0.14210600  1
  Ti  Ti2  1  0.64521600  0.64521600  0.64521600  1
  V  V3  1  0.99900700  0.99900700  0.99900700  1
  V  V4  1  0.49853400  0.49853400  0.49853400  1
  Ni  Ni5  1  0.85844300  0.85844300  0.85844300  1
  P  P6  1  0.75167400  0.04486100  0.45943800  1
  P  P7  1  0.04486100  0.45943800  0.75167400  1
  P  P8  1  0.45943800  0.75167400  0.04486100  1
  P  P9  1  0.54269100  0.25049200  0.95516300  1
  P  P10  1  0.95516300  0.54269100  0.25049200  1
  P  P11  1  0.25049200  0.95516300  0.54269100  1
  O  O12  1  0.88089000  0.50578100  0.68480600  1
  O  O13  1  0.50578100  0.68480600  0.88089000  1
  O  O14  1  0.68480600  0.88089000  0.50578100  1
  O  O15  1  0.91030800  0.05686800  0.25987200  1
  O  O16  1  0.81479700  0.01433800  0.61004600  1
  O  O17  1  0.58808400  0.24043400  0.43159300  1
  O  O18  1  0.05686800  0.25987200  0.91030800  1
  O  O19  1  0.24043400  0.43159300  0.58808400  1
  O  O20  1  0.38020700  0.18416200  0.00165100  1
  O  O21  1  0.43159300  0.58808400  0.24043400  1
  O  O22  1  0.73570200  0.09652600  0.94789800  1
  O  O23  1  0.00165100  0.38020700  0.18416200  1
  O  O24  1  0.01433800  0.61004600  0.81479700  1
  O  O25  1  0.25987200  0.91030800  0.05686800  1
  O  O26  1  0.55428800  0.41318700  0.76006000  1
  O  O27  1  0.61004600  0.81479700  0.01433800  1
  O  O28  1  0.76006000  0.55428800  0.41318700  1
  O  O29  1  0.94789800  0.73570200  0.09652600  1
  O  O30  1  0.41318700  0.76006000  0.55428800  1
  O  O31  1  0.18416200  0.00165100  0.38020700  1
  O  O32  1  0.09652600  0.94789800  0.73570200  1
  O  O33  1  0.32820400  0.11304400  0.48491500  1
  O  O34  1  0.48491500  0.32820400  0.11304400  1
  O  O35  1  0.11304400  0.48491500  0.32820400  1
