# generated using pymatgen
data_Mn2CoTc
_symmetry_space_group_name_H-M   'P 1'
_cell_length_a   9.72608582
_cell_length_b   9.72608582
_cell_length_c   9.72608582
_cell_angle_alpha   121.89902436
_cell_angle_beta   120.91024167
_cell_angle_gamma   87.58607353
_symmetry_Int_Tables_number   1
_chemical_formula_structural   Mn2CoTc
_chemical_formula_sum   'Mn2 Co1 Tc1'
_cell_volume   636.08958107
_cell_formula_units_Z   1
loop_
 _symmetry_equiv_pos_site_id
 _symmetry_equiv_pos_as_xyz
  1  'x, y, z'
loop_
 _atom_site_type_symbol
 _atom_site_label
 _atom_site_symmetry_multiplicity
 _atom_site_fract_x
 _atom_site_fract_y
 _atom_site_fract_z
 _atom_site_occupancy
  Mn  Mn0  1  0.00000000  0.24195900  0.24195900  1
  Mn  Mn1  1  0.00000000  0.75804100  0.75804100  1
  Co  Co2  1  0.00000000  0.00000000  0.00000000  1
  Tc  Tc3  1  0.00000000  0.50000000  0.50000000  1
