# generated using pymatgen
data_Co3OF5
_symmetry_space_group_name_H-M   'P 1'
_cell_length_a   4.74367200
_cell_length_b   5.69800700
_cell_length_c   7.91161374
_cell_angle_alpha   87.17441591
_cell_angle_beta   90.00000000
_cell_angle_gamma   90.00000000
_symmetry_Int_Tables_number   1
_chemical_formula_structural   Co3OF5
_chemical_formula_sum   'Co6 O2 F10'
_cell_volume   213.58678627
_cell_formula_units_Z   2
loop_
 _symmetry_equiv_pos_site_id
 _symmetry_equiv_pos_as_xyz
  1  'x, y, z'
loop_
 _atom_site_type_symbol
 _atom_site_label
 _atom_site_symmetry_multiplicity
 _atom_site_fract_x
 _atom_site_fract_y
 _atom_site_fract_z
 _atom_site_occupancy
  Co  Co0  1  0.51472000  0.74533600  0.98640600  1
  Co  Co1  1  0.51615800  0.07266400  0.67063800  1
  Co  Co2  1  0.47046500  0.40337100  0.32950800  1
  Co  Co3  1  0.01615800  0.92733600  0.32936200  1
  Co  Co4  1  0.97046500  0.59662900  0.67049200  1
  Co  Co5  1  0.01472000  0.25466400  0.01359400  1
  O  O6  1  0.19901200  0.21757200  0.23871400  1
  O  O7  1  0.69901200  0.78242800  0.76128600  1
  F  F8  1  0.19748400  0.87555200  0.56223200  1
  F  F9  1  0.19573900  0.54706800  0.89618900  1
  F  F10  1  0.30807800  0.71201600  0.22551600  1
  F  F11  1  0.29897500  0.04580200  0.89695500  1
  F  F12  1  0.29937000  0.38483400  0.57509800  1
  F  F13  1  0.69748400  0.12444800  0.43776800  1
  F  F14  1  0.69573900  0.45293200  0.10381100  1
  F  F15  1  0.80807800  0.28798400  0.77448400  1
  F  F16  1  0.79897500  0.95419800  0.10304500  1
  F  F17  1  0.79937000  0.61516600  0.42490200  1
