# generated using pymatgen
data_Sr2TlIn
_symmetry_space_group_name_H-M   'P 1'
_cell_length_a   14.32063790
_cell_length_b   14.32063790
_cell_length_c   14.32063790
_cell_angle_alpha   125.72343619
_cell_angle_beta   118.35056858
_cell_angle_gamma   86.63259591
_symmetry_Int_Tables_number   1
_chemical_formula_structural   Sr2TlIn
_chemical_formula_sum   'Sr2 Tl1 In1'
_cell_volume   1997.76609044
_cell_formula_units_Z   1
loop_
 _symmetry_equiv_pos_site_id
 _symmetry_equiv_pos_as_xyz
  1  'x, y, z'
loop_
 _atom_site_type_symbol
 _atom_site_label
 _atom_site_symmetry_multiplicity
 _atom_site_fract_x
 _atom_site_fract_y
 _atom_site_fract_z
 _atom_site_occupancy
  Sr  Sr0  1  0.00000000  0.24856100  0.24856100  1
  Sr  Sr1  1  0.00000000  0.75143900  0.75143900  1
  Tl  Tl2  1  0.00000000  0.50000000  0.50000000  1
  In  In3  1  0.00000000  0.00000000  0.00000000  1
