# generated using pymatgen
data_Fe10O9F11
_symmetry_space_group_name_H-M   'P 1'
_cell_length_a   4.77972400
_cell_length_b   4.78247672
_cell_length_c   15.44881179
_cell_angle_alpha   90.02599506
_cell_angle_beta   90.12402811
_cell_angle_gamma   93.30841679
_symmetry_Int_Tables_number   1
_chemical_formula_structural   Fe10O9F11
_chemical_formula_sum   'Fe10 O9 F11'
_cell_volume   352.55368201
_cell_formula_units_Z   1
loop_
 _symmetry_equiv_pos_site_id
 _symmetry_equiv_pos_as_xyz
  1  'x, y, z'
loop_
 _atom_site_type_symbol
 _atom_site_label
 _atom_site_symmetry_multiplicity
 _atom_site_fract_x
 _atom_site_fract_y
 _atom_site_fract_z
 _atom_site_occupancy
  Fe  Fe0  1  0.01257300  0.99099300  0.99447900  1
  Fe  Fe1  1  0.04502700  0.02207500  0.80353500  1
  Fe  Fe2  1  0.00187500  0.00082400  0.60061200  1
  Fe  Fe3  1  0.98335500  0.96326400  0.39670400  1
  Fe  Fe4  1  0.98368800  0.96245200  0.20344000  1
  Fe  Fe5  1  0.46291100  0.52333600  0.90411900  1
  Fe  Fe6  1  0.51270300  0.50181600  0.50830500  1
  Fe  Fe7  1  0.50213900  0.48966800  0.69517300  1
  Fe  Fe8  1  0.48014400  0.54899500  0.30044200  1
  Fe  Fe9  1  0.52232000  0.49697600  0.09230200  1
  O  O10  1  0.19532900  0.81892600  0.89944800  1
  O  O11  1  0.17885600  0.80597100  0.29931000  1
  O  O12  1  0.69955100  0.70247000  0.99991600  1
  O  O13  1  0.70094900  0.69178700  0.60119000  1
  O  O14  1  0.68144900  0.68505200  0.40046800  1
  O  O15  1  0.68020000  0.68364700  0.19784900  1
  O  O16  1  0.29809800  0.30638800  0.00425000  1
  O  O17  1  0.32214300  0.32348600  0.80061800  1
  O  O18  1  0.31094700  0.30131600  0.59830200  1
  F  F19  1  0.21263600  0.80598400  0.70764400  1
  F  F20  1  0.19934200  0.79477800  0.49121300  1
  F  F21  1  0.19025200  0.80378600  0.10270900  1
  F  F22  1  0.71108000  0.71817600  0.80000600  1
  F  F23  1  0.28938300  0.29485900  0.39776400  1
  F  F24  1  0.28821100  0.29277300  0.20053200  1
  F  F25  1  0.81316800  0.20192600  0.89989500  1
  F  F26  1  0.80243700  0.19421800  0.48820500  1
  F  F27  1  0.81311000  0.20421900  0.70984600  1
  F  F28  1  0.80958300  0.18483600  0.10354400  1
  F  F29  1  0.79653900  0.18500300  0.29818000  1
