# generated using pymatgen
data_Y2GaPd
_symmetry_space_group_name_H-M   'P 1'
_cell_length_a   11.52136896
_cell_length_b   11.52136896
_cell_length_c   11.52136896
_cell_angle_alpha   125.95127029
_cell_angle_beta   118.09623342
_cell_angle_gamma   86.67205948
_symmetry_Int_Tables_number   1
_chemical_formula_structural   Y2GaPd
_chemical_formula_sum   'Y2 Ga1 Pd1'
_cell_volume   1039.80360761
_cell_formula_units_Z   1
loop_
 _symmetry_equiv_pos_site_id
 _symmetry_equiv_pos_as_xyz
  1  'x, y, z'
loop_
 _atom_site_type_symbol
 _atom_site_label
 _atom_site_symmetry_multiplicity
 _atom_site_fract_x
 _atom_site_fract_y
 _atom_site_fract_z
 _atom_site_occupancy
  Y  Y0  1  0.00000000  0.25405700  0.25405700  1
  Y  Y1  1  0.00000000  0.74594300  0.74594300  1
  Ga  Ga2  1  0.00000000  0.00000000  0.00000000  1
  Pd  Pd3  1  0.00000000  0.50000000  0.50000000  1
