# generated using pymatgen
data_V4OF11
_symmetry_space_group_name_H-M   'P 1'
_cell_length_a   5.46864407
_cell_length_b   5.46864407
_cell_length_c   17.69359032
_cell_angle_alpha   78.75611709
_cell_angle_beta   78.75611709
_cell_angle_gamma   57.95546049
_symmetry_Int_Tables_number   1
_chemical_formula_structural   V4OF11
_chemical_formula_sum   'V8 O2 F22'
_cell_volume   437.23972605
_cell_formula_units_Z   2
loop_
 _symmetry_equiv_pos_site_id
 _symmetry_equiv_pos_as_xyz
  1  'x, y, z'
loop_
 _atom_site_type_symbol
 _atom_site_label
 _atom_site_symmetry_multiplicity
 _atom_site_fract_x
 _atom_site_fract_y
 _atom_site_fract_z
 _atom_site_occupancy
  V  V0  1  0.75550900  0.62288000  0.43667300  1
  V  V1  1  0.24969400  0.12780700  0.93687500  1
  V  V2  1  0.37712000  0.24449100  0.56332700  1
  V  V3  1  0.87219300  0.75030600  0.06312500  1
  V  V4  1  0.02401900  0.88270300  0.68254800  1
  V  V5  1  0.49224500  0.37136500  0.18906900  1
  V  V6  1  0.11729700  0.97598100  0.31745200  1
  V  V7  1  0.62863500  0.50775500  0.81093100  1
  O  O8  1  0.01800800  0.74312300  0.37139900  1
  O  O9  1  0.25687700  0.98199200  0.62860100  1
  F  F10  1  0.96738400  0.23536100  0.39981000  1
  F  F11  1  0.54254800  0.21414900  0.87525300  1
  F  F12  1  0.47311200  0.52688800  0.50000000  1
  F  F13  1  0.76463900  0.03261600  0.60019000  1
  F  F14  1  0.46513700  0.73843700  0.89868600  1
  F  F15  1  0.26156300  0.53486300  0.10131400  1
  F  F16  1  0.50699100  0.78228600  0.35085100  1
  F  F17  1  0.53283900  0.00817500  0.47660400  1
  F  F18  1  0.03456200  0.51710100  0.97472600  1
  F  F19  1  0.23553800  0.71389800  0.77451100  1
  F  F20  1  0.95764300  0.04235700  0.00000000  1
  F  F21  1  0.21771400  0.49300900  0.64914900  1
  F  F22  1  0.01683500  0.29017600  0.84839100  1
  F  F23  1  0.70982400  0.98316500  0.15160900  1
  F  F24  1  0.73589100  0.21947600  0.27481500  1
  F  F25  1  0.78052400  0.26410900  0.72518500  1
  F  F26  1  0.99182500  0.46716100  0.52339600  1
  F  F27  1  0.48289900  0.96543800  0.02527400  1
  F  F28  1  0.78585100  0.45745200  0.12474700  1
  F  F29  1  0.21031200  0.27226500  0.25356500  1
  F  F30  1  0.72773500  0.78968800  0.74643500  1
  F  F31  1  0.28610200  0.76446200  0.22548900  1
