# generated using pymatgen
data_Fe4O3F5
_symmetry_space_group_name_H-M   'P 1'
_cell_length_a   7.80288721
_cell_length_b   7.80288721
_cell_length_c   6.54478796
_cell_angle_alpha   65.61696093
_cell_angle_beta   65.61696093
_cell_angle_gamma   53.67634533
_symmetry_Int_Tables_number   1
_chemical_formula_structural   Fe4O3F5
_chemical_formula_sum   'Fe8 O6 F10'
_cell_volume   284.61923203
_cell_formula_units_Z   2
loop_
 _symmetry_equiv_pos_site_id
 _symmetry_equiv_pos_as_xyz
  1  'x, y, z'
loop_
 _atom_site_type_symbol
 _atom_site_label
 _atom_site_symmetry_multiplicity
 _atom_site_fract_x
 _atom_site_fract_y
 _atom_site_fract_z
 _atom_site_occupancy
  Fe  Fe0  1  0.12720300  0.12720300  0.87841200  1
  Fe  Fe1  1  0.62248500  0.62248500  0.40449500  1
  Fe  Fe2  1  0.37751500  0.37751500  0.59550500  1
  Fe  Fe3  1  0.00000000  0.00000000  0.50000000  1
  Fe  Fe4  1  0.50000000  0.50000000  0.00000000  1
  Fe  Fe5  1  0.75747200  0.75747200  0.73164500  1
  Fe  Fe6  1  0.24252800  0.24252800  0.26835500  1
  Fe  Fe7  1  0.87279700  0.87279700  0.12158800  1
  O  O8  1  0.12451100  0.12451100  0.58145500  1
  O  O9  1  0.62422200  0.62422200  0.70719500  1
  O  O10  1  0.12572100  0.12572100  0.17576700  1
  O  O11  1  0.87427900  0.87427900  0.82423300  1
  O  O12  1  0.37577800  0.37577800  0.29280500  1
  O  O13  1  0.87548900  0.87548900  0.41854500  1
  F  F14  1  0.29478600  0.70521400  0.50000000  1
  F  F15  1  0.70521400  0.29478600  0.50000000  1
  F  F16  1  0.44497600  0.04850500  0.75778400  1
  F  F17  1  0.19254000  0.80746000  0.00000000  1
  F  F18  1  0.62346300  0.62346300  0.08613000  1
  F  F19  1  0.37653700  0.37653700  0.91387000  1
  F  F20  1  0.04850500  0.44497600  0.75778400  1
  F  F21  1  0.80746000  0.19254000  0.00000000  1
  F  F22  1  0.55502400  0.95149500  0.24221600  1
  F  F23  1  0.95149500  0.55502400  0.24221600  1
