# generated using pymatgen
data_Na5CrO4
_symmetry_space_group_name_H-M   'P 1'
_cell_length_a   10.47267300
_cell_length_b   10.58284000
_cell_length_c   10.67543300
_cell_angle_alpha   90.00000000
_cell_angle_beta   90.00000000
_cell_angle_gamma   90.00000000
_symmetry_Int_Tables_number   1
_chemical_formula_structural   Na5CrO4
_chemical_formula_sum   'Na40 Cr8 O32'
_cell_volume   1183.16488732
_cell_formula_units_Z   8
loop_
 _symmetry_equiv_pos_site_id
 _symmetry_equiv_pos_as_xyz
  1  'x, y, z'
loop_
 _atom_site_type_symbol
 _atom_site_label
 _atom_site_symmetry_multiplicity
 _atom_site_fract_x
 _atom_site_fract_y
 _atom_site_fract_z
 _atom_site_occupancy
  Na  Na0  1  0.10674000  0.11219200  0.83486500  1
  Na  Na1  1  0.10674000  0.61219200  0.66513500  1
  Na  Na2  1  0.11236500  0.39848400  0.14357400  1
  Na  Na3  1  0.11236500  0.89848400  0.35642600  1
  Na  Na4  1  0.11906000  0.16576000  0.39695500  1
  Na  Na5  1  0.11906000  0.66576000  0.10304500  1
  Na  Na6  1  0.12315400  0.35095200  0.59257600  1
  Na  Na7  1  0.12315400  0.85095200  0.90742400  1
  Na  Na8  1  0.15665100  0.38181700  0.86578400  1
  Na  Na9  1  0.15665100  0.88181700  0.63421600  1
  Na  Na10  1  0.34334900  0.88181700  0.13421600  1
  Na  Na11  1  0.34334900  0.38181700  0.36578400  1
  Na  Na12  1  0.37684600  0.35095200  0.09257600  1
  Na  Na13  1  0.37684600  0.85095200  0.40742400  1
  Na  Na14  1  0.38094000  0.66576000  0.60304500  1
  Na  Na15  1  0.38094000  0.16576000  0.89695500  1
  Na  Na16  1  0.38763500  0.39848400  0.64357400  1
  Na  Na17  1  0.38763500  0.89848400  0.85642600  1
  Na  Na18  1  0.39326000  0.61219200  0.16513500  1
  Na  Na19  1  0.39326000  0.11219200  0.33486500  1
  Na  Na20  1  0.60674000  0.88780800  0.66513500  1
  Na  Na21  1  0.60674000  0.38780800  0.83486500  1
  Na  Na22  1  0.61236500  0.10151600  0.14357400  1
  Na  Na23  1  0.61236500  0.60151600  0.35642600  1
  Na  Na24  1  0.61906000  0.33424000  0.39695500  1
  Na  Na25  1  0.61906000  0.83424000  0.10304500  1
  Na  Na26  1  0.62315400  0.14904800  0.59257600  1
  Na  Na27  1  0.62315400  0.64904800  0.90742400  1
  Na  Na28  1  0.65665100  0.61818300  0.63421600  1
  Na  Na29  1  0.65665100  0.11818300  0.86578400  1
  Na  Na30  1  0.84334900  0.61818300  0.13421600  1
  Na  Na31  1  0.84334900  0.11818300  0.36578400  1
  Na  Na32  1  0.87684600  0.14904800  0.09257600  1
  Na  Na33  1  0.87684600  0.64904800  0.40742400  1
  Na  Na34  1  0.88094000  0.83424000  0.60304500  1
  Na  Na35  1  0.88094000  0.33424000  0.89695500  1
  Na  Na36  1  0.88763500  0.10151600  0.64357400  1
  Na  Na37  1  0.88763500  0.60151600  0.85642600  1
  Na  Na38  1  0.89326000  0.88780800  0.16513500  1
  Na  Na39  1  0.89326000  0.38780800  0.33486500  1
  Cr  Cr40  1  0.14729500  0.12450000  0.11505700  1
  Cr  Cr41  1  0.14729500  0.62450000  0.38494300  1
  Cr  Cr42  1  0.35270500  0.62450000  0.88494300  1
  Cr  Cr43  1  0.35270500  0.12450000  0.61505700  1
  Cr  Cr44  1  0.64729500  0.37550000  0.11505700  1
  Cr  Cr45  1  0.64729500  0.87550000  0.38494300  1
  Cr  Cr46  1  0.85270500  0.37550000  0.61505700  1
  Cr  Cr47  1  0.85270500  0.87550000  0.88494300  1
  O  O48  1  0.02270200  0.05523300  0.23498000  1
  O  O49  1  0.02270200  0.55523300  0.26502000  1
  O  O50  1  0.05538000  0.23796000  0.00217700  1
  O  O51  1  0.05538000  0.73796000  0.49782300  1
  O  O52  1  0.23948400  0.02074900  0.99517400  1
  O  O53  1  0.23948400  0.52074900  0.50482600  1
  O  O54  1  0.24028000  0.23588500  0.22702900  1
  O  O55  1  0.24028000  0.73588500  0.27297100  1
  O  O56  1  0.25972000  0.23588500  0.72702900  1
  O  O57  1  0.25972000  0.73588500  0.77297100  1
  O  O58  1  0.26051600  0.52074900  0.00482600  1
  O  O59  1  0.26051600  0.02074900  0.49517400  1
  O  O60  1  0.44462000  0.23796000  0.50217700  1
  O  O61  1  0.44462000  0.73796000  0.99782300  1
  O  O62  1  0.47729800  0.55523300  0.76502000  1
  O  O63  1  0.47729800  0.05523300  0.73498000  1
  O  O64  1  0.52270200  0.94476700  0.26502000  1
  O  O65  1  0.52270200  0.44476700  0.23498000  1
  O  O66  1  0.55538000  0.26204000  0.00217700  1
  O  O67  1  0.55538000  0.76204000  0.49782300  1
  O  O68  1  0.73948400  0.97925100  0.50482600  1
  O  O69  1  0.73948400  0.47925100  0.99517400  1
  O  O70  1  0.74028000  0.26411500  0.22702900  1
  O  O71  1  0.74028000  0.76411500  0.27297100  1
  O  O72  1  0.75972000  0.26411500  0.72702900  1
  O  O73  1  0.75972000  0.76411500  0.77297100  1
  O  O74  1  0.76051600  0.97925100  0.00482600  1
  O  O75  1  0.76051600  0.47925100  0.49517400  1
  O  O76  1  0.94462000  0.76204000  0.99782300  1
  O  O77  1  0.94462000  0.26204000  0.50217700  1
  O  O78  1  0.97729800  0.94476700  0.76502000  1
  O  O79  1  0.97729800  0.44476700  0.73498000  1
