data_image0
_chemical_formula_structural       Ce2Se4Tl2
_chemical_formula_sum              "Ce2 Se4 Tl2"
_cell_length_a       6.75982
_cell_length_b       6.75982
_cell_length_c       6.75982
_cell_angle_alpha    109.742
_cell_angle_beta     109.336
_cell_angle_gamma    109.336

_space_group_name_H-M_alt    "P 1"
_space_group_IT_number       1

loop_
  _space_group_symop_operation_xyz
  'x, y, z'

loop_
  _atom_site_type_symbol
  _atom_site_label
  _atom_site_symmetry_multiplicity
  _atom_site_fract_x
  _atom_site_fract_y
  _atom_site_fract_z
  _atom_site_occupancy
  Ce  Ce1       1.0  0.50000  0.75000  0.25000  1.0000
  Ce  Ce2       1.0  0.50000  0.25000  0.75000  1.0000
  Se  Se1       1.0  0.50000  0.30100  0.19900  1.0000
  Se  Se2       1.0  0.10100  0.80100  0.30100  1.0000
  Se  Se3       1.0  0.89900  0.19900  0.69900  1.0000
  Se  Se4       1.0  0.50000  0.69900  0.80100  1.0000
  Tl  Tl1       1.0  0.00000  0.25000  0.25000  1.0000
  Tl  Tl2       1.0  0.00000  0.75000  0.75000  1.0000
