# generated using pymatgen
data_V2RuW
_symmetry_space_group_name_H-M   'P 1'
_cell_length_a   10.16999384
_cell_length_b   10.16999384
_cell_length_c   10.16999384
_cell_angle_alpha   128.02152222
_cell_angle_beta   117.59909756
_cell_angle_gamma   85.45514578
_symmetry_Int_Tables_number   1
_chemical_formula_structural   V2RuW
_chemical_formula_sum   'V2 Ru1 W1'
_cell_volume   701.61475786
_cell_formula_units_Z   1
loop_
 _symmetry_equiv_pos_site_id
 _symmetry_equiv_pos_as_xyz
  1  'x, y, z'
loop_
 _atom_site_type_symbol
 _atom_site_label
 _atom_site_symmetry_multiplicity
 _atom_site_fract_x
 _atom_site_fract_y
 _atom_site_fract_z
 _atom_site_occupancy
  V  V0  1  0.00000000  0.24649500  0.24649500  1
  V  V1  1  0.00000000  0.75350500  0.75350500  1
  Ru  Ru2  1  0.00000000  0.00000000  0.00000000  1
  W  W3  1  0.00000000  0.50000000  0.50000000  1
