# generated using pymatgen
data_VFe5(PO4)6
_symmetry_space_group_name_H-M   'P 1'
_cell_length_a   8.45949172
_cell_length_b   8.45949172
_cell_length_c   8.45949138
_cell_angle_alpha   61.31733475
_cell_angle_beta   61.31733475
_cell_angle_gamma   61.31733263
_symmetry_Int_Tables_number   1
_chemical_formula_structural   VFe5(PO4)6
_chemical_formula_sum   'V1 Fe5 P6 O24'
_cell_volume   440.74751824
_cell_formula_units_Z   1
loop_
 _symmetry_equiv_pos_site_id
 _symmetry_equiv_pos_as_xyz
  1  'x, y, z'
loop_
 _atom_site_type_symbol
 _atom_site_label
 _atom_site_symmetry_multiplicity
 _atom_site_fract_x
 _atom_site_fract_y
 _atom_site_fract_z
 _atom_site_occupancy
  V  V0  1  0.14345100  0.14345100  0.14345100  1
  Fe  Fe1  1  0.99958200  0.99958200  0.99958200  1
  Fe  Fe2  1  0.64545800  0.64545800  0.64545800  1
  Fe  Fe3  1  0.49918100  0.49918100  0.49918100  1
  Fe  Fe4  1  0.85642900  0.85642900  0.85642900  1
  Fe  Fe5  1  0.35440900  0.35440900  0.35440900  1
  P  P6  1  0.95461500  0.24950700  0.54434300  1
  P  P7  1  0.54434300  0.95461500  0.24950700  1
  P  P8  1  0.24950700  0.54434300  0.95461500  1
  P  P9  1  0.75296900  0.45508000  0.04577300  1
  P  P10  1  0.45508000  0.04577300  0.75296900  1
  P  P11  1  0.04577300  0.75296900  0.45508000  1
  O  O12  1  0.50235200  0.10534600  0.32634900  1
  O  O13  1  0.32634900  0.50235200  0.10534600  1
  O  O14  1  0.10534600  0.32634900  0.50235200  1
  O  O15  1  0.94050200  0.09257100  0.74071200  1
  O  O16  1  0.00469400  0.17779100  0.38349200  1
  O  O17  1  0.75281700  0.40630200  0.55065600  1
  O  O18  1  0.74071200  0.94050200  0.09257100  1
  O  O19  1  0.55065600  0.75281700  0.40630200  1
  O  O20  1  0.82222000  0.61087500  0.00142400  1
  O  O21  1  0.40630200  0.55065600  0.75281700  1
  O  O22  1  0.91260000  0.25510000  0.06489400  1
  O  O23  1  0.61087500  0.00142400  0.82222000  1
  O  O24  1  0.38349200  0.00469400  0.17779100  1
  O  O25  1  0.09257100  0.74071200  0.94050200  1
  O  O26  1  0.59514800  0.44000100  0.24866900  1
  O  O27  1  0.17779100  0.38349200  0.00469400  1
  O  O28  1  0.44000100  0.24866900  0.59514800  1
  O  O29  1  0.25510000  0.06489400  0.91260000  1
  O  O30  1  0.24866900  0.59514800  0.44000100  1
  O  O31  1  0.00142400  0.82222000  0.61087500  1
  O  O32  1  0.06489400  0.91260000  0.25510000  1
  O  O33  1  0.88930200  0.68758000  0.48779600  1
  O  O34  1  0.68758000  0.48779600  0.88930200  1
  O  O35  1  0.48779600  0.88930200  0.68758000  1
