# generated using pymatgen
data_Na2W2O5
_symmetry_space_group_name_H-M   'P 1'
_cell_length_a   5.60925900
_cell_length_b   5.81182173
_cell_length_c   8.78038380
_cell_angle_alpha   108.61353233
_cell_angle_beta   108.13616734
_cell_angle_gamma   90.96114915
_symmetry_Int_Tables_number   1
_chemical_formula_structural   Na2W2O5
_chemical_formula_sum   'Na4 W4 O10'
_cell_volume   255.63941084
_cell_formula_units_Z   2
loop_
 _symmetry_equiv_pos_site_id
 _symmetry_equiv_pos_as_xyz
  1  'x, y, z'
loop_
 _atom_site_type_symbol
 _atom_site_label
 _atom_site_symmetry_multiplicity
 _atom_site_fract_x
 _atom_site_fract_y
 _atom_site_fract_z
 _atom_site_occupancy
  Na  Na0  1  0.08601700  0.60945800  0.22890100  1
  Na  Na1  1  0.91611200  0.41183300  0.79344600  1
  Na  Na2  1  0.62155700  0.09394900  0.20788500  1
  Na  Na3  1  0.36344800  0.90177100  0.77473300  1
  W  W4  1  0.99435800  0.99988800  0.00429500  1
  W  W5  1  0.49014600  0.49474600  0.99682700  1
  W  W6  1  0.38689400  0.27295400  0.49951600  1
  W  W7  1  0.63130500  0.69393400  0.50043100  1
  O  O8  1  0.73723600  0.24172000  0.01155900  1
  O  O9  1  0.20020100  0.22142300  0.95707500  1
  O  O10  1  0.78345900  0.76413200  0.03801400  1
  O  O11  1  0.25152800  0.75677900  0.99243800  1
  O  O12  1  0.15908500  0.16302100  0.25873800  1
  O  O13  1  0.80814200  0.82806400  0.74098400  1
  O  O14  1  0.56888900  0.59392800  0.25940900  1
  O  O15  1  0.40058800  0.39044700  0.73977500  1
  O  O16  1  0.36724700  0.91482100  0.49810100  1
  O  O17  1  0.73379300  0.33393100  0.49787100  1
