# generated using pymatgen
data_V5Sn(PO4)6
_symmetry_space_group_name_H-M   'P 1'
_cell_length_a   8.66091268
_cell_length_b   8.66091268
_cell_length_c   8.66091282
_cell_angle_alpha   60.35909784
_cell_angle_beta   60.35909784
_cell_angle_gamma   60.35910204
_symmetry_Int_Tables_number   1
_chemical_formula_structural   V5Sn(PO4)6
_chemical_formula_sum   'V5 Sn1 P6 O24'
_cell_volume   463.11572650
_cell_formula_units_Z   1
loop_
 _symmetry_equiv_pos_site_id
 _symmetry_equiv_pos_as_xyz
  1  'x, y, z'
loop_
 _atom_site_type_symbol
 _atom_site_label
 _atom_site_symmetry_multiplicity
 _atom_site_fract_x
 _atom_site_fract_y
 _atom_site_fract_z
 _atom_site_occupancy
  V  V0  1  0.00241300  0.00241300  0.00241300  1
  V  V1  1  0.35553700  0.35553700  0.35553700  1
  V  V2  1  0.49976300  0.49976300  0.49976300  1
  V  V3  1  0.14378100  0.14378100  0.14378100  1
  V  V4  1  0.64231400  0.64231400  0.64231400  1
  Sn  Sn5  1  0.85548500  0.85548500  0.85548500  1
  P  P6  1  0.45210000  0.74766700  0.04584400  1
  P  P7  1  0.74766700  0.04584400  0.45210000  1
  P  P8  1  0.04584400  0.45210000  0.74766700  1
  P  P9  1  0.95670700  0.54037400  0.25316000  1
  P  P10  1  0.25316000  0.95670700  0.54037400  1
  P  P11  1  0.54037400  0.25316000  0.95670700  1
  O  O12  1  0.68823400  0.88689400  0.49615300  1
  O  O13  1  0.88689400  0.49615300  0.68823400  1
  O  O14  1  0.49615300  0.68823400  0.88689400  1
  O  O15  1  0.25833800  0.91027600  0.06157900  1
  O  O16  1  0.60615200  0.81107000  0.01671200  1
  O  O17  1  0.43555100  0.58807000  0.24163500  1
  O  O18  1  0.91027600  0.06157900  0.25833800  1
  O  O19  1  0.58807000  0.24163500  0.43555100  1
  O  O20  1  0.99474100  0.38799700  0.18611000  1
  O  O21  1  0.24163500  0.43555100  0.58807000  1
  O  O22  1  0.94331200  0.73971900  0.09119400  1
  O  O23  1  0.18611000  0.99474100  0.38799700  1
  O  O24  1  0.81107000  0.01671200  0.60615200  1
  O  O25  1  0.06157900  0.25833800  0.91027600  1
  O  O26  1  0.75945900  0.56006100  0.41021100  1
  O  O27  1  0.01671200  0.60615200  0.81107000  1
  O  O28  1  0.41021100  0.75945900  0.56006100  1
  O  O29  1  0.09119400  0.94331200  0.73971900  1
  O  O30  1  0.56006100  0.41021100  0.75945900  1
  O  O31  1  0.38799700  0.18611000  0.99474100  1
  O  O32  1  0.73971900  0.09119400  0.94331200  1
  O  O33  1  0.50273500  0.31688700  0.11179100  1
  O  O34  1  0.11179100  0.50273500  0.31688700  1
  O  O35  1  0.31688700  0.11179100  0.50273500  1
