# generated using pymatgen
data_YbAgS2
_symmetry_space_group_name_H-M   'P 1'
_cell_length_a   6.67889821
_cell_length_b   6.67889821
_cell_length_c   6.67889821
_cell_angle_alpha   130.89819964
_cell_angle_beta   130.89819964
_cell_angle_gamma   71.97486842
_symmetry_Int_Tables_number   1
_chemical_formula_structural   YbAgS2
_chemical_formula_sum   'Yb2 Ag2 S4'
_cell_volume   166.47400063
_cell_formula_units_Z   2
loop_
 _symmetry_equiv_pos_site_id
 _symmetry_equiv_pos_as_xyz
  1  'x, y, z'
loop_
 _atom_site_type_symbol
 _atom_site_label
 _atom_site_symmetry_multiplicity
 _atom_site_fract_x
 _atom_site_fract_y
 _atom_site_fract_z
 _atom_site_occupancy
  Yb  Yb0  1  0.75000000  0.25000000  0.50000000  1
  Yb  Yb1  1  0.00000000  0.00000000  0.00000000  1
  Ag  Ag2  1  0.50000000  0.50000000  0.00000000  1
  Ag  Ag3  1  0.25000000  0.75000000  0.50000000  1
  S  S4  1  0.73996200  0.73996200  0.00000000  1
  S  S5  1  0.48996200  0.98996200  0.50000000  1
  S  S6  1  0.26003800  0.26003800  0.00000000  1
  S  S7  1  0.01003800  0.51003800  0.50000000  1
