# generated using pymatgen
data_V3S
_symmetry_space_group_name_H-M   'P 1'
_cell_length_a   7.06025974
_cell_length_b   7.06025974
_cell_length_c   7.06025974
_cell_angle_alpha   95.95982677
_cell_angle_beta   95.95982677
_cell_angle_gamma   142.40451797
_symmetry_Int_Tables_number   1
_chemical_formula_structural   V3S
_chemical_formula_sum   'V12 S4'
_cell_volume   203.25707213
_cell_formula_units_Z   4
loop_
 _symmetry_equiv_pos_site_id
 _symmetry_equiv_pos_as_xyz
  1  'x, y, z'
loop_
 _atom_site_type_symbol
 _atom_site_label
 _atom_site_symmetry_multiplicity
 _atom_site_fract_x
 _atom_site_fract_y
 _atom_site_fract_z
 _atom_site_occupancy
  V  V0  1  0.06246500  0.06246500  0.60082900  1
  V  V1  1  0.53836400  0.93753500  0.00000000  1
  V  V2  1  0.93753500  0.53836400  0.00000000  1
  V  V3  1  0.46163600  0.46163600  0.39917100  1
  V  V4  1  0.64238800  0.00000000  0.64238800  1
  V  V5  1  0.00000000  0.35761200  0.35761200  1
  V  V6  1  0.00000000  0.64238800  0.64238800  1
  V  V7  1  0.35761200  0.00000000  0.35761200  1
  V  V8  1  0.85358400  0.85358400  0.18290700  1
  V  V9  1  0.32932300  0.14641600  0.00000000  1
  V  V10  1  0.14641600  0.32932300  0.00000000  1
  V  V11  1  0.67067700  0.67067700  0.81709300  1
  S  S12  1  0.78874900  0.50000000  0.28874900  1
  S  S13  1  0.50000000  0.21125100  0.71125100  1
  S  S14  1  0.50000000  0.78874900  0.28874900  1
  S  S15  1  0.21125100  0.50000000  0.71125100  1
