# generated using pymatgen
data_B2(CN2)3
_symmetry_space_group_name_H-M   'P 1'
_cell_length_a   8.88248007
_cell_length_b   4.31898867
_cell_length_c   8.92524090
_cell_angle_alpha   90.95465415
_cell_angle_beta   89.93202730
_cell_angle_gamma   90.13883803
_symmetry_Int_Tables_number   1
_chemical_formula_structural   B2(CN2)3
_chemical_formula_sum   'B4 C6 N12'
_cell_volume   342.35321199
_cell_formula_units_Z   2
loop_
 _symmetry_equiv_pos_site_id
 _symmetry_equiv_pos_as_xyz
  1  'x, y, z'
loop_
 _atom_site_type_symbol
 _atom_site_label
 _atom_site_symmetry_multiplicity
 _atom_site_fract_x
 _atom_site_fract_y
 _atom_site_fract_z
 _atom_site_occupancy
  B  B0  1  0.21843800  0.60391200  0.50051100  1
  B  B1  1  0.78848100  0.40380600  0.49966500  1
  B  B2  1  0.28179900  0.09591500  0.99885400  1
  B  B3  1  0.71128700  0.89625800  0.00106800  1
  C  C4  1  0.49877900  0.00146100  0.85632200  1
  C  C5  1  0.00397700  0.49910400  0.64377100  1
  C  C6  1  0.49435000  0.99041500  0.14366200  1
  C  C7  1  0.50343600  0.50424200  0.49992300  1
  C  C8  1  0.99646600  0.99626900  0.99995400  1
  C  C9  1  0.00296200  0.50835100  0.35639900  1
  N  N10  1  0.87283500  0.41248200  0.35803400  1
  N  N11  1  0.36861900  0.09725900  0.85871600  1
  N  N12  1  0.62873100  0.90608500  0.85868100  1
  N  N13  1  0.62441800  0.89473800  0.14129300  1
  N  N14  1  0.62966000  0.39899600  0.50037700  1
  N  N15  1  0.36440300  0.08616600  0.14119600  1
  N  N16  1  0.13414500  0.59464800  0.64206000  1
  N  N17  1  0.87019800  0.89157000  0.00386200  1
  N  N18  1  0.12300700  0.10124000  0.99602600  1
  N  N19  1  0.37733700  0.60932600  0.49943100  1
  N  N20  1  0.87354600  0.40347100  0.64067300  1
  N  N21  1  0.13312600  0.60428800  0.35952100  1
