# generated using pymatgen
data_NaNb6O15F
_symmetry_space_group_name_H-M   'P 1'
_cell_length_a   9.14351117
_cell_length_b   9.14351117
_cell_length_c   3.95245100
_cell_angle_alpha   90.00000000
_cell_angle_beta   90.00000000
_cell_angle_gamma   109.84196557
_symmetry_Int_Tables_number   1
_chemical_formula_structural   NaNb6O15F
_chemical_formula_sum   'Na1 Nb6 O15 F1'
_cell_volume   310.82248908
_cell_formula_units_Z   1
loop_
 _symmetry_equiv_pos_site_id
 _symmetry_equiv_pos_as_xyz
  1  'x, y, z'
loop_
 _atom_site_type_symbol
 _atom_site_label
 _atom_site_symmetry_multiplicity
 _atom_site_fract_x
 _atom_site_fract_y
 _atom_site_fract_z
 _atom_site_occupancy
  Na  Na0  1  0.59566900  0.40433100  0.50000000  1
  Nb  Nb1  1  0.00545900  0.62769200  0.00000000  1
  Nb  Nb2  1  0.62247900  0.73672900  0.00000000  1
  Nb  Nb3  1  0.26327100  0.37752100  0.00000000  1
  Nb  Nb4  1  0.78235900  0.21764100  0.00000000  1
  Nb  Nb5  1  0.00080900  0.99919100  0.00000000  1
  Nb  Nb6  1  0.37230800  0.99454100  0.00000000  1
  O  O7  1  0.36084100  0.99058200  0.50000000  1
  O  O8  1  0.48676900  0.51323100  0.00000000  1
  O  O9  1  0.13691300  0.86308700  0.00000000  1
  O  O10  1  0.46825900  0.83416100  0.00000000  1
  O  O11  1  0.16583900  0.53174100  0.00000000  1
  O  O12  1  0.23110500  0.14313100  0.00000000  1
  O  O13  1  0.85686900  0.76889500  0.00000000  1
  O  O14  1  0.77774000  0.22226000  0.50000000  1
  O  O15  1  0.28386200  0.36419600  0.50000000  1
  O  O16  1  0.63580400  0.71613800  0.50000000  1
  O  O17  1  0.00941800  0.63915900  0.50000000  1
  O  O18  1  0.81981900  0.44604500  0.00000000  1
  O  O19  1  0.00992900  0.22756100  0.00000000  1
  O  O20  1  0.77243900  0.99007100  0.00000000  1
  O  O21  1  0.55395500  0.18018100  0.00000000  1
  F  F22  1  0.00008700  0.99991300  0.50000000  1
