# generated using pymatgen
data_Sr2Mg
_symmetry_space_group_name_H-M   'P 1'
_cell_length_a   7.83517651
_cell_length_b   7.83517651
_cell_length_c   8.45379735
_cell_angle_alpha   73.74055152
_cell_angle_beta   73.74055152
_cell_angle_gamma   31.17718933
_symmetry_Int_Tables_number   1
_chemical_formula_structural   Sr2Mg
_chemical_formula_sum   'Sr4 Mg2'
_cell_volume   257.06717344
_cell_formula_units_Z   2
loop_
 _symmetry_equiv_pos_site_id
 _symmetry_equiv_pos_as_xyz
  1  'x, y, z'
loop_
 _atom_site_type_symbol
 _atom_site_label
 _atom_site_symmetry_multiplicity
 _atom_site_fract_x
 _atom_site_fract_y
 _atom_site_fract_z
 _atom_site_occupancy
  Sr  Sr0  1  0.85731900  0.85731900  0.07541400  1
  Sr  Sr1  1  0.14160200  0.14160200  0.43153600  1
  Sr  Sr2  1  0.85839800  0.85839800  0.56846400  1
  Sr  Sr3  1  0.14268100  0.14268100  0.92458600  1
  Mg  Mg4  1  0.50378800  0.50378800  0.24878100  1
  Mg  Mg5  1  0.49621200  0.49621200  0.75121900  1
