# generated using pymatgen
data_Cu5Sn4
_symmetry_space_group_name_H-M   'P 1'
_cell_length_a   7.32459800
_cell_length_b   9.98812300
_cell_length_c   10.03382515
_cell_angle_alpha   61.98034140
_cell_angle_beta   90.00000000
_cell_angle_gamma   90.00000000
_symmetry_Int_Tables_number   1
_chemical_formula_structural   Cu5Sn4
_chemical_formula_sum   'Cu20 Sn16'
_cell_volume   648.02217705
_cell_formula_units_Z   4
loop_
 _symmetry_equiv_pos_site_id
 _symmetry_equiv_pos_as_xyz
  1  'x, y, z'
loop_
 _atom_site_type_symbol
 _atom_site_label
 _atom_site_symmetry_multiplicity
 _atom_site_fract_x
 _atom_site_fract_y
 _atom_site_fract_z
 _atom_site_occupancy
  Cu  Cu0  1  0.77670100  0.05685600  0.05560400  1
  Cu  Cu1  1  0.27670100  0.44314400  0.94439600  1
  Cu  Cu2  1  0.22329900  0.94314400  0.94439600  1
  Cu  Cu3  1  0.72329900  0.55685600  0.05560400  1
  Cu  Cu4  1  0.25596300  0.18659600  0.18980300  1
  Cu  Cu5  1  0.75596300  0.31340400  0.81019700  1
  Cu  Cu6  1  0.74403700  0.81340400  0.81019700  1
  Cu  Cu7  1  0.24403700  0.68659600  0.18980300  1
  Cu  Cu8  1  0.72321800  0.31634900  0.31625800  1
  Cu  Cu9  1  0.22321800  0.18365100  0.68374200  1
  Cu  Cu10  1  0.27678200  0.68365100  0.68374200  1
  Cu  Cu11  1  0.77678200  0.81634900  0.31625800  1
  Cu  Cu12  1  0.24283900  0.43142000  0.42958900  1
  Cu  Cu13  1  0.74283900  0.06858000  0.57041100  1
  Cu  Cu14  1  0.75716100  0.56858000  0.57041100  1
  Cu  Cu15  1  0.25716100  0.93142000  0.42958900  1
  Cu  Cu16  1  0.08922800  0.93784300  0.19107500  1
  Cu  Cu17  1  0.58922800  0.56215700  0.80892500  1
  Cu  Cu18  1  0.91077200  0.06215700  0.80892500  1
  Cu  Cu19  1  0.41077200  0.43784300  0.19107500  1
  Sn  Sn20  1  0.59947400  0.28437800  0.07075300  1
  Sn  Sn21  1  0.09947400  0.21562200  0.92924700  1
  Sn  Sn22  1  0.40052600  0.71562200  0.92924700  1
  Sn  Sn23  1  0.90052600  0.78437800  0.07075300  1
  Sn  Sn24  1  0.05150500  0.43531700  0.18337100  1
  Sn  Sn25  1  0.55150500  0.06468300  0.81662900  1
  Sn  Sn26  1  0.94849500  0.56468300  0.81662900  1
  Sn  Sn27  1  0.44849500  0.93531700  0.18337100  1
  Sn  Sn28  1  0.58683300  0.57733500  0.32356600  1
  Sn  Sn29  1  0.08683300  0.92266500  0.67643400  1
  Sn  Sn30  1  0.41316700  0.42266500  0.67643400  1
  Sn  Sn31  1  0.91316700  0.07733500  0.32356600  1
  Sn  Sn32  1  0.09758700  0.66874600  0.45595300  1
  Sn  Sn33  1  0.59758700  0.83125400  0.54404700  1
  Sn  Sn34  1  0.90241300  0.33125400  0.54404700  1
  Sn  Sn35  1  0.40241300  0.16874600  0.45595300  1
