# generated using pymatgen
data_VP4
_symmetry_space_group_name_H-M   'P 1'
_cell_length_a   6.09746981
_cell_length_b   6.09746981
_cell_length_c   5.84911834
_cell_angle_alpha   81.28100442
_cell_angle_beta   81.28100442
_cell_angle_gamma   128.84635832
_symmetry_Int_Tables_number   1
_chemical_formula_structural   VP4
_chemical_formula_sum   'V2 P8'
_cell_volume   158.58454768
_cell_formula_units_Z   2
loop_
 _symmetry_equiv_pos_site_id
 _symmetry_equiv_pos_as_xyz
  1  'x, y, z'
loop_
 _atom_site_type_symbol
 _atom_site_label
 _atom_site_symmetry_multiplicity
 _atom_site_fract_x
 _atom_site_fract_y
 _atom_site_fract_z
 _atom_site_occupancy
  V  V0  1  0.06223200  0.93776800  0.75000000  1
  V  V1  1  0.93776800  0.06223200  0.25000000  1
  P  P2  1  0.94812600  0.50366500  0.68978600  1
  P  P3  1  0.49633500  0.05187400  0.81021400  1
  P  P4  1  0.63519100  0.81540200  0.67666100  1
  P  P5  1  0.18459800  0.36480900  0.82333900  1
  P  P6  1  0.36480900  0.18459800  0.32333900  1
  P  P7  1  0.81540200  0.63519100  0.17666100  1
  P  P8  1  0.50366500  0.94812600  0.18978600  1
  P  P9  1  0.05187400  0.49633500  0.31021400  1
