# generated using pymatgen
data_K2CuF4
_symmetry_space_group_name_H-M   'P 1'
_cell_length_a   7.09713069
_cell_length_b   7.09713069
_cell_length_c   5.93277400
_cell_angle_alpha   90.00000000
_cell_angle_beta   90.00000000
_cell_angle_gamma   130.60416282
_symmetry_Int_Tables_number   1
_chemical_formula_structural   K2CuF4
_chemical_formula_sum   'K4 Cu2 F8'
_cell_volume   226.87850501
_cell_formula_units_Z   2
loop_
 _symmetry_equiv_pos_site_id
 _symmetry_equiv_pos_as_xyz
  1  'x, y, z'
loop_
 _atom_site_type_symbol
 _atom_site_label
 _atom_site_symmetry_multiplicity
 _atom_site_fract_x
 _atom_site_fract_y
 _atom_site_fract_z
 _atom_site_occupancy
  K  K0  1  0.35782000  0.64218000  0.00000000  1
  K  K1  1  0.14218000  0.85782000  0.50000000  1
  K  K2  1  0.85782000  0.14218000  0.50000000  1
  K  K3  1  0.64218000  0.35782000  0.00000000  1
  Cu  Cu4  1  0.00000000  0.00000000  0.00000000  1
  Cu  Cu5  1  0.50000000  0.50000000  0.50000000  1
  F  F6  1  0.76795300  0.76795300  0.23199600  1
  F  F7  1  0.26795300  0.26795300  0.26800400  1
  F  F8  1  0.73204700  0.73204700  0.73199600  1
  F  F9  1  0.23204700  0.23204700  0.76800400  1
  F  F10  1  0.65353600  0.34646400  0.50000000  1
  F  F11  1  0.84646400  0.15353600  0.00000000  1
  F  F12  1  0.15353600  0.84646400  0.00000000  1
  F  F13  1  0.34646400  0.65353600  0.50000000  1
