# generated using pymatgen
data_UTe3
_symmetry_space_group_name_H-M   'P 1'
_cell_length_a   4.22747800
_cell_length_b   6.03251200
_cell_length_c   10.57601405
_cell_angle_alpha   82.88452213
_cell_angle_beta   90.00000000
_cell_angle_gamma   90.00000000
_symmetry_Int_Tables_number   1
_chemical_formula_structural   UTe3
_chemical_formula_sum   'U2 Te6'
_cell_volume   267.63561746
_cell_formula_units_Z   2
loop_
 _symmetry_equiv_pos_site_id
 _symmetry_equiv_pos_as_xyz
  1  'x, y, z'
loop_
 _atom_site_type_symbol
 _atom_site_label
 _atom_site_symmetry_multiplicity
 _atom_site_fract_x
 _atom_site_fract_y
 _atom_site_fract_z
 _atom_site_occupancy
  U  U0  1  0.25000000  0.71904400  0.65432400  1
  U  U1  1  0.75000000  0.28095600  0.34567600  1
  Te  Te2  1  0.25000000  0.55811200  0.17577000  1
  Te  Te3  1  0.75000000  0.44188800  0.82423000  1
  Te  Te4  1  0.25000000  0.09283200  0.16329600  1
  Te  Te5  1  0.75000000  0.90716800  0.83670400  1
  Te  Te6  1  0.25000000  0.23671700  0.56291700  1
  Te  Te7  1  0.75000000  0.76328300  0.43708300  1
