# generated using pymatgen
data_CsMg6V
_symmetry_space_group_name_H-M   'P 1'
_cell_length_a   6.50331756
_cell_length_b   6.50331756
_cell_length_c   5.30285100
_cell_angle_alpha   90.00000000
_cell_angle_beta   90.00000000
_cell_angle_gamma   105.94525590
_symmetry_Int_Tables_number   1
_chemical_formula_structural   CsMg6V
_chemical_formula_sum   'Cs1 Mg6 V1'
_cell_volume   215.64518022
_cell_formula_units_Z   1
loop_
 _symmetry_equiv_pos_site_id
 _symmetry_equiv_pos_as_xyz
  1  'x, y, z'
loop_
 _atom_site_type_symbol
 _atom_site_label
 _atom_site_symmetry_multiplicity
 _atom_site_fract_x
 _atom_site_fract_y
 _atom_site_fract_z
 _atom_site_occupancy
  Cs  Cs0  1  0.35691700  0.64308300  0.50000000  1
  Mg  Mg1  1  0.35838200  0.14876400  0.50000000  1
  Mg  Mg2  1  0.85123600  0.64161800  0.50000000  1
  Mg  Mg3  1  0.09985000  0.30897300  0.00000000  1
  Mg  Mg4  1  0.69102700  0.90015000  0.00000000  1
  Mg  Mg5  1  0.64889800  0.35110200  0.00000000  1
  Mg  Mg6  1  0.13506700  0.86493300  0.00000000  1
  V  V7  1  0.85862800  0.14137200  0.50000000  1
