# generated using pymatgen
data_Fe10O9F11
_symmetry_space_group_name_H-M   'P 1'
_cell_length_a   4.75999923
_cell_length_b   4.75999923
_cell_length_c   15.49677606
_cell_angle_alpha   89.85512393
_cell_angle_beta   89.85512393
_cell_angle_gamma   92.21052939
_symmetry_Int_Tables_number   1
_chemical_formula_structural   Fe10O9F11
_chemical_formula_sum   'Fe10 O9 F11'
_cell_volume   350.85601858
_cell_formula_units_Z   1
loop_
 _symmetry_equiv_pos_site_id
 _symmetry_equiv_pos_as_xyz
  1  'x, y, z'
loop_
 _atom_site_type_symbol
 _atom_site_label
 _atom_site_symmetry_multiplicity
 _atom_site_fract_x
 _atom_site_fract_y
 _atom_site_fract_z
 _atom_site_occupancy
  Fe  Fe0  1  0.00605900  0.98466200  0.69714400  1
  Fe  Fe1  1  0.03586300  0.01959400  0.90892800  1
  Fe  Fe2  1  0.98040600  0.96413700  0.09107200  1
  Fe  Fe3  1  0.01533800  0.99394100  0.30285600  1
  Fe  Fe4  1  0.02457100  0.97542900  0.50000000  1
  Fe  Fe5  1  0.49757200  0.48069500  0.79766200  1
  Fe  Fe6  1  0.51930500  0.50242800  0.20233800  1
  Fe  Fe7  1  0.47659300  0.52340700  0.00000000  1
  Fe  Fe8  1  0.47683700  0.52350900  0.38784800  1
  Fe  Fe9  1  0.47649100  0.52316300  0.61215200  1
  O  O10  1  0.20057000  0.79943000  0.00000000  1
  O  O11  1  0.19350500  0.81104600  0.40165500  1
  O  O12  1  0.18895400  0.80649500  0.59834500  1
  O  O13  1  0.69731700  0.69589800  0.70326800  1
  O  O14  1  0.67853500  0.67688400  0.10075900  1
  O  O15  1  0.70393100  0.70246900  0.29866800  1
  O  O16  1  0.29753100  0.29606900  0.70133200  1
  O  O17  1  0.32311600  0.32146500  0.89924100  1
  O  O18  1  0.30410200  0.30268400  0.29673200  1
  F  F19  1  0.20137600  0.80550600  0.79961500  1
  F  F20  1  0.19449400  0.79862400  0.20038500  1
  F  F21  1  0.70984700  0.71200000  0.89796900  1
  F  F22  1  0.68631700  0.69401800  0.50010600  1
  F  F23  1  0.28800000  0.29015300  0.10203100  1
  F  F24  1  0.30598200  0.31368300  0.49989400  1
  F  F25  1  0.81372800  0.19019300  0.79967000  1
  F  F26  1  0.80980700  0.18627200  0.20033000  1
  F  F27  1  0.78617000  0.21383000  0.00000000  1
  F  F28  1  0.80174600  0.19406400  0.59512900  1
  F  F29  1  0.80593600  0.19825400  0.40487100  1
