# generated using pymatgen
data_Mg6GaB
_symmetry_space_group_name_H-M   'P 1'
_cell_length_a   6.06393274
_cell_length_b   6.06393274
_cell_length_c   4.63003800
_cell_angle_alpha   90.00000000
_cell_angle_beta   90.00000000
_cell_angle_gamma   114.73841123
_symmetry_Int_Tables_number   1
_chemical_formula_structural   Mg6GaB
_chemical_formula_sum   'Mg6 Ga1 B1'
_cell_volume   154.62799099
_cell_formula_units_Z   1
loop_
 _symmetry_equiv_pos_site_id
 _symmetry_equiv_pos_as_xyz
  1  'x, y, z'
loop_
 _atom_site_type_symbol
 _atom_site_label
 _atom_site_symmetry_multiplicity
 _atom_site_fract_x
 _atom_site_fract_y
 _atom_site_fract_z
 _atom_site_occupancy
  Mg  Mg0  1  0.35768800  0.15182000  0.50000000  1
  Mg  Mg1  1  0.84818000  0.64231200  0.50000000  1
  Mg  Mg2  1  0.13373500  0.32390900  0.00000000  1
  Mg  Mg3  1  0.67609100  0.86626500  0.00000000  1
  Mg  Mg4  1  0.66597000  0.33403000  0.00000000  1
  Mg  Mg5  1  0.17068500  0.82931500  0.00000000  1
  Ga  Ga6  1  0.34635000  0.65365000  0.50000000  1
  B  B7  1  0.80131000  0.19869000  0.50000000  1
