# generated using pymatgen
data_Ti3N2O3
_symmetry_space_group_name_H-M   'P 1'
_cell_length_a   5.29433934
_cell_length_b   5.29433934
_cell_length_c   9.97358443
_cell_angle_alpha   89.53075186
_cell_angle_beta   89.53075186
_cell_angle_gamma   42.25405392
_symmetry_Int_Tables_number   1
_chemical_formula_structural   Ti3N2O3
_chemical_formula_sum   'Ti6 N4 O6'
_cell_volume   187.97416678
_cell_formula_units_Z   2
loop_
 _symmetry_equiv_pos_site_id
 _symmetry_equiv_pos_as_xyz
  1  'x, y, z'
loop_
 _atom_site_type_symbol
 _atom_site_label
 _atom_site_symmetry_multiplicity
 _atom_site_fract_x
 _atom_site_fract_y
 _atom_site_fract_z
 _atom_site_occupancy
  Ti  Ti0  1  0.80830000  0.80830000  0.24868800  1
  Ti  Ti1  1  0.85576000  0.85576000  0.94706300  1
  Ti  Ti2  1  0.86530400  0.86530400  0.55304600  1
  Ti  Ti3  1  0.20246700  0.20246700  0.74718900  1
  Ti  Ti4  1  0.14394800  0.14394800  0.04810800  1
  Ti  Ti5  1  0.13532500  0.13532500  0.44321700  1
  N  N6  1  0.69398900  0.69398900  0.07688500  1
  N  N7  1  0.95417500  0.95417500  0.38174500  1
  N  N8  1  0.30526900  0.30526900  0.57525300  1
  N  N9  1  0.30748200  0.30748200  0.92205500  1
  O  O10  1  0.68477800  0.68477800  0.42431700  1
  O  O11  1  0.75269800  0.75269800  0.75291100  1
  O  O12  1  0.95417200  0.95417200  0.11764300  1
  O  O13  1  0.24583300  0.24583300  0.25805100  1
  O  O14  1  0.04586300  0.04586300  0.88276000  1
  O  O15  1  0.04462900  0.04462900  0.62106800  1
