# generated using pymatgen
data_Li7Co(O2F)2
_symmetry_space_group_name_H-M   'P 1'
_cell_length_a   5.34668422
_cell_length_b   5.97007524
_cell_length_c   10.31428815
_cell_angle_alpha   82.54093715
_cell_angle_beta   80.54589512
_cell_angle_gamma   119.61423374
_symmetry_Int_Tables_number   1
_chemical_formula_structural   Li7Co(O2F)2
_chemical_formula_sum   'Li14 Co2 O8 F4'
_cell_volume   273.66000479
_cell_formula_units_Z   2
loop_
 _symmetry_equiv_pos_site_id
 _symmetry_equiv_pos_as_xyz
  1  'x, y, z'
loop_
 _atom_site_type_symbol
 _atom_site_label
 _atom_site_symmetry_multiplicity
 _atom_site_fract_x
 _atom_site_fract_y
 _atom_site_fract_z
 _atom_site_occupancy
  Li  Li0  1  0.08653000  0.03315500  0.23174400  1
  Li  Li1  1  0.10319900  0.63266800  0.74178500  1
  Li  Li2  1  0.47912400  0.94350400  0.38806300  1
  Li  Li3  1  0.54945000  0.58183700  0.12191000  1
  Li  Li4  1  0.26604300  0.22319500  0.44321600  1
  Li  Li5  1  0.22846300  0.71181300  0.95739900  1
  Li  Li6  1  0.30602900  0.35740400  0.67794400  1
  Li  Li7  1  0.72222800  0.23593700  0.06286500  1
  Li  Li8  1  0.75328800  0.78115900  0.53087600  1
  Li  Li9  1  0.47949400  0.49654400  0.89676700  1
  Li  Li10  1  0.52436400  0.03413200  0.61376000  1
  Li  Li11  1  0.92301700  0.43685200  0.27802200  1
  Li  Li12  1  0.89716000  0.90631000  0.74566600  1
  Li  Li13  1  0.67171800  0.15100500  0.82786300  1
  Co  Co14  1  0.05531100  0.05007500  0.94837400  1
  Co  Co15  1  0.00179800  0.49624900  0.50778300  1
  O  O16  1  0.07423300  0.81813000  0.40415900  1
  O  O17  1  0.25785900  0.97536900  0.79523200  1
  O  O18  1  0.34450500  0.18029100  0.03636700  1
  O  O19  1  0.34896000  0.68427800  0.56535400  1
  O  O20  1  0.06637300  0.37612300  0.88190900  1
  O  O21  1  0.65139100  0.30591700  0.45941800  1
  O  O22  1  0.65643900  0.82901100  0.94419700  1
  O  O23  1  0.94174500  0.16730200  0.60689100  1
  F  F24  1  0.25555600  0.39172700  0.27871800  1
  F  F25  1  0.90505000  0.58439100  0.11174600  1
  F  F26  1  0.71005600  0.56353600  0.72279200  1
  F  F27  1  0.74061600  0.05208600  0.21917800  1
