# generated using pymatgen
data_Na3CoO3
_symmetry_space_group_name_H-M   'P 1'
_cell_length_a   8.25605150
_cell_length_b   8.25605150
_cell_length_c   16.34831300
_cell_angle_alpha   90.00000000
_cell_angle_beta   90.00000000
_cell_angle_gamma   96.78153075
_symmetry_Int_Tables_number   1
_chemical_formula_structural   Na3CoO3
_chemical_formula_sum   'Na36 Co12 O36'
_cell_volume   1106.54368444
_cell_formula_units_Z   12
loop_
 _symmetry_equiv_pos_site_id
 _symmetry_equiv_pos_as_xyz
  1  'x, y, z'
loop_
 _atom_site_type_symbol
 _atom_site_label
 _atom_site_symmetry_multiplicity
 _atom_site_fract_x
 _atom_site_fract_y
 _atom_site_fract_z
 _atom_site_occupancy
  Na  Na0  1  0.01919200  0.37403900  0.56898600  1
  Na  Na1  1  0.37403900  0.01919200  0.43101400  1
  Na  Na2  1  0.17582200  0.22891600  0.08616700  1
  Na  Na3  1  0.22891600  0.17582200  0.91383300  1
  Na  Na4  1  0.33183100  0.16816900  0.25000000  1
  Na  Na5  1  0.16816900  0.33183100  0.75000000  1
  Na  Na6  1  0.32417800  0.27108400  0.58616700  1
  Na  Na7  1  0.27108400  0.32417800  0.41383300  1
  Na  Na8  1  0.48080800  0.12596100  0.06898600  1
  Na  Na9  1  0.12596100  0.48080800  0.93101400  1
  Na  Na10  1  0.66202400  0.01703100  0.31486700  1
  Na  Na11  1  0.01703100  0.66202400  0.68513300  1
  Na  Na12  1  0.16202400  0.51703100  0.18513300  1
  Na  Na13  1  0.51703100  0.16202400  0.81486700  1
  Na  Na14  1  0.97495800  0.02504200  0.21924000  1
  Na  Na15  1  0.67274700  0.32725300  0.21879900  1
  Na  Na16  1  0.02504200  0.97495800  0.78076000  1
  Na  Na17  1  0.82725300  0.17274700  0.71879900  1
  Na  Na18  1  0.47495800  0.52504200  0.28076000  1
  Na  Na19  1  0.32725300  0.67274700  0.78120100  1
  Na  Na20  1  0.52504200  0.47495800  0.71924000  1
  Na  Na21  1  0.17274700  0.82725300  0.28120100  1
  Na  Na22  1  0.98296900  0.33797600  0.31486700  1
  Na  Na23  1  0.83797600  0.48296900  0.81486700  1
  Na  Na24  1  0.48296900  0.83797600  0.18513300  1
  Na  Na25  1  0.33797600  0.98296900  0.68513300  1
  Na  Na26  1  0.87403900  0.51919200  0.06898600  1
  Na  Na27  1  0.51919200  0.87403900  0.93101400  1
  Na  Na28  1  0.67582200  0.72891600  0.41383300  1
  Na  Na29  1  0.72891600  0.67582200  0.58616700  1
  Na  Na30  1  0.83183100  0.66816900  0.25000000  1
  Na  Na31  1  0.66816900  0.83183100  0.75000000  1
  Na  Na32  1  0.77108400  0.82417800  0.08616700  1
  Na  Na33  1  0.82417800  0.77108400  0.91383300  1
  Na  Na34  1  0.62596100  0.98080800  0.56898600  1
  Na  Na35  1  0.98080800  0.62596100  0.43101400  1
  Co  Co36  1  0.00021600  0.99978400  0.41366900  1
  Co  Co37  1  0.82789600  0.17210400  0.09261800  1
  Co  Co38  1  0.65206900  0.34793100  0.41977200  1
  Co  Co39  1  0.99978400  0.00021600  0.58633100  1
  Co  Co40  1  0.67210400  0.32789600  0.59261800  1
  Co  Co41  1  0.84793100  0.15206900  0.91977200  1
  Co  Co42  1  0.32789600  0.67210400  0.40738200  1
  Co  Co43  1  0.49978400  0.50021600  0.91366900  1
  Co  Co44  1  0.50021600  0.49978400  0.08633100  1
  Co  Co45  1  0.34793100  0.65206900  0.58022800  1
  Co  Co46  1  0.17210400  0.82789600  0.90738200  1
  Co  Co47  1  0.15206900  0.84793100  0.08022800  1
  O  O48  1  0.11610900  0.11610900  0.50000000  1
  O  O49  1  0.12851200  0.11364000  0.33880500  1
  O  O50  1  0.11364000  0.12851200  0.66119500  1
  O  O51  1  0.19751800  0.55491000  0.33219700  1
  O  O52  1  0.05491000  0.69751800  0.83219700  1
  O  O53  1  0.69751800  0.05491000  0.16780300  1
  O  O54  1  0.55491000  0.19751800  0.66780300  1
  O  O55  1  0.51958400  0.24012200  0.34635100  1
  O  O56  1  0.74012200  0.01958400  0.84635100  1
  O  O57  1  0.24012200  0.51958400  0.65364900  1
  O  O58  1  0.01958400  0.74012200  0.15364900  1
  O  O59  1  0.38636000  0.37148800  0.16119500  1
  O  O60  1  0.37148800  0.38636000  0.83880500  1
  O  O61  1  0.38389100  0.38389100  0.00000000  1
  O  O62  1  0.05246800  0.72783700  0.99430200  1
  O  O63  1  0.22783700  0.55246800  0.49430200  1
  O  O64  1  0.72783700  0.05246800  0.00569800  1
  O  O65  1  0.55246800  0.22783700  0.50569800  1
  O  O66  1  0.44753200  0.77216300  0.49430200  1
  O  O67  1  0.77216300  0.44753200  0.50569800  1
  O  O68  1  0.94753200  0.27216300  0.00569800  1
  O  O69  1  0.27216300  0.94753200  0.99430200  1
  O  O70  1  0.61610900  0.61610900  0.00000000  1
  O  O71  1  0.61364000  0.62851200  0.83880500  1
  O  O72  1  0.62851200  0.61364000  0.16119500  1
  O  O73  1  0.98041600  0.25987800  0.84635100  1
  O  O74  1  0.75987800  0.48041600  0.34635100  1
  O  O75  1  0.25987800  0.98041600  0.15364900  1
  O  O76  1  0.48041600  0.75987800  0.65364900  1
  O  O77  1  0.44509000  0.80248200  0.33219700  1
  O  O78  1  0.94509000  0.30248200  0.16780300  1
  O  O79  1  0.80248200  0.44509000  0.66780300  1
  O  O80  1  0.30248200  0.94509000  0.83219700  1
  O  O81  1  0.88636000  0.87148800  0.33880500  1
  O  O82  1  0.87148800  0.88636000  0.66119500  1
  O  O83  1  0.88389100  0.88389100  0.50000000  1
