# generated using pymatgen
data_Hf2Al3
_symmetry_space_group_name_H-M   'P 1'
_cell_length_a   8.39918690
_cell_length_b   7.44308848
_cell_length_c   5.51690293
_cell_angle_alpha   79.27055988
_cell_angle_beta   60.53718631
_cell_angle_gamma   40.19225381
_symmetry_Int_Tables_number   1
_chemical_formula_structural   Hf2Al3
_chemical_formula_sum   'Hf4 Al6'
_cell_volume   182.43408061
_cell_formula_units_Z   2
loop_
 _symmetry_equiv_pos_site_id
 _symmetry_equiv_pos_as_xyz
  1  'x, y, z'
loop_
 _atom_site_type_symbol
 _atom_site_label
 _atom_site_symmetry_multiplicity
 _atom_site_fract_x
 _atom_site_fract_y
 _atom_site_fract_z
 _atom_site_occupancy
  Hf  Hf0  1  0.13753600  0.75651400  0.23190600  1
  Hf  Hf1  1  0.87404300  0.23190600  0.75651400  1
  Hf  Hf2  1  0.01809400  0.37595700  0.11246400  1
  Hf  Hf3  1  0.49348600  0.11246400  0.37595700  1
  Al  Al4  1  0.62484300  0.37515700  0.37515700  1
  Al  Al5  1  0.87484300  0.62515700  0.62515700  1
  Al  Al6  1  0.54336800  0.18493400  0.82148800  1
  Al  Al7  1  0.45021000  0.82148800  0.18493400  1
  Al  Al8  1  0.42851200  0.79979000  0.70663200  1
  Al  Al9  1  0.06506600  0.70663200  0.79979000  1
