# generated using pymatgen
data_Mn12O7F17
_symmetry_space_group_name_H-M   'P 1'
_cell_length_a   4.81562900
_cell_length_b   5.78655529
_cell_length_c   15.90945782
_cell_angle_alpha   89.20297346
_cell_angle_beta   88.77239850
_cell_angle_gamma   86.24775570
_symmetry_Int_Tables_number   1
_chemical_formula_structural   Mn12O7F17
_chemical_formula_sum   'Mn12 O7 F17'
_cell_volume   442.24477210
_cell_formula_units_Z   1
loop_
 _symmetry_equiv_pos_site_id
 _symmetry_equiv_pos_as_xyz
  1  'x, y, z'
loop_
 _atom_site_type_symbol
 _atom_site_label
 _atom_site_symmetry_multiplicity
 _atom_site_fract_x
 _atom_site_fract_y
 _atom_site_fract_z
 _atom_site_occupancy
  Mn  Mn0  1  0.00550200  0.85123900  0.41756500  1
  Mn  Mn1  1  0.98101700  0.16446600  0.23808300  1
  Mn  Mn2  1  0.00433500  0.84496700  0.07884100  1
  Mn  Mn3  1  0.95337600  0.84211800  0.75509800  1
  Mn  Mn4  1  0.96209000  0.16075800  0.58090100  1
  Mn  Mn5  1  0.00296400  0.16560800  0.90838200  1
  Mn  Mn6  1  0.49794100  0.64736300  0.58703800  1
  Mn  Mn7  1  0.50453800  0.65927400  0.91946100  1
  Mn  Mn8  1  0.48629200  0.66857800  0.26018500  1
  Mn  Mn9  1  0.50544500  0.34796800  0.08312500  1
  Mn  Mn10  1  0.49479800  0.34247100  0.41946500  1
  Mn  Mn11  1  0.54501400  0.35304600  0.75170300  1
  O  O12  1  0.77197400  0.11373200  0.12867500  1
  O  O13  1  0.77630900  0.11705400  0.46966500  1
  O  O14  1  0.76894600  0.11164800  0.80425900  1
  O  O15  1  0.70993500  0.37917100  0.64346000  1
  O  O16  1  0.72173500  0.62630600  0.81326400  1
  O  O17  1  0.29328500  0.61703600  0.02714800  1
  O  O18  1  0.27621700  0.61617000  0.37063700  1
  F  F19  1  0.78503300  0.88505700  0.30654400  1
  F  F20  1  0.75219900  0.87737500  0.63776100  1
  F  F21  1  0.78222100  0.88293600  0.97108900  1
  F  F22  1  0.74082600  0.60940000  0.14703200  1
  F  F23  1  0.72680500  0.38233600  0.31208900  1
  F  F24  1  0.74574500  0.61454300  0.47518900  1
  F  F25  1  0.74132400  0.39424500  0.97522800  1
  F  F26  1  0.28413000  0.38785400  0.19355200  1
  F  F27  1  0.26935600  0.38500300  0.52848500  1
  F  F28  1  0.29817700  0.38073700  0.85638600  1
  F  F29  1  0.24133200  0.60477200  0.70236200  1
  F  F30  1  0.23122100  0.88193000  0.18586200  1
  F  F31  1  0.22680800  0.89157800  0.52914600  1
  F  F32  1  0.23772600  0.10919000  0.35228400  1
  F  F33  1  0.24713900  0.12187900  0.01973600  1
  F  F34  1  0.23704600  0.87691100  0.86069300  1
  F  F35  1  0.19120000  0.08527800  0.68960600  1
