# generated using pymatgen
data_Mn12O5F19
_symmetry_space_group_name_H-M   'P 1'
_cell_length_a   4.84640200
_cell_length_b   5.87420310
_cell_length_c   16.00113817
_cell_angle_alpha   90.28247537
_cell_angle_beta   90.17530215
_cell_angle_gamma   91.34444032
_symmetry_Int_Tables_number   1
_chemical_formula_structural   Mn12O5F19
_chemical_formula_sum   'Mn12 O5 F19'
_cell_volume   455.39916234
_cell_formula_units_Z   1
loop_
 _symmetry_equiv_pos_site_id
 _symmetry_equiv_pos_as_xyz
  1  'x, y, z'
loop_
 _atom_site_type_symbol
 _atom_site_label
 _atom_site_symmetry_multiplicity
 _atom_site_fract_x
 _atom_site_fract_y
 _atom_site_fract_z
 _atom_site_occupancy
  Mn  Mn0  1  0.03341400  0.80807400  0.57662800  1
  Mn  Mn1  1  0.98307200  0.14442000  0.74716200  1
  Mn  Mn2  1  0.00956100  0.83028500  0.90638400  1
  Mn  Mn3  1  0.98383300  0.83930200  0.25431600  1
  Mn  Mn4  1  0.99651700  0.16123800  0.41874600  1
  Mn  Mn5  1  0.01454000  0.15611400  0.09141900  1
  Mn  Mn6  1  0.50578800  0.64805500  0.41229900  1
  Mn  Mn7  1  0.48729200  0.66939000  0.08306000  1
  Mn  Mn8  1  0.50286900  0.67368800  0.76171000  1
  Mn  Mn9  1  0.50074700  0.35121600  0.91600100  1
  Mn  Mn10  1  0.49105100  0.36407700  0.58302700  1
  Mn  Mn11  1  0.48537300  0.34105800  0.24820100  1
  O  O12  1  0.21865300  0.11069700  0.20034400  1
  O  O13  1  0.29298900  0.62537500  0.86274400  1
  O  O14  1  0.30630900  0.60302200  0.51888600  1
  O  O15  1  0.69976100  0.61108300  0.30417300  1
  O  O16  1  0.78679000  0.87500000  0.80625400  1
  F  F17  1  0.24055600  0.89504400  0.69018800  1
  F  F18  1  0.22311300  0.87922800  0.36396000  1
  F  F19  1  0.21947700  0.88442500  0.01849600  1
  F  F20  1  0.23829500  0.12146700  0.85645500  1
  F  F21  1  0.23945500  0.11187900  0.52865600  1
  F  F22  1  0.26811000  0.40441700  0.69770200  1
  F  F23  1  0.26693100  0.38348100  0.35804900  1
  F  F24  1  0.24016400  0.60754800  0.19218300  1
  F  F25  1  0.26868800  0.38227300  0.02879100  1
  F  F26  1  0.74540300  0.60951600  0.97711100  1
  F  F27  1  0.73831400  0.37938000  0.80627400  1
  F  F28  1  0.72628700  0.62741400  0.64924700  1
  F  F29  1  0.74359500  0.39442500  0.47500100  1
  F  F30  1  0.71342000  0.38461900  0.13975100  1
  F  F31  1  0.77174700  0.87891300  0.47105100  1
  F  F32  1  0.76042300  0.13261800  0.63161000  1
  F  F33  1  0.78091300  0.11201400  0.97463200  1
  F  F34  1  0.76908800  0.88919100  0.14080400  1
  F  F35  1  0.74746400  0.11005200  0.30868300  1
