# generated using pymatgen
data_Na14Co2O9
_symmetry_space_group_name_H-M   'P 1'
_cell_length_a   6.65965701
_cell_length_b   11.50578659
_cell_length_c   11.50474963
_cell_angle_alpha   70.73604600
_cell_angle_beta   73.17727698
_cell_angle_gamma   106.81848734
_symmetry_Int_Tables_number   1
_chemical_formula_structural   Na14Co2O9
_chemical_formula_sum   'Na28 Co4 O18'
_cell_volume   720.72650150
_cell_formula_units_Z   2
loop_
 _symmetry_equiv_pos_site_id
 _symmetry_equiv_pos_as_xyz
  1  'x, y, z'
loop_
 _atom_site_type_symbol
 _atom_site_label
 _atom_site_symmetry_multiplicity
 _atom_site_fract_x
 _atom_site_fract_y
 _atom_site_fract_z
 _atom_site_occupancy
  Na  Na0  1  0.99998800  0.62547300  0.62547900  1
  Na  Na1  1  0.99998800  0.12547300  0.12547900  1
  Na  Na2  1  0.00000000  0.87452100  0.87452600  1
  Na  Na3  1  0.00000000  0.37452100  0.37452600  1
  Na  Na4  1  0.03642900  0.79169900  0.11603600  1
  Na  Na5  1  0.03642900  0.29169900  0.61603600  1
  Na  Na6  1  0.32433900  0.63426100  0.27347300  1
  Na  Na7  1  0.32433900  0.13426100  0.77347300  1
  Na  Na8  1  0.63922200  0.93565500  0.97207400  1
  Na  Na9  1  0.63922200  0.43565500  0.47207400  1
  Na  Na10  1  0.36075700  0.06433800  0.02795200  1
  Na  Na11  1  0.36075700  0.56433800  0.52795200  1
  Na  Na12  1  0.67558900  0.36576100  0.72653500  1
  Na  Na13  1  0.67558900  0.86576100  0.22653500  1
  Na  Na14  1  0.96360300  0.20833800  0.88395400  1
  Na  Na15  1  0.96360300  0.70833800  0.38395400  1
  Na  Na16  1  0.31232000  0.76402800  0.82914700  1
  Na  Na17  1  0.31232000  0.26402800  0.32914700  1
  Na  Na18  1  0.06510400  0.48531500  0.10786700  1
  Na  Na19  1  0.06510400  0.98531500  0.60786700  1
  Na  Na20  1  0.37743300  0.35958000  0.04720600  1
  Na  Na21  1  0.37743300  0.85958000  0.54720600  1
  Na  Na22  1  0.62255700  0.64042200  0.95276700  1
  Na  Na23  1  0.62255700  0.14042200  0.45276700  1
  Na  Na24  1  0.93492900  0.51467400  0.89211400  1
  Na  Na25  1  0.93492900  0.01467400  0.39211400  1
  Na  Na26  1  0.68763000  0.23592900  0.17085600  1
  Na  Na27  1  0.68763000  0.73592900  0.67085600  1
  Co  Co28  1  0.33332800  0.96427400  0.29760400  1
  Co  Co29  1  0.66664900  0.03572400  0.70240200  1
  Co  Co30  1  0.33332800  0.46427400  0.79760400  1
  Co  Co31  1  0.66664900  0.53572400  0.20240200  1
  O  O32  1  0.99999100  0.00000100  0.99999800  1
  O  O33  1  0.99999100  0.50000100  0.49999800  1
  O  O34  1  0.33331500  0.35564300  0.68897400  1
  O  O35  1  0.33331500  0.85564300  0.18897400  1
  O  O36  1  0.66666300  0.64437300  0.31102700  1
  O  O37  1  0.66666300  0.14437300  0.81102700  1
  O  O38  1  0.30445200  0.63881400  0.69741400  1
  O  O39  1  0.30445200  0.13881400  0.19741400  1
  O  O40  1  0.05860700  0.34964200  0.98658400  1
  O  O41  1  0.05860700  0.84964200  0.48658400  1
  O  O42  1  0.36304400  0.48411000  0.17965800  1
  O  O43  1  0.36304400  0.98411000  0.67965800  1
  O  O44  1  0.63692700  0.51588700  0.82034600  1
  O  O45  1  0.63692700  0.01588700  0.32034600  1
  O  O46  1  0.94140000  0.65036200  0.01341600  1
  O  O47  1  0.94140000  0.15036200  0.51341600  1
  O  O48  1  0.69552500  0.36117500  0.30258900  1
  O  O49  1  0.69552500  0.86117500  0.80258900  1
