# generated using pymatgen
data_Li3Fe2(PO4)3
_symmetry_space_group_name_H-M   'P 1'
_cell_length_a   8.48920207
_cell_length_b   8.99193021
_cell_length_c   8.51172066
_cell_angle_alpha   89.64086677
_cell_angle_beta   60.03624787
_cell_angle_gamma   118.24176910
_symmetry_Int_Tables_number   1
_chemical_formula_structural   Li3Fe2(PO4)3
_chemical_formula_sum   'Li6 Fe4 P6 O24'
_cell_volume   470.16582209
_cell_formula_units_Z   2
loop_
 _symmetry_equiv_pos_site_id
 _symmetry_equiv_pos_as_xyz
  1  'x, y, z'
loop_
 _atom_site_type_symbol
 _atom_site_label
 _atom_site_symmetry_multiplicity
 _atom_site_fract_x
 _atom_site_fract_y
 _atom_site_fract_z
 _atom_site_occupancy
  Li  Li0  1  0.17039200  0.33520500  0.59449500  1
  Li  Li1  1  0.56814700  0.31588200  0.83917000  1
  Li  Li2  1  0.80935200  0.14493200  0.27435100  1
  Li  Li3  1  0.19064800  0.85506800  0.72564900  1
  Li  Li4  1  0.43185300  0.68411800  0.16083000  1
  Li  Li5  1  0.82960800  0.66479500  0.40550500  1
  Fe  Fe6  1  0.69544200  0.04111300  0.65781100  1
  Fe  Fe7  1  0.71225000  0.56758900  0.13724300  1
  Fe  Fe8  1  0.28775000  0.43241100  0.86275700  1
  Fe  Fe9  1  0.30455800  0.95888700  0.34218900  1
  P  P10  1  0.78388300  0.24727400  0.96830900  1
  P  P11  1  0.78972000  0.74423300  0.74621000  1
  P  P12  1  0.49833100  0.24671600  0.54343700  1
  P  P13  1  0.50166900  0.75328400  0.45656300  1
  P  P14  1  0.21028000  0.25576700  0.25379000  1
  P  P15  1  0.21611700  0.75272600  0.03169100  1
  O  O16  1  0.70782000  0.19195500  0.83378100  1
  O  O17  1  0.87180400  0.74007900  0.87158900  1
  O  O18  1  0.97102700  0.79870200  0.53070000  1
  O  O19  1  0.67649600  0.21707800  0.51308300  1
  O  O20  1  0.59783400  0.55349000  0.79631900  1
  O  O21  1  0.98681700  0.71836900  0.12917600  1
  O  O22  1  0.70981800  0.87109200  0.78831000  1
  O  O23  1  0.63459200  0.10287100  0.16614500  1
  O  O24  1  0.38215900  0.26497900  0.74449600  1
  O  O25  1  0.78768400  0.41797800  0.99368700  1
  O  O26  1  0.60714800  0.42164400  0.39190600  1
  O  O27  1  0.32118200  0.08472400  0.53545800  1
  O  O28  1  0.67881800  0.91527600  0.46454200  1
  O  O29  1  0.39285200  0.57835600  0.60809400  1
  O  O30  1  0.21231600  0.58202200  0.00631300  1
  O  O31  1  0.61784100  0.73502100  0.25550400  1
  O  O32  1  0.36540800  0.89712900  0.83385500  1
  O  O33  1  0.29018200  0.12890800  0.21169000  1
  O  O34  1  0.01318300  0.28163100  0.87082400  1
  O  O35  1  0.40216600  0.44651000  0.20368100  1
  O  O36  1  0.32350400  0.78292200  0.48691700  1
  O  O37  1  0.02897300  0.20129800  0.46930000  1
  O  O38  1  0.12819600  0.25992100  0.12841100  1
  O  O39  1  0.29218000  0.80804500  0.16621900  1
