# generated using pymatgen
data_V3O5F
_symmetry_space_group_name_H-M   'P 1'
_cell_length_a   4.66361100
_cell_length_b   5.53686317
_cell_length_c   7.55285596
_cell_angle_alpha   84.76705741
_cell_angle_beta   88.37520768
_cell_angle_gamma   88.70868074
_symmetry_Int_Tables_number   1
_chemical_formula_structural   V3O5F
_chemical_formula_sum   'V6 O10 F2'
_cell_volume   194.09822314
_cell_formula_units_Z   2
loop_
 _symmetry_equiv_pos_site_id
 _symmetry_equiv_pos_as_xyz
  1  'x, y, z'
loop_
 _atom_site_type_symbol
 _atom_site_label
 _atom_site_symmetry_multiplicity
 _atom_site_fract_x
 _atom_site_fract_y
 _atom_site_fract_z
 _atom_site_occupancy
  V  V0  1  0.51860400  0.83462700  0.66987400  1
  V  V1  1  0.49301400  0.50898200  0.99697400  1
  V  V2  1  0.52255100  0.17918600  0.34027800  1
  V  V3  1  0.99899500  0.32058600  0.67436200  1
  V  V4  1  0.97277800  0.65295100  0.31952600  1
  V  V5  1  0.99413700  0.00927300  0.98531100  1
  O  O6  1  0.80511800  0.37261300  0.43634200  1
  O  O7  1  0.80103700  0.70954600  0.09600800  1
  O  O8  1  0.79890600  0.01996100  0.77170600  1
  O  O9  1  0.68924200  0.20522500  0.10886300  1
  O  O10  1  0.69623100  0.51746000  0.77880100  1
  O  O11  1  0.71601200  0.86662200  0.42461500  1
  O  O12  1  0.30966400  0.13682400  0.55156700  1
  O  O13  1  0.29803000  0.47717900  0.23651100  1
  O  O14  1  0.29262400  0.79588200  0.90449700  1
  O  O15  1  0.19993500  0.29030000  0.91044600  1
  F  F16  1  0.19503200  0.96776400  0.22837500  1
  F  F17  1  0.19809100  0.63501900  0.56594400  1
