# generated using pymatgen
data_Mn2OF3
_symmetry_space_group_name_H-M   'P 1'
_cell_length_a   4.88049359
_cell_length_b   4.88049359
_cell_length_c   15.85286400
_cell_angle_alpha   90.00000000
_cell_angle_beta   90.00000000
_cell_angle_gamma   92.49063977
_symmetry_Int_Tables_number   1
_chemical_formula_structural   Mn2OF3
_chemical_formula_sum   'Mn10 O5 F15'
_cell_volume   377.24611020
_cell_formula_units_Z   5
loop_
 _symmetry_equiv_pos_site_id
 _symmetry_equiv_pos_as_xyz
  1  'x, y, z'
loop_
 _atom_site_type_symbol
 _atom_site_label
 _atom_site_symmetry_multiplicity
 _atom_site_fract_x
 _atom_site_fract_y
 _atom_site_fract_z
 _atom_site_occupancy
  Mn  Mn0  1  0.96200700  0.96200700  0.19948500  1
  Mn  Mn1  1  0.03605400  0.03605400  0.00000000  1
  Mn  Mn2  1  0.96200700  0.96200700  0.80051500  1
  Mn  Mn3  1  0.02688100  0.02688100  0.39983300  1
  Mn  Mn4  1  0.02688100  0.02688100  0.60016700  1
  Mn  Mn5  1  0.49313500  0.49313500  0.30029600  1
  Mn  Mn6  1  0.50017300  0.50017300  0.90001500  1
  Mn  Mn7  1  0.50017300  0.50017300  0.09998500  1
  Mn  Mn8  1  0.49313500  0.49313500  0.69970400  1
  Mn  Mn9  1  0.49774500  0.49774500  0.50000000  1
  O  O10  1  0.33460700  0.33460700  0.00000000  1
  O  O11  1  0.32341000  0.32341000  0.40007700  1
  O  O12  1  0.32341000  0.32341000  0.59992300  1
  O  O13  1  0.66356800  0.66356800  0.79961800  1
  O  O14  1  0.66356800  0.66356800  0.20038200  1
  F  F15  1  0.79157200  0.19616300  0.69959300  1
  F  F16  1  0.79607500  0.20342200  0.90017600  1
  F  F17  1  0.79607500  0.20342200  0.09982400  1
  F  F18  1  0.79157200  0.19616300  0.30040700  1
  F  F19  1  0.81871300  0.20864600  0.50000000  1
  F  F20  1  0.27802700  0.27802700  0.80074600  1
  F  F21  1  0.27802700  0.27802700  0.19925400  1
  F  F22  1  0.71939100  0.71939100  0.00000000  1
  F  F23  1  0.70798800  0.70798800  0.40446400  1
  F  F24  1  0.70798800  0.70798800  0.59553600  1
  F  F25  1  0.20342200  0.79607500  0.90017600  1
  F  F26  1  0.20342200  0.79607500  0.09982400  1
  F  F27  1  0.19616300  0.79157200  0.30040700  1
  F  F28  1  0.19616300  0.79157200  0.69959300  1
  F  F29  1  0.20864600  0.81871300  0.50000000  1
