# generated using pymatgen
data_V3OF11
_symmetry_space_group_name_H-M   'P 1'
_cell_length_a   5.26808200
_cell_length_b   5.45092639
_cell_length_c   14.73279601
_cell_angle_alpha   79.64467189
_cell_angle_beta   89.98220396
_cell_angle_gamma   89.91227349
_symmetry_Int_Tables_number   1
_chemical_formula_structural   V3OF11
_chemical_formula_sum   'V6 O2 F22'
_cell_volume   416.17447716
_cell_formula_units_Z   2
loop_
 _symmetry_equiv_pos_site_id
 _symmetry_equiv_pos_as_xyz
  1  'x, y, z'
loop_
 _atom_site_type_symbol
 _atom_site_label
 _atom_site_symmetry_multiplicity
 _atom_site_fract_x
 _atom_site_fract_y
 _atom_site_fract_z
 _atom_site_occupancy
  V  V0  1  0.00857700  0.00025700  0.99372900  1
  V  V1  1  0.49982500  0.16653400  0.66635800  1
  V  V2  1  0.99210700  0.32224300  0.33224400  1
  V  V3  1  0.50363900  0.49811300  0.00124100  1
  V  V4  1  0.99978100  0.66658500  0.66633700  1
  V  V5  1  0.47634700  0.79327500  0.33614500  1
  O  O6  1  0.08209500  0.04483500  0.88533100  1
  O  O7  1  0.29570900  0.54159700  0.35567300  1
  F  F8  1  0.21040000  0.02418300  0.35792700  1
  F  F9  1  0.29243500  0.19387200  0.02628100  1
  F  F10  1  0.70684900  0.13987000  0.30970700  1
  F  F11  1  0.41335400  0.20856800  0.54889500  1
  F  F12  1  0.08824000  0.38329700  0.21528200  1
  F  F13  1  0.58593300  0.12506500  0.78412200  1
  F  F14  1  0.92357400  0.29568200  0.45113700  1
  F  F15  1  0.58234700  0.45826000  0.11898000  1
  F  F16  1  0.19844500  0.35657500  0.69121500  1
  F  F17  1  0.20263600  0.69705500  0.02587600  1
  F  F18  1  0.79822300  0.30338900  0.97564700  1
  F  F19  1  0.69824300  0.47693700  0.64156000  1
  F  F20  1  0.78743400  0.63772800  0.30926400  1
  F  F21  1  0.41251400  0.54228300  0.88430300  1
  F  F22  1  0.08731200  0.70900700  0.54893200  1
  F  F23  1  0.42690800  0.89427100  0.21654500  1
  F  F24  1  0.91345200  0.62368700  0.78411100  1
  F  F25  1  0.59199400  0.80206300  0.44844300  1
  F  F26  1  0.91178600  0.95703500  0.11584200  1
  F  F27  1  0.30150300  0.85620800  0.69148300  1
  F  F28  1  0.70680300  0.80479400  0.97550200  1
  F  F29  1  0.80153400  0.97673300  0.64188900  1
