# generated using pymatgen
data_Cr4OF11
_symmetry_space_group_name_H-M   'P 1'
_cell_length_a   5.09551042
_cell_length_b   5.34210772
_cell_length_c   16.93325888
_cell_angle_alpha   91.73168075
_cell_angle_beta   98.30173807
_cell_angle_gamma   61.70989395
_symmetry_Int_Tables_number   1
_chemical_formula_structural   Cr4OF11
_chemical_formula_sum   'Cr8 O2 F22'
_cell_volume   401.24223166
_cell_formula_units_Z   2
loop_
 _symmetry_equiv_pos_site_id
 _symmetry_equiv_pos_as_xyz
  1  'x, y, z'
loop_
 _atom_site_type_symbol
 _atom_site_label
 _atom_site_symmetry_multiplicity
 _atom_site_fract_x
 _atom_site_fract_y
 _atom_site_fract_z
 _atom_site_occupancy
  Cr  Cr0  1  0.74507900  0.64279800  0.12864600  1
  Cr  Cr1  1  0.75658600  0.13472100  0.62088700  1
  Cr  Cr2  1  0.50165500  0.75373400  0.74969100  1
  Cr  Cr3  1  0.50896400  0.23156600  0.24648500  1
  Cr  Cr4  1  0.24968800  0.86769500  0.37530500  1
  Cr  Cr5  1  0.24956600  0.37746100  0.87500700  1
  Cr  Cr6  1  0.99212800  0.48739000  0.50281000  1
  Cr  Cr7  1  0.99700500  0.00489500  0.00070100  1
  O  O8  1  0.74664600  0.93755500  0.18734800  1
  O  O9  1  0.81425200  0.28161200  0.53195800  1
  F  F10  1  0.81300300  0.78296000  0.03283400  1
  F  F11  1  0.75470500  0.81298800  0.56280800  1
  F  F12  1  0.75746200  0.31836000  0.06439000  1
  F  F13  1  0.68419400  0.97109600  0.71465100  1
  F  F14  1  0.68501200  0.65746700  0.40875300  1
  F  F15  1  0.68367500  0.46742500  0.21784500  1
  F  F16  1  0.81387500  0.59379400  0.84272600  1
  F  F17  1  0.81378600  0.09052400  0.34171000  1
  F  F18  1  0.31309500  0.84220100  0.09336800  1
  F  F19  1  0.75118000  0.43731600  0.68767300  1
  F  F20  1  0.26230100  0.55555700  0.31096400  1
  F  F21  1  0.68485200  0.15812900  0.90744200  1
  F  F22  1  0.18583800  0.90713000  0.65669700  1
  F  F23  1  0.18327000  0.40808400  0.15760400  1
  F  F24  1  0.17952200  0.71213800  0.46791200  1
  F  F25  1  0.31560300  0.53325600  0.78182600  1
  F  F26  1  0.31718700  0.34273400  0.59316800  1
  F  F27  1  0.31225000  0.03063600  0.28210000  1
  F  F28  1  0.24522200  0.69019400  0.93781600  1
  F  F29  1  0.24350100  0.18592900  0.43792100  1
  F  F30  1  0.25243400  0.06347200  0.81263700  1
  F  F31  1  0.18646400  0.21918200  0.96831700  1
