# generated using pymatgen
data_Mn21O40
_symmetry_space_group_name_H-M   'P 1'
_cell_length_a   5.89819749
_cell_length_b   5.89819749
_cell_length_c   21.10200917
_cell_angle_alpha   82.20490336
_cell_angle_beta   82.20490336
_cell_angle_gamma   90.89230893
_symmetry_Int_Tables_number   1
_chemical_formula_structural   Mn21O40
_chemical_formula_sum   'Mn21 O40'
_cell_volume   720.17605719
_cell_formula_units_Z   1
loop_
 _symmetry_equiv_pos_site_id
 _symmetry_equiv_pos_as_xyz
  1  'x, y, z'
loop_
 _atom_site_type_symbol
 _atom_site_label
 _atom_site_symmetry_multiplicity
 _atom_site_fract_x
 _atom_site_fract_y
 _atom_site_fract_z
 _atom_site_occupancy
  Mn  Mn0  1  0.60065100  0.50034000  0.64940600  1
  Mn  Mn1  1  0.79860200  0.69980500  0.25174900  1
  Mn  Mn2  1  0.69999600  0.09981500  0.45015100  1
  Mn  Mn3  1  0.70271600  0.59056600  0.94724400  1
  Mn  Mn4  1  0.90006000  0.80011300  0.54981600  1
  Mn  Mn5  1  0.70621200  0.10457000  0.94930600  1
  Mn  Mn6  1  0.90018500  0.30000400  0.54984900  1
  Mn  Mn7  1  0.09145200  0.49979200  0.15287900  1
  Mn  Mn8  1  0.99656300  0.90358000  0.84552200  1
  Mn  Mn9  1  0.89543000  0.29378800  0.05069400  1
  Mn  Mn10  1  0.10015300  0.50082900  0.64937800  1
  Mn  Mn11  1  0.29997700  0.69865800  0.25110100  1
  Mn  Mn12  1  0.19988700  0.09994000  0.45018400  1
  Mn  Mn13  1  0.09642000  0.00343700  0.15447800  1
  Mn  Mn14  1  0.16759400  0.83240600  0.00000000  1
  Mn  Mn15  1  0.30134200  0.70002300  0.74889900  1
  Mn  Mn16  1  0.49917100  0.89984700  0.35062200  1
  Mn  Mn17  1  0.30019500  0.20139800  0.74825100  1
  Mn  Mn18  1  0.49966000  0.39934900  0.35059400  1
  Mn  Mn19  1  0.50020800  0.90854800  0.84712100  1
  Mn  Mn20  1  0.40943400  0.29728400  0.05275600  1
  O  O21  1  0.71918800  0.65503200  0.34534100  1
  O  O22  1  0.71417200  0.14919500  0.35625400  1
  O  O23  1  0.67972700  0.54455500  0.55557500  1
  O  O24  1  0.87543700  0.74788300  0.15847100  1
  O  O25  1  0.68560000  0.05053900  0.54402900  1
  O  O26  1  0.73921100  0.68812500  0.85193600  1
  O  O27  1  0.94453200  0.87945900  0.45588000  1
  O  O28  1  0.66435100  0.51370700  0.04454300  1
  O  O29  1  0.85565500  0.72092300  0.64377200  1
  O  O30  1  0.05449600  0.91963700  0.24715800  1
  O  O31  1  0.75057200  0.11928900  0.85373900  1
  O  O32  1  0.94946100  0.31440000  0.45597100  1
  O  O33  1  0.67999600  0.05924500  0.04156700  1
  O  O34  1  0.85080500  0.28582800  0.64374600  1
  O  O35  1  0.04838600  0.48472500  0.24612500  1
  O  O36  1  0.92431300  0.85257900  0.94082100  1
  O  O37  1  0.94075500  0.32000400  0.95843300  1
  O  O38  1  0.11468600  0.54990700  0.55561000  1
  O  O39  1  0.31032400  0.75028900  0.15742700  1
  O  O40  1  0.12054100  0.05546800  0.54412000  1
  O  O41  1  0.08036300  0.94550400  0.75284200  1
  O  O42  1  0.08571300  0.45158700  0.74317800  1
  O  O43  1  0.88071100  0.24942800  0.14626100  1
  O  O44  1  0.28507700  0.64969000  0.34470800  1
  O  O45  1  0.27907700  0.14434500  0.35622800  1
  O  O46  1  0.12642800  0.52992000  0.05849300  1
  O  O47  1  0.35031000  0.71492300  0.65529200  1
  O  O48  1  0.54841300  0.91428700  0.25682200  1
  O  O49  1  0.24971100  0.68967600  0.84257300  1
  O  O50  1  0.45009300  0.88531400  0.44439000  1
  O  O51  1  0.34496800  0.28081200  0.65465900  1
  O  O52  1  0.54449500  0.47909100  0.25662500  1
  O  O53  1  0.14742100  0.07568700  0.05917900  1
  O  O54  1  0.25211700  0.12456300  0.84152900  1
  O  O55  1  0.45544500  0.32027300  0.44442500  1
  O  O56  1  0.51527500  0.95161400  0.75387500  1
  O  O57  1  0.31187500  0.26078900  0.14806400  1
  O  O58  1  0.52090900  0.45550500  0.74337500  1
  O  O59  1  0.47008000  0.87357200  0.94150700  1
  O  O60  1  0.48629300  0.33564900  0.95545700  1
