# generated using pymatgen
data_Mn12O7F17
_symmetry_space_group_name_H-M   'P 1'
_cell_length_a   5.39463400
_cell_length_b   5.43547297
_cell_length_c   15.09591201
_cell_angle_alpha   84.56486768
_cell_angle_beta   84.40747039
_cell_angle_gamma   88.40084691
_symmetry_Int_Tables_number   1
_chemical_formula_structural   Mn12O7F17
_chemical_formula_sum   'Mn12 O7 F17'
_cell_volume   438.48265767
_cell_formula_units_Z   1
loop_
 _symmetry_equiv_pos_site_id
 _symmetry_equiv_pos_as_xyz
  1  'x, y, z'
loop_
 _atom_site_type_symbol
 _atom_site_label
 _atom_site_symmetry_multiplicity
 _atom_site_fract_x
 _atom_site_fract_y
 _atom_site_fract_z
 _atom_site_occupancy
  Mn  Mn0  1  0.01307000  0.09313900  0.00103400  1
  Mn  Mn1  1  0.53743500  0.90543600  0.16294200  1
  Mn  Mn2  1  0.98062900  0.10360800  0.32758400  1
  Mn  Mn3  1  0.52321000  0.98370800  0.50845800  1
  Mn  Mn4  1  0.06203700  0.02123000  0.66277200  1
  Mn  Mn5  1  0.56822600  0.95460400  0.82768600  1
  Mn  Mn6  1  0.98597800  0.59000900  0.16832700  1
  Mn  Mn7  1  0.48572200  0.42342700  0.99604000  1
  Mn  Mn8  1  0.40589900  0.48881400  0.65697300  1
  Mn  Mn9  1  0.03640100  0.51945100  0.51040100  1
  Mn  Mn10  1  0.44170700  0.45767100  0.32609900  1
  Mn  Mn11  1  0.03825500  0.57649000  0.83887100  1
  O  O12  1  0.84375300  0.84585800  0.08535500  1
  O  O13  1  0.22155100  0.75369900  0.59872700  1
  O  O14  1  0.89242700  0.82097100  0.75849400  1
  O  O15  1  0.67059000  0.64082200  0.23402900  1
  O  O16  1  0.18061000  0.35778800  0.92903700  1
  O  O17  1  0.28777200  0.25128900  0.58585200  1
  O  O18  1  0.12978900  0.37324100  0.25823300  1
  F  F19  1  0.21040600  0.87386900  0.24431200  1
  F  F20  1  0.87247000  0.82646800  0.41272500  1
  F  F21  1  0.20392500  0.86627500  0.91710600  1
  F  F22  1  0.31620600  0.62017200  0.09862400  1
  F  F23  1  0.70585400  0.65906600  0.58005300  1
  F  F24  1  0.71563300  0.65245700  0.91285700  1
  F  F25  1  0.37657000  0.68817400  0.76624000  1
  F  F26  1  0.35978700  0.70250200  0.42546700  1
  F  F27  1  0.82124900  0.33797500  0.07426700  1
  F  F28  1  0.70182300  0.28980400  0.40922800  1
  F  F29  1  0.57525300  0.24232200  0.73060300  1
  F  F30  1  0.20823600  0.21637500  0.41600600  1
  F  F31  1  0.34113100  0.11163900  0.07847200  1
  F  F32  1  0.07597900  0.30649100  0.74891500  1
  F  F33  1  0.81965400  0.15957900  0.57183000  1
  F  F34  1  0.70913000  0.15599800  0.92220800  1
  F  F35  1  0.68163800  0.12957900  0.25417500  1
