# generated using pymatgen
data_La3H15I10O37
_symmetry_space_group_name_H-M   'P 1'
_cell_length_a   12.54921934
_cell_length_b   12.54921934
_cell_length_c   13.29989100
_cell_angle_alpha   90.00000000
_cell_angle_beta   90.00000000
_cell_angle_gamma   120.66550768
_symmetry_Int_Tables_number   1
_chemical_formula_structural   La3H15I10O37
_chemical_formula_sum   'La6 H30 I20 O74'
_cell_volume   1801.60871775
_cell_formula_units_Z   2
loop_
 _symmetry_equiv_pos_site_id
 _symmetry_equiv_pos_as_xyz
  1  'x, y, z'
loop_
 _atom_site_type_symbol
 _atom_site_label
 _atom_site_symmetry_multiplicity
 _atom_site_fract_x
 _atom_site_fract_y
 _atom_site_fract_z
 _atom_site_occupancy
  La  La0  1  0.99060600  0.99060600  0.00000000  1
  La  La1  1  0.03832800  0.51432900  0.16296300  1
  La  La2  1  0.53832800  0.01432900  0.33703700  1
  La  La3  1  0.49060600  0.49060600  0.50000000  1
  La  La4  1  0.01432900  0.53832800  0.66296300  1
  La  La5  1  0.51432900  0.03832800  0.83703700  1
  H  H6  1  0.71213400  0.71213400  0.00000000  1
  H  H7  1  0.57107400  0.63440500  0.06874100  1
  H  H8  1  0.26534100  0.02836000  0.04728900  1
  H  H9  1  0.36451300  0.33764000  0.10787600  1
  H  H10  1  0.26707000  0.45202800  0.12025400  1
  H  H11  1  0.24120800  0.50536700  0.02360800  1
  H  H12  1  0.22650700  0.07691700  0.14336000  1
  H  H13  1  0.42519200  0.45094800  0.17832500  1
  H  H14  1  0.92519200  0.95094800  0.32167500  1
  H  H15  1  0.72650700  0.57691700  0.35664000  1
  H  H16  1  0.74120800  0.00536700  0.47639200  1
  H  H17  1  0.76707000  0.95202800  0.37974600  1
  H  H18  1  0.86451300  0.83764000  0.39212400  1
  H  H19  1  0.76534100  0.52836000  0.45271100  1
  H  H20  1  0.07107400  0.13440500  0.43125900  1
  H  H21  1  0.21213400  0.21213400  0.50000000  1
  H  H22  1  0.13440500  0.07107400  0.56874100  1
  H  H23  1  0.52836000  0.76534100  0.54728900  1
  H  H24  1  0.83764000  0.86451300  0.60787600  1
  H  H25  1  0.95202800  0.76707000  0.62025400  1
  H  H26  1  0.00536700  0.74120800  0.52360800  1
  H  H27  1  0.57691700  0.72650700  0.64336000  1
  H  H28  1  0.95094800  0.92519200  0.67832500  1
  H  H29  1  0.45094800  0.42519200  0.82167500  1
  H  H30  1  0.07691700  0.22650700  0.85664000  1
  H  H31  1  0.50536700  0.24120800  0.97639200  1
  H  H32  1  0.45202800  0.26707000  0.87974600  1
  H  H33  1  0.33764000  0.36451300  0.89212400  1
  H  H34  1  0.02836000  0.26534100  0.95271100  1
  H  H35  1  0.63440500  0.57107400  0.93125900  1
  I  I36  1  0.36962200  0.84580900  0.07949800  1
  I  I37  1  0.72890100  0.08291100  0.08702600  1
  I  I38  1  0.83845400  0.65987200  0.12092700  1
  I  I39  1  0.65178500  0.34009700  0.19263200  1
  I  I40  1  0.08264400  0.23359000  0.24797700  1
  I  I41  1  0.58264400  0.73359000  0.25202300  1
  I  I42  1  0.15178500  0.84009700  0.30736800  1
  I  I43  1  0.33845400  0.15987200  0.37907300  1
  I  I44  1  0.22890100  0.58291100  0.41297400  1
  I  I45  1  0.86962200  0.34580900  0.42050200  1
  I  I46  1  0.34580900  0.86962200  0.57949800  1
  I  I47  1  0.58291100  0.22890100  0.58702600  1
  I  I48  1  0.15987200  0.33845400  0.62092700  1
  I  I49  1  0.84009700  0.15178500  0.69263200  1
  I  I50  1  0.73359000  0.58264400  0.74797700  1
  I  I51  1  0.23359000  0.08264400  0.75202300  1
  I  I52  1  0.34009700  0.65178500  0.80736800  1
  I  I53  1  0.65987200  0.83845400  0.87907300  1
  I  I54  1  0.08291100  0.72890100  0.91297400  1
  I  I55  1  0.84580900  0.36962200  0.92050200  1
  O  O56  1  0.63334300  0.63334300  0.00000000  1
  O  O57  1  0.94117700  0.34569700  0.01233600  1
  O  O58  1  0.58181800  0.99397300  0.01645200  1
  O  O59  1  0.80208000  0.00269600  0.02919100  1
  O  O60  1  0.20847100  0.47686900  0.09164400  1
  O  O61  1  0.20872800  0.05600400  0.07117900  1
  O  O62  1  0.20436100  0.72438300  0.09041300  1
  O  O63  1  0.79306600  0.42846700  0.11212100  1
  O  O64  1  0.85624600  0.81540800  0.11899500  1
  O  O65  1  0.53841700  0.32775600  0.10236000  1
  O  O66  1  0.50910900  0.64377300  0.13514400  1
  O  O67  1  0.03092500  0.10761100  0.15855200  1
  O  O68  1  0.34450200  0.38458100  0.15526200  1
  O  O69  1  0.97671900  0.68358000  0.18800400  1
  O  O70  1  0.63973700  0.18683200  0.18324000  1
  O  O71  1  0.67378200  0.99066500  0.20273300  1
  O  O72  1  0.96632500  0.27590400  0.22146600  1
  O  O73  1  0.72207800  0.59478500  0.22156400  1
  O  O74  1  0.38370500  0.93491400  0.19332200  1
  O  O75  1  0.88370500  0.43491400  0.30667800  1
  O  O76  1  0.22207800  0.09478500  0.27843600  1
  O  O77  1  0.46632500  0.77590400  0.27853400  1
  O  O78  1  0.17378200  0.49066500  0.29726700  1
  O  O79  1  0.13973700  0.68683200  0.31676000  1
  O  O80  1  0.47671900  0.18358000  0.31199600  1
  O  O81  1  0.84450200  0.88458100  0.34473800  1
  O  O82  1  0.53092500  0.60761100  0.34144800  1
  O  O83  1  0.00910900  0.14377300  0.36485600  1
  O  O84  1  0.03841700  0.82775600  0.39764000  1
  O  O85  1  0.35624600  0.31540800  0.38100500  1
  O  O86  1  0.29306600  0.92846700  0.38787900  1
  O  O87  1  0.70436100  0.22438300  0.40958700  1
  O  O88  1  0.70872800  0.55600400  0.42882100  1
  O  O89  1  0.70847100  0.97686900  0.40835600  1
  O  O90  1  0.30208000  0.50269600  0.47080900  1
  O  O91  1  0.08181800  0.49397300  0.48354800  1
  O  O92  1  0.44117700  0.84569700  0.48766400  1
  O  O93  1  0.13334300  0.13334300  0.50000000  1
  O  O94  1  0.84569700  0.44117700  0.51233600  1
  O  O95  1  0.49397300  0.08181800  0.51645200  1
  O  O96  1  0.50269600  0.30208000  0.52919100  1
  O  O97  1  0.97686900  0.70847100  0.59164400  1
  O  O98  1  0.55600400  0.70872800  0.57117900  1
  O  O99  1  0.22438300  0.70436100  0.59041300  1
  O  O100  1  0.92846700  0.29306600  0.61212100  1
  O  O101  1  0.31540800  0.35624600  0.61899500  1
  O  O102  1  0.82775600  0.03841700  0.60236000  1
  O  O103  1  0.14377300  0.00910900  0.63514400  1
  O  O104  1  0.60761100  0.53092500  0.65855200  1
  O  O105  1  0.88458100  0.84450200  0.65526200  1
  O  O106  1  0.18358000  0.47671900  0.68800400  1
  O  O107  1  0.68683200  0.13973700  0.68324000  1
  O  O108  1  0.49066500  0.17378200  0.70273300  1
  O  O109  1  0.77590400  0.46632500  0.72146600  1
  O  O110  1  0.09478500  0.22207800  0.72156400  1
  O  O111  1  0.43491400  0.88370500  0.69332200  1
  O  O112  1  0.93491400  0.38370500  0.80667800  1
  O  O113  1  0.59478500  0.72207800  0.77843600  1
  O  O114  1  0.27590400  0.96632500  0.77853400  1
  O  O115  1  0.99066500  0.67378200  0.79726700  1
  O  O116  1  0.18683200  0.63973700  0.81676000  1
  O  O117  1  0.68358000  0.97671900  0.81199600  1
  O  O118  1  0.38458100  0.34450200  0.84473800  1
  O  O119  1  0.10761100  0.03092500  0.84144800  1
  O  O120  1  0.64377300  0.50910900  0.86485600  1
  O  O121  1  0.32775600  0.53841700  0.89764000  1
  O  O122  1  0.81540800  0.85624600  0.88100500  1
  O  O123  1  0.42846700  0.79306600  0.88787900  1
  O  O124  1  0.72438300  0.20436100  0.90958700  1
  O  O125  1  0.05600400  0.20872800  0.92882100  1
  O  O126  1  0.47686900  0.20847100  0.90835600  1
  O  O127  1  0.00269600  0.80208000  0.97080900  1
  O  O128  1  0.99397300  0.58181800  0.98354800  1
  O  O129  1  0.34569700  0.94117700  0.98766400  1
