# generated using pymatgen
data_NiP(H4O3)3
_symmetry_space_group_name_H-M   'P 1'
_cell_length_a   7.31342800
_cell_length_b   11.31576100
_cell_length_c   18.52526500
_cell_angle_alpha   90.00000000
_cell_angle_beta   90.00000000
_cell_angle_gamma   90.00000000
_symmetry_Int_Tables_number   1
_chemical_formula_structural   NiP(H4O3)3
_chemical_formula_sum   'Ni8 P8 H96 O72'
_cell_volume   1533.09541746
_cell_formula_units_Z   8
loop_
 _symmetry_equiv_pos_site_id
 _symmetry_equiv_pos_as_xyz
  1  'x, y, z'
loop_
 _atom_site_type_symbol
 _atom_site_label
 _atom_site_symmetry_multiplicity
 _atom_site_fract_x
 _atom_site_fract_y
 _atom_site_fract_z
 _atom_site_occupancy
  Ni  Ni0  1  0.00000000  0.00000000  0.00000000  1
  Ni  Ni1  1  0.50000000  0.00000000  0.50000000  1
  Ni  Ni2  1  0.00000000  0.19955600  0.67539400  1
  Ni  Ni3  1  0.50000000  0.30044400  0.17539400  1
  Ni  Ni4  1  0.00000000  0.50000000  0.00000000  1
  Ni  Ni5  1  0.50000000  0.50000000  0.50000000  1
  Ni  Ni6  1  0.50000000  0.69955600  0.82460600  1
  Ni  Ni7  1  0.00000000  0.80044400  0.32460600  1
  P  P8  1  0.50000000  0.11311000  0.85766200  1
  P  P9  1  0.00000000  0.20669800  0.31295900  1
  P  P10  1  0.50000000  0.29330200  0.81295900  1
  P  P11  1  0.00000000  0.38689000  0.35766200  1
  P  P12  1  0.00000000  0.61311000  0.64233800  1
  P  P13  1  0.50000000  0.70669800  0.18704100  1
  P  P14  1  0.00000000  0.79330200  0.68704100  1
  P  P15  1  0.50000000  0.88689000  0.14233800  1
  H  H16  1  0.18339900  0.99419000  0.68189400  1
  H  H17  1  0.81660100  0.99419000  0.68189400  1
  H  H18  1  0.11178100  0.05129700  0.86683500  1
  H  H19  1  0.88821900  0.05129700  0.86683500  1
  H  H20  1  0.26258200  0.07768700  0.74395400  1
  H  H21  1  0.73741800  0.07768700  0.74395400  1
  H  H22  1  0.60815300  0.08529700  0.63167400  1
  H  H23  1  0.39184700  0.08529700  0.63167400  1
  H  H24  1  0.31837900  0.09404000  0.16404600  1
  H  H25  1  0.68162100  0.09404000  0.16404600  1
  H  H26  1  0.24275800  0.12756300  0.42444400  1
  H  H27  1  0.75724200  0.12756300  0.42444400  1
  H  H28  1  0.68530900  0.12427900  0.98494900  1
  H  H29  1  0.31469100  0.12427900  0.98494900  1
  H  H30  1  0.10794500  0.12607900  0.53961800  1
  H  H31  1  0.89205500  0.12607900  0.53961800  1
  H  H32  1  0.22656200  0.15064000  0.06334600  1
  H  H33  1  0.77343800  0.15064000  0.06334600  1
  H  H34  1  0.32715200  0.20786200  0.48657100  1
  H  H35  1  0.67284800  0.20786200  0.48657100  1
  H  H36  1  0.17836300  0.19847200  0.18206100  1
  H  H37  1  0.82163700  0.19847200  0.18206100  1
  H  H38  1  0.38987800  0.20891500  0.30393400  1
  H  H39  1  0.61012200  0.20891500  0.30393400  1
  H  H40  1  0.11012200  0.29108500  0.80393400  1
  H  H41  1  0.88987800  0.29108500  0.80393400  1
  H  H42  1  0.32163700  0.30152800  0.68206100  1
  H  H43  1  0.67836300  0.30152800  0.68206100  1
  H  H44  1  0.17284800  0.29213800  0.98657100  1
  H  H45  1  0.82715200  0.29213800  0.98657100  1
  H  H46  1  0.27343800  0.34936000  0.56334600  1
  H  H47  1  0.72656200  0.34936000  0.56334600  1
  H  H48  1  0.60794500  0.37392100  0.03961800  1
  H  H49  1  0.39205500  0.37392100  0.03961800  1
  H  H50  1  0.81469100  0.37572100  0.48494900  1
  H  H51  1  0.18530900  0.37572100  0.48494900  1
  H  H52  1  0.25724200  0.37243700  0.92444400  1
  H  H53  1  0.74275800  0.37243700  0.92444400  1
  H  H54  1  0.81837900  0.40596000  0.66404600  1
  H  H55  1  0.18162100  0.40596000  0.66404600  1
  H  H56  1  0.89184700  0.41470300  0.13167400  1
  H  H57  1  0.10815300  0.41470300  0.13167400  1
  H  H58  1  0.76258200  0.42231300  0.24395400  1
  H  H59  1  0.23741800  0.42231300  0.24395400  1
  H  H60  1  0.38821900  0.44870300  0.36683500  1
  H  H61  1  0.61178100  0.44870300  0.36683500  1
  H  H62  1  0.31660100  0.50581000  0.18189400  1
  H  H63  1  0.68339900  0.50581000  0.18189400  1
  H  H64  1  0.31660100  0.49419000  0.81810600  1
  H  H65  1  0.68339900  0.49419000  0.81810600  1
  H  H66  1  0.38821900  0.55129700  0.63316500  1
  H  H67  1  0.61178100  0.55129700  0.63316500  1
  H  H68  1  0.23741800  0.57768700  0.75604600  1
  H  H69  1  0.76258200  0.57768700  0.75604600  1
  H  H70  1  0.10815300  0.58529700  0.86832600  1
  H  H71  1  0.89184700  0.58529700  0.86832600  1
  H  H72  1  0.18162100  0.59404000  0.33595400  1
  H  H73  1  0.81837900  0.59404000  0.33595400  1
  H  H74  1  0.25724200  0.62756300  0.07555600  1
  H  H75  1  0.74275800  0.62756300  0.07555600  1
  H  H76  1  0.18530900  0.62427900  0.51505100  1
  H  H77  1  0.81469100  0.62427900  0.51505100  1
  H  H78  1  0.39205500  0.62607900  0.96038200  1
  H  H79  1  0.60794500  0.62607900  0.96038200  1
  H  H80  1  0.27343800  0.65064000  0.43665400  1
  H  H81  1  0.72656200  0.65064000  0.43665400  1
  H  H82  1  0.17284800  0.70786200  0.01342900  1
  H  H83  1  0.82715200  0.70786200  0.01342900  1
  H  H84  1  0.32163700  0.69847200  0.31793900  1
  H  H85  1  0.67836300  0.69847200  0.31793900  1
  H  H86  1  0.11012200  0.70891500  0.19606600  1
  H  H87  1  0.88987800  0.70891500  0.19606600  1
  H  H88  1  0.38987800  0.79108500  0.69606600  1
  H  H89  1  0.61012200  0.79108500  0.69606600  1
  H  H90  1  0.17836300  0.80152800  0.81793900  1
  H  H91  1  0.82163700  0.80152800  0.81793900  1
  H  H92  1  0.32715200  0.79213800  0.51342900  1
  H  H93  1  0.67284800  0.79213800  0.51342900  1
  H  H94  1  0.22656200  0.84936000  0.93665400  1
  H  H95  1  0.77343800  0.84936000  0.93665400  1
  H  H96  1  0.10794500  0.87392100  0.46038200  1
  H  H97  1  0.89205500  0.87392100  0.46038200  1
  H  H98  1  0.31469100  0.87572100  0.01505100  1
  H  H99  1  0.68530900  0.87572100  0.01505100  1
  H  H100  1  0.24275800  0.87243700  0.57555600  1
  H  H101  1  0.75724200  0.87243700  0.57555600  1
  H  H102  1  0.31837900  0.90596000  0.83595400  1
  H  H103  1  0.68162100  0.90596000  0.83595400  1
  H  H104  1  0.39184700  0.91470300  0.36832600  1
  H  H105  1  0.60815300  0.91470300  0.36832600  1
  H  H106  1  0.26258200  0.92231300  0.25604600  1
  H  H107  1  0.73741800  0.92231300  0.25604600  1
  H  H108  1  0.11178100  0.94870300  0.13316500  1
  H  H109  1  0.88821900  0.94870300  0.13316500  1
  H  H110  1  0.18339900  0.00581000  0.31810600  1
  H  H111  1  0.81660100  0.00581000  0.31810600  1
  O  O112  1  0.00000000  0.02286300  0.89181700  1
  O  O113  1  0.32534900  0.05333700  0.82725800  1
  O  O114  1  0.67465100  0.05333700  0.82725800  1
  O  O115  1  0.21327300  0.07955200  0.69300000  1
  O  O116  1  0.78672700  0.07955200  0.69300000  1
  O  O117  1  0.50000000  0.08243800  0.59893200  1
  O  O118  1  0.50000000  0.11769000  0.94038900  1
  O  O119  1  0.70712100  0.12438900  0.47533100  1
  O  O120  1  0.29287900  0.12438900  0.47533100  1
  O  O121  1  0.19453800  0.13823200  0.01149400  1
  O  O122  1  0.80546200  0.13823200  0.01149400  1
  O  O123  1  0.00000000  0.12741100  0.57189700  1
  O  O124  1  0.17673500  0.14442300  0.34004200  1
  O  O125  1  0.82326500  0.14442300  0.34004200  1
  O  O126  1  0.29238900  0.17931800  0.15258800  1
  O  O127  1  0.70761100  0.17931800  0.15258800  1
  O  O128  1  0.00000000  0.21962300  0.23028600  1
  O  O129  1  0.50000000  0.24893300  0.28429500  1
  O  O130  1  0.00000000  0.25106700  0.78429500  1
  O  O131  1  0.50000000  0.28037700  0.73028600  1
  O  O132  1  0.20761100  0.32068200  0.65258800  1
  O  O133  1  0.79238900  0.32068200  0.65258800  1
  O  O134  1  0.32326500  0.35557700  0.84004200  1
  O  O135  1  0.67673500  0.35557700  0.84004200  1
  O  O136  1  0.50000000  0.37258900  0.07189700  1
  O  O137  1  0.30546200  0.36176800  0.51149400  1
  O  O138  1  0.69453800  0.36176800  0.51149400  1
  O  O139  1  0.79287900  0.37561100  0.97533100  1
  O  O140  1  0.20712100  0.37561100  0.97533100  1
  O  O141  1  0.00000000  0.38231000  0.44038900  1
  O  O142  1  0.00000000  0.41756200  0.09893200  1
  O  O143  1  0.71327300  0.42044800  0.19300000  1
  O  O144  1  0.28672700  0.42044800  0.19300000  1
  O  O145  1  0.82534900  0.44666300  0.32725800  1
  O  O146  1  0.17465100  0.44666300  0.32725800  1
  O  O147  1  0.50000000  0.47713700  0.39181700  1
  O  O148  1  0.50000000  0.52286300  0.60818300  1
  O  O149  1  0.17465100  0.55333700  0.67274200  1
  O  O150  1  0.82534900  0.55333700  0.67274200  1
  O  O151  1  0.28672700  0.57955200  0.80700000  1
  O  O152  1  0.71327300  0.57955200  0.80700000  1
  O  O153  1  0.00000000  0.58243800  0.90106800  1
  O  O154  1  0.00000000  0.61769000  0.55961100  1
  O  O155  1  0.20712100  0.62438900  0.02466900  1
  O  O156  1  0.79287900  0.62438900  0.02466900  1
  O  O157  1  0.30546200  0.63823200  0.48850600  1
  O  O158  1  0.69453800  0.63823200  0.48850600  1
  O  O159  1  0.50000000  0.62741100  0.92810300  1
  O  O160  1  0.32326500  0.64442300  0.15995800  1
  O  O161  1  0.67673500  0.64442300  0.15995800  1
  O  O162  1  0.20761100  0.67931800  0.34741200  1
  O  O163  1  0.79238900  0.67931800  0.34741200  1
  O  O164  1  0.50000000  0.71962300  0.26971400  1
  O  O165  1  0.00000000  0.74893300  0.21570500  1
  O  O166  1  0.50000000  0.75106700  0.71570500  1
  O  O167  1  0.00000000  0.78037700  0.76971400  1
  O  O168  1  0.29238900  0.82068200  0.84741200  1
  O  O169  1  0.70761100  0.82068200  0.84741200  1
  O  O170  1  0.17673500  0.85557700  0.65995800  1
  O  O171  1  0.82326500  0.85557700  0.65995800  1
  O  O172  1  0.00000000  0.87258900  0.42810300  1
  O  O173  1  0.19453800  0.86176800  0.98850600  1
  O  O174  1  0.80546200  0.86176800  0.98850600  1
  O  O175  1  0.29287900  0.87561100  0.52466900  1
  O  O176  1  0.70712100  0.87561100  0.52466900  1
  O  O177  1  0.50000000  0.88231000  0.05961100  1
  O  O178  1  0.50000000  0.91756200  0.40106800  1
  O  O179  1  0.21327300  0.92044800  0.30700000  1
  O  O180  1  0.78672700  0.92044800  0.30700000  1
  O  O181  1  0.32534900  0.94666300  0.17274200  1
  O  O182  1  0.67465100  0.94666300  0.17274200  1
  O  O183  1  0.00000000  0.97713700  0.10818300  1
