# generated using pymatgen
data_NaMg6C
_symmetry_space_group_name_H-M   'P 1'
_cell_length_a   9.64512452
_cell_length_b   9.64512452
_cell_length_c   3.45252500
_cell_angle_alpha   90.00000000
_cell_angle_beta   90.00000000
_cell_angle_gamma   144.67833180
_symmetry_Int_Tables_number   1
_chemical_formula_structural   NaMg6C
_chemical_formula_sum   'Na1 Mg6 C1'
_cell_volume   185.69714713
_cell_formula_units_Z   1
loop_
 _symmetry_equiv_pos_site_id
 _symmetry_equiv_pos_as_xyz
  1  'x, y, z'
loop_
 _atom_site_type_symbol
 _atom_site_label
 _atom_site_symmetry_multiplicity
 _atom_site_fract_x
 _atom_site_fract_y
 _atom_site_fract_z
 _atom_site_occupancy
  Na  Na0  1  0.79598500  0.20401500  0.50000000  1
  Mg  Mg1  1  0.29871000  0.21024100  0.50000000  1
  Mg  Mg2  1  0.78975900  0.70129000  0.50000000  1
  Mg  Mg3  1  0.18805100  0.36052100  0.00000000  1
  Mg  Mg4  1  0.63947900  0.81194900  0.00000000  1
  Mg  Mg5  1  0.65818300  0.34181700  0.00000000  1
  Mg  Mg6  1  0.18360800  0.81639200  0.00000000  1
  C  C7  1  0.44623000  0.55377000  0.50000000  1
