# generated using pymatgen
data_ZnP2H15C4NO8
_symmetry_space_group_name_H-M   'P 1'
_cell_length_a   13.93829000
_cell_length_b   8.55076200
_cell_length_c   10.27423110
_cell_angle_alpha   88.99767450
_cell_angle_beta   90.00000000
_cell_angle_gamma   90.00000000
_symmetry_Int_Tables_number   1
_chemical_formula_structural   ZnP2H15C4NO8
_chemical_formula_sum   'Zn4 P8 H60 C16 N4 O32'
_cell_volume   1224.32632250
_cell_formula_units_Z   4
loop_
 _symmetry_equiv_pos_site_id
 _symmetry_equiv_pos_as_xyz
  1  'x, y, z'
loop_
 _atom_site_type_symbol
 _atom_site_label
 _atom_site_symmetry_multiplicity
 _atom_site_fract_x
 _atom_site_fract_y
 _atom_site_fract_z
 _atom_site_occupancy
  Zn  Zn0  1  0.42485700  0.78296500  0.97450100  1
  Zn  Zn1  1  0.57514300  0.78296500  0.47450100  1
  Zn  Zn2  1  0.86856900  0.28145800  0.58468100  1
  Zn  Zn3  1  0.13143100  0.28145800  0.08468100  1
  P  P4  1  0.38608800  0.75405400  0.65863200  1
  P  P5  1  0.61391200  0.75405400  0.15863200  1
  P  P6  1  0.22618300  0.59254900  0.99202400  1
  P  P7  1  0.77381700  0.59254900  0.49202400  1
  P  P8  1  0.03671100  0.25043800  0.79317600  1
  P  P9  1  0.96328900  0.25043800  0.29317600  1
  P  P10  1  0.30536900  0.09224200  0.96244300  1
  P  P11  1  0.69463100  0.09224200  0.46244300  1
  H  H12  1  0.77791900  0.90948000  0.78544900  1
  H  H13  1  0.94404300  0.90682300  0.71936500  1
  H  H14  1  0.22208100  0.90948000  0.28544900  1
  H  H15  1  0.14011900  0.88567100  0.55594500  1
  H  H16  1  0.05595700  0.90682300  0.21936500  1
  H  H17  1  0.01628700  0.88578900  0.50458500  1
  H  H18  1  0.85988100  0.88567100  0.05594500  1
  H  H19  1  0.98371300  0.88578900  0.00458500  1
  H  H20  1  0.73778500  0.78106000  0.91537600  1
  H  H21  1  0.02718800  0.77547000  0.79896600  1
  H  H22  1  0.26221500  0.78106000  0.41537600  1
  H  H23  1  0.97281200  0.77547000  0.29896600  1
  H  H24  1  0.77044500  0.70331500  0.75932700  1
  H  H25  1  0.93497100  0.69873800  0.69414500  1
  H  H26  1  0.22955500  0.70331500  0.25932700  1
  H  H27  1  0.06502900  0.69873800  0.19414500  1
  H  H28  1  0.97377500  0.60965000  0.97827300  1
  H  H29  1  0.02622500  0.60965000  0.47827300  1
  H  H30  1  0.15131700  0.60707900  0.52144300  1
  H  H31  1  0.84868300  0.60707900  0.02144300  1
  H  H32  1  0.88816400  0.52769300  0.86849000  1
  H  H33  1  0.11183600  0.52769300  0.36849000  1
  H  H34  1  0.62064100  0.52179100  0.88386700  1
  H  H35  1  0.37935900  0.52179100  0.38386700  1
  H  H36  1  0.52452900  0.42010100  0.80835200  1
  H  H37  1  0.64368600  0.40883000  0.74043200  1
  H  H38  1  0.47547100  0.42010100  0.30835200  1
  H  H39  1  0.35631400  0.40883000  0.24043200  1
  H  H40  1  0.41301800  0.39388800  0.58738300  1
  H  H41  1  0.74504600  0.37521600  0.99820500  1
  H  H42  1  0.58698200  0.39388800  0.08738300  1
  H  H43  1  0.25495400  0.37521600  0.49820500  1
  H  H44  1  0.51127800  0.28864200  0.51405900  1
  H  H45  1  0.48872200  0.28864200  0.01405900  1
  H  H46  1  0.76721900  0.26007900  0.85608100  1
  H  H47  1  0.23278100  0.26007900  0.35608100  1
  H  H48  1  0.41823200  0.18322700  0.59924000  1
  H  H49  1  0.58176800  0.18322700  0.09924000  1
  H  H50  1  0.26126500  0.16614500  0.50964200  1
  H  H51  1  0.73873500  0.16614500  0.00964200  1
  H  H52  1  0.51553600  0.13730600  0.82479600  1
  H  H53  1  0.48446400  0.13730600  0.32479600  1
  H  H54  1  0.63392700  0.12500600  0.75356800  1
  H  H55  1  0.36607300  0.12500600  0.25356800  1
  H  H56  1  0.60732700  0.02948400  0.90810000  1
  H  H57  1  0.39267300  0.02948400  0.40810000  1
  H  H58  1  0.89968600  0.01437600  0.92634500  1
  H  H59  1  0.10031400  0.01437600  0.42634500  1
  H  H60  1  0.29836300  0.94969100  0.72950300  1
  H  H61  1  0.70163700  0.94969100  0.22950300  1
  H  H62  1  0.19308000  0.83718200  0.92823700  1
  H  H63  1  0.80692000  0.83718200  0.42823700  1
  H  H64  1  0.28107800  0.57876500  0.73713700  1
  H  H65  1  0.71892200  0.57876500  0.23713700  1
  H  H66  1  0.13346700  0.45112600  0.78555600  1
  H  H67  1  0.86653300  0.45112600  0.28555600  1
  H  H68  1  0.30512300  0.33531200  0.87930900  1
  H  H69  1  0.69487700  0.33531200  0.37930900  1
  H  H70  1  0.15402300  0.07664900  0.78583700  1
  H  H71  1  0.84597700  0.07664900  0.28583700  1
  C  C72  1  0.90906200  0.89965700  0.97354400  1
  C  C73  1  0.09093800  0.89965700  0.47354400  1
  C  C74  1  0.78543500  0.79329800  0.83102800  1
  C  C75  1  0.95369300  0.79014200  0.76299400  1
  C  C76  1  0.21456500  0.79329800  0.33102800  1
  C  C77  1  0.04630700  0.79014200  0.26299400  1
  C  C78  1  0.90022300  0.61758400  0.94129400  1
  C  C79  1  0.09977700  0.61758400  0.44129400  1
  C  C80  1  0.60140800  0.41696500  0.83005500  1
  C  C81  1  0.39859200  0.41696500  0.33005500  1
  C  C82  1  0.43491600  0.28656700  0.53897500  1
  C  C83  1  0.72613500  0.26869000  0.94663100  1
  C  C84  1  0.56508400  0.28656700  0.03897500  1
  C  C85  1  0.27386500  0.26869000  0.44663100  1
  C  C86  1  0.59259800  0.13051600  0.84423100  1
  C  C87  1  0.40740200  0.13051600  0.34423100  1
  N  N88  1  0.88705000  0.77512000  0.87712200  1
  N  N89  1  0.11295000  0.77512000  0.37712200  1
  N  N90  1  0.62129100  0.27565000  0.91466700  1
  N  N91  1  0.37870900  0.27565000  0.41466700  1
  O  O92  1  0.24396600  0.99662700  0.86391500  1
  O  O93  1  0.75603400  0.99662700  0.36391500  1
  O  O94  1  0.32981000  0.91640500  0.64480800  1
  O  O95  1  0.67019000  0.91640500  0.14480800  1
  O  O96  1  0.15854700  0.74114400  0.96283600  1
  O  O97  1  0.44020400  0.74353300  0.78665800  1
  O  O98  1  0.84145300  0.74114400  0.46283600  1
  O  O99  1  0.55979600  0.74353300  0.28665800  1
  O  O100  1  0.44571700  0.73786300  0.53610200  1
  O  O101  1  0.55428300  0.73786300  0.03610200  1
  O  O102  1  0.67597300  0.64597500  0.54168500  1
  O  O103  1  0.32402700  0.64597500  0.04168500  1
  O  O104  1  0.30716000  0.61906900  0.64986500  1
  O  O105  1  0.69284000  0.61906900  0.14986500  1
  O  O106  1  0.23438100  0.49790700  0.86341300  1
  O  O107  1  0.82723000  0.49892800  0.59832900  1
  O  O108  1  0.76561900  0.49790700  0.36341300  1
  O  O109  1  0.17277000  0.49892800  0.09832900  1
  O  O110  1  0.07370600  0.41513600  0.73860800  1
  O  O111  1  0.92629400  0.41513600  0.23860800  1
  O  O112  1  0.04513200  0.24019500  0.94069100  1
  O  O113  1  0.34850200  0.24127400  0.88472100  1
  O  O114  1  0.95486800  0.24019500  0.44069100  1
  O  O115  1  0.65149800  0.24127400  0.38472100  1
  O  O116  1  0.93377600  0.22906600  0.74769200  1
  O  O117  1  0.06622400  0.22906600  0.24769200  1
  O  O118  1  0.75469800  0.14787700  0.57799700  1
  O  O119  1  0.24530200  0.14787700  0.07799700  1
  O  O120  1  0.10040600  0.11848100  0.72824000  1
  O  O121  1  0.89959400  0.11848100  0.22824000  1
  O  O122  1  0.60682500  0.00054100  0.50912500  1
  O  O123  1  0.39317500  0.00054100  0.00912500  1
