# generated using pymatgen
data_Na3Zn4As3H12O19
_symmetry_space_group_name_H-M   'P 1'
_cell_length_a   10.99717487
_cell_length_b   10.99717487
_cell_length_c   10.99717513
_cell_angle_alpha   60.66908433
_cell_angle_beta   60.66908433
_cell_angle_gamma   60.66908748
_symmetry_Int_Tables_number   1
_chemical_formula_structural   Na3Zn4As3H12O19
_chemical_formula_sum   'Na6 Zn8 As6 H24 O38'
_cell_volume   954.63893539
_cell_formula_units_Z   2
loop_
 _symmetry_equiv_pos_site_id
 _symmetry_equiv_pos_as_xyz
  1  'x, y, z'
loop_
 _atom_site_type_symbol
 _atom_site_label
 _atom_site_symmetry_multiplicity
 _atom_site_fract_x
 _atom_site_fract_y
 _atom_site_fract_z
 _atom_site_occupancy
  Na  Na0  1  0.66367700  0.06115800  0.94755700  1
  Na  Na1  1  0.56115800  0.16367700  0.44755700  1
  Na  Na2  1  0.94755700  0.66367700  0.06115800  1
  Na  Na3  1  0.44755700  0.56115800  0.16367700  1
  Na  Na4  1  0.16367700  0.44755700  0.56115800  1
  Na  Na5  1  0.06115800  0.94755700  0.66367700  1
  Zn  Zn6  1  0.98986800  0.00549300  0.29245700  1
  Zn  Zn7  1  0.79245700  0.50549300  0.48986800  1
  Zn  Zn8  1  0.50549300  0.48986800  0.79245700  1
  Zn  Zn9  1  0.99913300  0.99913300  0.99913300  1
  Zn  Zn10  1  0.49913300  0.49913300  0.49913300  1
  Zn  Zn11  1  0.00549300  0.29245700  0.98986800  1
  Zn  Zn12  1  0.48986800  0.79245700  0.50549300  1
  Zn  Zn13  1  0.29245700  0.98986800  0.00549300  1
  As  As14  1  0.83765000  0.30840200  0.80426200  1
  As  As15  1  0.80840200  0.33765000  0.30426200  1
  As  As16  1  0.33765000  0.30426200  0.80840200  1
  As  As17  1  0.80426200  0.83765000  0.30840200  1
  As  As18  1  0.30840200  0.80426200  0.83765000  1
  As  As19  1  0.30426200  0.80840200  0.33765000  1
  H  H20  1  0.74974600  0.00974400  0.68460600  1
  H  H21  1  0.80027700  0.14616000  0.61878400  1
  H  H22  1  0.45199200  0.03127700  0.23409300  1
  H  H23  1  0.64616000  0.30027700  0.11878400  1
  H  H24  1  0.95199200  0.73409300  0.53127700  1
  H  H25  1  0.50974400  0.24974600  0.18460600  1
  H  H26  1  0.30027700  0.11878400  0.64616000  1
  H  H27  1  0.88382300  0.62131100  0.67560700  1
  H  H28  1  0.38382300  0.17560700  0.12131100  1
  H  H29  1  0.73409300  0.53127700  0.95199200  1
  H  H30  1  0.24974600  0.18460600  0.50974400  1
  H  H31  1  0.17560700  0.12131100  0.38382300  1
  H  H32  1  0.62131100  0.67560700  0.88382300  1
  H  H33  1  0.68460600  0.74974600  0.00974400  1
  H  H34  1  0.03127700  0.23409300  0.45199200  1
  H  H35  1  0.67560700  0.88382300  0.62131100  1
  H  H36  1  0.12131100  0.38382300  0.17560700  1
  H  H37  1  0.61878400  0.80027700  0.14616000  1
  H  H38  1  0.23409300  0.45199200  0.03127700  1
  H  H39  1  0.18460600  0.50974400  0.24974600  1
  H  H40  1  0.53127700  0.95199200  0.73409300  1
  H  H41  1  0.14616000  0.61878400  0.80027700  1
  H  H42  1  0.11878400  0.64616000  0.30027700  1
  H  H43  1  0.00974400  0.68460600  0.74974600  1
  O  O44  1  0.96201600  0.13416900  0.80891300  1
  O  O45  1  0.80611700  0.04928700  0.69645000  1
  O  O46  1  0.80695900  0.16539400  0.34606700  1
  O  O47  1  0.93948100  0.38813500  0.13531800  1
  O  O48  1  0.85574000  0.32687100  0.43999100  1
  O  O49  1  0.82687100  0.35574000  0.93999100  1
  O  O50  1  0.88813500  0.43948100  0.63531800  1
  O  O51  1  0.66539400  0.30695900  0.84606700  1
  O  O52  1  0.45809000  0.13193300  0.16886700  1
  O  O53  1  0.95809000  0.66886700  0.63193300  1
  O  O54  1  0.38813500  0.13531800  0.93948100  1
  O  O55  1  0.54928700  0.30611700  0.19645000  1
  O  O56  1  0.84606700  0.66539400  0.30695900  1
  O  O57  1  0.63416900  0.46201600  0.30891300  1
  O  O58  1  0.46201600  0.30891300  0.63416900  1
  O  O59  1  0.93999100  0.82687100  0.35574000  1
  O  O60  1  0.30611700  0.19645000  0.54928700  1
  O  O61  1  0.66886700  0.63193300  0.95809000  1
  O  O62  1  0.07298300  0.07298300  0.07298300  1
  O  O63  1  0.57298300  0.57298300  0.57298300  1
  O  O64  1  0.13193300  0.16886700  0.45809000  1
  O  O65  1  0.69645000  0.80611700  0.04928700  1
  O  O66  1  0.32687100  0.43999100  0.85574000  1
  O  O67  1  0.80891300  0.96201600  0.13416900  1
  O  O68  1  0.16539400  0.34606700  0.80695900  1
  O  O69  1  0.43948100  0.63531800  0.88813500  1
  O  O70  1  0.63531800  0.88813500  0.43948100  1
  O  O71  1  0.16886700  0.45809000  0.13193300  1
  O  O72  1  0.63193300  0.95809000  0.66886700  1
  O  O73  1  0.30891300  0.63416900  0.46201600  1
  O  O74  1  0.19645000  0.54928700  0.30611700  1
  O  O75  1  0.43999100  0.85574000  0.32687100  1
  O  O76  1  0.34606700  0.80695900  0.16539400  1
  O  O77  1  0.30695900  0.84606700  0.66539400  1
  O  O78  1  0.35574000  0.93999100  0.82687100  1
  O  O79  1  0.04928700  0.69645000  0.80611700  1
  O  O80  1  0.13416900  0.80891300  0.96201600  1
  O  O81  1  0.13531800  0.93948100  0.38813500  1
