# generated using pymatgen
data_La2MgHg
_symmetry_space_group_name_H-M   'P 1'
_cell_length_a   12.36577672
_cell_length_b   12.36577672
_cell_length_c   12.36577672
_cell_angle_alpha   119.78175579
_cell_angle_beta   117.86485614
_cell_angle_gamma   92.05820529
_symmetry_Int_Tables_number   1
_chemical_formula_structural   La2MgHg
_chemical_formula_sum   'La2 Mg1 Hg1'
_cell_volume   1359.43057085
_cell_formula_units_Z   1
loop_
 _symmetry_equiv_pos_site_id
 _symmetry_equiv_pos_as_xyz
  1  'x, y, z'
loop_
 _atom_site_type_symbol
 _atom_site_label
 _atom_site_symmetry_multiplicity
 _atom_site_fract_x
 _atom_site_fract_y
 _atom_site_fract_z
 _atom_site_occupancy
  La  La0  1  0.74261600  0.00000000  0.74261600  1
  La  La1  1  0.25738400  0.00000000  0.25738400  1
  Mg  Mg2  1  0.00000000  0.00000000  0.00000000  1
  Hg  Hg3  1  0.50000000  0.00000000  0.50000000  1
