# generated using pymatgen
data_HfMg30BO31
_symmetry_space_group_name_H-M   'P 1'
_cell_length_a   8.56747600
_cell_length_b   8.59668000
_cell_length_c   8.60109000
_cell_angle_alpha   90.00000000
_cell_angle_beta   90.00000000
_cell_angle_gamma   90.00000000
_symmetry_Int_Tables_number   1
_chemical_formula_structural   HfMg30BO31
_chemical_formula_sum   'Hf1 Mg30 B1 O31'
_cell_volume   633.48618690
_cell_formula_units_Z   1
loop_
 _symmetry_equiv_pos_site_id
 _symmetry_equiv_pos_as_xyz
  1  'x, y, z'
loop_
 _atom_site_type_symbol
 _atom_site_label
 _atom_site_symmetry_multiplicity
 _atom_site_fract_x
 _atom_site_fract_y
 _atom_site_fract_z
 _atom_site_occupancy
  Hf  Hf0  1  0.50000000  0.99993700  0.50000000  1
  Mg  Mg1  1  0.50000000  0.00156200  0.00000000  1
  Mg  Mg2  1  0.00000000  0.99994200  0.50000000  1
  Mg  Mg3  1  0.00000000  0.49983600  0.00000000  1
  Mg  Mg4  1  0.50000000  0.49896300  0.00000000  1
  Mg  Mg5  1  0.00000000  0.50003300  0.50000000  1
  Mg  Mg6  1  0.50000000  0.49974000  0.50000000  1
  Mg  Mg7  1  0.24211700  0.99983800  0.24018100  1
  Mg  Mg8  1  0.75788300  0.99983800  0.24018100  1
  Mg  Mg9  1  0.24211700  0.99983800  0.75981900  1
  Mg  Mg10  1  0.75788300  0.99983800  0.75981900  1
  Mg  Mg11  1  0.24886400  0.50011600  0.24798300  1
  Mg  Mg12  1  0.75113600  0.50011600  0.24798300  1
  Mg  Mg13  1  0.24886400  0.50011600  0.75201700  1
  Mg  Mg14  1  0.75113600  0.50011600  0.75201700  1
  Mg  Mg15  1  0.24527500  0.75159000  0.00000000  1
  Mg  Mg16  1  0.75472500  0.75159000  0.00000000  1
  Mg  Mg17  1  0.24421900  0.74403000  0.50000000  1
  Mg  Mg18  1  0.75578100  0.74403000  0.50000000  1
  Mg  Mg19  1  0.24672600  0.24849100  0.00000000  1
  Mg  Mg20  1  0.75327400  0.24849100  0.00000000  1
  Mg  Mg21  1  0.24451000  0.25593300  0.50000000  1
  Mg  Mg22  1  0.75549000  0.25593300  0.50000000  1
  Mg  Mg23  1  0.00000000  0.75176600  0.24661900  1
  Mg  Mg24  1  0.50000000  0.74668200  0.24591100  1
  Mg  Mg25  1  0.00000000  0.75176600  0.75338100  1
  Mg  Mg26  1  0.50000000  0.74668200  0.75408900  1
  Mg  Mg27  1  0.00000000  0.24823700  0.24634400  1
  Mg  Mg28  1  0.50000000  0.25308400  0.24547300  1
  Mg  Mg29  1  0.00000000  0.24823700  0.75365600  1
  Mg  Mg30  1  0.50000000  0.25308400  0.75452700  1
  B  B31  1  0.00000000  0.00037000  0.00000000  1
  O  O32  1  0.00000000  0.73537100  0.00000000  1
  O  O33  1  0.00000000  0.74924200  0.50000000  1
  O  O34  1  0.50000000  0.74575800  0.50000000  1
  O  O35  1  0.00000000  0.26464100  0.00000000  1
  O  O36  1  0.50000000  0.25202000  0.00000000  1
  O  O37  1  0.00000000  0.25077900  0.50000000  1
  O  O38  1  0.50000000  0.25440100  0.50000000  1
  O  O39  1  0.24964300  0.75134700  0.25178100  1
  O  O40  1  0.75035700  0.75134700  0.25178100  1
  O  O41  1  0.24964300  0.75134700  0.74821900  1
  O  O42  1  0.75035700  0.75134700  0.74821900  1
  O  O43  1  0.25037300  0.24856300  0.25090700  1
  O  O44  1  0.74962700  0.24856300  0.25090700  1
  O  O45  1  0.25037300  0.24856300  0.74909300  1
  O  O46  1  0.74962700  0.24856300  0.74909300  1
  O  O47  1  0.26452300  0.99987400  0.00000000  1
  O  O48  1  0.73547700  0.99987400  0.00000000  1
  O  O49  1  0.25534200  0.99994400  0.50000000  1
  O  O50  1  0.74465800  0.99994400  0.50000000  1
  O  O51  1  0.25147700  0.49927000  0.00000000  1
  O  O52  1  0.74852300  0.49927000  0.00000000  1
  O  O53  1  0.25052800  0.49999000  0.50000000  1
  O  O54  1  0.74947200  0.49999000  0.50000000  1
  O  O55  1  0.00000000  0.00004000  0.26673100  1
  O  O56  1  0.50000000  0.00081200  0.24796400  1
  O  O57  1  0.00000000  0.00004000  0.73326900  1
  O  O58  1  0.50000000  0.00081200  0.75203600  1
  O  O59  1  0.00000000  0.50005400  0.25252400  1
  O  O60  1  0.50000000  0.49918000  0.25132300  1
  O  O61  1  0.00000000  0.50005400  0.74747600  1
  O  O62  1  0.50000000  0.49918000  0.74867700  1
