data_image0
_chemical_formula_structural       O32S8Zr4
_chemical_formula_sum              "O32 S8 Zr4"
_cell_length_a       8.42344
_cell_length_b       5.3516
_cell_length_c       10.6943
_cell_angle_alpha    90
_cell_angle_beta     90
_cell_angle_gamma    90

_space_group_name_H-M_alt    "P 1"
_space_group_IT_number       1

loop_
  _space_group_symop_operation_xyz
  'x, y, z'

loop_
  _atom_site_type_symbol
  _atom_site_label
  _atom_site_symmetry_multiplicity
  _atom_site_fract_x
  _atom_site_fract_y
  _atom_site_fract_z
  _atom_site_occupancy
  O   O1        1.0  0.33600  0.47400  0.48900  1.0000
  O   O2        1.0  0.16400  0.52600  0.98900  1.0000
  O   O3        1.0  0.83600  0.02580  0.01100  1.0000
  O   O4        1.0  0.66400  0.97400  0.51100  1.0000
  O   O5        1.0  0.66400  0.52600  0.51100  1.0000
  O   O6        1.0  0.83600  0.47400  0.01100  1.0000
  O   O7        1.0  0.16400  0.97400  0.98900  1.0000
  O   O8        1.0  0.33600  0.02580  0.48900  1.0000
  O   O9        1.0  0.40300  0.53000  0.17200  1.0000
  O   O10       1.0  0.09700  0.47000  0.67200  1.0000
  O   O11       1.0  0.90300  0.97000  0.32800  1.0000
  O   O12       1.0  0.59700  0.03010  0.82800  1.0000
  O   O13       1.0  0.59700  0.47000  0.82800  1.0000
  O   O14       1.0  0.90300  0.53000  0.32800  1.0000
  O   O15       1.0  0.09700  0.03010  0.67200  1.0000
  O   O16       1.0  0.40300  0.97000  0.17200  1.0000
  O   O17       1.0  0.50600  0.25000  0.35200  1.0000
  O   O18       1.0  0.99400  0.75000  0.85200  1.0000
  O   O19       1.0  0.00618  0.25000  0.14800  1.0000
  O   O20       1.0  0.49400  0.75000  0.64800  1.0000
  O   O21       1.0  0.22300  0.25000  0.31700  1.0000
  O   O22       1.0  0.27700  0.75000  0.81700  1.0000
  O   O23       1.0  0.72300  0.25000  0.18300  1.0000
  O   O24       1.0  0.77700  0.75000  0.68300  1.0000
  O   O25       1.0  0.06910  0.75000  0.47000  1.0000
  O   O26       1.0  0.43100  0.25000  0.97000  1.0000
  O   O27       1.0  0.56900  0.75000  0.03040  1.0000
  O   O28       1.0  0.93100  0.25000  0.53000  1.0000
  O   O29       1.0  0.12700  0.75000  0.24400  1.0000
  O   O30       1.0  0.37300  0.25000  0.74400  1.0000
  O   O31       1.0  0.62700  0.75000  0.25600  1.0000
  O   O32       1.0  0.87300  0.25000  0.75600  1.0000
  S   S1        1.0  0.34900  0.25000  0.41200  1.0000
  S   S2        1.0  0.15100  0.75000  0.91200  1.0000
  S   S3        1.0  0.84900  0.25000  0.08820  1.0000
  S   S4        1.0  0.65100  0.75000  0.58800  1.0000
  S   S5        1.0  0.50900  0.75000  0.15900  1.0000
  S   S6        1.0  0.99100  0.25000  0.65900  1.0000
  S   S7        1.0  0.00884  0.75000  0.34100  1.0000
  S   S8        1.0  0.49100  0.25000  0.84100  1.0000
  Zr  Zr1       1.0  0.25400  0.25000  0.11300  1.0000
  Zr  Zr2       1.0  0.24600  0.75000  0.61300  1.0000
  Zr  Zr3       1.0  0.75400  0.25000  0.38700  1.0000
  Zr  Zr4       1.0  0.74600  0.75000  0.88700  1.0000
