# generated using pymatgen
data_CeSe2
_symmetry_space_group_name_H-M   'P 1'
_cell_length_a   14.05171620
_cell_length_b   14.05171620
_cell_length_c   14.05171620
_cell_angle_alpha   105.29403168
_cell_angle_beta   105.29403168
_cell_angle_gamma   118.19376469
_symmetry_Int_Tables_number   1
_chemical_formula_structural   CeSe2
_chemical_formula_sum   'Ce8 Se16'
_cell_volume   2098.19049835
_cell_formula_units_Z   8
loop_
 _symmetry_equiv_pos_site_id
 _symmetry_equiv_pos_as_xyz
  1  'x, y, z'
loop_
 _atom_site_type_symbol
 _atom_site_label
 _atom_site_symmetry_multiplicity
 _atom_site_fract_x
 _atom_site_fract_y
 _atom_site_fract_z
 _atom_site_occupancy
  Ce  Ce0  1  0.95652400  0.45652400  0.78878100  1
  Ce  Ce1  1  0.66774300  0.16774300  0.21121900  1
  Ce  Ce2  1  0.45652400  0.66774300  0.50000000  1
  Ce  Ce3  1  0.16774300  0.95652400  0.50000000  1
  Ce  Ce4  1  0.54347600  0.33225700  0.50000000  1
  Ce  Ce5  1  0.83225700  0.04347600  0.50000000  1
  Ce  Ce6  1  0.33225700  0.83225700  0.78878100  1
  Ce  Ce7  1  0.04347600  0.54347600  0.21121900  1
  Se  Se8  1  0.14322800  0.64322800  0.78645600  1
  Se  Se9  1  0.85677200  0.35677200  0.21354400  1
  Se  Se10  1  0.64322800  0.85677200  0.50000000  1
  Se  Se11  1  0.35677200  0.14322800  0.50000000  1
  Se  Se12  1  0.25000000  0.93619100  0.68619100  1
  Se  Se13  1  0.25000000  0.56380900  0.31380900  1
  Se  Se14  1  0.75000000  0.06380900  0.31380900  1
  Se  Se15  1  0.75000000  0.43619100  0.68619100  1
  Se  Se16  1  0.06380900  0.75000000  0.31380900  1
  Se  Se17  1  0.43619100  0.75000000  0.68619100  1
  Se  Se18  1  0.93619100  0.25000000  0.68619100  1
  Se  Se19  1  0.56380900  0.25000000  0.31380900  1
  Se  Se20  1  0.50000000  0.00000000  0.00000000  1
  Se  Se21  1  0.00000000  0.50000000  0.00000000  1
  Se  Se22  1  0.00000000  0.00000000  0.50000000  1
  Se  Se23  1  0.50000000  0.50000000  0.50000000  1
