# generated using pymatgen
data_Ni3(P2O7)2
_symmetry_space_group_name_H-M   'P 1'
_cell_length_a   6.34118860
_cell_length_b   8.50874684
_cell_length_c   9.99331777
_cell_angle_alpha   108.55008306
_cell_angle_beta   93.16539653
_cell_angle_gamma   91.89276039
_symmetry_Int_Tables_number   1
_chemical_formula_structural   Ni3(P2O7)2
_chemical_formula_sum   'Ni6 P8 O28'
_cell_volume   509.67224242
_cell_formula_units_Z   2
loop_
 _symmetry_equiv_pos_site_id
 _symmetry_equiv_pos_as_xyz
  1  'x, y, z'
loop_
 _atom_site_type_symbol
 _atom_site_label
 _atom_site_symmetry_multiplicity
 _atom_site_fract_x
 _atom_site_fract_y
 _atom_site_fract_z
 _atom_site_occupancy
  Ni  Ni0  1  0.00000000  0.50000000  0.50000000  1
  Ni  Ni1  1  0.29906600  0.89673200  0.63069300  1
  Ni  Ni2  1  0.35437100  0.87915400  0.06032300  1
  Ni  Ni3  1  0.50000000  0.50000000  0.00000000  1
  Ni  Ni4  1  0.64562900  0.12084600  0.93967700  1
  Ni  Ni5  1  0.70093400  0.10326800  0.36930700  1
  P  P6  1  0.15828900  0.20104900  0.00597700  1
  P  P7  1  0.18775400  0.17565400  0.30295700  1
  P  P8  1  0.27150800  0.55012400  0.72339700  1
  P  P9  1  0.48100100  0.74760300  0.31692400  1
  P  P10  1  0.51899900  0.25239700  0.68307600  1
  P  P11  1  0.72849200  0.44987600  0.27660300  1
  P  P12  1  0.81224600  0.82434600  0.69704300  1
  P  P13  1  0.84171100  0.79895100  0.99402300  1
  O  O14  1  0.04785000  0.85886500  0.08241100  1
  O  O15  1  0.01395300  0.08296800  0.35214400  1
  O  O16  1  0.05747000  0.44858800  0.67850800  1
  O  O17  1  0.09796600  0.21302600  0.16359600  1
  O  O18  1  0.23602900  0.37129800  0.00615100  1
  O  O19  1  0.22501800  0.34643500  0.41539400  1
  O  O20  1  0.26435500  0.66144700  0.62888200  1
  O  O21  1  0.31303500  0.81344800  0.41886000  1
  O  O22  1  0.32976300  0.63491400  0.88092800  1
  O  O23  1  0.32270400  0.13329900  0.64324700  1
  O  O24  1  0.33079800  0.07069700  0.96645200  1
  O  O25  1  0.41003700  0.70559600  0.15832900  1
  O  O26  1  0.39043600  0.08189300  0.26406800  1
  O  O27  1  0.46056800  0.42895300  0.67005700  1
  O  O28  1  0.53943200  0.57104700  0.32994300  1
  O  O29  1  0.60956400  0.91810700  0.73593200  1
  O  O30  1  0.58996300  0.29440400  0.84167100  1
  O  O31  1  0.66920200  0.92930300  0.03354800  1
  O  O32  1  0.67729600  0.86670100  0.35675300  1
  O  O33  1  0.67023700  0.36508600  0.11907200  1
  O  O34  1  0.68696500  0.18655200  0.58114000  1
  O  O35  1  0.73564500  0.33855300  0.37111800  1
  O  O36  1  0.77498200  0.65356500  0.58460600  1
  O  O37  1  0.76397100  0.62870200  0.99384900  1
  O  O38  1  0.90203400  0.78697400  0.83640400  1
  O  O39  1  0.94253000  0.55141200  0.32149200  1
  O  O40  1  0.98604700  0.91703200  0.64785600  1
  O  O41  1  0.95215000  0.14113500  0.91758900  1
