# generated using pymatgen
data_Na7Cr2O6
_symmetry_space_group_name_H-M   'P 1'
_cell_length_a   8.07495707
_cell_length_b   8.07495707
_cell_length_c   10.61940105
_cell_angle_alpha   76.00978777
_cell_angle_beta   76.00978777
_cell_angle_gamma   42.44944407
_symmetry_Int_Tables_number   1
_chemical_formula_structural   Na7Cr2O6
_chemical_formula_sum   'Na14 Cr4 O12'
_cell_volume   451.36219646
_cell_formula_units_Z   2
loop_
 _symmetry_equiv_pos_site_id
 _symmetry_equiv_pos_as_xyz
  1  'x, y, z'
loop_
 _atom_site_type_symbol
 _atom_site_label
 _atom_site_symmetry_multiplicity
 _atom_site_fract_x
 _atom_site_fract_y
 _atom_site_fract_z
 _atom_site_occupancy
  Na  Na0  1  0.29962100  0.58176200  0.14919500  1
  Na  Na1  1  0.42159600  0.24253100  0.40535200  1
  Na  Na2  1  0.58176200  0.29962100  0.64919500  1
  Na  Na3  1  0.81333600  0.73465300  0.30902500  1
  Na  Na4  1  0.24253100  0.42159600  0.90535200  1
  Na  Na5  1  0.26534700  0.18666400  0.19097500  1
  Na  Na6  1  0.73465300  0.81333600  0.80902500  1
  Na  Na7  1  0.75746900  0.57840400  0.09464800  1
  Na  Na8  1  0.18666400  0.26534700  0.69097500  1
  Na  Na9  1  0.41823800  0.70037900  0.35080500  1
  Na  Na10  1  0.57840400  0.75746900  0.59464800  1
  Na  Na11  1  0.92584600  0.07415400  0.25000000  1
  Na  Na12  1  0.70037900  0.41823800  0.85080500  1
  Na  Na13  1  0.07415400  0.92584600  0.75000000  1
  Cr  Cr14  1  0.77386300  0.98846700  0.03978700  1
  Cr  Cr15  1  0.98846700  0.77386300  0.53978700  1
  Cr  Cr16  1  0.01153300  0.22613700  0.46021300  1
  Cr  Cr17  1  0.22613700  0.01153300  0.96021300  1
  O  O18  1  0.13372700  0.67202300  0.37538900  1
  O  O19  1  0.60050000  0.15444300  0.18652400  1
  O  O20  1  0.67202300  0.13372700  0.87538900  1
  O  O21  1  0.99364700  0.65536700  0.08013700  1
  O  O22  1  0.15444300  0.60050000  0.68652400  1
  O  O23  1  0.34463300  0.00635300  0.41986300  1
  O  O24  1  0.65536700  0.99364700  0.58013700  1
  O  O25  1  0.84555700  0.39950000  0.31347600  1
  O  O26  1  0.00635300  0.34463300  0.91986300  1
  O  O27  1  0.32797700  0.86627300  0.12461100  1
  O  O28  1  0.39950000  0.84555700  0.81347600  1
  O  O29  1  0.86627300  0.32797700  0.62461100  1
