# generated using pymatgen
data_V6O5F19
_symmetry_space_group_name_H-M   'P 1'
_cell_length_a   5.32095000
_cell_length_b   5.46272593
_cell_length_c   14.73463852
_cell_angle_alpha   79.50621531
_cell_angle_beta   89.84437000
_cell_angle_gamma   89.42307052
_symmetry_Int_Tables_number   1
_chemical_formula_structural   V6O5F19
_chemical_formula_sum   'V6 O5 F19'
_cell_volume   421.10532757
_cell_formula_units_Z   1
loop_
 _symmetry_equiv_pos_site_id
 _symmetry_equiv_pos_as_xyz
  1  'x, y, z'
loop_
 _atom_site_type_symbol
 _atom_site_label
 _atom_site_symmetry_multiplicity
 _atom_site_fract_x
 _atom_site_fract_y
 _atom_site_fract_z
 _atom_site_occupancy
  V  V0  1  0.05274900  0.98204100  0.99466600  1
  V  V1  1  0.45490800  0.80665500  0.32947600  1
  V  V2  1  0.02286700  0.72357200  0.66363500  1
  V  V3  1  0.55427600  0.52006100  0.00551600  1
  V  V4  1  0.98640700  0.32298900  0.33489300  1
  V  V5  1  0.48081200  0.22153500  0.66423100  1
  O  O6  1  0.20731900  0.96851600  0.64214900  1
  O  O7  1  0.28414900  0.79122100  0.97798600  1
  O  O8  1  0.21473500  0.63781700  0.30996300  1
  O  O9  1  0.29327400  0.46818200  0.64317800  1
  O  O10  1  0.78384800  0.70774700  0.02200200  1
  F  F11  1  0.72243400  0.85696400  0.69107100  1
  F  F12  1  0.06165700  0.95847900  0.11596300  1
  F  F13  1  0.42930300  0.80271400  0.44918200  1
  F  F14  1  0.07967700  0.60207100  0.78162800  1
  F  F15  1  0.59858800  0.88216500  0.21990200  1
  F  F16  1  0.91776000  0.68935100  0.55269600  1
  F  F17  1  0.55929700  0.53943200  0.88444100  1
  F  F18  1  0.20387600  0.28421900  0.97577300  1
  F  F19  1  0.69230400  0.52771800  0.35936800  1
  F  F20  1  0.77593900  0.35466900  0.69195000  1
  F  F21  1  0.40345800  0.45007400  0.11479600  1
  F  F22  1  0.09213900  0.29902600  0.45009700  1
  F  F23  1  0.41728400  0.09772700  0.78157200  1
  F  F24  1  0.91822600  0.38998300  0.21572000  1
  F  F25  1  0.58487600  0.19129900  0.55249100  1
  F  F26  1  0.90340300  0.04993300  0.88529200  1
  F  F27  1  0.29442000  0.13005000  0.30793600  1
  F  F28  1  0.70560800  0.21342200  0.02459700  1
  F  F29  1  0.80440300  0.03036800  0.35782900  1
