# generated using pymatgen
data_Mn15NiO32
_symmetry_space_group_name_H-M   'P 1'
_cell_length_a   8.23564595
_cell_length_b   8.23564595
_cell_length_c   8.23564610
_cell_angle_alpha   90.23833908
_cell_angle_beta   90.23833908
_cell_angle_gamma   90.23834391
_symmetry_Int_Tables_number   1
_chemical_formula_structural   Mn15NiO32
_chemical_formula_sum   'Mn15 Ni1 O32'
_cell_volume   558.57527481
_cell_formula_units_Z   1
loop_
 _symmetry_equiv_pos_site_id
 _symmetry_equiv_pos_as_xyz
  1  'x, y, z'
loop_
 _atom_site_type_symbol
 _atom_site_label
 _atom_site_symmetry_multiplicity
 _atom_site_fract_x
 _atom_site_fract_y
 _atom_site_fract_z
 _atom_site_occupancy
  Mn  Mn0  1  0.99943100  0.24879200  0.24879200  1
  Mn  Mn1  1  0.00000000  0.50000000  0.50000000  1
  Mn  Mn2  1  0.00056900  0.75120800  0.75120800  1
  Mn  Mn3  1  0.75050300  0.50000000  0.24949700  1
  Mn  Mn4  1  0.75050300  0.24949700  0.50000000  1
  Mn  Mn5  1  0.75120800  0.75120800  0.00056900  1
  Mn  Mn6  1  0.75120800  0.00056900  0.75120800  1
  Mn  Mn7  1  0.50000000  0.50000000  0.00000000  1
  Mn  Mn8  1  0.50000000  0.24949700  0.75050300  1
  Mn  Mn9  1  0.50000000  0.75050300  0.24949700  1
  Mn  Mn10  1  0.50000000  0.00000000  0.50000000  1
  Mn  Mn11  1  0.24879200  0.24879200  0.99943100  1
  Mn  Mn12  1  0.24949700  0.50000000  0.75050300  1
  Mn  Mn13  1  0.24879200  0.99943100  0.24879200  1
  Mn  Mn14  1  0.24949700  0.75050300  0.50000000  1
  Ni  Ni15  1  0.00000000  0.00000000  0.00000000  1
  O  O16  1  0.01388200  0.23133200  0.01388200  1
  O  O17  1  0.01388200  0.01388200  0.23133200  1
  O  O18  1  0.01425000  0.73609900  0.51499400  1
  O  O19  1  0.01425000  0.51499400  0.73609900  1
  O  O20  1  0.98575000  0.26390100  0.48500600  1
  O  O21  1  0.98575000  0.48500600  0.26390100  1
  O  O22  1  0.98611800  0.76866800  0.98611800  1
  O  O23  1  0.98611800  0.98611800  0.76866800  1
  O  O24  1  0.76424200  0.26423600  0.26423600  1
  O  O25  1  0.76504600  0.48509400  0.48509400  1
  O  O26  1  0.76483000  0.76483000  0.76483000  1
  O  O27  1  0.76866800  0.98611800  0.98611800  1
  O  O28  1  0.73576400  0.73576400  0.23575800  1
  O  O29  1  0.73609900  0.51499400  0.01425000  1
  O  O30  1  0.73576400  0.23575800  0.73576400  1
  O  O31  1  0.73609900  0.01425000  0.51499400  1
  O  O32  1  0.51490600  0.51490600  0.23495400  1
  O  O33  1  0.51499400  0.73609900  0.01425000  1
  O  O34  1  0.51499400  0.01425000  0.73609900  1
  O  O35  1  0.51490600  0.23495400  0.51490600  1
  O  O36  1  0.48509400  0.48509400  0.76504600  1
  O  O37  1  0.48500600  0.26390100  0.98575000  1
  O  O38  1  0.48500600  0.98575000  0.26390100  1
  O  O39  1  0.48509400  0.76504600  0.48509400  1
  O  O40  1  0.26390100  0.48500600  0.98575000  1
  O  O41  1  0.26423600  0.26423600  0.76424200  1
  O  O42  1  0.26390100  0.98575000  0.48500600  1
  O  O43  1  0.26423600  0.76424200  0.26423600  1
  O  O44  1  0.23133200  0.01388200  0.01388200  1
  O  O45  1  0.23517000  0.23517000  0.23517000  1
  O  O46  1  0.23495400  0.51490600  0.51490600  1
  O  O47  1  0.23575800  0.73576400  0.73576400  1
