data_image0
_chemical_formula_structural       CaSmV2
_chemical_formula_sum              "Ca1 Sm1 V2"
_cell_length_a       5.206
_cell_length_b       5.206
_cell_length_c       5.206
_cell_angle_alpha    59.9511
_cell_angle_beta     59.9511
_cell_angle_gamma    59.9511

_space_group_name_H-M_alt    "P 1"
_space_group_IT_number       1

loop_
  _space_group_symop_operation_xyz
  'x, y, z'

loop_
  _atom_site_type_symbol
  _atom_site_label
  _atom_site_symmetry_multiplicity
  _atom_site_fract_x
  _atom_site_fract_y
  _atom_site_fract_z
  _atom_site_occupancy
  Ca  Ca1       1.0  0.25100  0.25100  0.25100  1.0000
  Sm  Sm1       1.0  0.75200  0.75200  0.75200  1.0000
  V   V1        1.0  0.49800  0.49800  0.49800  1.0000
  V   V2        1.0  0.99900  0.99900  0.99900  1.0000
