# generated using pymatgen
data_Co3Ni3(TeO8)2
_symmetry_space_group_name_H-M   'P 1'
_cell_length_a   5.83472605
_cell_length_b   5.83472605
_cell_length_c   9.13350607
_cell_angle_alpha   87.42568713
_cell_angle_beta   87.42568713
_cell_angle_gamma   58.71712896
_symmetry_Int_Tables_number   1
_chemical_formula_structural   Co3Ni3(TeO8)2
_chemical_formula_sum   'Co3 Ni3 Te2 O16'
_cell_volume   265.38175935
_cell_formula_units_Z   1
loop_
 _symmetry_equiv_pos_site_id
 _symmetry_equiv_pos_as_xyz
  1  'x, y, z'
loop_
 _atom_site_type_symbol
 _atom_site_label
 _atom_site_symmetry_multiplicity
 _atom_site_fract_x
 _atom_site_fract_y
 _atom_site_fract_z
 _atom_site_occupancy
  Co  Co0  1  0.34333400  0.83597400  0.78488300  1
  Co  Co1  1  0.83597400  0.34333400  0.78488300  1
  Co  Co2  1  0.17060800  0.17060800  0.28170100  1
  Ni  Ni3  1  0.83345400  0.83345400  0.79053000  1
  Ni  Ni4  1  0.16819600  0.66571000  0.28873300  1
  Ni  Ni5  1  0.66571000  0.16819600  0.28873300  1
  Te  Te6  1  0.66835600  0.66835600  0.50875800  1
  Te  Te7  1  0.33382500  0.33382500  0.00874800  1
  O  O8  1  0.33804100  0.83852000  0.40522100  1
  O  O9  1  0.51922000  0.51922000  0.66656300  1
  O  O10  1  0.64986800  0.64986800  0.89071400  1
  O  O11  1  0.01522900  0.01522900  0.69773500  1
  O  O12  1  0.00989700  0.00989700  0.19795100  1
  O  O13  1  0.83852000  0.33804100  0.40522100  1
  O  O14  1  0.50005200  0.96541400  0.65462700  1
  O  O15  1  0.96541400  0.50005200  0.65462700  1
  O  O16  1  0.16689800  0.16689800  0.89975200  1
  O  O17  1  0.84116600  0.84116600  0.41013800  1
  O  O18  1  0.02682600  0.46796300  0.15387200  1
  O  O19  1  0.46796300  0.02682600  0.15387200  1
  O  O20  1  0.32467700  0.32467700  0.38132500  1
  O  O21  1  0.16881500  0.67549600  0.90858700  1
  O  O22  1  0.47806200  0.47806200  0.15828000  1
  O  O23  1  0.67549600  0.16881500  0.90858700  1
