# generated using pymatgen
data_Mn3OF8
_symmetry_space_group_name_H-M   'P 1'
_cell_length_a   5.15579700
_cell_length_b   5.17815571
_cell_length_c   13.42713534
_cell_angle_alpha   89.99617363
_cell_angle_beta   91.66272700
_cell_angle_gamma   59.90399427
_symmetry_Int_Tables_number   1
_chemical_formula_structural   Mn3OF8
_chemical_formula_sum   'Mn6 O2 F16'
_cell_volume   309.96953834
_cell_formula_units_Z   2
loop_
 _symmetry_equiv_pos_site_id
 _symmetry_equiv_pos_as_xyz
  1  'x, y, z'
loop_
 _atom_site_type_symbol
 _atom_site_label
 _atom_site_symmetry_multiplicity
 _atom_site_fract_x
 _atom_site_fract_y
 _atom_site_fract_z
 _atom_site_occupancy
  Mn  Mn0  1  0.00834300  0.96675900  0.00563800  1
  Mn  Mn1  1  0.00669700  0.02553300  0.50502200  1
  Mn  Mn2  1  0.32685100  0.31873800  0.66121800  1
  Mn  Mn3  1  0.33090600  0.35182600  0.16158800  1
  Mn  Mn4  1  0.67060900  0.64297400  0.83333300  1
  Mn  Mn5  1  0.67319100  0.68439800  0.33327900  1
  O  O6  1  0.03952300  0.29079600  0.58330200  1
  O  O7  1  0.04168000  0.67057500  0.08527800  1
  F  F8  1  0.02009300  0.40009000  0.24814200  1
  F  F9  1  0.26473400  0.05002500  0.08107400  1
  F  F10  1  0.40779300  0.96304300  0.75257900  1
  F  F11  1  0.26229500  0.69123200  0.58084600  1
  F  F12  1  0.60568000  0.02126700  0.25032800  1
  F  F13  1  0.67058600  0.06451000  0.57853400  1
  F  F14  1  0.32127700  0.72411900  0.92423900  1
  F  F15  1  0.41196100  0.62653300  0.25144300  1
  F  F16  1  0.59834900  0.37539700  0.75087100  1
  F  F17  1  0.67025500  0.26763300  0.07869900  1
  F  F18  1  0.31930800  0.95391100  0.42370600  1
  F  F19  1  0.73316800  0.34180000  0.41579300  1
  F  F20  1  0.93466800  0.31532500  0.91592200  1
  F  F21  1  0.73437100  0.92196400  0.91579800  1
  F  F22  1  0.01193800  0.58292200  0.74649500  1
  F  F23  1  0.93572300  0.74862800  0.41687300  1
