data_image0
_chemical_formula_structural       F20Nb2Sb2
_chemical_formula_sum              "F20 Nb2 Sb2"
_cell_length_a       5.05339
_cell_length_b       7.98883
_cell_length_c       6.31037
_cell_angle_alpha    86.1233
_cell_angle_beta     99.1978
_cell_angle_gamma    106.051

_space_group_name_H-M_alt    "P 1"
_space_group_IT_number       1

loop_
  _space_group_symop_operation_xyz
  'x, y, z'

loop_
  _atom_site_type_symbol
  _atom_site_label
  _atom_site_symmetry_multiplicity
  _atom_site_fract_x
  _atom_site_fract_y
  _atom_site_fract_z
  _atom_site_occupancy
  F   F1        1.0  0.95200  0.08330  0.84300  1.0000
  F   F2        1.0  0.04800  0.91700  0.15700  1.0000
  F   F3        1.0  0.03550  0.55000  0.68500  1.0000
  F   F4        1.0  0.96400  0.45000  0.31500  1.0000
  F   F5        1.0  0.73200  0.35100  0.94300  1.0000
  F   F6        1.0  0.26700  0.64900  0.05670  1.0000
  F   F7        1.0  0.67600  0.24500  0.55000  1.0000
  F   F8        1.0  0.32400  0.75400  0.45000  1.0000
  F   F9        1.0  0.22200  0.29100  0.59000  1.0000
  F   F10       1.0  0.77800  0.70900  0.41000  1.0000
  F   F11       1.0  0.26100  0.01960  0.51900  1.0000
  F   F12       1.0  0.73900  0.98000  0.48100  1.0000
  F   F13       1.0  0.47600  0.43500  0.32100  1.0000
  F   F14       1.0  0.52400  0.56500  0.67900  1.0000
  F   F15       1.0  0.48800  0.09870  0.12700  1.0000
  F   F16       1.0  0.51200  0.90100  0.87400  1.0000
  F   F17       1.0  0.29000  0.35200  0.98800  1.0000
  F   F18       1.0  0.71000  0.64800  0.01160  1.0000
  F   F19       1.0  0.95200  0.17800  0.21900  1.0000
  F   F20       1.0  0.04820  0.82200  0.78100  1.0000
  Nb  Nb1       1.0  0.32100  0.19500  0.30600  1.0000
  Nb  Nb2       1.0  0.67900  0.80500  0.69400  1.0000
  Sb  Sb1       1.0  0.97800  0.31900  0.77300  1.0000
  Sb  Sb2       1.0  0.02190  0.68100  0.22700  1.0000
