# generated using pymatgen
data_CaMg6Co
_symmetry_space_group_name_H-M   'P 1'
_cell_length_a   6.70485249
_cell_length_b   6.70485249
_cell_length_c   4.88384100
_cell_angle_alpha   90.00000000
_cell_angle_beta   90.00000000
_cell_angle_gamma   124.76595033
_symmetry_Int_Tables_number   1
_chemical_formula_structural   CaMg6Co
_chemical_formula_sum   'Ca1 Mg6 Co1'
_cell_volume   180.36045227
_cell_formula_units_Z   1
loop_
 _symmetry_equiv_pos_site_id
 _symmetry_equiv_pos_as_xyz
  1  'x, y, z'
loop_
 _atom_site_type_symbol
 _atom_site_label
 _atom_site_symmetry_multiplicity
 _atom_site_fract_x
 _atom_site_fract_y
 _atom_site_fract_z
 _atom_site_occupancy
  Ca  Ca0  1  0.19542400  0.80457600  0.00000000  1
  Mg  Mg1  1  0.17930400  0.33680300  0.00000000  1
  Mg  Mg2  1  0.66319700  0.82069600  0.00000000  1
  Mg  Mg3  1  0.66061400  0.33938600  0.00000000  1
  Mg  Mg4  1  0.31708100  0.20061900  0.50000000  1
  Mg  Mg5  1  0.79938100  0.68291900  0.50000000  1
  Mg  Mg6  1  0.81844700  0.18155300  0.50000000  1
  Co  Co7  1  0.36655200  0.63344800  0.50000000  1
