# generated using pymatgen
data_Cu3Mo2(HO5)2
_symmetry_space_group_name_H-M   'P 1'
_cell_length_a   5.40273900
_cell_length_b   5.68633589
_cell_length_c   7.61052594
_cell_angle_alpha   103.42623327
_cell_angle_beta   106.50203247
_cell_angle_gamma   97.32935825
_symmetry_Int_Tables_number   1
_chemical_formula_structural   Cu3Mo2(HO5)2
_chemical_formula_sum   'Cu3 Mo2 H2 O10'
_cell_volume   213.30496880
_cell_formula_units_Z   1
loop_
 _symmetry_equiv_pos_site_id
 _symmetry_equiv_pos_as_xyz
  1  'x, y, z'
loop_
 _atom_site_type_symbol
 _atom_site_label
 _atom_site_symmetry_multiplicity
 _atom_site_fract_x
 _atom_site_fract_y
 _atom_site_fract_z
 _atom_site_occupancy
  Cu  Cu0  1  0.22881600  0.08620600  0.19289200  1
  Cu  Cu1  1  0.77118400  0.91379400  0.80710800  1
  Cu  Cu2  1  0.00000000  0.50000000  0.00000000  1
  Mo  Mo3  1  0.68554500  0.72083100  0.30809700  1
  Mo  Mo4  1  0.31445500  0.27916900  0.69190300  1
  H  H5  1  0.77083000  0.17334500  0.13233900  1
  H  H6  1  0.22917000  0.82665500  0.86766100  1
  O  O7  1  0.89283700  0.17928400  0.05803200  1
  O  O8  1  0.43681700  0.45412100  0.16748700  1
  O  O9  1  0.97893700  0.70344400  0.23687000  1
  O  O10  1  0.57213500  0.99808100  0.26888400  1
  O  O11  1  0.23082200  0.26579100  0.44455000  1
  O  O12  1  0.76917800  0.73420900  0.55545000  1
  O  O13  1  0.42786500  0.00191900  0.73111600  1
  O  O14  1  0.02106300  0.29655600  0.76313000  1
  O  O15  1  0.56318300  0.54587900  0.83251300  1
  O  O16  1  0.10716300  0.82071600  0.94196800  1
