# generated using pymatgen
data_CsMg6Mn
_symmetry_space_group_name_H-M   'P 1'
_cell_length_a   6.97177254
_cell_length_b   6.97177254
_cell_length_c   5.29203600
_cell_angle_alpha   90.00000000
_cell_angle_beta   90.00000000
_cell_angle_gamma   121.08139712
_symmetry_Int_Tables_number   1
_chemical_formula_structural   CsMg6Mn
_chemical_formula_sum   'Cs1 Mg6 Mn1'
_cell_volume   220.29441596
_cell_formula_units_Z   1
loop_
 _symmetry_equiv_pos_site_id
 _symmetry_equiv_pos_as_xyz
  1  'x, y, z'
loop_
 _atom_site_type_symbol
 _atom_site_label
 _atom_site_symmetry_multiplicity
 _atom_site_fract_x
 _atom_site_fract_y
 _atom_site_fract_z
 _atom_site_occupancy
  Cs  Cs0  1  0.33241900  0.66758100  0.50000000  1
  Mg  Mg1  1  0.15551100  0.28876900  0.00000000  1
  Mg  Mg2  1  0.71123100  0.84448900  0.00000000  1
  Mg  Mg3  1  0.66464300  0.33535700  0.00000000  1
  Mg  Mg4  1  0.31643500  0.14737500  0.50000000  1
  Mg  Mg5  1  0.85262500  0.68356500  0.50000000  1
  Mg  Mg6  1  0.83389100  0.16610900  0.50000000  1
  Mn  Mn7  1  0.13324600  0.86675400  0.00000000  1
