# generated using pymatgen
data_Er2Mg
_symmetry_space_group_name_H-M   'P 1'
_cell_length_a   8.82377950
_cell_length_b   8.82377950
_cell_length_c   5.42890800
_cell_angle_alpha   90.00000000
_cell_angle_beta   90.00000000
_cell_angle_gamma   156.49117773
_symmetry_Int_Tables_number   1
_chemical_formula_structural   Er2Mg
_chemical_formula_sum   'Er4 Mg2'
_cell_volume   168.60685172
_cell_formula_units_Z   2
loop_
 _symmetry_equiv_pos_site_id
 _symmetry_equiv_pos_as_xyz
  1  'x, y, z'
loop_
 _atom_site_type_symbol
 _atom_site_label
 _atom_site_symmetry_multiplicity
 _atom_site_fract_x
 _atom_site_fract_y
 _atom_site_fract_z
 _atom_site_occupancy
  Er  Er0  1  0.59744300  0.40255700  0.75000000  1
  Er  Er1  1  0.27448200  0.72551800  0.75000000  1
  Er  Er2  1  0.40255700  0.59744300  0.25000000  1
  Er  Er3  1  0.72551800  0.27448200  0.25000000  1
  Mg  Mg4  1  0.93745300  0.06254700  0.75000000  1
  Mg  Mg5  1  0.06254700  0.93745300  0.25000000  1
