# generated using pymatgen
data_CsMg6BO7
_symmetry_space_group_name_H-M   'P 1'
_cell_length_a   4.93148600
_cell_length_b   4.93148600
_cell_length_c   8.23424600
_cell_angle_alpha   90.00000000
_cell_angle_beta   90.00000000
_cell_angle_gamma   90.00000000
_symmetry_Int_Tables_number   1
_chemical_formula_structural   CsMg6BO7
_chemical_formula_sum   'Cs1 Mg6 B1 O7'
_cell_volume   200.25319163
_cell_formula_units_Z   1
loop_
 _symmetry_equiv_pos_site_id
 _symmetry_equiv_pos_as_xyz
  1  'x, y, z'
loop_
 _atom_site_type_symbol
 _atom_site_label
 _atom_site_symmetry_multiplicity
 _atom_site_fract_x
 _atom_site_fract_y
 _atom_site_fract_z
 _atom_site_occupancy
  Cs  Cs0  1  0.00000000  0.00000000  0.04483800  1
  Mg  Mg1  1  0.50000000  0.50000000  0.97830500  1
  Mg  Mg2  1  0.50000000  0.50000000  0.50015700  1
  Mg  Mg3  1  0.00000000  0.50000000  0.26423100  1
  Mg  Mg4  1  0.00000000  0.50000000  0.73303300  1
  Mg  Mg5  1  0.50000000  0.00000000  0.26423100  1
  Mg  Mg6  1  0.50000000  0.00000000  0.73303300  1
  B  B7  1  0.00000000  0.00000000  0.51761800  1
  O  O8  1  0.00000000  0.00000000  0.35912000  1
  O  O9  1  0.00000000  0.00000000  0.67712200  1
  O  O10  1  0.50000000  0.50000000  0.73804100  1
  O  O11  1  0.00000000  0.50000000  0.97139300  1
  O  O12  1  0.00000000  0.50000000  0.49874300  1
  O  O13  1  0.50000000  0.00000000  0.97139300  1
  O  O14  1  0.50000000  0.00000000  0.49874300  1
