data_image0
_chemical_formula_structural       Cs8H20Mg6
_chemical_formula_sum              "Cs8 H20 Mg6"
_cell_length_a       6.5564
_cell_length_b       8.6186
_cell_length_c       14.6522
_cell_angle_alpha    90
_cell_angle_beta     90
_cell_angle_gamma    67.6438

_space_group_name_H-M_alt    "P 1"
_space_group_IT_number       1

loop_
  _space_group_symop_operation_xyz
  'x, y, z'

loop_
  _atom_site_type_symbol
  _atom_site_label
  _atom_site_symmetry_multiplicity
  _atom_site_fract_x
  _atom_site_fract_y
  _atom_site_fract_z
  _atom_site_occupancy
  Cs  Cs1       1.0  0.57400  0.85200  0.12800  1.0000
  Cs  Cs2       1.0  0.33900  0.32200  0.17100  1.0000
  Cs  Cs3       1.0  0.83900  0.32200  0.32900  1.0000
  Cs  Cs4       1.0  0.07390  0.85200  0.37200  1.0000
  Cs  Cs5       1.0  0.92600  0.14800  0.62800  1.0000
  Cs  Cs6       1.0  0.16100  0.67800  0.67100  1.0000
  Cs  Cs7       1.0  0.66100  0.67800  0.82900  1.0000
  Cs  Cs8       1.0  0.42600  0.14800  0.87200  1.0000
  H   H1        1.0  0.10900  0.17000  0.02780  1.0000
  H   H2        1.0  0.72100  0.17000  0.02780  1.0000
  H   H3        1.0  0.08420  0.83200  0.13200  1.0000
  H   H4        1.0  0.04340  0.91300  0.16100  1.0000
  H   H5        1.0  0.22100  0.05870  0.25000  1.0000
  H   H6        1.0  0.72100  0.05870  0.25000  1.0000
  H   H7        1.0  0.54300  0.91300  0.33900  1.0000
  H   H8        1.0  0.58400  0.83200  0.36800  1.0000
  H   H9        1.0  0.22100  0.17000  0.47200  1.0000
  H   H10       1.0  0.60900  0.17000  0.47200  1.0000
  H   H11       1.0  0.39100  0.83000  0.52800  1.0000
  H   H12       1.0  0.77900  0.83000  0.52800  1.0000
  H   H13       1.0  0.41600  0.16800  0.63200  1.0000
  H   H14       1.0  0.45700  0.08670  0.66100  1.0000
  H   H15       1.0  0.27900  0.94100  0.75000  1.0000
  H   H16       1.0  0.77900  0.94100  0.75000  1.0000
  H   H17       1.0  0.95700  0.08670  0.83900  1.0000
  H   H18       1.0  0.91600  0.16800  0.86800  1.0000
  H   H19       1.0  0.27900  0.83000  0.97200  1.0000
  H   H20       1.0  0.89100  0.83000  0.97200  1.0000
  Mg  Mg1       1.0  0.00000  0.00000  0.00000  1.0000
  Mg  Mg2       1.0  0.81600  0.36800  0.04520  1.0000
  Mg  Mg3       1.0  0.31600  0.36800  0.45500  1.0000
  Mg  Mg4       1.0  0.50000  0.00000  0.50000  1.0000
  Mg  Mg5       1.0  0.68400  0.63200  0.54500  1.0000
  Mg  Mg6       1.0  0.18400  0.63200  0.95500  1.0000
