# generated using pymatgen
data_Rb2Pu2O5
_symmetry_space_group_name_H-M   'P 1'
_cell_length_a   4.33838600
_cell_length_b   4.33838600
_cell_length_c   9.02738800
_cell_angle_alpha   90.00000000
_cell_angle_beta   90.00000000
_cell_angle_gamma   90.00000000
_symmetry_Int_Tables_number   1
_chemical_formula_structural   Rb2Pu2O5
_chemical_formula_sum   'Rb2 Pu2 O5'
_cell_volume   169.90982356
_cell_formula_units_Z   1
loop_
 _symmetry_equiv_pos_site_id
 _symmetry_equiv_pos_as_xyz
  1  'x, y, z'
loop_
 _atom_site_type_symbol
 _atom_site_label
 _atom_site_symmetry_multiplicity
 _atom_site_fract_x
 _atom_site_fract_y
 _atom_site_fract_z
 _atom_site_occupancy
  Rb  Rb0  1  0.50000000  0.50000000  0.00000000  1
  Rb  Rb1  1  0.50000000  0.50000000  0.50000000  1
  Pu  Pu2  1  0.00000000  0.00000000  0.25943000  1
  Pu  Pu3  1  0.00000000  0.00000000  0.74057000  1
  O  O4  1  0.00000000  0.50000000  0.22695900  1
  O  O5  1  0.00000000  0.50000000  0.77304100  1
  O  O6  1  0.00000000  0.00000000  0.50000000  1
  O  O7  1  0.50000000  0.00000000  0.22695900  1
  O  O8  1  0.50000000  0.00000000  0.77304100  1
