data_image0
_chemical_formula_structural       Cl24O4S4Zr4
_chemical_formula_sum              "Cl24 O4 S4 Zr4"
_cell_length_a       7.68635
_cell_length_b       22.882
_cell_length_c       6.82494
_cell_angle_alpha    90
_cell_angle_beta     121.016
_cell_angle_gamma    90

_space_group_name_H-M_alt    "P 1"
_space_group_IT_number       1

loop_
  _space_group_symop_operation_xyz
  'x, y, z'

loop_
  _atom_site_type_symbol
  _atom_site_label
  _atom_site_symmetry_multiplicity
  _atom_site_fract_x
  _atom_site_fract_y
  _atom_site_fract_z
  _atom_site_occupancy
  Cl  Cl1       1.0  0.26500  0.11000  0.51800  1.0000
  Cl  Cl2       1.0  0.73500  0.61000  0.98200  1.0000
  Cl  Cl3       1.0  0.73500  0.89000  0.48200  1.0000
  Cl  Cl4       1.0  0.26500  0.39000  0.01810  1.0000
  Cl  Cl5       1.0  0.65000  0.21200  0.91600  1.0000
  Cl  Cl6       1.0  0.35000  0.71200  0.58400  1.0000
  Cl  Cl7       1.0  0.35000  0.78800  0.08390  1.0000
  Cl  Cl8       1.0  0.65000  0.28800  0.41600  1.0000
  Cl  Cl9       1.0  0.77900  0.15600  0.38900  1.0000
  Cl  Cl10      1.0  0.22100  0.65600  0.11100  1.0000
  Cl  Cl11      1.0  0.22100  0.84400  0.61100  1.0000
  Cl  Cl12      1.0  0.77900  0.34400  0.88900  1.0000
  Cl  Cl13      1.0  0.46200  0.03180  0.21700  1.0000
  Cl  Cl14      1.0  0.53800  0.53200  0.28300  1.0000
  Cl  Cl15      1.0  0.53800  0.96800  0.78300  1.0000
  Cl  Cl16      1.0  0.46200  0.46800  0.71700  1.0000
  Cl  Cl17      1.0  0.04040  0.97700  0.25100  1.0000
  Cl  Cl18      1.0  0.96000  0.47700  0.24900  1.0000
  Cl  Cl19      1.0  0.96000  0.02310  0.74900  1.0000
  Cl  Cl20      1.0  0.04040  0.52300  0.75100  1.0000
  Cl  Cl21      1.0  0.16700  0.16400  0.97700  1.0000
  Cl  Cl22      1.0  0.83300  0.66400  0.52300  1.0000
  Cl  Cl23      1.0  0.83300  0.83600  0.02250  1.0000
  Cl  Cl24      1.0  0.16700  0.33600  0.47700  1.0000
  O   O1        1.0  0.82200  0.09840  0.04530  1.0000
  O   O2        1.0  0.17800  0.59800  0.45500  1.0000
  O   O3        1.0  0.17800  0.90200  0.95500  1.0000
  O   O4        1.0  0.82200  0.40200  0.54500  1.0000
  S   S1        1.0  0.66000  0.13100  0.05340  1.0000
  S   S2        1.0  0.34000  0.63100  0.44700  1.0000
  S   S3        1.0  0.34000  0.86900  0.94700  1.0000
  S   S4        1.0  0.66000  0.36900  0.55300  1.0000
  Zr  Zr1       1.0  0.15400  0.07410  0.14600  1.0000
  Zr  Zr2       1.0  0.84600  0.57400  0.35400  1.0000
  Zr  Zr3       1.0  0.84600  0.92600  0.85400  1.0000
  Zr  Zr4       1.0  0.15400  0.42600  0.64600  1.0000
