data_image0
_chemical_formula_structural       H12Mg4Na4
_chemical_formula_sum              "H12 Mg4 Na4"
_cell_length_a       5.33557
_cell_length_b       7.49372
_cell_length_c       5.26028
_cell_angle_alpha    90
_cell_angle_beta     90
_cell_angle_gamma    90

_space_group_name_H-M_alt    "P 1"
_space_group_IT_number       1

loop_
  _space_group_symop_operation_xyz
  'x, y, z'

loop_
  _atom_site_type_symbol
  _atom_site_label
  _atom_site_symmetry_multiplicity
  _atom_site_fract_x
  _atom_site_fract_y
  _atom_site_fract_z
  _atom_site_occupancy
  H   H1        1.0  0.47500  0.25000  0.08500  1.0000
  H   H2        1.0  0.20700  0.54500  0.20600  1.0000
  H   H3        1.0  0.20700  0.95500  0.20600  1.0000
  H   H4        1.0  0.70700  0.54500  0.29400  1.0000
  H   H5        1.0  0.70700  0.95500  0.29400  1.0000
  H   H6        1.0  0.97500  0.25000  0.41500  1.0000
  H   H7        1.0  0.02520  0.75000  0.58500  1.0000
  H   H8        1.0  0.29300  0.04470  0.70600  1.0000
  H   H9        1.0  0.29300  0.45500  0.70600  1.0000
  H   H10       1.0  0.79300  0.04470  0.79400  1.0000
  H   H11       1.0  0.79300  0.45500  0.79400  1.0000
  H   H12       1.0  0.52500  0.75000  0.91500  1.0000
  Mg  Mg1       1.0  0.50000  0.00000  0.00000  1.0000
  Mg  Mg2       1.0  0.50000  0.50000  0.00000  1.0000
  Mg  Mg3       1.0  0.00000  0.00000  0.50000  1.0000
  Mg  Mg4       1.0  0.00000  0.50000  0.50000  1.0000
  Na  Na1       1.0  0.96900  0.75000  0.00621  1.0000
  Na  Na2       1.0  0.46900  0.75000  0.49400  1.0000
  Na  Na3       1.0  0.53100  0.25000  0.50600  1.0000
  Na  Na4       1.0  0.03150  0.25000  0.99400  1.0000
