# generated using pymatgen
data_CoSn(PO4)2
_symmetry_space_group_name_H-M   'P 1'
_cell_length_a   4.97569677
_cell_length_b   11.74688461
_cell_length_c   11.76052199
_cell_angle_alpha   118.26404652
_cell_angle_beta   89.43069913
_cell_angle_gamma   90.51324182
_symmetry_Int_Tables_number   1
_chemical_formula_structural   CoSn(PO4)2
_chemical_formula_sum   'Co4 Sn4 P8 O32'
_cell_volume   605.39875482
_cell_formula_units_Z   4
loop_
 _symmetry_equiv_pos_site_id
 _symmetry_equiv_pos_as_xyz
  1  'x, y, z'
loop_
 _atom_site_type_symbol
 _atom_site_label
 _atom_site_symmetry_multiplicity
 _atom_site_fract_x
 _atom_site_fract_y
 _atom_site_fract_z
 _atom_site_occupancy
  Co  Co0  1  0.94152700  0.76477100  0.48722700  1
  Co  Co1  1  0.05907500  0.23542700  0.51286600  1
  Co  Co2  1  0.94337800  0.26222300  0.98786800  1
  Co  Co3  1  0.05800800  0.73583400  0.01392200  1
  Sn  Sn4  1  0.45757700  0.48625100  0.26419000  1
  Sn  Sn5  1  0.45781500  0.98677900  0.76372900  1
  Sn  Sn6  1  0.54221200  0.51418600  0.73594900  1
  Sn  Sn7  1  0.54311700  0.01319500  0.23575000  1
  P  P8  1  0.40733000  0.17264900  0.07719100  1
  P  P9  1  0.41060100  0.67282800  0.57658700  1
  P  P10  1  0.59106500  0.82721700  0.92296500  1
  P  P11  1  0.58924900  0.32721700  0.42329300  1
  P  P12  1  0.89759200  0.57723400  0.17228300  1
  P  P13  1  0.89802200  0.07825600  0.67228200  1
  P  P14  1  0.10184900  0.42267900  0.82798100  1
  P  P15  1  0.10318900  0.92186200  0.32745500  1
  O  O16  1  0.67458400  0.39936500  0.34686900  1
  O  O17  1  0.67443200  0.90145000  0.84827700  1
  O  O18  1  0.32495800  0.60065500  0.65291200  1
  O  O19  1  0.32359600  0.09867100  0.15185800  1
  O  O20  1  0.70839300  0.18102600  0.06766700  1
  O  O21  1  0.71245600  0.67987000  0.56695100  1
  O  O22  1  0.29016300  0.81865300  0.93274300  1
  O  O23  1  0.28734500  0.32017300  0.43290000  1
  O  O24  1  0.20246500  0.56390100  0.18697600  1
  O  O25  1  0.20293300  0.06452000  0.68618400  1
  O  O26  1  0.79751800  0.43669100  0.81291000  1
  O  O27  1  0.79843900  0.93552000  0.31323200  1
  O  O28  1  0.14497800  0.35009800  0.90258000  1
  O  O29  1  0.15289900  0.84868100  0.40116200  1
  O  O30  1  0.85136400  0.65009300  0.09812900  1
  O  O31  1  0.84802400  0.15103300  0.59820000  1
  O  O32  1  0.26419600  0.10672700  0.94064800  1
  O  O33  1  0.26519000  0.60568800  0.44103800  1
  O  O34  1  0.26454000  0.30929900  0.14305000  1
  O  O35  1  0.26946000  0.80993900  0.64109000  1
  O  O36  1  0.73526900  0.69104300  0.85685300  1
  O  O37  1  0.73048600  0.19013700  0.35851800  1
  O  O38  1  0.73601400  0.89371300  0.05903600  1
  O  O39  1  0.73437700  0.39428600  0.55879500  1
  O  O40  1  0.74989600  0.44046000  0.11193600  1
  O  O41  1  0.74972300  0.94111300  0.61135300  1
  O  O42  1  0.74734300  0.63928200  0.30856600  1
  O  O43  1  0.74965000  0.13907500  0.80893500  1
  O  O44  1  0.25291300  0.36073300  0.69185900  1
  O  O45  1  0.25222100  0.86103200  0.19062500  1
  O  O46  1  0.25105000  0.55953900  0.88824700  1
  O  O47  1  0.25151800  0.05892500  0.38836200  1
