# generated using pymatgen
data_KAl11O17
_symmetry_space_group_name_H-M   'P 1'
_cell_length_a   5.64925062
_cell_length_b   5.64925062
_cell_length_c   22.90910700
_cell_angle_alpha   90.00000000
_cell_angle_beta   90.00000000
_cell_angle_gamma   119.92569752
_symmetry_Int_Tables_number   1
_chemical_formula_structural   KAl11O17
_chemical_formula_sum   'K2 Al22 O34'
_cell_volume   633.64374889
_cell_formula_units_Z   2
loop_
 _symmetry_equiv_pos_site_id
 _symmetry_equiv_pos_as_xyz
  1  'x, y, z'
loop_
 _atom_site_type_symbol
 _atom_site_label
 _atom_site_symmetry_multiplicity
 _atom_site_fract_x
 _atom_site_fract_y
 _atom_site_fract_z
 _atom_site_occupancy
  K  K0  1  0.81554300  0.18445700  0.75000000  1
  K  K1  1  0.18445700  0.81554300  0.25000000  1
  Al  Al2  1  0.66742800  0.33257200  0.89432100  1
  Al  Al3  1  0.66742800  0.33257200  0.60567900  1
  Al  Al4  1  0.83185900  0.16814100  0.17525500  1
  Al  Al5  1  0.83331600  0.16668400  0.02477900  1
  Al  Al6  1  0.50000000  0.50000000  0.00000000  1
  Al  Al7  1  0.83185900  0.16814100  0.32474500  1
  Al  Al8  1  0.50000000  0.50000000  0.50000000  1
  Al  Al9  1  0.83331600  0.16668400  0.47522100  1
  Al  Al10  1  0.66834600  0.83480500  0.60642200  1
  Al  Al11  1  0.66834600  0.83480500  0.89357800  1
  Al  Al12  1  0.16519500  0.33165400  0.89357800  1
  Al  Al13  1  0.16519500  0.33165400  0.60642200  1
  Al  Al14  1  0.83480500  0.66834600  0.39357800  1
  Al  Al15  1  0.83480500  0.66834600  0.10642200  1
  Al  Al16  1  0.33165400  0.16519500  0.39357800  1
  Al  Al17  1  0.16814100  0.83185900  0.67525500  1
  Al  Al18  1  0.16814100  0.83185900  0.82474500  1
  Al  Al19  1  0.16668400  0.83331600  0.52477900  1
  Al  Al20  1  0.16668400  0.83331600  0.97522100  1
  Al  Al21  1  0.33165400  0.16519500  0.10642200  1
  Al  Al22  1  0.33257200  0.66742800  0.10567900  1
  Al  Al23  1  0.33257200  0.66742800  0.39432100  1
  O  O24  1  0.65700800  0.34299200  0.04942200  1
  O  O25  1  0.65700800  0.34299200  0.45057800  1
  O  O26  1  0.50516200  0.00306300  0.64468400  1
  O  O27  1  0.50516200  0.00306300  0.85531600  1
  O  O28  1  0.82145300  0.17854700  0.25000000  1
  O  O29  1  0.65722000  0.81419200  0.45043000  1
  O  O30  1  0.49979300  0.50020700  0.14092300  1
  O  O31  1  0.49979300  0.50020700  0.35907700  1
  O  O32  1  0.83402800  0.16597200  0.55521700  1
  O  O33  1  0.50020700  0.49979300  0.85907700  1
  O  O34  1  0.50020700  0.49979300  0.64092300  1
  O  O35  1  0.83402800  0.16597200  0.94478300  1
  O  O36  1  0.65722000  0.81419200  0.04957000  1
  O  O37  1  0.99693700  0.49483800  0.85531600  1
  O  O38  1  0.99693700  0.49483800  0.64468400  1
  O  O39  1  0.81419200  0.65722000  0.54957000  1
  O  O40  1  0.81419200  0.65722000  0.95043000  1
  O  O41  1  0.99799400  0.00200600  0.64584900  1
  O  O42  1  0.99799400  0.00200600  0.85415100  1
  O  O43  1  0.00200600  0.99799400  0.35415100  1
  O  O44  1  0.00200600  0.99799400  0.14584900  1
  O  O45  1  0.18580800  0.34278000  0.04957000  1
  O  O46  1  0.18580800  0.34278000  0.45043000  1
  O  O47  1  0.00306300  0.50516200  0.35531600  1
  O  O48  1  0.16597200  0.83402800  0.44478300  1
  O  O49  1  0.00306300  0.50516200  0.14468400  1
  O  O50  1  0.34278000  0.18580800  0.95043000  1
  O  O51  1  0.34278000  0.18580800  0.54957000  1
  O  O52  1  0.16597200  0.83402800  0.05521700  1
  O  O53  1  0.17854700  0.82145300  0.75000000  1
  O  O54  1  0.49483800  0.99693700  0.14468400  1
  O  O55  1  0.49483800  0.99693700  0.35531600  1
  O  O56  1  0.34299200  0.65700800  0.95057800  1
  O  O57  1  0.34299200  0.65700800  0.54942200  1
