data_image0
_chemical_formula_structural       Cu2HgSnTe4
_chemical_formula_sum              "Cu2 Hg1 Sn1 Te4"
_cell_length_a       6.30328
_cell_length_b       6.30328
_cell_length_c       7.68854
_cell_angle_alpha    114.199
_cell_angle_beta     114.199
_cell_angle_gamma    90

_space_group_name_H-M_alt    "P 1"
_space_group_IT_number       1

loop_
  _space_group_symop_operation_xyz
  'x, y, z'

loop_
  _atom_site_type_symbol
  _atom_site_label
  _atom_site_symmetry_multiplicity
  _atom_site_fract_x
  _atom_site_fract_y
  _atom_site_fract_z
  _atom_site_occupancy
  Cu  Cu1       1.0  0.75000  0.25000  0.50000  1.0000
  Cu  Cu2       1.0  0.25000  0.75000  0.50000  1.0000
  Hg  Hg1       1.0  0.00000  0.00000  0.00000  1.0000
  Sn  Sn1       1.0  0.50000  0.50000  0.00000  1.0000
  Te  Te1       1.0  0.39500  0.39500  0.28600  1.0000
  Te  Te2       1.0  0.89100  0.89100  0.28600  1.0000
  Te  Te3       1.0  0.60500  0.10900  0.71400  1.0000
  Te  Te4       1.0  0.10900  0.60500  0.71400  1.0000
