# generated using pymatgen
data_CsVGa(PO5)2
_symmetry_space_group_name_H-M   'P 1'
_cell_length_a   8.20560700
_cell_length_b   8.09472400
_cell_length_c   14.46262817
_cell_angle_alpha   73.31828211
_cell_angle_beta   90.00000000
_cell_angle_gamma   90.00000000
_symmetry_Int_Tables_number   1
_chemical_formula_structural   CsVGa(PO5)2
_chemical_formula_sum   'Cs4 V4 Ga4 P8 O40'
_cell_volume   920.20918218
_cell_formula_units_Z   4
loop_
 _symmetry_equiv_pos_site_id
 _symmetry_equiv_pos_as_xyz
  1  'x, y, z'
loop_
 _atom_site_type_symbol
 _atom_site_label
 _atom_site_symmetry_multiplicity
 _atom_site_fract_x
 _atom_site_fract_y
 _atom_site_fract_z
 _atom_site_occupancy
  Cs  Cs0  1  0.02738300  0.17963900  0.70457800  1
  Cs  Cs1  1  0.52738300  0.82036100  0.79542200  1
  Cs  Cs2  1  0.97261700  0.82036100  0.29542200  1
  Cs  Cs3  1  0.47261700  0.17963900  0.20457800  1
  V  V4  1  0.04770700  0.70055100  0.63303000  1
  V  V5  1  0.54770700  0.29944900  0.86697000  1
  V  V6  1  0.95229300  0.29944900  0.36697000  1
  V  V7  1  0.45229300  0.70055100  0.13303000  1
  Ga  Ga8  1  0.96022100  0.77622600  0.97307700  1
  Ga  Ga9  1  0.46022100  0.22377400  0.52692300  1
  Ga  Ga10  1  0.03977900  0.22377400  0.02692300  1
  Ga  Ga11  1  0.53977900  0.77622600  0.47307700  1
  P  P12  1  0.89707700  0.49893100  0.85076100  1
  P  P13  1  0.39707700  0.50106900  0.64923900  1
  P  P14  1  0.10292300  0.50106900  0.14923900  1
  P  P15  1  0.60292300  0.49893100  0.35076100  1
  P  P16  1  0.22338700  0.00333800  0.46106600  1
  P  P17  1  0.72338700  0.99666200  0.03893400  1
  P  P18  1  0.77661300  0.99666200  0.53893400  1
  P  P19  1  0.27661300  0.00333800  0.96106600  1
  O  O20  1  0.92836900  0.54128200  0.74183500  1
  O  O21  1  0.42836900  0.45871800  0.75816500  1
  O  O22  1  0.07163100  0.45871800  0.25816500  1
  O  O23  1  0.57163100  0.54128200  0.24183500  1
  O  O24  1  0.11531100  0.84414300  0.50789700  1
  O  O25  1  0.61531100  0.15585700  0.99210300  1
  O  O26  1  0.88468900  0.15585700  0.49210300  1
  O  O27  1  0.38468900  0.84414300  0.00789700  1
  O  O28  1  0.90494700  0.57103200  0.57157500  1
  O  O29  1  0.40494700  0.42896800  0.92842500  1
  O  O30  1  0.09505300  0.42896800  0.42842500  1
  O  O31  1  0.59505300  0.57103200  0.07157500  1
  O  O32  1  0.21356100  0.52540300  0.62657600  1
  O  O33  1  0.71356100  0.47459700  0.87342400  1
  O  O34  1  0.78643900  0.47459700  0.37342400  1
  O  O35  1  0.28643900  0.52540300  0.12657600  1
  O  O36  1  0.86590400  0.87784300  0.62591200  1
  O  O37  1  0.36590400  0.12215700  0.87408800  1
  O  O38  1  0.13409600  0.12215700  0.37408800  1
  O  O39  1  0.63409600  0.87784300  0.12591200  1
  O  O40  1  0.96108300  0.64652700  0.88912100  1
  O  O41  1  0.46108300  0.35347300  0.61087900  1
  O  O42  1  0.03891700  0.35347300  0.11087900  1
  O  O43  1  0.53891700  0.64652700  0.38912100  1
  O  O44  1  0.99260100  0.32946800  0.89951000  1
  O  O45  1  0.49260100  0.67053200  0.60049000  1
  O  O46  1  0.00739900  0.67053200  0.10049000  1
  O  O47  1  0.50739900  0.32946800  0.39951000  1
  O  O48  1  0.38132700  0.94217400  0.42087600  1
  O  O49  1  0.88132700  0.05782600  0.07912400  1
  O  O50  1  0.61867300  0.05782600  0.57912400  1
  O  O51  1  0.11867300  0.94217400  0.92087600  1
  O  O52  1  0.16045700  0.78189300  0.70407700  1
  O  O53  1  0.66045700  0.21810700  0.79592300  1
  O  O54  1  0.83954300  0.21810700  0.29592300  1
  O  O55  1  0.33954300  0.78189300  0.20407700  1
  O  O56  1  0.27041100  0.09502300  0.53883600  1
  O  O57  1  0.77041100  0.90497700  0.96116400  1
  O  O58  1  0.72958900  0.90497700  0.46116400  1
  O  O59  1  0.22958900  0.09502300  0.03883600  1
