data_image0
_chemical_formula_structural       B2F6Mg6O6
_chemical_formula_sum              "B2 F6 Mg6 O6"
_cell_length_a       8.74642
_cell_length_b       8.74651
_cell_length_c       3.05554
_cell_angle_alpha    90
_cell_angle_beta     90
_cell_angle_gamma    120.001

_space_group_name_H-M_alt    "P 1"
_space_group_IT_number       1

loop_
  _space_group_symop_operation_xyz
  'x, y, z'

loop_
  _atom_site_type_symbol
  _atom_site_label
  _atom_site_symmetry_multiplicity
  _atom_site_fract_x
  _atom_site_fract_y
  _atom_site_fract_z
  _atom_site_occupancy
  B   B1        1.0  0.33300  0.66700  0.25000  1.0000
  B   B2        1.0  0.66700  0.33300  0.75000  1.0000
  F   F1        1.0  0.79100  0.08940  0.25000  1.0000
  F   F2        1.0  0.29800  0.20900  0.25000  1.0000
  F   F3        1.0  0.91100  0.70200  0.25000  1.0000
  F   F4        1.0  0.08940  0.29800  0.75000  1.0000
  F   F5        1.0  0.70200  0.79100  0.75000  1.0000
  F   F6        1.0  0.20900  0.91100  0.75000  1.0000
  Mg  Mg1       1.0  0.36700  0.02970  0.25000  1.0000
  Mg  Mg2       1.0  0.97000  0.33700  0.25000  1.0000
  Mg  Mg3       1.0  0.66300  0.63300  0.25000  1.0000
  Mg  Mg4       1.0  0.33700  0.36700  0.75000  1.0000
  Mg  Mg5       1.0  0.02970  0.66300  0.75000  1.0000
  Mg  Mg6       1.0  0.63300  0.97000  0.75000  1.0000
  O   O1        1.0  0.39700  0.55000  0.25000  1.0000
  O   O2        1.0  0.15300  0.60400  0.25000  1.0000
  O   O3        1.0  0.45000  0.84700  0.25000  1.0000
  O   O4        1.0  0.55000  0.15300  0.75000  1.0000
  O   O5        1.0  0.84700  0.39600  0.75000  1.0000
  O   O6        1.0  0.60300  0.45000  0.75000  1.0000
