data_image0
_chemical_formula_structural       As16Mg4
_chemical_formula_sum              "As16 Mg4"
_cell_length_a       5.45615
_cell_length_b       5.45615
_cell_length_c       16.0479
_cell_angle_alpha    90
_cell_angle_beta     90
_cell_angle_gamma    90

_space_group_name_H-M_alt    "P 1"
_space_group_IT_number       1

loop_
  _space_group_symop_operation_xyz
  'x, y, z'

loop_
  _atom_site_type_symbol
  _atom_site_label
  _atom_site_symmetry_multiplicity
  _atom_site_fract_x
  _atom_site_fract_y
  _atom_site_fract_z
  _atom_site_occupancy
  As  As1       1.0  0.82500  0.56600  0.04690  1.0000
  As  As2       1.0  0.02460  0.90100  0.12500  1.0000
  As  As3       1.0  0.47500  0.40100  0.12500  1.0000
  As  As4       1.0  0.67500  0.06610  0.20300  1.0000
  As  As5       1.0  0.93400  0.32500  0.29700  1.0000
  As  As6       1.0  0.59900  0.52500  0.37500  1.0000
  As  As7       1.0  0.09900  0.97500  0.37500  1.0000
  As  As8       1.0  0.43400  0.17500  0.45300  1.0000
  As  As9       1.0  0.17500  0.43400  0.54700  1.0000
  As  As10      1.0  0.97500  0.09900  0.62500  1.0000
  As  As11      1.0  0.52500  0.59900  0.62500  1.0000
  As  As12      1.0  0.32500  0.93400  0.70300  1.0000
  As  As13      1.0  0.06610  0.67500  0.79700  1.0000
  As  As14      1.0  0.40100  0.47500  0.87500  1.0000
  As  As15      1.0  0.90100  0.02460  0.87500  1.0000
  As  As16      1.0  0.56600  0.82500  0.95300  1.0000
  Mg  Mg1       1.0  0.19800  0.19800  0.00000  1.0000
  Mg  Mg2       1.0  0.30200  0.69800  0.25000  1.0000
  Mg  Mg3       1.0  0.80200  0.80200  0.50000  1.0000
  Mg  Mg4       1.0  0.69800  0.30200  0.75000  1.0000
