data_image0
_chemical_formula_structural       Mg2O12Sr4U2
_chemical_formula_sum              "Mg2 O12 Sr4 U2"
_cell_length_a       5.79935
_cell_length_b       5.8054
_cell_length_c       8.17879
_cell_angle_alpha    90
_cell_angle_beta     89.6462
_cell_angle_gamma    90

_space_group_name_H-M_alt    "P 1"
_space_group_IT_number       1

loop_
  _space_group_symop_operation_xyz
  'x, y, z'

loop_
  _atom_site_type_symbol
  _atom_site_label
  _atom_site_symmetry_multiplicity
  _atom_site_fract_x
  _atom_site_fract_y
  _atom_site_fract_z
  _atom_site_occupancy
  Mg  Mg1       1.0  0.50000  0.00000  0.00000  1.0000
  Mg  Mg2       1.0  0.00000  0.50000  0.50000  1.0000
  O   O1        1.0  0.78200  0.78200  0.95500  1.0000
  O   O2        1.0  0.28300  0.71800  0.04060  1.0000
  O   O3        1.0  0.21800  0.21800  0.04480  1.0000
  O   O4        1.0  0.92000  0.51900  0.25000  1.0000
  O   O5        1.0  0.58000  0.01890  0.25000  1.0000
  O   O6        1.0  0.28200  0.71800  0.45500  1.0000
  O   O7        1.0  0.21700  0.21800  0.45900  1.0000
  O   O8        1.0  0.78300  0.78200  0.54100  1.0000
  O   O9        1.0  0.71800  0.28200  0.54500  1.0000
  O   O10       1.0  0.42000  0.98100  0.75000  1.0000
  O   O11       1.0  0.08050  0.48100  0.75000  1.0000
  O   O12       1.0  0.71700  0.28200  0.95900  1.0000
  Sr  Sr1       1.0  0.49100  0.46900  0.24800  1.0000
  Sr  Sr2       1.0  0.00932  0.96900  0.25200  1.0000
  Sr  Sr3       1.0  0.99100  0.03140  0.74800  1.0000
  Sr  Sr4       1.0  0.50900  0.53100  0.75200  1.0000
  U   U1        1.0  0.00000  0.50000  0.00000  1.0000
  U   U2        1.0  0.50000  0.00000  0.50000  1.0000
