# generated using pymatgen
data_Ta2Co4O9
_symmetry_space_group_name_H-M   'P 1'
_cell_length_a   5.20793028
_cell_length_b   5.20793028
_cell_length_c   14.31473600
_cell_angle_alpha   90.00000000
_cell_angle_beta   90.00000000
_cell_angle_gamma   120.00000351
_symmetry_Int_Tables_number   1
_chemical_formula_structural   Ta2Co4O9
_chemical_formula_sum   'Ta4 Co8 O18'
_cell_volume   336.23605521
_cell_formula_units_Z   2
loop_
 _symmetry_equiv_pos_site_id
 _symmetry_equiv_pos_as_xyz
  1  'x, y, z'
loop_
 _atom_site_type_symbol
 _atom_site_label
 _atom_site_symmetry_multiplicity
 _atom_site_fract_x
 _atom_site_fract_y
 _atom_site_fract_z
 _atom_site_occupancy
  Ta  Ta0  1  0.00000000  0.00000000  0.64328700  1
  Ta  Ta1  1  0.00000000  0.00000000  0.85671300  1
  Ta  Ta2  1  0.00000000  0.00000000  0.14328700  1
  Ta  Ta3  1  0.00000000  0.00000000  0.35671300  1
  Co  Co4  1  0.33333300  0.66666700  0.51461500  1
  Co  Co5  1  0.33333300  0.66666700  0.80834400  1
  Co  Co6  1  0.33333300  0.66666700  0.30834400  1
  Co  Co7  1  0.33333300  0.66666700  0.01461500  1
  Co  Co8  1  0.66666700  0.33333300  0.69165600  1
  Co  Co9  1  0.66666700  0.33333300  0.19165600  1
  Co  Co10  1  0.66666700  0.33333300  0.48538500  1
  Co  Co11  1  0.66666700  0.33333300  0.98538500  1
  O  O12  1  0.00000000  0.71229300  0.25000000  1
  O  O13  1  0.02164200  0.67999700  0.91553100  1
  O  O14  1  0.32000300  0.97835800  0.41553100  1
  O  O15  1  0.00000000  0.28770700  0.75000000  1
  O  O16  1  0.02164200  0.34164500  0.41553100  1
  O  O17  1  0.32000300  0.34164500  0.91553100  1
  O  O18  1  0.28770700  0.28770700  0.25000000  1
  O  O19  1  0.34164500  0.32000300  0.58446900  1
  O  O20  1  0.65835500  0.97835800  0.91553100  1
  O  O21  1  0.28770700  0.00000000  0.75000000  1
  O  O22  1  0.34164500  0.02164200  0.08446900  1
  O  O23  1  0.65835500  0.67999700  0.41553100  1
  O  O24  1  0.71229300  0.71229300  0.75000000  1
  O  O25  1  0.67999700  0.65835500  0.08446900  1
  O  O26  1  0.97835800  0.65835500  0.58446900  1
  O  O27  1  0.67999700  0.02164200  0.58446900  1
  O  O28  1  0.71229300  0.00000000  0.25000000  1
  O  O29  1  0.97835800  0.32000300  0.08446900  1
