# generated using pymatgen
data_CoTe2O5
_symmetry_space_group_name_H-M   'P 1'
_cell_length_a   8.72700200
_cell_length_b   8.72700200
_cell_length_c   12.98589100
_cell_angle_alpha   90.00000000
_cell_angle_beta   90.00000000
_cell_angle_gamma   90.00000000
_symmetry_Int_Tables_number   1
_chemical_formula_structural   CoTe2O5
_chemical_formula_sum   'Co8 Te16 O40'
_cell_volume   989.01278141
_cell_formula_units_Z   8
loop_
 _symmetry_equiv_pos_site_id
 _symmetry_equiv_pos_as_xyz
  1  'x, y, z'
loop_
 _atom_site_type_symbol
 _atom_site_label
 _atom_site_symmetry_multiplicity
 _atom_site_fract_x
 _atom_site_fract_y
 _atom_site_fract_z
 _atom_site_occupancy
  Co  Co0  1  0.50000000  0.00000000  0.00000000  1
  Co  Co1  1  0.50000000  0.00000000  0.75000000  1
  Co  Co2  1  0.50000000  0.00000000  0.25000000  1
  Co  Co3  1  0.50000000  0.00000000  0.50000000  1
  Co  Co4  1  0.00000000  0.50000000  0.75000000  1
  Co  Co5  1  0.00000000  0.50000000  0.00000000  1
  Co  Co6  1  0.00000000  0.50000000  0.25000000  1
  Co  Co7  1  0.00000000  0.50000000  0.50000000  1
  Te  Te8  1  0.28943600  0.31765700  0.13302700  1
  Te  Te9  1  0.28943600  0.68234300  0.36697300  1
  Te  Te10  1  0.31765700  0.71056400  0.86697300  1
  Te  Te11  1  0.31765700  0.28943600  0.63302700  1
  Te  Te12  1  0.68234300  0.28943600  0.86697300  1
  Te  Te13  1  0.68234300  0.71056400  0.63302700  1
  Te  Te14  1  0.71056400  0.31765700  0.36697300  1
  Te  Te15  1  0.71056400  0.68234300  0.13302700  1
  Te  Te16  1  0.78943600  0.18234300  0.13302700  1
  Te  Te17  1  0.78943600  0.81765700  0.36697300  1
  Te  Te18  1  0.81765700  0.78943600  0.86697300  1
  Te  Te19  1  0.81765700  0.21056400  0.63302700  1
  Te  Te20  1  0.18234300  0.78943600  0.63302700  1
  Te  Te21  1  0.18234300  0.21056400  0.86697300  1
  Te  Te22  1  0.21056400  0.18234300  0.36697300  1
  Te  Te23  1  0.21056400  0.81765700  0.13302700  1
  O  O24  1  0.27370100  0.87634000  0.29688000  1
  O  O25  1  0.27370100  0.12366000  0.20312000  1
  O  O26  1  0.30503300  0.19496700  0.00000000  1
  O  O27  1  0.30503300  0.80503300  0.50000000  1
  O  O28  1  0.35585300  0.92471300  0.88582400  1
  O  O29  1  0.35585300  0.07528700  0.61417600  1
  O  O30  1  0.37634000  0.22629900  0.79688000  1
  O  O31  1  0.37634000  0.77370100  0.70312000  1
  O  O32  1  0.42471300  0.85585300  0.11417600  1
  O  O33  1  0.42471300  0.14414700  0.38582400  1
  O  O34  1  0.57528700  0.85585300  0.38582400  1
  O  O35  1  0.57528700  0.14414700  0.11417600  1
  O  O36  1  0.62366000  0.77370100  0.79688000  1
  O  O37  1  0.62366000  0.22629900  0.70312000  1
  O  O38  1  0.64414700  0.07528700  0.88582400  1
  O  O39  1  0.64414700  0.92471300  0.61417600  1
  O  O40  1  0.69496700  0.80503300  0.00000000  1
  O  O41  1  0.69496700  0.19496700  0.50000000  1
  O  O42  1  0.72629900  0.87634000  0.20312000  1
  O  O43  1  0.72629900  0.12366000  0.29688000  1
  O  O44  1  0.77370100  0.37634000  0.20312000  1
  O  O45  1  0.77370100  0.62366000  0.29688000  1
  O  O46  1  0.80503300  0.30503300  0.00000000  1
  O  O47  1  0.80503300  0.69496700  0.50000000  1
  O  O48  1  0.85585300  0.42471300  0.61417600  1
  O  O49  1  0.85585300  0.57528700  0.88582400  1
  O  O50  1  0.87634000  0.27370100  0.79688000  1
  O  O51  1  0.87634000  0.72629900  0.70312000  1
  O  O52  1  0.92471300  0.35585300  0.38582400  1
  O  O53  1  0.92471300  0.64414700  0.11417600  1
  O  O54  1  0.07528700  0.35585300  0.11417600  1
  O  O55  1  0.07528700  0.64414700  0.38582400  1
  O  O56  1  0.12366000  0.27370100  0.70312000  1
  O  O57  1  0.12366000  0.72629900  0.79688000  1
  O  O58  1  0.14414700  0.42471300  0.88582400  1
  O  O59  1  0.14414700  0.57528700  0.61417600  1
  O  O60  1  0.19496700  0.30503300  0.50000000  1
  O  O61  1  0.19496700  0.69496700  0.00000000  1
  O  O62  1  0.22629900  0.37634000  0.29688000  1
  O  O63  1  0.22629900  0.62366000  0.20312000  1
