data_image0
_chemical_formula_structural       B8H52Mg4N12
_chemical_formula_sum              "B8 H52 Mg4 N12"
_cell_length_a       8.45147
_cell_length_b       8.86479
_cell_length_c       7.79624
_cell_angle_alpha    90
_cell_angle_beta     94.7763
_cell_angle_gamma    90

_space_group_name_H-M_alt    "P 1"
_space_group_IT_number       1

loop_
  _space_group_symop_operation_xyz
  'x, y, z'

loop_
  _atom_site_type_symbol
  _atom_site_label
  _atom_site_symmetry_multiplicity
  _atom_site_fract_x
  _atom_site_fract_y
  _atom_site_fract_z
  _atom_site_occupancy
  B   B1        1.0  0.54600  0.27500  0.20700  1.0000
  B   B2        1.0  0.04620  0.22500  0.20700  1.0000
  B   B3        1.0  0.25700  0.75900  0.35200  1.0000
  B   B4        1.0  0.75700  0.74100  0.35200  1.0000
  B   B5        1.0  0.74300  0.24100  0.64800  1.0000
  B   B6        1.0  0.24300  0.25900  0.64800  1.0000
  B   B7        1.0  0.45400  0.72500  0.79300  1.0000
  B   B8        1.0  0.95400  0.77500  0.79300  1.0000
  H   H1        1.0  0.87400  0.41700  0.00685  1.0000
  H   H2        1.0  0.37400  0.08330  0.00685  1.0000
  H   H3        1.0  0.81700  0.92500  0.00969  1.0000
  H   H4        1.0  0.31700  0.57500  0.00969  1.0000
  H   H5        1.0  0.50600  0.29400  0.05400  1.0000
  H   H6        1.0  0.00550  0.20600  0.05400  1.0000
  H   H7        1.0  0.78400  0.57200  0.06340  1.0000
  H   H8        1.0  0.28400  0.92800  0.06340  1.0000
  H   H9        1.0  0.69400  0.27900  0.22100  1.0000
  H   H10       1.0  0.19400  0.22100  0.22100  1.0000
  H   H11       1.0  0.68400  0.67400  0.23200  1.0000
  H   H12       1.0  0.18400  0.82600  0.23200  1.0000
  H   H13       1.0  0.00000  0.35200  0.24700  1.0000
  H   H14       1.0  0.50000  0.14800  0.24700  1.0000
  H   H15       1.0  0.88400  0.78500  0.30300  1.0000
  H   H16       1.0  0.38400  0.71500  0.30300  1.0000
  H   H17       1.0  0.03200  0.00209  0.30400  1.0000
  H   H18       1.0  0.53200  0.49800  0.30400  1.0000
  H   H19       1.0  0.53700  0.85100  0.39200  1.0000
  H   H20       1.0  0.03740  0.64900  0.39200  1.0000
  H   H21       1.0  0.51000  0.36900  0.45000  1.0000
  H   H22       1.0  0.00966  0.13100  0.45000  1.0000
  H   H23       1.0  0.82400  0.39500  0.45900  1.0000
  H   H24       1.0  0.32400  0.10500  0.45900  1.0000
  H   H25       1.0  0.79100  0.64700  0.46700  1.0000
  H   H26       1.0  0.29100  0.85300  0.46700  1.0000
  H   H27       1.0  0.70900  0.14700  0.53300  1.0000
  H   H28       1.0  0.20900  0.35300  0.53300  1.0000
  H   H29       1.0  0.67600  0.89500  0.54100  1.0000
  H   H30       1.0  0.17600  0.60500  0.54100  1.0000
  H   H31       1.0  0.49000  0.63100  0.55000  1.0000
  H   H32       1.0  0.99000  0.86900  0.55000  1.0000
  H   H33       1.0  0.46300  0.14900  0.60800  1.0000
  H   H34       1.0  0.96300  0.35100  0.60800  1.0000
  H   H35       1.0  0.96800  0.99800  0.69600  1.0000
  H   H36       1.0  0.46800  0.50200  0.69600  1.0000
  H   H37       1.0  0.11600  0.21500  0.69700  1.0000
  H   H38       1.0  0.61600  0.28500  0.69700  1.0000
  H   H39       1.0  0.50000  0.85200  0.75300  1.0000
  H   H40       1.0  0.00014  0.64800  0.75300  1.0000
  H   H41       1.0  0.31600  0.32600  0.76800  1.0000
  H   H42       1.0  0.81600  0.17400  0.76800  1.0000
  H   H43       1.0  0.80600  0.77900  0.77900  1.0000
  H   H44       1.0  0.30600  0.72100  0.77900  1.0000
  H   H45       1.0  0.21600  0.42800  0.93700  1.0000
  H   H46       1.0  0.71600  0.07180  0.93700  1.0000
  H   H47       1.0  0.99400  0.79400  0.94600  1.0000
  H   H48       1.0  0.49400  0.70600  0.94600  1.0000
  H   H49       1.0  0.68300  0.42500  0.99000  1.0000
  H   H50       1.0  0.18300  0.07500  0.99000  1.0000
  H   H51       1.0  0.62600  0.91700  0.99300  1.0000
  H   H52       1.0  0.12600  0.58300  0.99300  1.0000
  Mg  Mg1       1.0  0.73100  0.06580  0.28700  1.0000
  Mg  Mg2       1.0  0.23100  0.43400  0.28700  1.0000
  Mg  Mg3       1.0  0.76900  0.56600  0.71300  1.0000
  Mg  Mg4       1.0  0.26900  0.93400  0.71300  1.0000
  N   N1        1.0  0.71800  0.98800  0.02870  1.0000
  N   N2        1.0  0.21800  0.51200  0.02870  1.0000
  N   N3        1.0  0.97800  0.10400  0.32400  1.0000
  N   N4        1.0  0.47800  0.39600  0.32400  1.0000
  N   N5        1.0  0.65600  0.87500  0.41200  1.0000
  N   N6        1.0  0.15600  0.62500  0.41200  1.0000
  N   N7        1.0  0.84400  0.37500  0.58800  1.0000
  N   N8        1.0  0.34400  0.12500  0.58800  1.0000
  N   N9        1.0  0.52200  0.60400  0.67600  1.0000
  N   N10       1.0  0.02230  0.89600  0.67600  1.0000
  N   N11       1.0  0.78200  0.48800  0.97100  1.0000
  N   N12       1.0  0.28200  0.01160  0.97100  1.0000
