data_image0
_chemical_formula_structural       H4Mg6O8
_chemical_formula_sum              "H4 Mg6 O8"
_cell_length_a       3.01689
_cell_length_b       3.01686
_cell_length_c       19.2375
_cell_angle_alpha    90
_cell_angle_beta     90.0004
_cell_angle_gamma    120

_space_group_name_H-M_alt    "P 1"
_space_group_IT_number       1

loop_
  _space_group_symop_operation_xyz
  'x, y, z'

loop_
  _atom_site_type_symbol
  _atom_site_label
  _atom_site_symmetry_multiplicity
  _atom_site_fract_x
  _atom_site_fract_y
  _atom_site_fract_z
  _atom_site_occupancy
  H   H1        1.0  0.66700  0.33300  0.01850  1.0000
  H   H2        1.0  0.66700  0.33300  0.48000  1.0000
  H   H3        1.0  0.33300  0.66700  0.52000  1.0000
  H   H4        1.0  0.33300  0.66700  0.98100  1.0000
  Mg  Mg1       1.0  0.00000  0.00000  0.12400  1.0000
  Mg  Mg2       1.0  0.66700  0.33300  0.24900  1.0000
  Mg  Mg3       1.0  0.33300  0.66700  0.37500  1.0000
  Mg  Mg4       1.0  0.66700  0.33300  0.62500  1.0000
  Mg  Mg5       1.0  0.33300  0.66700  0.75100  1.0000
  Mg  Mg6       1.0  0.00002  0.00001  0.87600  1.0000
  O   O1        1.0  0.66700  0.33300  0.06890  1.0000
  O   O2        1.0  0.33300  0.66700  0.18700  1.0000
  O   O3        1.0  0.00000  0.00000  0.31200  1.0000
  O   O4        1.0  0.66700  0.33300  0.43000  1.0000
  O   O5        1.0  0.33300  0.66700  0.57000  1.0000
  O   O6        1.0  0.00002  0.00001  0.68800  1.0000
  O   O7        1.0  0.66700  0.33300  0.81300  1.0000
  O   O8        1.0  0.33300  0.66700  0.93100  1.0000
