# generated using pymatgen
data_LaMg6Zn
_symmetry_space_group_name_H-M   'P 1'
_cell_length_a   6.92081130
_cell_length_b   6.92081130
_cell_length_c   5.12359300
_cell_angle_alpha   90.00000000
_cell_angle_beta   90.00000000
_cell_angle_gamma   126.39926499
_symmetry_Int_Tables_number   1
_chemical_formula_structural   LaMg6Zn
_chemical_formula_sum   'La1 Mg6 Zn1'
_cell_volume   197.52921031
_cell_formula_units_Z   1
loop_
 _symmetry_equiv_pos_site_id
 _symmetry_equiv_pos_as_xyz
  1  'x, y, z'
loop_
 _atom_site_type_symbol
 _atom_site_label
 _atom_site_symmetry_multiplicity
 _atom_site_fract_x
 _atom_site_fract_y
 _atom_site_fract_z
 _atom_site_occupancy
  La  La0  1  0.31342700  0.68657300  0.50000000  1
  Mg  Mg1  1  0.31865300  0.18367100  0.50000000  1
  Mg  Mg2  1  0.81632900  0.68134700  0.50000000  1
  Mg  Mg3  1  0.16605100  0.32027800  0.00000000  1
  Mg  Mg4  1  0.67972200  0.83394900  0.00000000  1
  Mg  Mg5  1  0.68974100  0.31025900  0.00000000  1
  Mg  Mg6  1  0.15038600  0.84961400  0.00000000  1
  Zn  Zn7  1  0.86569500  0.13430500  0.50000000  1
