data_image0
_chemical_formula_structural       Cl12Mg4Rb4
_chemical_formula_sum              "Cl12 Mg4 Rb4"
_cell_length_a       7.13178
_cell_length_b       7.13169
_cell_length_c       11.8777
_cell_angle_alpha    90
_cell_angle_beta     90
_cell_angle_gamma    120

_space_group_name_H-M_alt    "P 1"
_space_group_IT_number       1

loop_
  _space_group_symop_operation_xyz
  'x, y, z'

loop_
  _atom_site_type_symbol
  _atom_site_label
  _atom_site_symmetry_multiplicity
  _atom_site_fract_x
  _atom_site_fract_y
  _atom_site_fract_z
  _atom_site_occupancy
  Cl  Cl1       1.0  0.50000  0.00000  0.00000  1.0000
  Cl  Cl2       1.0  0.00000  0.50000  0.00000  1.0000
  Cl  Cl3       1.0  0.50000  0.50000  0.00000  1.0000
  Cl  Cl4       1.0  0.17500  0.34900  0.25000  1.0000
  Cl  Cl5       1.0  0.17500  0.82500  0.25000  1.0000
  Cl  Cl6       1.0  0.65100  0.82500  0.25000  1.0000
  Cl  Cl7       1.0  0.50000  0.00000  0.50000  1.0000
  Cl  Cl8       1.0  0.00000  0.50000  0.50000  1.0000
  Cl  Cl9       1.0  0.50000  0.50000  0.50000  1.0000
  Cl  Cl10      1.0  0.34900  0.17500  0.75000  1.0000
  Cl  Cl11      1.0  0.82500  0.17500  0.75000  1.0000
  Cl  Cl12      1.0  0.82500  0.65100  0.75000  1.0000
  Mg  Mg1       1.0  0.33300  0.66700  0.11800  1.0000
  Mg  Mg2       1.0  0.33300  0.66700  0.38200  1.0000
  Mg  Mg3       1.0  0.66700  0.33300  0.61800  1.0000
  Mg  Mg4       1.0  0.66700  0.33300  0.88200  1.0000
  Rb  Rb1       1.0  0.00000  0.00000  0.00000  1.0000
  Rb  Rb2       1.0  0.66700  0.33300  0.25000  1.0000
  Rb  Rb3       1.0  0.00000  0.00000  0.50000  1.0000
  Rb  Rb4       1.0  0.33300  0.66700  0.75000  1.0000
