# generated using pymatgen
data_CeMg6V
_symmetry_space_group_name_H-M   'P 1'
_cell_length_a   6.57045129
_cell_length_b   6.57045129
_cell_length_c   5.15905800
_cell_angle_alpha   90.00000000
_cell_angle_beta   90.00000000
_cell_angle_gamma   125.29148913
_symmetry_Int_Tables_number   1
_chemical_formula_structural   CeMg6V
_chemical_formula_sum   'Ce1 Mg6 V1'
_cell_volume   181.78994608
_cell_formula_units_Z   1
loop_
 _symmetry_equiv_pos_site_id
 _symmetry_equiv_pos_as_xyz
  1  'x, y, z'
loop_
 _atom_site_type_symbol
 _atom_site_label
 _atom_site_symmetry_multiplicity
 _atom_site_fract_x
 _atom_site_fract_y
 _atom_site_fract_z
 _atom_site_occupancy
  Ce  Ce0  1  0.32495000  0.67505000  0.50000000  1
  Mg  Mg1  1  0.32547400  0.17224700  0.50000000  1
  Mg  Mg2  1  0.82775300  0.67452600  0.50000000  1
  Mg  Mg3  1  0.16217000  0.32050000  0.00000000  1
  Mg  Mg4  1  0.67950000  0.83783000  0.00000000  1
  Mg  Mg5  1  0.68313700  0.31686300  0.00000000  1
  Mg  Mg6  1  0.16386100  0.83613900  0.00000000  1
  V  V7  1  0.83315800  0.16684200  0.50000000  1
