# generated using pymatgen
data_NpN2
_symmetry_space_group_name_H-M   'P 1'
_cell_length_a   4.90731900
_cell_length_b   4.90731900
_cell_length_c   3.47987600
_cell_angle_alpha   90.00000000
_cell_angle_beta   90.00000000
_cell_angle_gamma   90.00000000
_symmetry_Int_Tables_number   1
_chemical_formula_structural   NpN2
_chemical_formula_sum   'Np2 N4'
_cell_volume   83.80160745
_cell_formula_units_Z   2
loop_
 _symmetry_equiv_pos_site_id
 _symmetry_equiv_pos_as_xyz
  1  'x, y, z'
loop_
 _atom_site_type_symbol
 _atom_site_label
 _atom_site_symmetry_multiplicity
 _atom_site_fract_x
 _atom_site_fract_y
 _atom_site_fract_z
 _atom_site_occupancy
  Np  Np0  1  0.50000000  0.50000000  0.00000000  1
  Np  Np1  1  0.00000000  0.00000000  0.50000000  1
  N  N2  1  0.81802100  0.81802100  0.00000000  1
  N  N3  1  0.18197900  0.18197900  0.00000000  1
  N  N4  1  0.68197900  0.31802100  0.50000000  1
  N  N5  1  0.31802100  0.68197900  0.50000000  1
