# generated using pymatgen
data_HfBr3
_symmetry_space_group_name_H-M   'P 1'
_cell_length_a   10.37518048
_cell_length_b   10.37518048
_cell_length_c   3.41783000
_cell_angle_alpha   90.00000000
_cell_angle_beta   90.00000000
_cell_angle_gamma   120.00000304
_symmetry_Int_Tables_number   1
_chemical_formula_structural   HfBr3
_chemical_formula_sum   'Hf2 Br6'
_cell_volume   318.61953241
_cell_formula_units_Z   2
loop_
 _symmetry_equiv_pos_site_id
 _symmetry_equiv_pos_as_xyz
  1  'x, y, z'
loop_
 _atom_site_type_symbol
 _atom_site_label
 _atom_site_symmetry_multiplicity
 _atom_site_fract_x
 _atom_site_fract_y
 _atom_site_fract_z
 _atom_site_occupancy
  Hf  Hf0  1  0.33333300  0.66666700  0.75000000  1
  Hf  Hf1  1  0.66666700  0.33333300  0.25000000  1
  Br  Br2  1  0.21844000  0.43687900  0.25000000  1
  Br  Br3  1  0.56312100  0.78156000  0.25000000  1
  Br  Br4  1  0.21844000  0.78156000  0.25000000  1
  Br  Br5  1  0.78156000  0.56312100  0.75000000  1
  Br  Br6  1  0.43687900  0.21844000  0.75000000  1
  Br  Br7  1  0.78156000  0.21844000  0.75000000  1
