data_image0
_chemical_formula_structural       F6LiP
_chemical_formula_sum              "F6 Li1 P1"
_cell_length_a       4.53157
_cell_length_b       4.53157
_cell_length_c       4.8503
_cell_angle_alpha    117.849
_cell_angle_beta     117.849
_cell_angle_gamma    60

_space_group_name_H-M_alt    "P 1"
_space_group_IT_number       1

loop_
  _space_group_symop_operation_xyz
  'x, y, z'

loop_
  _atom_site_type_symbol
  _atom_site_label
  _atom_site_symmetry_multiplicity
  _atom_site_fract_x
  _atom_site_fract_y
  _atom_site_fract_z
  _atom_site_occupancy
  F   F1        1.0  0.08460  0.36400  0.22900  1.0000
  F   F2        1.0  0.78100  0.08460  0.22900  1.0000
  F   F3        1.0  0.36400  0.78100  0.22900  1.0000
  F   F4        1.0  0.63600  0.21900  0.77100  1.0000
  F   F5        1.0  0.21900  0.91500  0.77100  1.0000
  F   F6        1.0  0.91500  0.63600  0.77100  1.0000
  Li  Li1       1.0  0.50000  0.50000  0.50000  1.0000
  P   P1        1.0  0.00000  0.00000  0.00000  1.0000
