data_image0
_chemical_formula_structural       Ca2Fe10O14
_chemical_formula_sum              "Ca2 Fe10 O14"
_cell_length_a       5.23147
_cell_length_b       5.23147
_cell_length_c       17.6883
_cell_angle_alpha    90
_cell_angle_beta     90
_cell_angle_gamma    33.634

_space_group_name_H-M_alt    "P 1"
_space_group_IT_number       1

loop_
  _space_group_symop_operation_xyz
  'x, y, z'

loop_
  _atom_site_type_symbol
  _atom_site_label
  _atom_site_symmetry_multiplicity
  _atom_site_fract_x
  _atom_site_fract_y
  _atom_site_fract_z
  _atom_site_occupancy
  Ca  Ca1       1.0  0.79300  0.79300  0.25000  1.0000
  Ca  Ca2       1.0  0.20700  0.20700  0.75000  1.0000
  Fe  Fe1       1.0  0.00000  0.00000  0.00000  1.0000
  Fe  Fe2       1.0  0.00000  0.00000  0.50000  1.0000
  Fe  Fe3       1.0  0.46000  0.46000  0.84900  1.0000
  Fe  Fe4       1.0  0.54000  0.54000  0.34900  1.0000
  Fe  Fe5       1.0  0.54000  0.54000  0.15100  1.0000
  Fe  Fe6       1.0  0.46000  0.46000  0.65100  1.0000
  Fe  Fe7       1.0  0.27700  0.27700  0.07400  1.0000
  Fe  Fe8       1.0  0.72300  0.72300  0.57400  1.0000
  Fe  Fe9       1.0  0.72300  0.72300  0.92600  1.0000
  Fe  Fe10      1.0  0.27700  0.27700  0.42600  1.0000
  O   O1        1.0  0.63400  0.63400  0.46500  1.0000
  O   O2        1.0  0.36600  0.36600  0.96500  1.0000
  O   O3        1.0  0.36600  0.36600  0.53500  1.0000
  O   O4        1.0  0.63400  0.63400  0.03460  1.0000
  O   O5        1.0  0.17200  0.17200  0.32900  1.0000
  O   O6        1.0  0.82800  0.82800  0.82900  1.0000
  O   O7        1.0  0.82800  0.82800  0.67100  1.0000
  O   O8        1.0  0.17200  0.17200  0.17100  1.0000
  O   O9        1.0  0.91800  0.91800  0.38700  1.0000
  O   O10       1.0  0.08200  0.08200  0.88700  1.0000
  O   O11       1.0  0.08200  0.08200  0.61300  1.0000
  O   O12       1.0  0.91800  0.91800  0.11300  1.0000
  O   O13       1.0  0.46200  0.46200  0.25000  1.0000
  O   O14       1.0  0.53800  0.53800  0.75000  1.0000
