# generated using pymatgen
data_K5Na3Ta2Nb6O24
_symmetry_space_group_name_H-M   'P 1'
_cell_length_a   8.05972401
_cell_length_b   8.05972401
_cell_length_c   8.05815500
_cell_angle_alpha   90.00000000
_cell_angle_beta   90.00000000
_cell_angle_gamma   90.00320707
_symmetry_Int_Tables_number   1
_chemical_formula_structural   K5Na3Ta2Nb6O24
_chemical_formula_sum   'K5 Na3 Ta2 Nb6 O24'
_cell_volume   523.45090760
_cell_formula_units_Z   1
loop_
 _symmetry_equiv_pos_site_id
 _symmetry_equiv_pos_as_xyz
  1  'x, y, z'
loop_
 _atom_site_type_symbol
 _atom_site_label
 _atom_site_symmetry_multiplicity
 _atom_site_fract_x
 _atom_site_fract_y
 _atom_site_fract_z
 _atom_site_occupancy
  K  K0  1  0.74990200  0.25009800  0.00000000  1
  K  K1  1  0.25008000  0.25008200  0.00000000  1
  K  K2  1  0.74991800  0.74992000  0.00000000  1
  K  K3  1  0.25009200  0.74990800  0.00000000  1
  K  K4  1  0.25008700  0.74991300  0.50000000  1
  Na  Na5  1  0.75000200  0.24999800  0.50000000  1
  Na  Na6  1  0.25000300  0.25000400  0.50000000  1
  Na  Na7  1  0.74999600  0.74999700  0.50000000  1
  Ta  Ta8  1  0.99976600  0.00023400  0.74930500  1
  Ta  Ta9  1  0.99976600  0.00023400  0.25069500  1
  Nb  Nb10  1  0.50021700  0.00021800  0.74933400  1
  Nb  Nb11  1  0.50021700  0.00021800  0.25066600  1
  Nb  Nb12  1  0.99978200  0.49978300  0.74933400  1
  Nb  Nb13  1  0.99978200  0.49978300  0.25066600  1
  Nb  Nb14  1  0.50022200  0.49977800  0.74933800  1
  Nb  Nb15  1  0.50022200  0.49977800  0.25066200  1
  O  O16  1  0.99991600  0.24882000  0.74835100  1
  O  O17  1  0.99991600  0.24882000  0.25164900  1
  O  O18  1  0.50008200  0.24989400  0.74836200  1
  O  O19  1  0.50008200  0.24989400  0.25163800  1
  O  O20  1  0.99921100  0.75119700  0.74903400  1
  O  O21  1  0.99921100  0.75119700  0.25096600  1
  O  O22  1  0.50078500  0.75010600  0.74905100  1
  O  O23  1  0.50078500  0.75010600  0.25094900  1
  O  O24  1  0.75118000  0.00008400  0.74835100  1
  O  O25  1  0.75118000  0.00008400  0.25164900  1
  O  O26  1  0.24880300  0.00078900  0.74903400  1
  O  O27  1  0.24880300  0.00078900  0.25096600  1
  O  O28  1  0.75010600  0.49991800  0.74836200  1
  O  O29  1  0.75010600  0.49991800  0.25163800  1
  O  O30  1  0.24989400  0.49921500  0.74905100  1
  O  O31  1  0.24989400  0.49921500  0.25094900  1
  O  O32  1  0.99990800  0.00009200  0.00000000  1
  O  O33  1  0.99922400  0.00077600  0.50000000  1
  O  O34  1  0.50008900  0.00008400  0.00000000  1
  O  O35  1  0.50076700  0.00076400  0.50000000  1
  O  O36  1  0.99991600  0.49991100  0.00000000  1
  O  O37  1  0.99923600  0.49923300  0.50000000  1
  O  O38  1  0.50008300  0.49991700  0.00000000  1
  O  O39  1  0.50077200  0.49922800  0.50000000  1
