# generated using pymatgen
data_SrCa7Mn7FeO24
_symmetry_space_group_name_H-M   'P 1'
_cell_length_a   7.64752247
_cell_length_b   7.64752247
_cell_length_c   7.64752200
_cell_angle_alpha   90.00110721
_cell_angle_beta   90.00110721
_cell_angle_gamma   90.00110192
_symmetry_Int_Tables_number   1
_chemical_formula_structural   SrCa7Mn7FeO24
_chemical_formula_sum   'Sr1 Ca7 Mn7 Fe1 O24'
_cell_volume   447.26226494
_cell_formula_units_Z   1
loop_
 _symmetry_equiv_pos_site_id
 _symmetry_equiv_pos_as_xyz
  1  'x, y, z'
loop_
 _atom_site_type_symbol
 _atom_site_label
 _atom_site_symmetry_multiplicity
 _atom_site_fract_x
 _atom_site_fract_y
 _atom_site_fract_z
 _atom_site_occupancy
  Sr  Sr0  1  0.75011500  0.75011500  0.75011500  1
  Ca  Ca1  1  0.24994600  0.24994600  0.75011100  1
  Ca  Ca2  1  0.75005300  0.24996400  0.75005300  1
  Ca  Ca3  1  0.24986200  0.24986200  0.24986200  1
  Ca  Ca4  1  0.75011100  0.24994600  0.24994600  1
  Ca  Ca5  1  0.24996400  0.75005300  0.75005300  1
  Ca  Ca6  1  0.24994600  0.75011100  0.24994600  1
  Ca  Ca7  1  0.75005300  0.75005300  0.24996400  1
  Mn  Mn8  1  0.49941900  0.00054700  0.00054700  1
  Mn  Mn9  1  0.00054700  0.00054700  0.49941900  1
  Mn  Mn10  1  0.49944700  0.00061300  0.49944700  1
  Mn  Mn11  1  0.00054700  0.49941900  0.00054700  1
  Mn  Mn12  1  0.49944700  0.49944700  0.00061300  1
  Mn  Mn13  1  0.00061300  0.49944700  0.49944700  1
  Mn  Mn14  1  0.49948600  0.49948600  0.49948600  1
  Fe  Fe15  1  0.00052900  0.00052900  0.00052900  1
  O  O16  1  0.00052300  0.25294800  0.00052300  1
  O  O17  1  0.49964800  0.25052500  0.00036900  1
  O  O18  1  0.00036900  0.25052500  0.49964800  1
  O  O19  1  0.49966200  0.25025900  0.49966200  1
  O  O20  1  0.00263500  0.74697600  0.00263500  1
  O  O21  1  0.49720100  0.74940600  0.00282900  1
  O  O22  1  0.00282900  0.74940600  0.49720100  1
  O  O23  1  0.49716900  0.74980000  0.49716900  1
  O  O24  1  0.00263500  0.00263500  0.74697600  1
  O  O25  1  0.49720100  0.00282900  0.74940600  1
  O  O26  1  0.00052300  0.00052300  0.25294800  1
  O  O27  1  0.49964800  0.00036900  0.25052500  1
  O  O28  1  0.00282900  0.49720100  0.74940600  1
  O  O29  1  0.49716900  0.49716900  0.74980000  1
  O  O30  1  0.00036900  0.49964800  0.25052500  1
  O  O31  1  0.49966200  0.49966200  0.25025900  1
  O  O32  1  0.25294800  0.00052300  0.00052300  1
  O  O33  1  0.74697600  0.00263500  0.00263500  1
  O  O34  1  0.25052500  0.00036900  0.49964800  1
  O  O35  1  0.74940600  0.00282900  0.49720100  1
  O  O36  1  0.25052500  0.49964800  0.00036900  1
  O  O37  1  0.74940600  0.49720100  0.00282900  1
  O  O38  1  0.25025900  0.49966200  0.49966200  1
  O  O39  1  0.74980000  0.49716900  0.49716900  1
