data_image0
_chemical_formula_structural       Ba6Ir4O18Sm2
_chemical_formula_sum              "Ba6 Ir4 O18 Sm2"
_cell_length_a       5.85529
_cell_length_b       5.85484
_cell_length_c       14.9093
_cell_angle_alpha    90.0164
_cell_angle_beta     88.321
_cell_angle_gamma    120.596

_space_group_name_H-M_alt    "P 1"
_space_group_IT_number       1

loop_
  _space_group_symop_operation_xyz
  'x, y, z'

loop_
  _atom_site_type_symbol
  _atom_site_label
  _atom_site_symmetry_multiplicity
  _atom_site_fract_x
  _atom_site_fract_y
  _atom_site_fract_z
  _atom_site_occupancy
  Ba  Ba1       1.0  0.43900  0.70000  0.88600  1.0000
  Ba  Ba2       1.0  0.78200  0.37000  0.40700  1.0000
  Ba  Ba3       1.0  0.81600  0.36900  0.11300  1.0000
  Ba  Ba4       1.0  0.42800  0.69100  0.58600  1.0000
  Ba  Ba5       1.0  0.13500  0.04160  0.25400  1.0000
  Ba  Ba6       1.0  0.08510  0.01970  0.73800  1.0000
  Ir  Ir1       1.0  0.48800  0.69500  0.16500  1.0000
  Ir  Ir2       1.0  0.76000  0.35900  0.66600  1.0000
  Ir  Ir3       1.0  0.71700  0.36000  0.83500  1.0000
  Ir  Ir4       1.0  0.45300  0.70800  0.33300  1.0000
  O   O1        1.0  0.29100  0.40300  0.41600  1.0000
  O   O2        1.0  0.05050  0.32900  0.97300  1.0000
  O   O3        1.0  0.28800  0.86900  0.40500  1.0000
  O   O4        1.0  0.76000  0.87400  0.41000  1.0000
  O   O5        1.0  0.88600  0.66600  0.91200  1.0000
  O   O6        1.0  0.90300  0.19100  0.89200  1.0000
  O   O7        1.0  0.90900  0.18400  0.59200  1.0000
  O   O8        1.0  0.90500  0.64800  0.57700  1.0000
  O   O9        1.0  0.43900  0.18600  0.59200  1.0000
  O   O10       1.0  0.36200  0.36700  0.09700  1.0000
  O   O11       1.0  0.36400  0.84800  0.07350  1.0000
  O   O12       1.0  0.83700  0.85600  0.10300  1.0000
  O   O13       1.0  0.61600  0.02170  0.24600  1.0000
  O   O14       1.0  0.57000  0.04660  0.75200  1.0000
  O   O15       1.0  0.14700  0.54400  0.24700  1.0000
  O   O16       1.0  0.62400  0.53900  0.25900  1.0000
  O   O17       1.0  0.58400  0.51900  0.74500  1.0000
  O   O18       1.0  0.10600  0.55000  0.72600  1.0000
  Sm  Sm1       1.0  0.15300  0.01680  0.00217  1.0000
  Sm  Sm2       1.0  0.10300  0.03050  0.49900  1.0000
