# generated using pymatgen
data_Sr2Ca6TiMn7O24
_symmetry_space_group_name_H-M   'P 1'
_cell_length_a   7.66056582
_cell_length_b   7.66056582
_cell_length_c   7.65752900
_cell_angle_alpha   90.00000000
_cell_angle_beta   90.00000000
_cell_angle_gamma   90.01353901
_symmetry_Int_Tables_number   1
_chemical_formula_structural   Sr2Ca6TiMn7O24
_chemical_formula_sum   'Sr2 Ca6 Ti1 Mn7 O24'
_cell_volume   449.37647653
_cell_formula_units_Z   1
loop_
 _symmetry_equiv_pos_site_id
 _symmetry_equiv_pos_as_xyz
  1  'x, y, z'
loop_
 _atom_site_type_symbol
 _atom_site_label
 _atom_site_symmetry_multiplicity
 _atom_site_fract_x
 _atom_site_fract_y
 _atom_site_fract_z
 _atom_site_occupancy
  Sr  Sr0  1  0.75149000  0.24850900  0.74883700  1
  Sr  Sr1  1  0.75149000  0.24850900  0.25116300  1
  Ca  Ca2  1  0.24756000  0.24723500  0.74719100  1
  Ca  Ca3  1  0.24703200  0.75296800  0.74724800  1
  Ca  Ca4  1  0.75276500  0.75244000  0.74719100  1
  Ca  Ca5  1  0.24756000  0.24723500  0.25280900  1
  Ca  Ca6  1  0.24703200  0.75296800  0.25275200  1
  Ca  Ca7  1  0.75276500  0.75244000  0.25280900  1
  Ti  Ti8  1  0.49662400  0.50337600  0.00000000  1
  Mn  Mn9  1  0.00111300  0.99888700  0.00000000  1
  Mn  Mn10  1  0.49843600  0.99970200  0.00000000  1
  Mn  Mn11  1  0.00029800  0.50156400  0.00000000  1
  Mn  Mn12  1  0.00130800  0.99869200  0.50000000  1
  Mn  Mn13  1  0.49856100  0.99887100  0.50000000  1
  Mn  Mn14  1  0.00112900  0.50143900  0.50000000  1
  Mn  Mn15  1  0.49840000  0.50160000  0.50000000  1
  O  O16  1  0.00417500  0.99582500  0.74998800  1
  O  O17  1  0.49588700  0.99570800  0.74981800  1
  O  O18  1  0.00429200  0.50411300  0.74981800  1
  O  O19  1  0.49725900  0.50274100  0.74717600  1
  O  O20  1  0.00417500  0.99582500  0.25001200  1
  O  O21  1  0.49588700  0.99570800  0.25018200  1
  O  O22  1  0.00429200  0.50411300  0.25018200  1
  O  O23  1  0.49725900  0.50274100  0.25282400  1
  O  O24  1  0.00743600  0.24982700  0.00000000  1
  O  O25  1  0.49613500  0.24710600  0.00000000  1
  O  O26  1  0.00116200  0.75017100  0.00000000  1
  O  O27  1  0.49798800  0.75277600  0.00000000  1
  O  O28  1  0.00692500  0.24998100  0.50000000  1
  O  O29  1  0.49295900  0.24976400  0.50000000  1
  O  O30  1  0.00163700  0.74994200  0.50000000  1
  O  O31  1  0.49865800  0.75012200  0.50000000  1
  O  O32  1  0.24982900  0.99883800  0.00000000  1
  O  O33  1  0.75017300  0.99256400  0.00000000  1
  O  O34  1  0.24722400  0.50201200  0.00000000  1
  O  O35  1  0.75289400  0.50386500  0.00000000  1
  O  O36  1  0.25005800  0.99836300  0.50000000  1
  O  O37  1  0.75001900  0.99307500  0.50000000  1
  O  O38  1  0.24987800  0.50134200  0.50000000  1
  O  O39  1  0.75023600  0.50704100  0.50000000  1
