data_image0
_chemical_formula_structural       BiF6Li
_chemical_formula_sum              "Bi1 F6 Li1"
_cell_length_a       4.85848
_cell_length_b       4.85848
_cell_length_c       5.32717
_cell_angle_alpha    117.13
_cell_angle_beta     117.13
_cell_angle_gamma    60

_space_group_name_H-M_alt    "P 1"
_space_group_IT_number       1

loop_
  _space_group_symop_operation_xyz
  'x, y, z'

loop_
  _atom_site_type_symbol
  _atom_site_label
  _atom_site_symmetry_multiplicity
  _atom_site_fract_x
  _atom_site_fract_y
  _atom_site_fract_z
  _atom_site_occupancy
  Bi  Bi1       1.0  0.00000  0.00000  0.00000  1.0000
  F   F1        1.0  0.42600  0.08510  0.25500  1.0000
  F   F2        1.0  0.74400  0.42600  0.25500  1.0000
  F   F3        1.0  0.08510  0.74400  0.25500  1.0000
  F   F4        1.0  0.91500  0.25600  0.74500  1.0000
  F   F5        1.0  0.25600  0.57400  0.74500  1.0000
  F   F6        1.0  0.57400  0.91500  0.74500  1.0000
  Li  Li1       1.0  0.50000  0.50000  0.50000  1.0000
