# generated using pymatgen
data_Ca4SnS6
_symmetry_space_group_name_H-M   'P 1'
_cell_length_a   7.67673417
_cell_length_b   7.67673417
_cell_length_c   13.50416230
_cell_angle_alpha   70.45471271
_cell_angle_beta   70.45471271
_cell_angle_gamma   58.65871955
_symmetry_Int_Tables_number   1
_chemical_formula_structural   Ca4SnS6
_chemical_formula_sum   'Ca8 Sn2 S12'
_cell_volume   627.66885292
_cell_formula_units_Z   2
loop_
 _symmetry_equiv_pos_site_id
 _symmetry_equiv_pos_as_xyz
  1  'x, y, z'
loop_
 _atom_site_type_symbol
 _atom_site_label
 _atom_site_symmetry_multiplicity
 _atom_site_fract_x
 _atom_site_fract_y
 _atom_site_fract_z
 _atom_site_occupancy
  Ca  Ca0  1  0.69299300  0.91640000  0.86194800  1
  Ca  Ca1  1  0.91640000  0.69299300  0.36194800  1
  Ca  Ca2  1  0.22907300  0.48782700  0.04334100  1
  Ca  Ca3  1  0.48782700  0.22907300  0.54334100  1
  Ca  Ca4  1  0.05127400  0.26816300  0.85589800  1
  Ca  Ca5  1  0.26816300  0.05127400  0.35589800  1
  Ca  Ca6  1  0.35203700  0.71397700  0.70490500  1
  Ca  Ca7  1  0.71397700  0.35203700  0.20490500  1
  Sn  Sn8  1  0.31977700  0.87675100  0.10922600  1
  Sn  Sn9  1  0.87675100  0.31977700  0.60922600  1
  S  S10  1  0.59874600  0.08303300  0.36422800  1
  S  S11  1  0.08303300  0.59874600  0.86422800  1
  S  S12  1  0.54860800  0.58658000  0.01706500  1
  S  S13  1  0.58658000  0.54860800  0.51706500  1
  S  S14  1  0.51129500  0.07096200  0.05282200  1
  S  S15  1  0.07096200  0.51129500  0.55282200  1
  S  S16  1  0.04442200  0.98349100  0.56680700  1
  S  S17  1  0.98349100  0.04442200  0.06680700  1
  S  S18  1  0.00535900  0.41527900  0.24361000  1
  S  S19  1  0.41527900  0.00535900  0.74361000  1
  S  S20  1  0.71297300  0.30878000  0.79594900  1
  S  S21  1  0.30878000  0.71297300  0.29594900  1
