# generated using pymatgen
data_Ce3SiAgS7
_symmetry_space_group_name_H-M   'P 1'
_cell_length_a   10.32962418
_cell_length_b   10.32962418
_cell_length_c   5.77341100
_cell_angle_alpha   90.00000000
_cell_angle_beta   90.00000000
_cell_angle_gamma   120.00000113
_symmetry_Int_Tables_number   1
_chemical_formula_structural   Ce3SiAgS7
_chemical_formula_sum   'Ce6 Si2 Ag2 S14'
_cell_volume   533.49719923
_cell_formula_units_Z   2
loop_
 _symmetry_equiv_pos_site_id
 _symmetry_equiv_pos_as_xyz
  1  'x, y, z'
loop_
 _atom_site_type_symbol
 _atom_site_label
 _atom_site_symmetry_multiplicity
 _atom_site_fract_x
 _atom_site_fract_y
 _atom_site_fract_z
 _atom_site_occupancy
  Ce  Ce0  1  0.12400500  0.35905700  0.24780500  1
  Ce  Ce1  1  0.87599500  0.64094300  0.74780500  1
  Ce  Ce2  1  0.64094300  0.76494800  0.24780500  1
  Ce  Ce3  1  0.23505200  0.87599500  0.24780500  1
  Ce  Ce4  1  0.76494800  0.12400500  0.74780500  1
  Ce  Ce5  1  0.35905700  0.23505200  0.74780500  1
  Si  Si6  1  0.33333300  0.66666700  0.66072500  1
  Si  Si7  1  0.66666700  0.33333300  0.16072500  1
  Ag  Ag8  1  0.00000000  0.00000000  0.30836500  1
  Ag  Ag9  1  0.00000000  0.00000000  0.80836500  1
  S  S10  1  0.33333300  0.66666700  0.02769200  1
  S  S11  1  0.66666700  0.33333300  0.52769200  1
  S  S12  1  0.40969800  0.52500200  0.51646700  1
  S  S13  1  0.59030200  0.47499800  0.01646700  1
  S  S14  1  0.47499800  0.88469600  0.51646700  1
  S  S15  1  0.11530400  0.59030200  0.51646700  1
  S  S16  1  0.88469600  0.40969800  0.01646700  1
  S  S17  1  0.52500200  0.11530400  0.01646700  1
  S  S18  1  0.09074500  0.26693600  0.76227100  1
  S  S19  1  0.90925500  0.73306400  0.26227100  1
  S  S20  1  0.73306400  0.82380900  0.76227100  1
  S  S21  1  0.17619100  0.90925500  0.76227100  1
  S  S22  1  0.82380900  0.09074500  0.26227100  1
  S  S23  1  0.26693600  0.17619100  0.26227100  1
