# generated using pymatgen
data_Ca2SnS4
_symmetry_space_group_name_H-M   'P 1'
_cell_length_a   11.80361127
_cell_length_b   11.80361127
_cell_length_c   3.92899500
_cell_angle_alpha   90.00000000
_cell_angle_beta   90.00000000
_cell_angle_gamma   119.99999588
_symmetry_Int_Tables_number   1
_chemical_formula_structural   Ca2SnS4
_chemical_formula_sum   'Ca6 Sn3 S12'
_cell_volume   474.06939855
_cell_formula_units_Z   3
loop_
 _symmetry_equiv_pos_site_id
 _symmetry_equiv_pos_as_xyz
  1  'x, y, z'
loop_
 _atom_site_type_symbol
 _atom_site_label
 _atom_site_symmetry_multiplicity
 _atom_site_fract_x
 _atom_site_fract_y
 _atom_site_fract_z
 _atom_site_occupancy
  Ca  Ca0  1  0.00000000  0.00000000  0.00000000  1
  Ca  Ca1  1  0.33333300  0.66666700  0.50000000  1
  Ca  Ca2  1  0.66666700  0.33333300  0.50000000  1
  Ca  Ca3  1  0.00000000  0.29232300  0.50000000  1
  Ca  Ca4  1  0.70767700  0.70767700  0.50000000  1
  Ca  Ca5  1  0.29232300  0.00000000  0.50000000  1
  Sn  Sn6  1  0.00000000  0.66114400  0.00000000  1
  Sn  Sn7  1  0.33885600  0.33885600  0.00000000  1
  Sn  Sn8  1  0.66114400  0.00000000  0.00000000  1
  S  S9  1  0.00000000  0.82756400  0.50000000  1
  S  S10  1  0.17243600  0.17243600  0.50000000  1
  S  S11  1  0.82756400  0.00000000  0.50000000  1
  S  S12  1  0.00000000  0.52534500  0.50000000  1
  S  S13  1  0.47465500  0.47465500  0.50000000  1
  S  S14  1  0.52534500  0.00000000  0.50000000  1
  S  S15  1  0.75543900  0.55657100  0.00000000  1
  S  S16  1  0.44342900  0.19886800  0.00000000  1
  S  S17  1  0.80113200  0.24456100  0.00000000  1
  S  S18  1  0.24456100  0.80113200  0.00000000  1
  S  S19  1  0.55657100  0.75543900  0.00000000  1
  S  S20  1  0.19886800  0.44342900  0.00000000  1
