# generated using pymatgen
data_Cs2Sr2(CO3)3
_symmetry_space_group_name_H-M   'P 1'
_cell_length_a   8.81137027
_cell_length_b   8.81137027
_cell_length_c   8.81137027
_cell_angle_alpha   109.47122063
_cell_angle_beta   109.47122063
_cell_angle_gamma   109.47122063
_symmetry_Int_Tables_number   1
_chemical_formula_structural   Cs2Sr2(CO3)3
_chemical_formula_sum   'Cs4 Sr4 C6 O18'
_cell_volume   526.63347885
_cell_formula_units_Z   2
loop_
 _symmetry_equiv_pos_site_id
 _symmetry_equiv_pos_as_xyz
  1  'x, y, z'
loop_
 _atom_site_type_symbol
 _atom_site_label
 _atom_site_symmetry_multiplicity
 _atom_site_fract_x
 _atom_site_fract_y
 _atom_site_fract_z
 _atom_site_occupancy
  Cs  Cs0  1  0.88365700  0.88365700  0.88365700  1
  Cs  Cs1  1  0.50000000  0.00000000  0.61634300  1
  Cs  Cs2  1  0.61634300  0.50000000  0.00000000  1
  Cs  Cs3  1  0.00000000  0.61634300  0.50000000  1
  Sr  Sr4  1  0.40644600  0.40644600  0.40644600  1
  Sr  Sr5  1  0.50000000  0.00000000  0.09355400  1
  Sr  Sr6  1  0.09355400  0.50000000  0.00000000  1
  Sr  Sr7  1  0.00000000  0.09355400  0.50000000  1
  C  C8  1  0.58998200  0.75000000  0.33998200  1
  C  C9  1  0.91001800  0.25000000  0.16001800  1
  C  C10  1  0.33998200  0.58998200  0.75000000  1
  C  C11  1  0.75000000  0.33998200  0.58998200  1
  C  C12  1  0.25000000  0.16001800  0.91001800  1
  C  C13  1  0.16001800  0.91001800  0.25000000  1
  O  O14  1  0.41586700  0.64441400  0.28277400  1
  O  O15  1  0.86164000  0.13309300  0.21722600  1
  O  O16  1  0.08413300  0.36690700  0.22854700  1
  O  O17  1  0.63836000  0.85558600  0.27145300  1
  O  O18  1  0.28277400  0.41586700  0.64441400  1
  O  O19  1  0.64441400  0.28277400  0.41586700  1
  O  O20  1  0.27145300  0.63836000  0.85558600  1
  O  O21  1  0.13309300  0.21722600  0.86164000  1
  O  O22  1  0.21722600  0.86164000  0.13309300  1
  O  O23  1  0.36690700  0.22854700  0.08413300  1
  O  O24  1  0.22854700  0.08413300  0.36690700  1
  O  O25  1  0.85558600  0.27145300  0.63836000  1
  O  O26  1  0.71827900  0.75000000  0.46827900  1
  O  O27  1  0.78172100  0.25000000  0.03172100  1
  O  O28  1  0.46827900  0.71827900  0.75000000  1
  O  O29  1  0.75000000  0.46827900  0.71827900  1
  O  O30  1  0.25000000  0.03172100  0.78172100  1
  O  O31  1  0.03172100  0.78172100  0.25000000  1
