# generated using pymatgen
data_K2V2O5
_symmetry_space_group_name_H-M   'P 1'
_cell_length_a   8.47916632
_cell_length_b   8.47916632
_cell_length_c   8.47916632
_cell_angle_alpha   139.05460053
_cell_angle_beta   136.99815324
_cell_angle_gamma   60.87830794
_symmetry_Int_Tables_number   1
_chemical_formula_structural   K2V2O5
_chemical_formula_sum   'K4 V4 O10'
_cell_volume   269.51057499
_cell_formula_units_Z   2
loop_
 _symmetry_equiv_pos_site_id
 _symmetry_equiv_pos_as_xyz
  1  'x, y, z'
loop_
 _atom_site_type_symbol
 _atom_site_label
 _atom_site_symmetry_multiplicity
 _atom_site_fract_x
 _atom_site_fract_y
 _atom_site_fract_z
 _atom_site_occupancy
  K  K0  1  0.85685100  0.40016300  0.48823700  1
  K  K1  1  0.14314900  0.63138600  0.54331200  1
  K  K2  1  0.41192600  0.90016300  0.54331200  1
  K  K3  1  0.58807400  0.13138600  0.48823700  1
  V  V4  1  0.00000000  0.04252400  0.04252400  1
  V  V5  1  0.50000000  0.54252400  0.04252400  1
  V  V6  1  0.83225300  0.77477800  0.10703100  1
  V  V7  1  0.16774700  0.27477800  0.94252400  1
  O  O8  1  0.73723200  0.72610700  0.44509900  1
  O  O9  1  0.26276800  0.70786600  0.98887400  1
  O  O10  1  0.78100800  0.22610700  0.98887400  1
  O  O11  1  0.21899200  0.20786600  0.44509900  1
  O  O12  1  0.81699200  0.85182900  0.95062100  1
  O  O13  1  0.18300800  0.13362900  0.03483700  1
  O  O14  1  0.40120800  0.35182900  0.03483700  1
  O  O15  1  0.59879200  0.63362900  0.95062100  1
  O  O16  1  0.93884400  0.06771800  0.50656200  1
  O  O17  1  0.06115600  0.56771800  0.12887500  1
