# generated using pymatgen
data_CaSnS3
_symmetry_space_group_name_H-M   'P 1'
_cell_length_a   10.20858800
_cell_length_b   7.35966300
_cell_length_c   7.42323951
_cell_angle_alpha   80.65087032
_cell_angle_beta   90.00000000
_cell_angle_gamma   90.00000000
_symmetry_Int_Tables_number   1
_chemical_formula_structural   CaSnS3
_chemical_formula_sum   'Ca4 Sn4 S12'
_cell_volume   550.31277301
_cell_formula_units_Z   4
loop_
 _symmetry_equiv_pos_site_id
 _symmetry_equiv_pos_as_xyz
  1  'x, y, z'
loop_
 _atom_site_type_symbol
 _atom_site_label
 _atom_site_symmetry_multiplicity
 _atom_site_fract_x
 _atom_site_fract_y
 _atom_site_fract_z
 _atom_site_occupancy
  Ca  Ca0  1  0.40247300  0.75249900  0.90634900  1
  Ca  Ca1  1  0.90247300  0.74750100  0.09365100  1
  Ca  Ca2  1  0.59752700  0.24750100  0.09365100  1
  Ca  Ca3  1  0.09752700  0.25249900  0.90634900  1
  Sn  Sn4  1  0.80191800  0.00899600  0.65784500  1
  Sn  Sn5  1  0.30191800  0.49100400  0.34215500  1
  Sn  Sn6  1  0.19808200  0.99100400  0.34215500  1
  Sn  Sn7  1  0.69808200  0.50899600  0.65784500  1
  S  S8  1  0.27531400  0.19817500  0.54867100  1
  S  S9  1  0.77531400  0.30182500  0.45132900  1
  S  S10  1  0.72468600  0.80182500  0.45132900  1
  S  S11  1  0.22468600  0.69817500  0.54867100  1
  S  S12  1  0.01504800  0.93771600  0.77209400  1
  S  S13  1  0.51504800  0.56228400  0.22790600  1
  S  S14  1  0.98495200  0.06228400  0.22790600  1
  S  S15  1  0.48495200  0.43771600  0.77209400  1
  S  S16  1  0.66453300  0.93146700  0.92643000  1
  S  S17  1  0.16453300  0.56853300  0.07357000  1
  S  S18  1  0.33546700  0.06853300  0.07357000  1
  S  S19  1  0.83546700  0.43146700  0.92643000  1
