# generated using pymatgen
data_Ca3Sn2S7
_symmetry_space_group_name_H-M   'P 1'
_cell_length_a   12.50822258
_cell_length_b   12.50822258
_cell_length_c   6.92868200
_cell_angle_alpha   90.00000000
_cell_angle_beta   90.00000000
_cell_angle_gamma   147.34634093
_symmetry_Int_Tables_number   1
_chemical_formula_structural   Ca3Sn2S7
_chemical_formula_sum   'Ca6 Sn4 S14'
_cell_volume   584.89942849
_cell_formula_units_Z   2
loop_
 _symmetry_equiv_pos_site_id
 _symmetry_equiv_pos_as_xyz
  1  'x, y, z'
loop_
 _atom_site_type_symbol
 _atom_site_label
 _atom_site_symmetry_multiplicity
 _atom_site_fract_x
 _atom_site_fract_y
 _atom_site_fract_z
 _atom_site_occupancy
  Ca  Ca0  1  0.79114300  0.79114300  0.25000000  1
  Ca  Ca1  1  0.20885700  0.20885700  0.75000000  1
  Ca  Ca2  1  0.95936900  0.58443100  0.25000000  1
  Ca  Ca3  1  0.41556900  0.04063100  0.75000000  1
  Ca  Ca4  1  0.04063100  0.41556900  0.75000000  1
  Ca  Ca5  1  0.58443100  0.95936900  0.25000000  1
  Sn  Sn6  1  0.36013500  0.15337300  0.25000000  1
  Sn  Sn7  1  0.84662700  0.63986500  0.75000000  1
  Sn  Sn8  1  0.63986500  0.84662700  0.75000000  1
  Sn  Sn9  1  0.15337300  0.36013500  0.25000000  1
  S  S10  1  0.37931600  0.37931600  0.25000000  1
  S  S11  1  0.62068400  0.62068400  0.75000000  1
  S  S12  1  0.35752600  0.95005800  0.25000000  1
  S  S13  1  0.04994200  0.64247400  0.75000000  1
  S  S14  1  0.64247400  0.04994200  0.75000000  1
  S  S15  1  0.95005800  0.35752600  0.25000000  1
  S  S16  1  0.36308300  0.63691700  0.00000000  1
  S  S17  1  0.36308300  0.63691700  0.50000000  1
  S  S18  1  0.63691700  0.36308300  0.00000000  1
  S  S19  1  0.63691700  0.36308300  0.50000000  1
  S  S20  1  0.07322600  0.92677400  0.50000000  1
  S  S21  1  0.07322600  0.92677400  0.00000000  1
  S  S22  1  0.92677400  0.07322600  0.50000000  1
  S  S23  1  0.92677400  0.07322600  0.00000000  1
