data_image0
_chemical_formula_structural       Al4Cl16Li4O24S12
_chemical_formula_sum              "Al4 Cl16 Li4 O24 S12"
_cell_length_a       9.289
_cell_length_b       12.5356
_cell_length_c       9.63222
_cell_angle_alpha    90
_cell_angle_beta     90
_cell_angle_gamma    90

_space_group_name_H-M_alt    "P 1"
_space_group_IT_number       1

loop_
  _space_group_symop_operation_xyz
  'x, y, z'

loop_
  _atom_site_type_symbol
  _atom_site_label
  _atom_site_symmetry_multiplicity
  _atom_site_fract_x
  _atom_site_fract_y
  _atom_site_fract_z
  _atom_site_occupancy
  Al  Al1       1.0  0.76700  0.13200  0.25000  1.0000
  Al  Al2       1.0  0.73300  0.63200  0.75000  1.0000
  Al  Al3       1.0  0.26700  0.36800  0.25000  1.0000
  Al  Al4       1.0  0.23300  0.86800  0.75000  1.0000
  Cl  Cl1       1.0  0.88900  0.09050  0.43000  1.0000
  Cl  Cl2       1.0  0.61100  0.59100  0.57000  1.0000
  Cl  Cl3       1.0  0.38900  0.40900  0.07040  1.0000
  Cl  Cl4       1.0  0.11100  0.90900  0.93000  1.0000
  Cl  Cl5       1.0  0.11100  0.90900  0.57000  1.0000
  Cl  Cl6       1.0  0.38900  0.40900  0.43000  1.0000
  Cl  Cl7       1.0  0.61100  0.59100  0.93000  1.0000
  Cl  Cl8       1.0  0.88900  0.09050  0.07040  1.0000
  Cl  Cl9       1.0  0.22400  0.20000  0.25000  1.0000
  Cl  Cl10      1.0  0.27600  0.70000  0.75000  1.0000
  Cl  Cl11      1.0  0.72400  0.30000  0.25000  1.0000
  Cl  Cl12      1.0  0.77600  0.80000  0.75000  1.0000
  Cl  Cl13      1.0  0.56700  0.04360  0.25000  1.0000
  Cl  Cl14      1.0  0.93300  0.54400  0.75000  1.0000
  Cl  Cl15      1.0  0.06680  0.45600  0.25000  1.0000
  Cl  Cl16      1.0  0.43300  0.95600  0.75000  1.0000
  Li  Li1       1.0  0.13000  0.25900  0.75000  1.0000
  Li  Li2       1.0  0.37000  0.75900  0.25000  1.0000
  Li  Li3       1.0  0.63000  0.24100  0.75000  1.0000
  Li  Li4       1.0  0.87000  0.74100  0.25000  1.0000
  O   O1        1.0  0.98600  0.13800  0.75000  1.0000
  O   O2        1.0  0.51400  0.63800  0.25000  1.0000
  O   O3        1.0  0.48600  0.36200  0.75000  1.0000
  O   O4        1.0  0.01400  0.86200  0.25000  1.0000
  O   O5        1.0  0.25500  0.17900  0.60400  1.0000
  O   O6        1.0  0.24500  0.67900  0.39600  1.0000
  O   O7        1.0  0.75500  0.32100  0.89600  1.0000
  O   O8        1.0  0.74500  0.82100  0.10400  1.0000
  O   O9        1.0  0.74500  0.82100  0.39600  1.0000
  O   O10       1.0  0.75500  0.32100  0.60400  1.0000
  O   O11       1.0  0.24500  0.67900  0.10400  1.0000
  O   O12       1.0  0.25500  0.17900  0.89600  1.0000
  O   O13       1.0  0.51800  0.17300  0.56600  1.0000
  O   O14       1.0  0.98200  0.67300  0.43400  1.0000
  O   O15       1.0  0.01750  0.32700  0.93400  1.0000
  O   O16       1.0  0.48200  0.82700  0.06570  1.0000
  O   O17       1.0  0.48200  0.82700  0.43400  1.0000
  O   O18       1.0  0.01750  0.32700  0.56600  1.0000
  O   O19       1.0  0.98200  0.67300  0.06570  1.0000
  O   O20       1.0  0.51800  0.17300  0.93400  1.0000
  O   O21       1.0  0.72800  0.09390  0.75000  1.0000
  O   O22       1.0  0.77200  0.59400  0.25000  1.0000
  O   O23       1.0  0.22800  0.40600  0.75000  1.0000
  O   O24       1.0  0.27200  0.90600  0.25000  1.0000
  S   S1        1.0  0.37600  0.13100  0.53300  1.0000
  S   S2        1.0  0.12400  0.63100  0.46700  1.0000
  S   S3        1.0  0.87600  0.36900  0.96700  1.0000
  S   S4        1.0  0.62400  0.86900  0.03250  1.0000
  S   S5        1.0  0.62400  0.86900  0.46700  1.0000
  S   S6        1.0  0.87600  0.36900  0.53300  1.0000
  S   S7        1.0  0.12400  0.63100  0.03250  1.0000
  S   S8        1.0  0.37600  0.13100  0.96700  1.0000
  S   S9        1.0  0.87600  0.05660  0.75000  1.0000
  S   S10       1.0  0.62400  0.55700  0.25000  1.0000
  S   S11       1.0  0.37600  0.44300  0.75000  1.0000
  S   S12       1.0  0.12400  0.94300  0.25000  1.0000
