# generated using pymatgen
data_SrCaTiMnO5
_symmetry_space_group_name_H-M   'P 1'
_cell_length_a   11.12430154
_cell_length_b   11.35226009
_cell_length_c   17.51480358
_cell_angle_alpha   108.92019824
_cell_angle_beta   108.63750821
_cell_angle_gamma   90.00655194
_symmetry_Int_Tables_number   1
_chemical_formula_structural   SrCaTiMnO5
_chemical_formula_sum   'Sr16 Ca16 Ti16 Mn16 O80'
_cell_volume   1969.32118660
_cell_formula_units_Z   16
loop_
 _symmetry_equiv_pos_site_id
 _symmetry_equiv_pos_as_xyz
  1  'x, y, z'
loop_
 _atom_site_type_symbol
 _atom_site_label
 _atom_site_symmetry_multiplicity
 _atom_site_fract_x
 _atom_site_fract_y
 _atom_site_fract_z
 _atom_site_occupancy
  Sr  Sr0  1  0.30757700  0.56335200  0.61499000  1
  Sr  Sr1  1  0.80623800  0.06224700  0.61185900  1
  Sr  Sr2  1  0.80860300  0.56336000  0.61481200  1
  Sr  Sr3  1  0.19112100  0.43440000  0.38284100  1
  Sr  Sr4  1  0.19483000  0.43875000  0.88969000  1
  Sr  Sr5  1  0.69132800  0.43418900  0.38259000  1
  Sr  Sr6  1  0.69152400  0.93269600  0.38269500  1
  Sr  Sr7  1  0.69603100  0.93666900  0.88951900  1
  Sr  Sr8  1  0.05868400  0.29813300  0.61303800  1
  Sr  Sr9  1  0.05872200  0.80188000  0.61401200  1
  Sr  Sr10  1  0.55768100  0.30000100  0.61404300  1
  Sr  Sr11  1  0.55739300  0.80007500  0.61313600  1
  Sr  Sr12  1  0.44112600  0.19832200  0.38271400  1
  Sr  Sr13  1  0.44432900  0.19976100  0.88664300  1
  Sr  Sr14  1  0.94176300  0.19828700  0.38268400  1
  Sr  Sr15  1  0.94373800  0.20074400  0.88831900  1
  Ca  Ca16  1  0.30183400  0.06839500  0.11053500  1
  Ca  Ca17  1  0.30299400  0.06504300  0.60882400  1
  Ca  Ca18  1  0.30080500  0.56837400  0.11399700  1
  Ca  Ca19  1  0.80026700  0.06783500  0.11019600  1
  Ca  Ca20  1  0.80183400  0.56866800  0.11404200  1
  Ca  Ca21  1  0.19137200  0.92945000  0.38560900  1
  Ca  Ca22  1  0.19382400  0.93442200  0.89249300  1
  Ca  Ca23  1  0.69298200  0.43608700  0.89280800  1
  Ca  Ca24  1  0.05089200  0.29242000  0.11067500  1
  Ca  Ca25  1  0.05165300  0.79440800  0.11281200  1
  Ca  Ca26  1  0.55010700  0.29196100  0.10934200  1
  Ca  Ca27  1  0.55062600  0.79354800  0.11014000  1
  Ca  Ca28  1  0.43765500  0.70545200  0.38560400  1
  Ca  Ca29  1  0.44065200  0.70735700  0.89137100  1
  Ca  Ca30  1  0.93954300  0.70477700  0.38594100  1
  Ca  Ca31  1  0.94298600  0.70704800  0.89281800  1
  Ti  Ti32  1  0.00382900  0.00060000  0.00439900  1
  Ti  Ti33  1  0.00197200  0.99760200  0.49791600  1
  Ti  Ti34  1  0.99989000  0.50259000  0.00284000  1
  Ti  Ti35  1  0.99798700  0.50014200  0.49756800  1
  Ti  Ti36  1  0.50072200  0.00041500  0.00303400  1
  Ti  Ti37  1  0.49689200  0.99833000  0.49805200  1
  Ti  Ti38  1  0.50232700  0.50265300  0.00287600  1
  Ti  Ti39  1  0.49820300  0.49960100  0.49754500  1
  Ti  Ti40  1  0.25132100  0.25135600  0.00322000  1
  Ti  Ti41  1  0.24876800  0.24734100  0.49719800  1
  Ti  Ti42  1  0.25182200  0.75207700  0.00355800  1
  Ti  Ti43  1  0.24917900  0.74989700  0.49814400  1
  Ti  Ti44  1  0.75181500  0.25432700  0.00470800  1
  Ti  Ti45  1  0.74844400  0.24955400  0.49839300  1
  Ti  Ti46  1  0.75169400  0.74889200  0.00201000  1
  Ti  Ti47  1  0.74849600  0.74741700  0.49688300  1
  Mn  Mn48  1  0.10639500  0.08765200  0.24585000  1
  Mn  Mn49  1  0.11792700  0.09361400  0.75328200  1
  Mn  Mn50  1  0.10568900  0.59734900  0.24691700  1
  Mn  Mn51  1  0.11273900  0.60225500  0.75449300  1
  Mn  Mn52  1  0.60520200  0.08908100  0.24380000  1
  Mn  Mn53  1  0.60818500  0.09965900  0.75058300  1
  Mn  Mn54  1  0.60521200  0.59368300  0.24561000  1
  Mn  Mn55  1  0.61359900  0.59607900  0.75586100  1
  Mn  Mn56  1  0.35543300  0.40825100  0.24574500  1
  Mn  Mn57  1  0.36637200  0.40750800  0.75334300  1
  Mn  Mn58  1  0.35285300  0.89957000  0.24608900  1
  Mn  Mn59  1  0.35996500  0.90413800  0.75181800  1
  Mn  Mn60  1  0.85563900  0.40845800  0.24614000  1
  Mn  Mn61  1  0.86014000  0.41041100  0.75588800  1
  Mn  Mn62  1  0.85945300  0.89949100  0.24449900  1
  Mn  Mn63  1  0.86691800  0.90261400  0.75259500  1
  O  O64  1  0.12790500  0.11752500  0.48708400  1
  O  O65  1  0.13128400  0.12062000  0.98965000  1
  O  O66  1  0.12259000  0.62351000  0.48546200  1
  O  O67  1  0.12643500  0.62609400  0.98829800  1
  O  O68  1  0.62551200  0.12207100  0.48887700  1
  O  O69  1  0.62936100  0.12552400  0.99114900  1
  O  O70  1  0.62423100  0.62148300  0.48744500  1
  O  O71  1  0.62927000  0.62069200  0.98664100  1
  O  O72  1  0.14319400  0.38039000  0.01955100  1
  O  O73  1  0.13547000  0.37554400  0.50793100  1
  O  O74  1  0.14516500  0.88216700  0.01843200  1
  O  O75  1  0.13938900  0.87889300  0.50729300  1
  O  O76  1  0.64475000  0.38379600  0.02000500  1
  O  O77  1  0.63483200  0.37665800  0.50652700  1
  O  O78  1  0.64271900  0.87807900  0.01705800  1
  O  O79  1  0.63397400  0.87337200  0.50487200  1
  O  O80  1  0.37302800  0.11357300  0.48657100  1
  O  O81  1  0.37696200  0.11330800  0.98878200  1
  O  O82  1  0.37708500  0.61916100  0.48758700  1
  O  O83  1  0.38146600  0.61946600  0.98810800  1
  O  O84  1  0.87861500  0.11709000  0.49089400  1
  O  O85  1  0.88051300  0.11681900  0.99106200  1
  O  O86  1  0.87694100  0.61774100  0.48776700  1
  O  O87  1  0.87794300  0.61465900  0.98678200  1
  O  O88  1  0.39275700  0.38861900  0.01739700  1
  O  O89  1  0.38463800  0.38095400  0.50760800  1
  O  O90  1  0.39439700  0.88768600  0.01940100  1
  O  O91  1  0.38549100  0.88360400  0.51014300  1
  O  O92  1  0.89176500  0.38885000  0.01841300  1
  O  O93  1  0.88423300  0.38134400  0.50670500  1
  O  O94  1  0.89563300  0.88643800  0.01875500  1
  O  O95  1  0.88765900  0.87946600  0.50639900  1
  O  O96  1  0.08911800  0.09544100  0.12677900  1
  O  O97  1  0.08494900  0.07938600  0.62509700  1
  O  O98  1  0.08504500  0.59871100  0.12560200  1
  O  O99  1  0.07341100  0.58446100  0.62457800  1
  O  O100  1  0.58658600  0.09637300  0.12512700  1
  O  O101  1  0.57617900  0.08299000  0.62337600  1
  O  O102  1  0.58548300  0.59882000  0.12548100  1
  O  O103  1  0.57416700  0.58127900  0.62592700  1
  O  O104  1  0.44550300  0.41441000  0.37183900  1
  O  O105  1  0.46082500  0.41132600  0.87801000  1
  O  O106  1  0.44714900  0.90867600  0.37224400  1
  O  O107  1  0.45689800  0.90890200  0.87760600  1
  O  O108  1  0.94694300  0.41411000  0.37168400  1
  O  O109  1  0.95714100  0.41145800  0.87863100  1
  O  O110  1  0.95372100  0.90934300  0.37193300  1
  O  O111  1  0.96006100  0.90734600  0.87856600  1
  O  O112  1  0.33844300  0.28106800  0.12638200  1
  O  O113  1  0.32584900  0.28577000  0.62491200  1
  O  O114  1  0.33416000  0.77651700  0.12564800  1
  O  O115  1  0.32213600  0.78773700  0.62448300  1
  O  O116  1  0.83778700  0.28163400  0.12681300  1
  O  O117  1  0.82377600  0.29589600  0.62648300  1
  O  O118  1  0.83811500  0.77512500  0.12423300  1
  O  O119  1  0.82510200  0.79010700  0.62359200  1
  O  O120  1  0.19684400  0.20709000  0.37186600  1
  O  O121  1  0.20531700  0.21613200  0.87831800  1
  O  O122  1  0.20652100  0.71380900  0.37251100  1
  O  O123  1  0.21294300  0.72218800  0.87879400  1
  O  O124  1  0.69712400  0.20360100  0.37194200  1
  O  O125  1  0.70006600  0.22039400  0.87780400  1
  O  O126  1  0.70702300  0.70464900  0.37169100  1
  O  O127  1  0.71565200  0.71620700  0.87809000  1
  O  O128  1  0.41705600  0.06715400  0.24004600  1
  O  O129  1  0.41829700  0.07175400  0.74226100  1
  O  O130  1  0.41854200  0.58370400  0.24938800  1
  O  O131  1  0.42980800  0.58415300  0.75996500  1
  O  O132  1  0.91769100  0.06961100  0.23937400  1
  O  O133  1  0.93300600  0.07078400  0.75040500  1
  O  O134  1  0.91862700  0.58381700  0.24966700  1
  O  O135  1  0.92921700  0.58376100  0.76067900  1
  O  O136  1  0.16633700  0.42196900  0.23985400  1
  O  O137  1  0.18144900  0.43230700  0.75164100  1
  O  O138  1  0.16625900  0.91498600  0.24874400  1
  O  O139  1  0.17919300  0.92395900  0.76051200  1
  O  O140  1  0.66568600  0.41892900  0.23897600  1
  O  O141  1  0.67566500  0.42483000  0.75980500  1
  O  O142  1  0.67110200  0.91760600  0.24009000  1
  O  O143  1  0.68303100  0.93380300  0.75225200  1
