# generated using pymatgen
data_CrH18C5(NO)4
_symmetry_space_group_name_H-M   'P 1'
_cell_length_a   10.90888200
_cell_length_b   10.90888200
_cell_length_c   10.90888200
_cell_angle_alpha   90.00000000
_cell_angle_beta   90.00000000
_cell_angle_gamma   90.00000000
_symmetry_Int_Tables_number   1
_chemical_formula_structural   CrH18C5(NO)4
_chemical_formula_sum   'Cr4 H72 C20 N16 O16'
_cell_volume   1298.19739166
_cell_formula_units_Z   4
loop_
 _symmetry_equiv_pos_site_id
 _symmetry_equiv_pos_as_xyz
  1  'x, y, z'
loop_
 _atom_site_type_symbol
 _atom_site_label
 _atom_site_symmetry_multiplicity
 _atom_site_fract_x
 _atom_site_fract_y
 _atom_site_fract_z
 _atom_site_occupancy
  Cr  Cr0  1  0.50283400  0.50283400  0.50283400  1
  Cr  Cr1  1  0.49716600  0.00283400  0.99716600  1
  Cr  Cr2  1  0.00283400  0.99716600  0.49716600  1
  Cr  Cr3  1  0.99716600  0.49716600  0.00283400  1
  H  H4  1  0.33780000  0.73536900  0.50104000  1
  H  H5  1  0.49896000  0.83780000  0.76463100  1
  H  H6  1  0.23536900  0.99896000  0.66220000  1
  H  H7  1  0.83780000  0.76463100  0.49896000  1
  H  H8  1  0.99896000  0.66220000  0.23536900  1
  H  H9  1  0.73536900  0.50104000  0.33780000  1
  H  H10  1  0.66220000  0.23536900  0.99896000  1
  H  H11  1  0.50104000  0.33780000  0.73536900  1
  H  H12  1  0.76463100  0.49896000  0.83780000  1
  H  H13  1  0.16220000  0.26463100  0.00104000  1
  H  H14  1  0.00104000  0.16220000  0.26463100  1
  H  H15  1  0.26463100  0.00104000  0.16220000  1
  H  H16  1  0.22965800  0.85631400  0.50041300  1
  H  H17  1  0.49958700  0.72965800  0.64368600  1
  H  H18  1  0.35631400  0.99958700  0.77034200  1
  H  H19  1  0.72965800  0.64368600  0.49958700  1
  H  H20  1  0.99958700  0.77034200  0.35631400  1
  H  H21  1  0.85631400  0.50041300  0.22965800  1
  H  H22  1  0.77034200  0.35631400  0.99958700  1
  H  H23  1  0.50041300  0.22965800  0.85631400  1
  H  H24  1  0.64368600  0.49958700  0.72965800  1
  H  H25  1  0.27034200  0.14368600  0.00041300  1
  H  H26  1  0.00041300  0.27034200  0.14368600  1
  H  H27  1  0.14368600  0.00041300  0.27034200  1
  H  H28  1  0.11302300  0.29110600  0.43973700  1
  H  H29  1  0.56026300  0.61302300  0.20889400  1
  H  H30  1  0.79110600  0.06026300  0.88697700  1
  H  H31  1  0.61302300  0.20889400  0.56026300  1
  H  H32  1  0.06026300  0.88697700  0.79110600  1
  H  H33  1  0.29110600  0.43973700  0.11302300  1
  H  H34  1  0.88697700  0.79110600  0.06026300  1
  H  H35  1  0.43973700  0.11302300  0.29110600  1
  H  H36  1  0.20889400  0.56026300  0.61302300  1
  H  H37  1  0.38697700  0.70889400  0.93973700  1
  H  H38  1  0.93973700  0.38697700  0.70889400  1
  H  H39  1  0.70889400  0.93973700  0.38697700  1
  H  H40  1  0.22147800  0.41848800  0.44904100  1
  H  H41  1  0.55095900  0.72147800  0.08151200  1
  H  H42  1  0.91848800  0.05095900  0.77852200  1
  H  H43  1  0.72147800  0.08151200  0.55095900  1
  H  H44  1  0.05095900  0.77852200  0.91848800  1
  H  H45  1  0.41848800  0.44904100  0.22147800  1
  H  H46  1  0.77852200  0.91848800  0.05095900  1
  H  H47  1  0.44904100  0.22147800  0.41848800  1
  H  H48  1  0.08151200  0.55095900  0.72147800  1
  H  H49  1  0.27852200  0.58151200  0.94904100  1
  H  H50  1  0.94904100  0.27852200  0.58151200  1
  H  H51  1  0.58151200  0.94904100  0.27852200  1
  H  H52  1  0.06481000  0.44415600  0.40414500  1
  H  H53  1  0.59585500  0.56481000  0.05584400  1
  H  H54  1  0.94415600  0.09585500  0.93519000  1
  H  H55  1  0.56481000  0.05584400  0.59585500  1
  H  H56  1  0.09585500  0.93519000  0.94415600  1
  H  H57  1  0.44415600  0.40414500  0.06481000  1
  H  H58  1  0.93519000  0.94415600  0.09585500  1
  H  H59  1  0.40414500  0.06481000  0.44415600  1
  H  H60  1  0.05584400  0.59585500  0.56481000  1
  H  H61  1  0.43519000  0.55584400  0.90414500  1
  H  H62  1  0.90414500  0.43519000  0.55584400  1
  H  H63  1  0.55584400  0.90414500  0.43519000  1
  H  H64  1  0.26771400  0.35407300  0.65520300  1
  H  H65  1  0.34479700  0.76771400  0.14592700  1
  H  H66  1  0.85407300  0.84479700  0.73228600  1
  H  H67  1  0.76771400  0.14592700  0.34479700  1
  H  H68  1  0.84479700  0.73228600  0.85407300  1
  H  H69  1  0.35407300  0.65520300  0.26771400  1
  H  H70  1  0.73228600  0.85407300  0.84479700  1
  H  H71  1  0.65520300  0.26771400  0.35407300  1
  H  H72  1  0.14592700  0.34479700  0.76771400  1
  H  H73  1  0.23228600  0.64592700  0.15520300  1
  H  H74  1  0.15520300  0.23228600  0.64592700  1
  H  H75  1  0.64592700  0.15520300  0.23228600  1
  C  C76  1  0.12625200  0.38843600  0.46077500  1
  C  C77  1  0.53922500  0.62625200  0.11156400  1
  C  C78  1  0.88843600  0.03922500  0.87374800  1
  C  C79  1  0.62625200  0.11156400  0.53922500  1
  C  C80  1  0.03922500  0.87374800  0.88843600  1
  C  C81  1  0.38843600  0.46077500  0.12625200  1
  C  C82  1  0.87374800  0.88843600  0.03922500  1
  C  C83  1  0.46077500  0.12625200  0.38843600  1
  C  C84  1  0.11156400  0.53922500  0.62625200  1
  C  C85  1  0.37374800  0.61156400  0.96077500  1
  C  C86  1  0.96077500  0.37374800  0.61156400  1
  C  C87  1  0.61156400  0.96077500  0.37374800  1
  C  C88  1  0.17191200  0.32808800  0.67191200  1
  C  C89  1  0.32808800  0.67191200  0.17191200  1
  C  C90  1  0.82808800  0.82808800  0.82808800  1
  C  C91  1  0.67191200  0.17191200  0.32808800  1
  C  C92  1  0.36298600  0.86298600  0.63701400  1
  C  C93  1  0.86298600  0.63701400  0.36298600  1
  C  C94  1  0.63701400  0.36298600  0.86298600  1
  C  C95  1  0.13701400  0.13701400  0.13701400  1
  N  N96  1  0.09242600  0.40757400  0.59242600  1
  N  N97  1  0.40757400  0.59242600  0.09242600  1
  N  N98  1  0.90757400  0.90757400  0.90757400  1
  N  N99  1  0.59242600  0.09242600  0.40757400  1
  N  N100  1  0.30904300  0.81877600  0.53575500  1
  N  N101  1  0.46424500  0.80904300  0.68122400  1
  N  N102  1  0.31877600  0.96424500  0.69095700  1
  N  N103  1  0.80904300  0.68122400  0.46424500  1
  N  N104  1  0.96424500  0.69095700  0.31877600  1
  N  N105  1  0.81877600  0.53575500  0.30904300  1
  N  N106  1  0.69095700  0.31877600  0.96424500  1
  N  N107  1  0.53575500  0.30904300  0.81877600  1
  N  N108  1  0.68122400  0.46424500  0.80904300  1
  N  N109  1  0.19095700  0.18122400  0.03575500  1
  N  N110  1  0.03575500  0.19095700  0.18122400  1
  N  N111  1  0.18122400  0.03575500  0.19095700  1
  O  O112  1  0.59187500  0.59187500  0.59187500  1
  O  O113  1  0.40812500  0.09187500  0.90812500  1
  O  O114  1  0.09187500  0.90812500  0.40812500  1
  O  O115  1  0.90812500  0.40812500  0.09187500  1
  O  O116  1  0.37887000  0.58157700  0.46110500  1
  O  O117  1  0.53889500  0.87887000  0.91842300  1
  O  O118  1  0.08157700  0.03889500  0.62113000  1
  O  O119  1  0.87887000  0.91842300  0.53889500  1
  O  O120  1  0.03889500  0.62113000  0.08157700  1
  O  O121  1  0.58157700  0.46110500  0.37887000  1
  O  O122  1  0.62113000  0.08157700  0.03889500  1
  O  O123  1  0.46110500  0.37887000  0.58157700  1
  O  O124  1  0.91842300  0.53889500  0.87887000  1
  O  O125  1  0.12113000  0.41842300  0.96110500  1
  O  O126  1  0.96110500  0.12113000  0.41842300  1
  O  O127  1  0.41842300  0.96110500  0.12113000  1
