# generated using pymatgen
data_KNa3V2(MoO6)2
_symmetry_space_group_name_H-M   'P 1'
_cell_length_a   7.79587799
_cell_length_b   7.79587799
_cell_length_c   7.84744200
_cell_angle_alpha   90.00000000
_cell_angle_beta   90.00000000
_cell_angle_gamma   90.10225380
_symmetry_Int_Tables_number   1
_chemical_formula_structural   KNa3V2(MoO6)2
_chemical_formula_sum   'K2 Na6 V4 Mo4 O24'
_cell_volume   476.93312869
_cell_formula_units_Z   2
loop_
 _symmetry_equiv_pos_site_id
 _symmetry_equiv_pos_as_xyz
  1  'x, y, z'
loop_
 _atom_site_type_symbol
 _atom_site_label
 _atom_site_symmetry_multiplicity
 _atom_site_fract_x
 _atom_site_fract_y
 _atom_site_fract_z
 _atom_site_occupancy
  K  K0  1  0.25431900  0.25431900  0.25662800  1
  K  K1  1  0.74568100  0.74568100  0.25662800  1
  Na  Na2  1  0.73732600  0.26267400  0.26858600  1
  Na  Na3  1  0.73763200  0.26236800  0.73116900  1
  Na  Na4  1  0.26247100  0.26247100  0.73118600  1
  Na  Na5  1  0.73752900  0.73752900  0.73118600  1
  Na  Na6  1  0.26267400  0.73732600  0.26858600  1
  Na  Na7  1  0.26236800  0.73763200  0.73116900  1
  V  V8  1  0.50000000  0.00000000  0.50213800  1
  V  V9  1  0.00000000  0.50000000  0.50213800  1
  V  V10  1  0.50000000  0.50000000  0.97730100  1
  V  V11  1  0.50000000  0.50000000  0.48469200  1
  Mo  Mo12  1  0.00000000  0.00000000  0.99998700  1
  Mo  Mo13  1  0.00000000  0.00000000  0.50342500  1
  Mo  Mo14  1  0.50000000  0.00000000  0.99905600  1
  Mo  Mo15  1  0.00000000  0.50000000  0.99905600  1
  O  O16  1  0.99973800  0.24627400  0.99829700  1
  O  O17  1  0.99925900  0.24426500  0.50363800  1
  O  O18  1  0.50191400  0.24797600  0.99950700  1
  O  O19  1  0.50276300  0.24017400  0.50731500  1
  O  O20  1  0.00026200  0.75372600  0.99829700  1
  O  O21  1  0.00074100  0.75573500  0.50363800  1
  O  O22  1  0.49808600  0.75202400  0.99950700  1
  O  O23  1  0.49723700  0.75982600  0.50731500  1
  O  O24  1  0.75372600  0.00026200  0.99829700  1
  O  O25  1  0.75573500  0.00074100  0.50363800  1
  O  O26  1  0.24627400  0.99973800  0.99829700  1
  O  O27  1  0.24426500  0.99925900  0.50363800  1
  O  O28  1  0.75202400  0.49808600  0.99950700  1
  O  O29  1  0.75982600  0.49723700  0.50731500  1
  O  O30  1  0.24797600  0.50191400  0.99950700  1
  O  O31  1  0.24017400  0.50276300  0.50731500  1
  O  O32  1  0.00000000  0.00000000  0.24583500  1
  O  O33  1  0.00000000  0.00000000  0.75567700  1
  O  O34  1  0.50000000  0.00000000  0.24320200  1
  O  O35  1  0.50000000  0.00000000  0.75823500  1
  O  O36  1  0.00000000  0.50000000  0.24320200  1
  O  O37  1  0.00000000  0.50000000  0.75823500  1
  O  O38  1  0.50000000  0.50000000  0.26266100  1
  O  O39  1  0.50000000  0.50000000  0.75499200  1
