# generated using pymatgen
data_Y(Bi5O8)3
_symmetry_space_group_name_H-M   'P 1'
_cell_length_a   7.76817400
_cell_length_b   7.93483300
_cell_length_c   11.36640858
_cell_angle_alpha   89.11314692
_cell_angle_beta   90.00000000
_cell_angle_gamma   90.00000000
_symmetry_Int_Tables_number   1
_chemical_formula_structural   Y(Bi5O8)3
_chemical_formula_sum   'Y1 Bi15 O24'
_cell_volume   700.53198914
_cell_formula_units_Z   1
loop_
 _symmetry_equiv_pos_site_id
 _symmetry_equiv_pos_as_xyz
  1  'x, y, z'
loop_
 _atom_site_type_symbol
 _atom_site_label
 _atom_site_symmetry_multiplicity
 _atom_site_fract_x
 _atom_site_fract_y
 _atom_site_fract_z
 _atom_site_occupancy
  Y  Y0  1  0.00000000  0.71084500  0.88557900  1
  Bi  Bi1  1  0.00000000  0.24608900  0.87469700  1
  Bi  Bi2  1  0.00000000  0.73973700  0.38009200  1
  Bi  Bi3  1  0.00000000  0.25924600  0.38024900  1
  Bi  Bi4  1  0.75634400  0.49360400  0.62918800  1
  Bi  Bi5  1  0.75458700  0.50415400  0.12749700  1
  Bi  Bi6  1  0.74824500  0.98924000  0.62405500  1
  Bi  Bi7  1  0.74577300  0.00467900  0.12082400  1
  Bi  Bi8  1  0.50000000  0.76883500  0.86518000  1
  Bi  Bi9  1  0.50000000  0.76203500  0.37129700  1
  Bi  Bi10  1  0.50000000  0.24300200  0.36955900  1
  Bi  Bi11  1  0.50000000  0.24497800  0.86943900  1
  Bi  Bi12  1  0.25175500  0.98924000  0.62405500  1
  Bi  Bi13  1  0.25422700  0.00467900  0.12082400  1
  Bi  Bi14  1  0.24365600  0.49360400  0.62918800  1
  Bi  Bi15  1  0.24541300  0.50415400  0.12749700  1
  O  O16  1  0.00000000  0.48336300  0.78737500  1
  O  O17  1  0.00000000  0.50118400  0.54167200  1
  O  O18  1  0.00000000  0.50137600  0.29214400  1
  O  O19  1  0.00000000  0.50409200  0.04342200  1
  O  O20  1  0.79646500  0.80478400  0.76151500  1
  O  O21  1  0.79370900  0.79834300  0.25009100  1
  O  O22  1  0.79145700  0.19679400  0.74933300  1
  O  O23  1  0.79559000  0.20501300  0.24950100  1
  O  O24  1  0.72387200  0.71144000  0.99554500  1
  O  O25  1  0.70483300  0.70628600  0.50381700  1
  O  O26  1  0.70370500  0.30327800  0.99879400  1
  O  O27  1  0.70498200  0.30193400  0.49815800  1
  O  O28  1  0.50000000  0.00119100  0.45560900  1
  O  O29  1  0.50000000  0.00296100  0.95696800  1
  O  O30  1  0.50000000  0.99136400  0.70572300  1
  O  O31  1  0.50000000  0.00059900  0.20436000  1
  O  O32  1  0.27612800  0.71144000  0.99554500  1
  O  O33  1  0.29516700  0.70628600  0.50381700  1
  O  O34  1  0.29629500  0.30327800  0.99879400  1
  O  O35  1  0.29501800  0.30193400  0.49815800  1
  O  O36  1  0.20353500  0.80478400  0.76151500  1
  O  O37  1  0.20854300  0.19679400  0.74933300  1
  O  O38  1  0.20629100  0.79834300  0.25009100  1
  O  O39  1  0.20441000  0.20501300  0.24950100  1
