# generated using pymatgen
data_Li4Nb3Fe3(SbO8)2
_symmetry_space_group_name_H-M   'P 1'
_cell_length_a   6.17775743
_cell_length_b   6.17775743
_cell_length_c   10.55421744
_cell_angle_alpha   89.25099637
_cell_angle_beta   89.25099637
_cell_angle_gamma   59.41833422
_symmetry_Int_Tables_number   1
_chemical_formula_structural   Li4Nb3Fe3(SbO8)2
_chemical_formula_sum   'Li4 Nb3 Fe3 Sb2 O16'
_cell_volume   346.73183030
_cell_formula_units_Z   1
loop_
 _symmetry_equiv_pos_site_id
 _symmetry_equiv_pos_as_xyz
  1  'x, y, z'
loop_
 _atom_site_type_symbol
 _atom_site_label
 _atom_site_symmetry_multiplicity
 _atom_site_fract_x
 _atom_site_fract_y
 _atom_site_fract_z
 _atom_site_occupancy
  Li  Li0  1  0.66911500  0.66911500  0.09846000  1
  Li  Li1  1  0.00113400  0.00113400  0.99741900  1
  Li  Li2  1  0.00251600  0.00251600  0.51143200  1
  Li  Li3  1  0.33642500  0.33642500  0.61097100  1
  Nb  Nb4  1  0.82681200  0.82681200  0.76970200  1
  Nb  Nb5  1  0.65975300  0.16275800  0.28070100  1
  Nb  Nb6  1  0.16275800  0.65975300  0.28070100  1
  Fe  Fe7  1  0.81717200  0.34561900  0.78730500  1
  Fe  Fe8  1  0.34561900  0.81717200  0.78730500  1
  Fe  Fe9  1  0.16764400  0.16764400  0.29236200  1
  Sb  Sb10  1  0.64558400  0.64558400  0.50688500  1
  Sb  Sb11  1  0.32415100  0.32415100  0.98041700  1
  O  O12  1  0.83485700  0.30540200  0.40177100  1
  O  O13  1  0.51818600  0.51818600  0.65734900  1
  O  O14  1  0.67969600  0.67969600  0.89498300  1
  O  O15  1  0.99567100  0.99567100  0.69069000  1
  O  O16  1  0.99765000  0.99765000  0.18123800  1
  O  O17  1  0.30540200  0.83485700  0.40177100  1
  O  O18  1  0.98031800  0.52015700  0.67304800  1
  O  O19  1  0.52015700  0.98031800  0.67304800  1
  O  O20  1  0.15676000  0.15676000  0.89098400  1
  O  O21  1  0.85601200  0.85601200  0.39299100  1
  O  O22  1  0.50490100  0.01651900  0.18436500  1
  O  O23  1  0.01651900  0.50490100  0.18436500  1
  O  O24  1  0.34462500  0.34462500  0.39467400  1
  O  O25  1  0.67803200  0.16062600  0.89304100  1
  O  O26  1  0.49287100  0.49287100  0.18131900  1
  O  O27  1  0.16062600  0.67803200  0.89304100  1
