# generated using pymatgen
data_La6Sm2Cr5(FeO8)3
_symmetry_space_group_name_H-M   'P 1'
_cell_length_a   7.84163300
_cell_length_b   7.84195500
_cell_length_c   7.84336313
_cell_angle_alpha   89.98958307
_cell_angle_beta   90.00000000
_cell_angle_gamma   90.00000000
_symmetry_Int_Tables_number   1
_chemical_formula_structural   La6Sm2Cr5(FeO8)3
_chemical_formula_sum   'La6 Sm2 Cr5 Fe3 O24'
_cell_volume   482.31767103
_cell_formula_units_Z   1
loop_
 _symmetry_equiv_pos_site_id
 _symmetry_equiv_pos_as_xyz
  1  'x, y, z'
loop_
 _atom_site_type_symbol
 _atom_site_label
 _atom_site_symmetry_multiplicity
 _atom_site_fract_x
 _atom_site_fract_y
 _atom_site_fract_z
 _atom_site_occupancy
  La  La0  1  0.74971500  0.74971100  0.74912900  1
  La  La1  1  0.25028500  0.74971100  0.74912900  1
  La  La2  1  0.74968500  0.74971200  0.25082600  1
  La  La3  1  0.25031500  0.74971200  0.25082600  1
  La  La4  1  0.74972100  0.25030200  0.25082300  1
  La  La5  1  0.25027900  0.25030200  0.25082300  1
  Sm  Sm6  1  0.74968500  0.25032100  0.74910000  1
  Sm  Sm7  1  0.25031500  0.25032100  0.74910000  1
  Cr  Cr8  1  0.00000000  0.00046600  0.50043800  1
  Cr  Cr9  1  0.50000000  0.00045200  0.50043600  1
  Cr  Cr10  1  0.50000000  0.49959300  0.99954600  1
  Cr  Cr11  1  0.00000000  0.49954800  0.50043000  1
  Cr  Cr12  1  0.50000000  0.49952300  0.50047000  1
  Fe  Fe13  1  0.00000000  0.00063600  0.99934800  1
  Fe  Fe14  1  0.50000000  0.00065200  0.99933800  1
  Fe  Fe15  1  0.00000000  0.49937600  0.99934200  1
  O  O16  1  0.00000000  0.74969000  0.99980200  1
  O  O17  1  0.50000000  0.74946600  0.99979000  1
  O  O18  1  0.00000000  0.74991200  0.50013300  1
  O  O19  1  0.50000000  0.74977800  0.50014700  1
  O  O20  1  0.00000000  0.25029900  0.99754600  1
  O  O21  1  0.50000000  0.25055500  0.99738100  1
  O  O22  1  0.00000000  0.25007300  0.50283600  1
  O  O23  1  0.50000000  0.25019900  0.50283100  1
  O  O24  1  0.00000000  0.00261100  0.74902800  1
  O  O25  1  0.50000000  0.00263200  0.74908600  1
  O  O26  1  0.00000000  0.00017600  0.25095900  1
  O  O27  1  0.50000000  0.00019400  0.25089400  1
  O  O28  1  0.00000000  0.49738000  0.74909000  1
  O  O29  1  0.50000000  0.49717600  0.74953200  1
  O  O30  1  0.00000000  0.49984500  0.25089800  1
  O  O31  1  0.50000000  0.49985700  0.25048800  1
  O  O32  1  0.74969400  0.00132100  0.99865100  1
  O  O33  1  0.25030600  0.00132100  0.99865100  1
  O  O34  1  0.74992200  0.00151600  0.50150300  1
  O  O35  1  0.25007800  0.00151600  0.50150300  1
  O  O36  1  0.74945000  0.49859400  0.99855900  1
  O  O37  1  0.25055000  0.49859400  0.99855900  1
  O  O38  1  0.74978900  0.49847900  0.50151300  1
  O  O39  1  0.25021100  0.49847900  0.50151300  1
