# generated using pymatgen
data_NaAlPO4F
_symmetry_space_group_name_H-M   'P 1'
_cell_length_a   5.27894023
_cell_length_b   5.27894023
_cell_length_c   6.99412691
_cell_angle_alpha   74.49398091
_cell_angle_beta   74.49398091
_cell_angle_gamma   103.87802991
_symmetry_Int_Tables_number   1
_chemical_formula_structural   NaAlPO4F
_chemical_formula_sum   'Na2 Al2 P2 O8 F2'
_cell_volume   170.50090728
_cell_formula_units_Z   2
loop_
 _symmetry_equiv_pos_site_id
 _symmetry_equiv_pos_as_xyz
  1  'x, y, z'
loop_
 _atom_site_type_symbol
 _atom_site_label
 _atom_site_symmetry_multiplicity
 _atom_site_fract_x
 _atom_site_fract_y
 _atom_site_fract_z
 _atom_site_occupancy
  Na  Na0  1  0.33196400  0.66803600  0.25000000  1
  Na  Na1  1  0.66803600  0.33196400  0.75000000  1
  Al  Al2  1  0.00000000  0.00000000  0.00000000  1
  Al  Al3  1  0.00000000  0.00000000  0.50000000  1
  P  P4  1  0.68302000  0.31698000  0.25000000  1
  P  P5  1  0.31698000  0.68302000  0.75000000  1
  O  O6  1  0.11730700  0.69827300  0.62108800  1
  O  O7  1  0.30172700  0.88269300  0.87891200  1
  O  O8  1  0.62182000  0.76187500  0.60043400  1
  O  O9  1  0.23812500  0.37818000  0.89956600  1
  O  O10  1  0.37818000  0.23812500  0.39956600  1
  O  O11  1  0.76187500  0.62182000  0.10043400  1
  O  O12  1  0.88269300  0.30172700  0.37891200  1
  O  O13  1  0.69827300  0.11730700  0.12108800  1
  F  F14  1  0.93046800  0.06953200  0.75000000  1
  F  F15  1  0.06953200  0.93046800  0.25000000  1
