# generated using pymatgen
data_TaFeO4
_symmetry_space_group_name_H-M   'P 1'
_cell_length_a   10.37328083
_cell_length_b   10.37328083
_cell_length_c   10.37328083
_cell_angle_alpha   142.32776535
_cell_angle_beta   142.32776535
_cell_angle_gamma   54.33538511
_symmetry_Int_Tables_number   1
_chemical_formula_structural   TaFeO4
_chemical_formula_sum   'Ta6 Fe6 O24'
_cell_volume   414.07035340
_cell_formula_units_Z   6
loop_
 _symmetry_equiv_pos_site_id
 _symmetry_equiv_pos_as_xyz
  1  'x, y, z'
loop_
 _atom_site_type_symbol
 _atom_site_label
 _atom_site_symmetry_multiplicity
 _atom_site_fract_x
 _atom_site_fract_y
 _atom_site_fract_z
 _atom_site_occupancy
  Ta  Ta0  1  0.08960400  0.58960400  0.50000000  1
  Ta  Ta1  1  0.16808800  0.16808800  0.00000000  1
  Ta  Ta2  1  0.82735600  0.82735600  0.00000000  1
  Ta  Ta3  1  0.33960400  0.33960400  0.00000000  1
  Ta  Ta4  1  0.57735600  0.07735600  0.50000000  1
  Ta  Ta5  1  0.91808800  0.41808800  0.50000000  1
  Fe  Fe6  1  0.99753900  0.99753900  0.00000000  1
  Fe  Fe7  1  0.25391200  0.75391200  0.50000000  1
  Fe  Fe8  1  0.41419500  0.91419500  0.50000000  1
  Fe  Fe9  1  0.50391200  0.50391200  0.00000000  1
  Fe  Fe10  1  0.66419500  0.66419500  0.00000000  1
  Fe  Fe11  1  0.74753900  0.24753900  0.50000000  1
  O  O12  1  0.08528700  0.28308400  0.19779700  1
  O  O13  1  0.30264300  0.00164300  0.30100000  1
  O  O14  1  0.13271300  0.83343400  0.29927900  1
  O  O15  1  0.53415500  0.83343400  0.70072100  1
  O  O16  1  0.36103100  0.66487300  0.69615700  1
  O  O17  1  0.03308400  0.33528700  0.69779700  1
  O  O18  1  0.70064300  0.00164300  0.69900000  1
  O  O19  1  0.19166200  0.49982500  0.69183700  1
  O  O20  1  0.24982500  0.05798800  0.80816300  1
  O  O21  1  0.75164300  0.55264300  0.80100000  1
  O  O22  1  0.58343400  0.38271300  0.79927900  1
  O  O23  1  0.41487300  0.21871600  0.80384300  1
  O  O24  1  0.08528700  0.88749000  0.80220300  1
  O  O25  1  0.41487300  0.61103100  0.19615700  1
  O  O26  1  0.58343400  0.78415500  0.20072100  1
  O  O27  1  0.91459000  0.11426100  0.19967100  1
  O  O28  1  0.75164300  0.95064300  0.19900000  1
  O  O29  1  0.24982500  0.44166200  0.19183700  1
  O  O30  1  0.80798800  0.49982500  0.30816300  1
  O  O31  1  0.96871600  0.66487300  0.30384300  1
  O  O32  1  0.46491900  0.16459000  0.30032900  1
  O  O33  1  0.63749000  0.33528700  0.30220300  1
  O  O34  1  0.86426100  0.16459000  0.69967100  1
  O  O35  1  0.91459000  0.71491900  0.80032900  1
