# generated using pymatgen
data_RbTl3
_symmetry_space_group_name_H-M   'P 1'
_cell_length_a   8.33743927
_cell_length_b   8.33743927
_cell_length_c   5.39034100
_cell_angle_alpha   90.00000000
_cell_angle_beta   90.00000000
_cell_angle_gamma   119.99999421
_symmetry_Int_Tables_number   1
_chemical_formula_structural   RbTl3
_chemical_formula_sum   'Rb2 Tl6'
_cell_volume   324.49817917
_cell_formula_units_Z   2
loop_
 _symmetry_equiv_pos_site_id
 _symmetry_equiv_pos_as_xyz
  1  'x, y, z'
loop_
 _atom_site_type_symbol
 _atom_site_label
 _atom_site_symmetry_multiplicity
 _atom_site_fract_x
 _atom_site_fract_y
 _atom_site_fract_z
 _atom_site_occupancy
  Rb  Rb0  1  0.33333300  0.66666700  0.75000000  1
  Rb  Rb1  1  0.66666700  0.33333300  0.25000000  1
  Tl  Tl2  1  0.13544100  0.27088100  0.25000000  1
  Tl  Tl3  1  0.72911900  0.86455900  0.25000000  1
  Tl  Tl4  1  0.13544100  0.86455900  0.25000000  1
  Tl  Tl5  1  0.86455900  0.72911900  0.75000000  1
  Tl  Tl6  1  0.27088100  0.13544100  0.75000000  1
  Tl  Tl7  1  0.86455900  0.13544100  0.75000000  1
