# generated using pymatgen
data_FeOF
_symmetry_space_group_name_H-M   'P 1'
_cell_length_a   5.68335200
_cell_length_b   5.69139865
_cell_length_c   7.67011857
_cell_angle_alpha   69.70758356
_cell_angle_beta   69.83302177
_cell_angle_gamma   69.40649662
_symmetry_Int_Tables_number   1
_chemical_formula_structural   FeOF
_chemical_formula_sum   'Fe6 O6 F6'
_cell_volume   210.70303081
_cell_formula_units_Z   6
loop_
 _symmetry_equiv_pos_site_id
 _symmetry_equiv_pos_as_xyz
  1  'x, y, z'
loop_
 _atom_site_type_symbol
 _atom_site_label
 _atom_site_symmetry_multiplicity
 _atom_site_fract_x
 _atom_site_fract_y
 _atom_site_fract_z
 _atom_site_occupancy
  Fe  Fe0  1  0.33112800  0.33710200  0.16746500  1
  Fe  Fe1  1  0.65958700  0.67243400  0.34697000  1
  Fe  Fe2  1  0.37589400  0.31891000  0.67033800  1
  Fe  Fe3  1  0.63499500  0.65465600  0.82451200  1
  Fe  Fe4  1  0.00381700  0.02484600  0.49161500  1
  Fe  Fe5  1  0.98842100  0.00011100  0.99812000  1
  O  O6  1  0.36033400  0.97426100  0.33384000  1
  O  O7  1  0.56570200  0.55927100  0.62752200  1
  O  O8  1  0.65662500  0.01276700  0.66783600  1
  O  O9  1  0.96698100  0.37385300  0.32908800  1
  O  O10  1  0.28818200  0.70185400  0.00104000  1
  O  O11  1  0.69370700  0.29999100  0.99812500  1
  F  F12  1  0.04379100  0.62309300  0.66727300  1
  F  F13  1  0.11132300  0.10760800  0.70132100  1
  F  F14  1  0.76200600  0.76939400  0.04429700  1
  F  F15  1  0.43175400  0.43382000  0.37516900  1
  F  F16  1  0.22694100  0.23164600  0.95875700  1
  F  F17  1  0.89881100  0.90438400  0.29671300  1
