# generated using pymatgen
data_Na3(CoO2)5
_symmetry_space_group_name_H-M   'P 1'
_cell_length_a   4.91452569
_cell_length_b   9.06867724
_cell_length_c   9.06864340
_cell_angle_alpha   75.97579299
_cell_angle_beta   84.96343403
_cell_angle_gamma   95.03572295
_symmetry_Int_Tables_number   1
_chemical_formula_structural   Na3(CoO2)5
_chemical_formula_sum   'Na6 Co10 O20'
_cell_volume   388.11779985
_cell_formula_units_Z   2
loop_
 _symmetry_equiv_pos_site_id
 _symmetry_equiv_pos_as_xyz
  1  'x, y, z'
loop_
 _atom_site_type_symbol
 _atom_site_label
 _atom_site_symmetry_multiplicity
 _atom_site_fract_x
 _atom_site_fract_y
 _atom_site_fract_z
 _atom_site_occupancy
  Na  Na0  1  0.41272600  0.64874700  0.15125200  1
  Na  Na1  1  0.91275200  0.14875100  0.65124900  1
  Na  Na2  1  0.91595400  0.34692900  0.85011900  1
  Na  Na3  1  0.41596100  0.84692100  0.35011100  1
  Na  Na4  1  0.41596000  0.44989100  0.95307500  1
  Na  Na5  1  0.91595500  0.94988500  0.45307200  1
  Co  Co6  1  0.50190600  0.90424500  0.89575700  1
  Co  Co7  1  0.49946000  0.49775400  0.50290800  1
  Co  Co8  1  0.49946400  0.29709100  0.30224500  1
  Co  Co9  1  0.00072200  0.60293700  0.59684600  1
  Co  Co10  1  0.00073100  0.20315400  0.19706200  1
  Co  Co11  1  0.00203500  0.40425100  0.39574900  1
  Co  Co12  1  0.99935400  0.99774700  0.00292000  1
  Co  Co13  1  0.99934600  0.79707900  0.80225700  1
  Co  Co14  1  0.50068700  0.10293700  0.09684900  1
  Co  Co15  1  0.50067900  0.70315000  0.69706300  1
  O  O16  1  0.68631800  0.48670100  0.31329800  1
  O  O17  1  0.18616600  0.98668400  0.81332100  1
  O  O18  1  0.80318800  0.81277000  0.98723200  1
  O  O19  1  0.30334800  0.31277700  0.48722300  1
  O  O20  1  0.19139400  0.18974400  0.00728000  1
  O  O21  1  0.69142000  0.68975300  0.50728300  1
  O  O22  1  0.69142600  0.29271600  0.11024500  1
  O  O23  1  0.19137800  0.79271800  0.61025900  1
  O  O24  1  0.70556600  0.09156500  0.90936300  1
  O  O25  1  0.20567300  0.59157200  0.40936700  1
  O  O26  1  0.20567600  0.39063100  0.20842600  1
  O  O27  1  0.70556200  0.89063200  0.70843400  1
  O  O28  1  0.30737000  0.91203900  0.08760900  1
  O  O29  1  0.80747200  0.41203900  0.58758700  1
  O  O30  1  0.30736300  0.71239700  0.88796400  1
  O  O31  1  0.80747400  0.21241300  0.38796100  1
  O  O32  1  0.80435100  0.61060600  0.78791400  1
  O  O33  1  0.30439900  0.11061600  0.28792500  1
  O  O34  1  0.30439200  0.51207500  0.68938400  1
  O  O35  1  0.80436600  0.01208700  0.18939100  1
