# generated using pymatgen
data_Na2MnPCO7
_symmetry_space_group_name_H-M   'P 1'
_cell_length_a   6.76178300
_cell_length_b   10.17108673
_cell_length_c   10.37635118
_cell_angle_alpha   60.95014425
_cell_angle_beta   89.37178718
_cell_angle_gamma   89.24001942
_symmetry_Int_Tables_number   1
_chemical_formula_structural   Na2MnPCO7
_chemical_formula_sum   'Na8 Mn4 P4 C4 O28'
_cell_volume   623.79055880
_cell_formula_units_Z   4
loop_
 _symmetry_equiv_pos_site_id
 _symmetry_equiv_pos_as_xyz
  1  'x, y, z'
loop_
 _atom_site_type_symbol
 _atom_site_label
 _atom_site_symmetry_multiplicity
 _atom_site_fract_x
 _atom_site_fract_y
 _atom_site_fract_z
 _atom_site_occupancy
  Na  Na0  1  0.01505100  0.74295300  0.25211500  1
  Na  Na1  1  0.48338200  0.74403000  0.25405200  1
  Na  Na2  1  0.00633000  0.75914900  0.74162900  1
  Na  Na3  1  0.49332200  0.76092900  0.74151300  1
  Na  Na4  1  0.98624100  0.24658300  0.26534000  1
  Na  Na5  1  0.50705300  0.24950100  0.73814500  1
  Na  Na6  1  0.99644200  0.24991700  0.74211800  1
  Na  Na7  1  0.73837200  0.08423300  0.08246300  1
  Mn  Mn8  1  0.74869900  0.64550200  0.06809100  1
  Mn  Mn9  1  0.75081400  0.64846000  0.56456100  1
  Mn  Mn10  1  0.26137800  0.34694800  0.42838700  1
  Mn  Mn11  1  0.25447300  0.34911800  0.93659500  1
  P  P12  1  0.24874900  0.57830400  0.06551000  1
  P  P13  1  0.25095800  0.57767100  0.56506900  1
  P  P14  1  0.75237600  0.41803200  0.43965600  1
  P  P15  1  0.75121800  0.42184700  0.93480700  1
  C  C16  1  0.74919900  0.92882400  0.90358900  1
  C  C17  1  0.75128100  0.92921200  0.39606900  1
  C  C18  1  0.24847200  0.07206900  0.59753100  1
  C  C19  1  0.24701500  0.07236600  0.09885200  1
  O  O20  1  0.24610700  0.93227500  0.67509000  1
  O  O21  1  0.24669300  0.93136800  0.17088400  1
  O  O22  1  0.74607600  0.85111100  0.05084400  1
  O  O23  1  0.74824800  0.85417700  0.54246700  1
  O  O24  1  0.74855200  0.84607700  0.84094600  1
  O  O25  1  0.74765300  0.83945900  0.33744700  1
  O  O26  1  0.06172700  0.67484400  0.05090700  1
  O  O27  1  0.43617000  0.66920100  0.05516500  1
  O  O28  1  0.06337500  0.67152400  0.55277500  1
  O  O29  1  0.43721500  0.66917700  0.55380900  1
  O  O30  1  0.25201000  0.54381100  0.43122400  1
  O  O31  1  0.74806100  0.57260100  0.29488100  1
  O  O32  1  0.25050400  0.54566100  0.93075000  1
  O  O33  1  0.75170700  0.57587600  0.79102800  1
  O  O34  1  0.24176900  0.42657600  0.20945800  1
  O  O35  1  0.75673100  0.45647700  0.06739500  1
  O  O36  1  0.25029800  0.42476800  0.71104700  1
  O  O37  1  0.75830700  0.45401300  0.57402400  1
  O  O38  1  0.56582200  0.32643900  0.46243300  1
  O  O39  1  0.93966100  0.32728100  0.44966600  1
  O  O40  1  0.56918300  0.32672800  0.94524600  1
  O  O41  1  0.93354900  0.32215100  0.94836900  1
  O  O42  1  0.25182600  0.16638300  0.65010500  1
  O  O43  1  0.23770700  0.16328800  0.15320000  1
  O  O44  1  0.24890900  0.14153000  0.45247400  1
  O  O45  1  0.25884500  0.14566800  0.95161600  1
  O  O46  1  0.75242100  0.07074900  0.84109500  1
  O  O47  1  0.75794700  0.06841300  0.32149800  1
