# generated using pymatgen
data_Ti5Fe11O24
_symmetry_space_group_name_H-M   'P 1'
_cell_length_a   5.16601000
_cell_length_b   5.59102518
_cell_length_c   15.06563818
_cell_angle_alpha   84.34933135
_cell_angle_beta   89.81013104
_cell_angle_gamma   89.91484064
_symmetry_Int_Tables_number   1
_chemical_formula_structural   Ti5Fe11O24
_chemical_formula_sum   'Ti5 Fe11 O24'
_cell_volume   433.02805956
_cell_formula_units_Z   1
loop_
 _symmetry_equiv_pos_site_id
 _symmetry_equiv_pos_as_xyz
  1  'x, y, z'
loop_
 _atom_site_type_symbol
 _atom_site_label
 _atom_site_symmetry_multiplicity
 _atom_site_fract_x
 _atom_site_fract_y
 _atom_site_fract_z
 _atom_site_occupancy
  Ti  Ti0  1  0.49829100  0.79133000  0.82133100  1
  Ti  Ti1  1  0.50688000  0.20731800  0.67455700  1
  Ti  Ti2  1  0.99770700  0.70576300  0.42941200  1
  Ti  Ti3  1  0.50373300  0.79429900  0.32092700  1
  Ti  Ti4  1  0.99844100  0.29264500  0.07473500  1
  Fe  Fe5  1  0.00102000  0.70665300  0.92601700  1
  Fe  Fe6  1  0.00431400  0.29020800  0.82246500  1
  Fe  Fe7  1  0.49875700  0.20582500  0.92531600  1
  Fe  Fe8  1  0.99591200  0.70944100  0.67582900  1
  Fe  Fe9  1  0.99930900  0.29283100  0.57505400  1
  Fe  Fe10  1  0.49943800  0.21493900  0.42667300  1
  Fe  Fe11  1  0.50302900  0.79217100  0.57379600  1
  Fe  Fe12  1  0.00413300  0.28473100  0.32269700  1
  Fe  Fe13  1  0.99464300  0.70866800  0.17666100  1
  Fe  Fe14  1  0.49806900  0.21108400  0.17697300  1
  Fe  Fe15  1  0.50129100  0.78841900  0.07300700  1
  O  O16  1  0.32074300  0.51041100  0.87484600  1
  O  O17  1  0.84903100  0.34324200  0.95749200  1
  O  O18  1  0.63254200  0.14824900  0.79756600  1
  O  O19  1  0.20696900  0.98831600  0.87820300  1
  O  O20  1  0.17716100  0.34272600  0.69741000  1
  O  O21  1  0.65513500  0.85382900  0.95211500  1
  O  O22  1  0.34727700  0.16255300  0.54725100  1
  O  O23  1  0.82931900  0.66026400  0.80444600  1
  O  O24  1  0.80285300  0.01518100  0.62551400  1
  O  O25  1  0.36385900  0.84757000  0.70755000  1
  O  O26  1  0.13298300  0.65489200  0.54201700  1
  O  O27  1  0.68819200  0.47773300  0.63050900  1
  O  O28  1  0.31578900  0.51455900  0.37443000  1
  O  O29  1  0.84756200  0.35376200  0.45051900  1
  O  O30  1  0.62721900  0.14428500  0.30063200  1
  O  O31  1  0.20138600  0.97294700  0.38065300  1
  O  O32  1  0.67201300  0.85060400  0.44700500  1
  O  O33  1  0.15068600  0.33498500  0.19638700  1
  O  O34  1  0.82918100  0.66222700  0.30139700  1
  O  O35  1  0.32821900  0.15244300  0.04771500  1
  O  O36  1  0.80011500  0.02432000  0.11876700  1
  O  O37  1  0.37178500  0.84436200  0.20304800  1
  O  O38  1  0.15585500  0.64778900  0.04781400  1
  O  O39  1  0.68915300  0.49642500  0.12126000  1
