# generated using pymatgen
data_Li4V5Sn3O16
_symmetry_space_group_name_H-M   'P 1'
_cell_length_a   6.10728306
_cell_length_b   6.10728306
_cell_length_c   9.64862646
_cell_angle_alpha   89.39901833
_cell_angle_beta   89.39901833
_cell_angle_gamma   59.54237067
_symmetry_Int_Tables_number   1
_chemical_formula_structural   Li4V5Sn3O16
_chemical_formula_sum   'Li4 V5 Sn3 O16'
_cell_volume   310.19821257
_cell_formula_units_Z   1
loop_
 _symmetry_equiv_pos_site_id
 _symmetry_equiv_pos_as_xyz
  1  'x, y, z'
loop_
 _atom_site_type_symbol
 _atom_site_label
 _atom_site_symmetry_multiplicity
 _atom_site_fract_x
 _atom_site_fract_y
 _atom_site_fract_z
 _atom_site_occupancy
  Li  Li0  1  0.67400800  0.67400800  0.88914300  1
  Li  Li1  1  0.98798500  0.98798500  0.99054100  1
  Li  Li2  1  0.99249100  0.99249100  0.50167300  1
  Li  Li3  1  0.33445400  0.33445400  0.39516900  1
  V  V4  1  0.67516300  0.67516300  0.49468800  1
  V  V5  1  0.83185600  0.83185600  0.21358500  1
  V  V6  1  0.34197100  0.34197100  0.98289500  1
  V  V7  1  0.65369200  0.18086500  0.71185200  1
  V  V8  1  0.18086500  0.65369200  0.71185200  1
  Sn  Sn9  1  0.33948600  0.83187300  0.21360800  1
  Sn  Sn10  1  0.83187300  0.33948600  0.21360800  1
  Sn  Sn11  1  0.16977500  0.16977500  0.71409100  1
  O  O12  1  0.33739100  0.82212300  0.59907000  1
  O  O13  1  0.51942600  0.51942600  0.34846600  1
  O  O14  1  0.67088700  0.67088700  0.09600700  1
  O  O15  1  0.99607500  0.99607500  0.31687600  1
  O  O16  1  0.99264400  0.99264400  0.80536800  1
  O  O17  1  0.82212300  0.33739100  0.59907000  1
  O  O18  1  0.52692600  0.95979200  0.34287800  1
  O  O19  1  0.95979200  0.52692600  0.34287800  1
  O  O20  1  0.16109800  0.16109800  0.08926600  1
  O  O21  1  0.83166000  0.83166000  0.60608400  1
  O  O22  1  0.04581900  0.48775900  0.84337300  1
  O  O23  1  0.48775900  0.04581900  0.84337300  1
  O  O24  1  0.33722100  0.33722100  0.59849800  1
  O  O25  1  0.15683200  0.66610500  0.10110800  1
  O  O26  1  0.47841900  0.47841900  0.84130700  1
  O  O27  1  0.66610500  0.15683200  0.10110800  1
