data_image0
_chemical_formula_structural       As16Ca12Ge8
_chemical_formula_sum              "As16 Ca12 Ge8"
_cell_length_a       7.33155
_cell_length_b       18.0405
_cell_length_c       7.31293
_cell_angle_alpha    90
_cell_angle_beta     111.702
_cell_angle_gamma    90

_space_group_name_H-M_alt    "P 1"
_space_group_IT_number       1

loop_
  _space_group_symop_operation_xyz
  'x, y, z'

loop_
  _atom_site_type_symbol
  _atom_site_label
  _atom_site_symmetry_multiplicity
  _atom_site_fract_x
  _atom_site_fract_y
  _atom_site_fract_z
  _atom_site_occupancy
  As  As1       1.0  0.00029  0.94100  0.74300  1.0000
  As  As2       1.0  0.00000  0.44100  0.75700  1.0000
  As  As3       1.0  0.00000  0.05870  0.25700  1.0000
  As  As4       1.0  0.00029  0.55900  0.24300  1.0000
  As  As5       1.0  0.02680  0.68600  0.72200  1.0000
  As  As6       1.0  0.97300  0.18600  0.77800  1.0000
  As  As7       1.0  0.97300  0.31400  0.27800  1.0000
  As  As8       1.0  0.02680  0.81400  0.22200  1.0000
  As  As9       1.0  0.51000  0.93400  0.25000  1.0000
  As  As10      1.0  0.49000  0.43400  0.25000  1.0000
  As  As11      1.0  0.49000  0.06600  0.75000  1.0000
  As  As12      1.0  0.51000  0.56600  0.75000  1.0000
  As  As13      1.0  0.51800  0.80500  0.73300  1.0000
  As  As14      1.0  0.48200  0.30500  0.76700  1.0000
  As  As15      1.0  0.48200  0.19500  0.26700  1.0000
  As  As16      1.0  0.51800  0.69500  0.23300  1.0000
  Ca  Ca1       1.0  0.78300  0.81600  0.48700  1.0000
  Ca  Ca2       1.0  0.21700  0.31600  0.01260  1.0000
  Ca  Ca3       1.0  0.21700  0.18400  0.51300  1.0000
  Ca  Ca4       1.0  0.78300  0.68400  0.98700  1.0000
  Ca  Ca5       1.0  0.26300  0.93700  0.50200  1.0000
  Ca  Ca6       1.0  0.73700  0.43700  0.99800  1.0000
  Ca  Ca7       1.0  0.73700  0.06290  0.49800  1.0000
  Ca  Ca8       1.0  0.26300  0.56300  0.00164  1.0000
  Ca  Ca9       1.0  0.74400  0.94200  0.98800  1.0000
  Ca  Ca10      1.0  0.25600  0.44200  0.51200  1.0000
  Ca  Ca11      1.0  0.25600  0.05760  0.01240  1.0000
  Ca  Ca12      1.0  0.74400  0.55800  0.48800  1.0000
  Ge  Ge1       1.0  0.79000  0.37400  0.46900  1.0000
  Ge  Ge2       1.0  0.21000  0.87400  0.03120  1.0000
  Ge  Ge3       1.0  0.21000  0.62600  0.53100  1.0000
  Ge  Ge4       1.0  0.79000  0.12600  0.96900  1.0000
  Ge  Ge5       1.0  0.32000  0.74100  0.42000  1.0000
  Ge  Ge6       1.0  0.68000  0.24100  0.07990  1.0000
  Ge  Ge7       1.0  0.68000  0.25900  0.58000  1.0000
  Ge  Ge8       1.0  0.32000  0.75900  0.92000  1.0000
