# generated using pymatgen
data_CaBiO3
_symmetry_space_group_name_H-M   'P 1'
_cell_length_a   6.16658015
_cell_length_b   6.16658015
_cell_length_c   6.16658002
_cell_angle_alpha   57.57400680
_cell_angle_beta   57.57400680
_cell_angle_gamma   57.57401102
_symmetry_Int_Tables_number   1
_chemical_formula_structural   CaBiO3
_chemical_formula_sum   'Ca2 Bi2 O6'
_cell_volume   156.56459992
_cell_formula_units_Z   2
loop_
 _symmetry_equiv_pos_site_id
 _symmetry_equiv_pos_as_xyz
  1  'x, y, z'
loop_
 _atom_site_type_symbol
 _atom_site_label
 _atom_site_symmetry_multiplicity
 _atom_site_fract_x
 _atom_site_fract_y
 _atom_site_fract_z
 _atom_site_occupancy
  Ca  Ca0  1  0.86238600  0.86238600  0.86238600  1
  Ca  Ca1  1  0.13761400  0.13761400  0.13761400  1
  Bi  Bi2  1  0.64673600  0.64673600  0.64673600  1
  Bi  Bi3  1  0.35326400  0.35326400  0.35326400  1
  O  O4  1  0.95964000  0.26704500  0.53667000  1
  O  O5  1  0.53667000  0.95964000  0.26704500  1
  O  O6  1  0.26704500  0.53667000  0.95964000  1
  O  O7  1  0.73295500  0.46333000  0.04036000  1
  O  O8  1  0.46333000  0.04036000  0.73295500  1
  O  O9  1  0.04036000  0.73295500  0.46333000  1
