# generated using pymatgen
data_K4(S2O3)5
_symmetry_space_group_name_H-M   'P 1'
_cell_length_a   9.30863000
_cell_length_b   12.34119600
_cell_length_c   20.47145400
_cell_angle_alpha   90.00000000
_cell_angle_beta   90.00000000
_cell_angle_gamma   90.00000000
_symmetry_Int_Tables_number   1
_chemical_formula_structural   K4(S2O3)5
_chemical_formula_sum   'K16 S40 O60'
_cell_volume   2351.75300625
_cell_formula_units_Z   4
loop_
 _symmetry_equiv_pos_site_id
 _symmetry_equiv_pos_as_xyz
  1  'x, y, z'
loop_
 _atom_site_type_symbol
 _atom_site_label
 _atom_site_symmetry_multiplicity
 _atom_site_fract_x
 _atom_site_fract_y
 _atom_site_fract_z
 _atom_site_occupancy
  K  K0  1  0.75226300  0.99577700  0.26261800  1
  K  K1  1  0.74773700  0.49577700  0.23738200  1
  K  K2  1  0.74773700  0.00422300  0.76261800  1
  K  K3  1  0.75226300  0.50422300  0.73738200  1
  K  K4  1  0.24773700  0.00422300  0.73738200  1
  K  K5  1  0.25226300  0.50422300  0.76261800  1
  K  K6  1  0.25226300  0.99577700  0.23738200  1
  K  K7  1  0.24773700  0.49577700  0.26261800  1
  K  K8  1  0.87867900  0.71666300  0.39427600  1
  K  K9  1  0.62132100  0.21666300  0.10572400  1
  K  K10  1  0.62132100  0.28333700  0.89427600  1
  K  K11  1  0.87867900  0.78333700  0.60572400  1
  K  K12  1  0.12132100  0.28333700  0.60572400  1
  K  K13  1  0.37867900  0.78333700  0.89427600  1
  K  K14  1  0.37867900  0.71666300  0.10572400  1
  K  K15  1  0.12132100  0.21666300  0.39427600  1
  S  S16  1  0.95194900  0.51090500  0.09149800  1
  S  S17  1  0.54805100  0.01090500  0.40850200  1
  S  S18  1  0.54805100  0.48909500  0.59149800  1
  S  S19  1  0.95194900  0.98909500  0.90850200  1
  S  S20  1  0.04805100  0.48909500  0.90850200  1
  S  S21  1  0.45194900  0.98909500  0.59149800  1
  S  S22  1  0.45194900  0.51090500  0.40850200  1
  S  S23  1  0.04805100  0.01090500  0.09149800  1
  S  S24  1  0.97596400  0.67218000  0.07787100  1
  S  S25  1  0.52403600  0.17218000  0.42212900  1
  S  S26  1  0.52403600  0.32782000  0.57787100  1
  S  S27  1  0.97596400  0.82782000  0.92212900  1
  S  S28  1  0.02403600  0.32782000  0.92212900  1
  S  S29  1  0.47596400  0.82782000  0.57787100  1
  S  S30  1  0.47596400  0.67218000  0.42212900  1
  S  S31  1  0.02403600  0.17218000  0.07787100  1
  S  S32  1  0.86939500  0.75171600  0.15073400  1
  S  S33  1  0.63060500  0.25171600  0.34926600  1
  S  S34  1  0.63060500  0.24828400  0.65073400  1
  S  S35  1  0.86939500  0.74828400  0.84926600  1
  S  S36  1  0.13060500  0.24828400  0.84926600  1
  S  S37  1  0.36939500  0.74828400  0.65073400  1
  S  S38  1  0.36939500  0.75171600  0.34926600  1
  S  S39  1  0.13060500  0.25171600  0.15073400  1
  S  S40  1  0.73598500  0.48159300  0.04977800  1
  S  S41  1  0.76401500  0.98159300  0.45022200  1
  S  S42  1  0.76401500  0.51840700  0.54977800  1
  S  S43  1  0.73598500  0.01840700  0.95022200  1
  S  S44  1  0.26401500  0.51840700  0.95022200  1
  S  S45  1  0.23598500  0.01840700  0.54977800  1
  S  S46  1  0.23598500  0.48159300  0.45022200  1
  S  S47  1  0.26401500  0.98159300  0.04977800  1
  S  S48  1  0.02700700  0.74895200  0.22889600  1
  S  S49  1  0.47299300  0.24895200  0.27110400  1
  S  S50  1  0.47299300  0.25104800  0.72889600  1
  S  S51  1  0.02700700  0.75104800  0.77110400  1
  S  S52  1  0.97299300  0.25104800  0.77110400  1
  S  S53  1  0.52700700  0.75104800  0.72889600  1
  S  S54  1  0.52700700  0.74895200  0.27110400  1
  S  S55  1  0.97299300  0.24895200  0.22889600  1
  O  O56  1  0.71806300  0.56258900  0.99826000  1
  O  O57  1  0.78193700  0.06258900  0.50174000  1
  O  O58  1  0.78193700  0.43741100  0.49826000  1
  O  O59  1  0.71806300  0.93741100  0.00174000  1
  O  O60  1  0.28193700  0.43741100  0.00174000  1
  O  O61  1  0.21806300  0.93741100  0.49826000  1
  O  O62  1  0.21806300  0.56258900  0.50174000  1
  O  O63  1  0.28193700  0.06258900  0.99826000  1
  O  O64  1  0.64024400  0.49259000  0.10647300  1
  O  O65  1  0.85975600  0.99259000  0.39352700  1
  O  O66  1  0.85975600  0.50741000  0.60647300  1
  O  O67  1  0.64024400  0.00741000  0.89352700  1
  O  O68  1  0.35975600  0.50741000  0.89352700  1
  O  O69  1  0.14024400  0.00741000  0.60647300  1
  O  O70  1  0.14024400  0.49259000  0.39352700  1
  O  O71  1  0.35975600  0.99259000  0.10647300  1
  O  O72  1  0.75508700  0.36986400  0.02683900  1
  O  O73  1  0.74491300  0.86986400  0.47316100  1
  O  O74  1  0.74491300  0.63013600  0.52683900  1
  O  O75  1  0.75508700  0.13013600  0.97316100  1
  O  O76  1  0.24491300  0.63013600  0.97316100  1
  O  O77  1  0.25508700  0.13013600  0.52683900  1
  O  O78  1  0.25508700  0.36986400  0.47316100  1
  O  O79  1  0.24491300  0.86986400  0.02683900  1
  O  O80  1  0.16712700  0.76727400  0.19796800  1
  O  O81  1  0.33287300  0.26727400  0.30203200  1
  O  O82  1  0.33287300  0.23272600  0.69796800  1
  O  O83  1  0.16712700  0.73272600  0.80203200  1
  O  O84  1  0.83287300  0.23272600  0.80203200  1
  O  O85  1  0.66712700  0.73272600  0.69796800  1
  O  O86  1  0.66712700  0.76727400  0.30203200  1
  O  O87  1  0.83287300  0.26727400  0.19796800  1
  O  O88  1  0.01238900  0.64139000  0.25962800  1
  O  O89  1  0.48761100  0.14139000  0.24037200  1
  O  O90  1  0.48761100  0.35861000  0.75962800  1
  O  O91  1  0.01238900  0.85861000  0.74037200  1
  O  O92  1  0.98761100  0.35861000  0.74037200  1
  O  O93  1  0.51238900  0.85861000  0.75962800  1
  O  O94  1  0.51238900  0.64139000  0.24037200  1
  O  O95  1  0.98761100  0.14139000  0.25962800  1
  O  O96  1  0.97841200  0.83870300  0.27022900  1
  O  O97  1  0.52158800  0.33870300  0.22977100  1
  O  O98  1  0.52158800  0.16129700  0.77022900  1
  O  O99  1  0.97841200  0.66129700  0.72977100  1
  O  O100  1  0.02158800  0.16129700  0.72977100  1
  O  O101  1  0.47841200  0.66129700  0.77022900  1
  O  O102  1  0.47841200  0.83870300  0.22977100  1
  O  O103  1  0.02158800  0.33870300  0.27022900  1
  O  O104  1  0.66249400  0.99576500  0.13056700  1
  O  O105  1  0.83750600  0.49576500  0.36943300  1
  O  O106  1  0.83750600  0.00423500  0.63056700  1
  O  O107  1  0.66249400  0.50423500  0.86943300  1
  O  O108  1  0.33750600  0.00423500  0.86943300  1
  O  O109  1  0.16249400  0.50423500  0.63056700  1
  O  O110  1  0.16249400  0.99576500  0.36943300  1
  O  O111  1  0.33750600  0.49576500  0.13056700  1
  O  O112  1  0.57069100  0.75000000  0.00000000  1
  O  O113  1  0.92930900  0.25000000  0.50000000  1
  O  O114  1  0.42930900  0.25000000  0.00000000  1
  O  O115  1  0.07069100  0.75000000  0.50000000  1
