# generated using pymatgen
data_Mn3VSn2(PO4)6
_symmetry_space_group_name_H-M   'P 1'
_cell_length_a   8.87510521
_cell_length_b   8.87510521
_cell_length_c   8.87510570
_cell_angle_alpha   58.95444870
_cell_angle_beta   58.95444870
_cell_angle_gamma   58.95444881
_symmetry_Int_Tables_number   1
_chemical_formula_structural   Mn3VSn2(PO4)6
_chemical_formula_sum   'Mn3 V1 Sn2 P6 O24'
_cell_volume   482.52466019
_cell_formula_units_Z   1
loop_
 _symmetry_equiv_pos_site_id
 _symmetry_equiv_pos_as_xyz
  1  'x, y, z'
loop_
 _atom_site_type_symbol
 _atom_site_label
 _atom_site_symmetry_multiplicity
 _atom_site_fract_x
 _atom_site_fract_y
 _atom_site_fract_z
 _atom_site_occupancy
  Mn  Mn0  1  0.65191200  0.65191200  0.65191200  1
  Mn  Mn1  1  0.85141100  0.85141100  0.85141100  1
  Mn  Mn2  1  0.34949800  0.34949800  0.34949800  1
  V  V3  1  0.14546100  0.14546100  0.14546100  1
  Sn  Sn4  1  0.99499600  0.99499600  0.99499600  1
  Sn  Sn5  1  0.49906600  0.49906600  0.49906600  1
  P  P6  1  0.53708000  0.95111100  0.24815000  1
  P  P7  1  0.24815000  0.53708000  0.95111100  1
  P  P8  1  0.95111100  0.24815000  0.53708000  1
  P  P9  1  0.05274900  0.75363000  0.45833900  1
  P  P10  1  0.75363000  0.45833900  0.05274900  1
  P  P11  1  0.45833900  0.05274900  0.75363000  1
  O  O12  1  0.31418900  0.51361700  0.09061800  1
  O  O13  1  0.09061800  0.31418900  0.51361700  1
  O  O14  1  0.51361700  0.09061800  0.31418900  1
  O  O15  1  0.72987700  0.92702300  0.08413700  1
  O  O16  1  0.37888100  0.00980100  0.18221800  1
  O  O17  1  0.54230600  0.75315200  0.40749200  1
  O  O18  1  0.08413700  0.72987700  0.92702300  1
  O  O19  1  0.40749200  0.54230600  0.75315200  1
  O  O20  1  0.00930100  0.80808300  0.61792500  1
  O  O21  1  0.75315200  0.40749200  0.54230600  1
  O  O22  1  0.08276100  0.91902200  0.26710500  1
  O  O23  1  0.80808300  0.61792500  0.00930100  1
  O  O24  1  0.18221800  0.37888100  0.00980100  1
  O  O25  1  0.92702300  0.08413700  0.72987700  1
  O  O26  1  0.25217600  0.59357000  0.44078500  1
  O  O27  1  0.00980100  0.18221800  0.37888100  1
  O  O28  1  0.59357000  0.44078500  0.25217600  1
  O  O29  1  0.91902200  0.26710500  0.08276100  1
  O  O30  1  0.44078500  0.25217600  0.59357000  1
  O  O31  1  0.61792500  0.00930100  0.80808300  1
  O  O32  1  0.26710500  0.08276100  0.91902200  1
  O  O33  1  0.47650200  0.90817200  0.69789700  1
  O  O34  1  0.90817200  0.69789700  0.47650200  1
  O  O35  1  0.69789700  0.47650200  0.90817200  1
