# generated using pymatgen
data_In2WO6
_symmetry_space_group_name_H-M   'P 1'
_cell_length_a   5.19357900
_cell_length_b   7.50396300
_cell_length_c   11.88246656
_cell_angle_alpha   82.63936096
_cell_angle_beta   90.00000000
_cell_angle_gamma   90.00000000
_symmetry_Int_Tables_number   1
_chemical_formula_structural   In2WO6
_chemical_formula_sum   'In8 W4 O24'
_cell_volume   459.27240901
_cell_formula_units_Z   4
loop_
 _symmetry_equiv_pos_site_id
 _symmetry_equiv_pos_as_xyz
  1  'x, y, z'
loop_
 _atom_site_type_symbol
 _atom_site_label
 _atom_site_symmetry_multiplicity
 _atom_site_fract_x
 _atom_site_fract_y
 _atom_site_fract_z
 _atom_site_occupancy
  In  In0  1  0.77972000  0.00000000  0.75000000  1
  In  In1  1  0.22028000  0.00000000  0.25000000  1
  In  In2  1  0.23608700  0.76775300  0.60357000  1
  In  In3  1  0.76391300  0.76775300  0.10357000  1
  In  In4  1  0.70634200  0.50000000  0.75000000  1
  In  In5  1  0.29365800  0.50000000  0.25000000  1
  In  In6  1  0.23608700  0.23224700  0.89643000  1
  In  In7  1  0.76391300  0.23224700  0.39643000  1
  W  W8  1  0.26774000  0.73637700  0.89329100  1
  W  W9  1  0.73226000  0.73637700  0.39329100  1
  W  W10  1  0.26774000  0.26362300  0.60670900  1
  W  W11  1  0.73226000  0.26362300  0.10670900  1
  O  O12  1  0.08814500  0.97147200  0.87383200  1
  O  O13  1  0.56289400  0.84113500  0.94680400  1
  O  O14  1  0.91185500  0.97147200  0.37383200  1
  O  O15  1  0.50588900  0.79170100  0.73709100  1
  O  O16  1  0.43710600  0.84113500  0.44680400  1
  O  O17  1  0.01069700  0.69149600  0.77279700  1
  O  O18  1  0.49411100  0.79170100  0.23709100  1
  O  O19  1  0.89549300  0.66522600  0.52939200  1
  O  O20  1  0.41014100  0.50056500  0.88225200  1
  O  O21  1  0.98930300  0.69149600  0.27279700  1
  O  O22  1  0.41014100  0.49943500  0.61774800  1
  O  O23  1  0.89549300  0.33477400  0.97060800  1
  O  O24  1  0.10450700  0.66522600  0.02939200  1
  O  O25  1  0.58985900  0.50056500  0.38225200  1
  O  O26  1  0.01069700  0.30850400  0.72720300  1
  O  O27  1  0.58985900  0.49943500  0.11774800  1
  O  O28  1  0.10450700  0.33477400  0.47060800  1
  O  O29  1  0.50588900  0.20829900  0.76290900  1
  O  O30  1  0.98930300  0.30850400  0.22720300  1
  O  O31  1  0.56289400  0.15886500  0.55319600  1
  O  O32  1  0.49411100  0.20829900  0.26290900  1
  O  O33  1  0.08814500  0.02852800  0.62616800  1
  O  O34  1  0.43710600  0.15886500  0.05319600  1
  O  O35  1  0.91185500  0.02852800  0.12616800  1
