# generated using pymatgen
data_MnS2(NO7)2
_symmetry_space_group_name_H-M   'P 1'
_cell_length_a   10.93197100
_cell_length_b   6.93443100
_cell_length_c   10.10187631
_cell_angle_alpha   64.15325743
_cell_angle_beta   90.00000000
_cell_angle_gamma   90.00000000
_symmetry_Int_Tables_number   1
_chemical_formula_structural   MnS2(NO7)2
_chemical_formula_sum   'Mn2 S4 N4 O28'
_cell_volume   689.18560665
_cell_formula_units_Z   2
loop_
 _symmetry_equiv_pos_site_id
 _symmetry_equiv_pos_as_xyz
  1  'x, y, z'
loop_
 _atom_site_type_symbol
 _atom_site_label
 _atom_site_symmetry_multiplicity
 _atom_site_fract_x
 _atom_site_fract_y
 _atom_site_fract_z
 _atom_site_occupancy
  Mn  Mn0  1  0.50000000  0.00000000  0.50000000  1
  Mn  Mn1  1  0.00000000  0.00000000  0.00000000  1
  S  S2  1  0.37526600  0.33128000  0.92246600  1
  S  S3  1  0.87526600  0.66872000  0.57753400  1
  S  S4  1  0.62473400  0.66872000  0.07753400  1
  S  S5  1  0.12473400  0.33128000  0.42246600  1
  N  N6  1  0.23915700  0.79117700  0.60373500  1
  N  N7  1  0.73915700  0.20882300  0.89626500  1
  N  N8  1  0.76084300  0.20882300  0.39626500  1
  N  N9  1  0.26084300  0.79117700  0.10373500  1
  O  O10  1  0.24723100  0.38138300  0.89726500  1
  O  O11  1  0.74723100  0.61861700  0.60273500  1
  O  O12  1  0.75276900  0.61861700  0.10273500  1
  O  O13  1  0.25276900  0.38138300  0.39726500  1
  O  O14  1  0.42499900  0.26469500  0.06730200  1
  O  O15  1  0.92499900  0.73530500  0.43269800  1
  O  O16  1  0.57500100  0.73530500  0.93269800  1
  O  O17  1  0.07500100  0.26469500  0.56730200  1
  O  O18  1  0.45330000  0.35441600  0.80237500  1
  O  O19  1  0.95330000  0.64558400  0.69762500  1
  O  O20  1  0.54670000  0.64558400  0.19762500  1
  O  O21  1  0.04670000  0.35441600  0.30237500  1
  O  O22  1  0.30947800  0.89304600  0.98413300  1
  O  O23  1  0.80947800  0.10695400  0.51586700  1
  O  O24  1  0.69052200  0.10695400  0.01586700  1
  O  O25  1  0.19052200  0.89304600  0.48413300  1
  O  O26  1  0.34204300  0.83716700  0.63902200  1
  O  O27  1  0.84204300  0.16283300  0.86097800  1
  O  O28  1  0.65795700  0.16283300  0.36097800  1
  O  O29  1  0.15795700  0.83716700  0.13902200  1
  O  O30  1  0.44082300  0.86581100  0.37139700  1
  O  O31  1  0.94082300  0.13418900  0.12860300  1
  O  O32  1  0.55917700  0.13418900  0.62860300  1
  O  O33  1  0.05917700  0.86581100  0.87139700  1
  O  O34  1  0.52081400  0.73758300  0.46933000  1
  O  O35  1  0.02081400  0.26241700  0.03067000  1
  O  O36  1  0.47918600  0.26241700  0.53067000  1
  O  O37  1  0.97918600  0.73758300  0.96933000  1
