# generated using pymatgen
data_Rb2U5(PO7)4
_symmetry_space_group_name_H-M   'P 1'
_cell_length_a   10.32122105
_cell_length_b   10.32122105
_cell_length_c   9.51572808
_cell_angle_alpha   64.29902584
_cell_angle_beta   64.29902584
_cell_angle_gamma   100.58015488
_symmetry_Int_Tables_number   1
_chemical_formula_structural   Rb2U5(PO7)4
_chemical_formula_sum   'Rb2 U5 P4 O28'
_cell_volume   731.73606358
_cell_formula_units_Z   1
loop_
 _symmetry_equiv_pos_site_id
 _symmetry_equiv_pos_as_xyz
  1  'x, y, z'
loop_
 _atom_site_type_symbol
 _atom_site_label
 _atom_site_symmetry_multiplicity
 _atom_site_fract_x
 _atom_site_fract_y
 _atom_site_fract_z
 _atom_site_occupancy
  Rb  Rb0  1  0.65107700  0.65107700  0.43285100  1
  Rb  Rb1  1  0.21365800  0.21365800  0.42904000  1
  U  U2  1  0.73158900  0.26477700  0.69707500  1
  U  U3  1  0.26477700  0.73158900  0.69707500  1
  U  U4  1  0.12359900  0.67096300  0.20247800  1
  U  U5  1  0.67096300  0.12359900  0.20247800  1
  U  U6  1  0.71086300  0.71086300  0.90937700  1
  P  P7  1  0.94820100  0.51304100  0.71603000  1
  P  P8  1  0.51304100  0.94820100  0.71603000  1
  P  P9  1  0.85300900  0.47875200  0.18390500  1
  P  P10  1  0.47875200  0.85300900  0.18390500  1
  O  O11  1  0.88151700  0.19936700  0.61608700  1
  O  O12  1  0.19936700  0.88151700  0.61608700  1
  O  O13  1  0.59394700  0.34594500  0.76566600  1
  O  O14  1  0.34594500  0.59394700  0.76566600  1
  O  O15  1  0.11569800  0.55475700  0.67928200  1
  O  O16  1  0.55475700  0.11569800  0.67928200  1
  O  O17  1  0.03770400  0.59850100  0.02147900  1
  O  O18  1  0.59850100  0.03770400  0.02147900  1
  O  O19  1  0.84138900  0.45601000  0.36460500  1
  O  O20  1  0.45601000  0.84138900  0.36460500  1
  O  O21  1  0.95513300  0.53753700  0.53858000  1
  O  O22  1  0.53753700  0.95513300  0.53858000  1
  O  O23  1  0.83264200  0.32717900  0.86872900  1
  O  O24  1  0.32717900  0.83264200  0.86872900  1
  O  O25  1  0.03970900  0.81163900  0.17460400  1
  O  O26  1  0.81163900  0.03970900  0.17460400  1
  O  O27  1  0.19315300  0.51915000  0.24047200  1
  O  O28  1  0.51915000  0.19315300  0.24047200  1
  O  O29  1  0.81440200  0.31789000  0.20370400  1
  O  O30  1  0.31789000  0.81440200  0.20370400  1
  O  O31  1  0.53485900  0.53485900  0.01148000  1
  O  O32  1  0.88691800  0.88691800  0.80936200  1
  O  O33  1  0.87638900  0.61085300  0.77890400  1
  O  O34  1  0.61085300  0.87638900  0.77890400  1
  O  O35  1  0.74455000  0.55341100  0.15172900  1
  O  O36  1  0.55341100  0.74455000  0.15172900  1
  O  O37  1  0.80325200  0.80325200  0.59998800  1
  O  O38  1  0.34947100  0.34947100  0.59284700  1
