# generated using pymatgen
data_La5Sm3Cr8O20
_symmetry_space_group_name_H-M   'P 1'
_cell_length_a   11.08379569
_cell_length_b   11.48446294
_cell_length_c   17.76511636
_cell_angle_alpha   108.96054042
_cell_angle_beta   108.52880263
_cell_angle_gamma   89.46717785
_symmetry_Int_Tables_number   1
_chemical_formula_structural   La5Sm3Cr8O20
_chemical_formula_sum   'La20 Sm12 Cr32 O80'
_cell_volume   2016.63230770
_cell_formula_units_Z   4
loop_
 _symmetry_equiv_pos_site_id
 _symmetry_equiv_pos_as_xyz
  1  'x, y, z'
loop_
 _atom_site_type_symbol
 _atom_site_label
 _atom_site_symmetry_multiplicity
 _atom_site_fract_x
 _atom_site_fract_y
 _atom_site_fract_z
 _atom_site_occupancy
  La  La0  1  0.31016792  0.06308546  0.61715033  1
  La  La1  1  0.31070786  0.56427710  0.61754539  1
  La  La2  1  0.80892040  0.06360315  0.61800187  1
  La  La3  1  0.81062965  0.56217103  0.61776400  1
  La  La4  1  0.19234023  0.43548936  0.38231881  1
  La  La5  1  0.18682376  0.43729924  0.88117569  1
  La  La6  1  0.19221517  0.93820867  0.38176111  1
  La  La7  1  0.69159322  0.43530986  0.38068294  1
  La  La8  1  0.69456842  0.93668080  0.38102221  1
  La  La9  1  0.05840412  0.30714388  0.11980486  1
  La  La10  1  0.06121784  0.30307342  0.61780620  1
  La  La11  1  0.05942204  0.80741611  0.61905842  1
  La  La12  1  0.55963456  0.30601031  0.62060985  1
  La  La13  1  0.44189293  0.19530972  0.38025238  1
  La  La14  1  0.44192699  0.19542549  0.88230036  1
  La  La15  1  0.44332087  0.69375770  0.38136237  1
  La  La16  1  0.44029782  0.69290619  0.88114417  1
  La  La17  1  0.94147805  0.19558974  0.38055947  1
  La  La18  1  0.93938385  0.19427630  0.88175132  1
  La  La19  1  0.94351613  0.69532527  0.38269900  1
  Sm  Sm20  1  0.30381081  0.06334832  0.11477611  1
  Sm  Sm21  1  0.30607368  0.56131868  0.11266937  1
  Sm  Sm22  1  0.80220971  0.06232122  0.11490309  1
  Sm  Sm23  1  0.80361835  0.56192649  0.11498524  1
  Sm  Sm24  1  0.18902171  0.93924357  0.88559253  1
  Sm  Sm25  1  0.69296199  0.43747291  0.88569060  1
  Sm  Sm26  1  0.68782176  0.93832738  0.88304902  1
  Sm  Sm27  1  0.05622645  0.80267950  0.11406985  1
  Sm  Sm28  1  0.55592143  0.30286308  0.11657239  1
  Sm  Sm29  1  0.55394473  0.80316356  0.11429886  1
  Sm  Sm30  1  0.55637588  0.80169375  0.61476420  1
  Sm  Sm31  1  0.94080794  0.69776482  0.88593365  1
  Cr  Cr32  1  0.00397686  0.99868323  0.99975332  1
  Cr  Cr33  1  0.00381901  0.99960490  0.49907524  1
  Cr  Cr34  1  0.00553496  0.50291492  0.00193361  1
  Cr  Cr35  1  0.00432811  0.50048379  0.50022591  1
  Cr  Cr36  1  0.50593292  0.99844916  0.00016206  1
  Cr  Cr37  1  0.50505855  0.99933219  0.49955711  1
  Cr  Cr38  1  0.50869281  0.50151622  0.00292037  1
  Cr  Cr39  1  0.50550744  0.50053784  0.50054331  1
  Cr  Cr40  1  0.25683647  0.24956094  0.00090644  1
  Cr  Cr41  1  0.25471582  0.24940774  0.49887986  1
  Cr  Cr42  1  0.25579381  0.75238219  0.00138910  1
  Cr  Cr43  1  0.25587870  0.74990052  0.49989051  1
  Cr  Cr44  1  0.75514919  0.24990597  0.00105364  1
  Cr  Cr45  1  0.75392616  0.24983447  0.49980087  1
  Cr  Cr46  1  0.75714902  0.75103788  0.00113085  1
  Cr  Cr47  1  0.75355779  0.75016441  0.50098940  1
  Cr  Cr48  1  0.11834261  0.11821016  0.24719026  1
  Cr  Cr49  1  0.12147585  0.12112513  0.75141266  1
  Cr  Cr50  1  0.12003788  0.62477030  0.24857113  1
  Cr  Cr51  1  0.11740063  0.62615139  0.75204311  1
  Cr  Cr52  1  0.61870387  0.11974855  0.24747136  1
  Cr  Cr53  1  0.62078418  0.11826063  0.75096639  1
  Cr  Cr54  1  0.61934636  0.62187122  0.24826024  1
  Cr  Cr55  1  0.62628356  0.62712408  0.75213681  1
  Cr  Cr56  1  0.37183222  0.37977001  0.24848249  1
  Cr  Cr57  1  0.37406843  0.37923607  0.75171474  1
  Cr  Cr58  1  0.37002268  0.87750494  0.24786570  1
  Cr  Cr59  1  0.37221188  0.87719714  0.75120614  1
  Cr  Cr60  1  0.86833504  0.37849988  0.24783481  1
  Cr  Cr61  1  0.86969867  0.38019918  0.75182326  1
  Cr  Cr62  1  0.87070214  0.87573435  0.24644942  1
  Cr  Cr63  1  0.86879340  0.87543602  0.75139275  1
  O  O64  1  0.11888722  0.11807036  0.47800380  1
  O  O65  1  0.11441648  0.10838571  0.97529889  1
  O  O66  1  0.11919145  0.61711555  0.48030488  1
  O  O67  1  0.11419543  0.62298973  0.97733961  1
  O  O68  1  0.61721969  0.11395665  0.47693628  1
  O  O69  1  0.61636375  0.11080431  0.97592560  1
  O  O70  1  0.61684764  0.61569161  0.47960439  1
  O  O71  1  0.62176723  0.61588619  0.97713778  1
  O  O72  1  0.14276964  0.39043624  0.02798918  1
  O  O73  1  0.13908750  0.38463334  0.52187361  1
  O  O74  1  0.14120094  0.88497168  0.02777418  1
  O  O75  1  0.13982552  0.88175910  0.52197390  1
  O  O76  1  0.64205551  0.38632448  0.03104994  1
  O  O77  1  0.63985488  0.38574290  0.52460413  1
  O  O78  1  0.64247338  0.88350341  0.02993928  1
  O  O79  1  0.63700353  0.88207679  0.52514479  1
  O  O80  1  0.36703760  0.11018424  0.47604497  1
  O  O81  1  0.36308891  0.10120927  0.97254884  1
  O  O82  1  0.36801334  0.61165272  0.47638697  1
  O  O83  1  0.36713594  0.61236626  0.97861020  1
  O  O84  1  0.86546834  0.11354847  0.47618614  1
  O  O85  1  0.86087602  0.10301449  0.97233841  1
  O  O86  1  0.86620118  0.61248501  0.47738669  1
  O  O87  1  0.86505457  0.61158600  0.97241361  1
  O  O88  1  0.39582583  0.39650261  0.02865248  1
  O  O89  1  0.38988107  0.39023050  0.52099759  1
  O  O90  1  0.39031698  0.89236393  0.02793123  1
  O  O91  1  0.39150842  0.88621932  0.52143898  1
  O  O92  1  0.88734967  0.39788810  0.02581621  1
  O  O93  1  0.88755555  0.38710923  0.52043027  1
  O  O94  1  0.89117110  0.89125850  0.02838118  1
  O  O95  1  0.88437383  0.88416163  0.52016646  1
  O  O96  1  0.08610425  0.10515064  0.12415619  1
  O  O97  1  0.07476098  0.10032347  0.62598357  1
  O  O98  1  0.08494405  0.60897765  0.12602013  1
  O  O99  1  0.07236061  0.60337640  0.62630266  1
  O  O100  1  0.58560330  0.10733347  0.12414720  1
  O  O101  1  0.57556702  0.10260916  0.62486835  1
  O  O102  1  0.58709046  0.61035556  0.12636536  1
  O  O103  1  0.57385282  0.60564567  0.62623912  1
  O  O104  1  0.45139374  0.39923771  0.37505094  1
  O  O105  1  0.46362826  0.39896536  0.87722102  1
  O  O106  1  0.44605972  0.89765520  0.37284673  1
  O  O107  1  0.46412180  0.89315538  0.87577613  1
  O  O108  1  0.94779070  0.40016302  0.37413719  1
  O  O109  1  0.95235005  0.39701101  0.87695098  1
  O  O110  1  0.94344850  0.89791366  0.37150377  1
  O  O111  1  0.95535279  0.89225019  0.87463234  1
  O  O112  1  0.33872110  0.26597353  0.12578679  1
  O  O113  1  0.32655682  0.27362141  0.62540668  1
  O  O114  1  0.33342393  0.76872373  0.12560646  1
  O  O115  1  0.33612120  0.77443725  0.62534969  1
  O  O116  1  0.83037971  0.26521774  0.12498541  1
  O  O117  1  0.82567733  0.27434952  0.62584210  1
  O  O118  1  0.83700766  0.76597779  0.12454030  1
  O  O119  1  0.82322409  0.77453677  0.62691908  1
  O  O120  1  0.19803924  0.22462658  0.37299227  1
  O  O121  1  0.20147334  0.23121394  0.87526056  1
  O  O122  1  0.19457349  0.72623620  0.37374589  1
  O  O123  1  0.20252815  0.73428946  0.87686620  1
  O  O124  1  0.69558202  0.22617097  0.37388415  1
  O  O125  1  0.70102297  0.23329299  0.87579852  1
  O  O126  1  0.69310165  0.72473692  0.37398860  1
  O  O127  1  0.70893114  0.73570303  0.87664987  1
  O  O128  1  0.41425967  0.05955417  0.24491684  1
  O  O129  1  0.42191369  0.06314174  0.75029051  1
  O  O130  1  0.41517399  0.56915208  0.24421523  1
  O  O131  1  0.43143714  0.56603435  0.74991906  1
  O  O132  1  0.91336705  0.06052499  0.24500210  1
  O  O133  1  0.92075521  0.05493445  0.75020503  1
  O  O134  1  0.91653378  0.56797410  0.24560628  1
  O  O135  1  0.91897626  0.57247093  0.75543299  1
  O  O136  1  0.17283671  0.44355258  0.25093383  1
  O  O137  1  0.17387164  0.44327190  0.75047055  1
  O  O138  1  0.16600938  0.92691378  0.24513043  1
  O  O139  1  0.16904842  0.93382632  0.75515254  1
  O  O140  1  0.66618613  0.43472487  0.24565615  1
  O  O141  1  0.67262156  0.43459868  0.75551994  1
  O  O142  1  0.66700002  0.92582414  0.24457108  1
  O  O143  1  0.66604494  0.92110370  0.74941419  1
