# generated using pymatgen
data_SmH32C8N4Cl7
_symmetry_space_group_name_H-M   'P 1'
_cell_length_a   8.84379000
_cell_length_b   10.55512300
_cell_length_c   13.52336400
_cell_angle_alpha   90.00000000
_cell_angle_beta   90.00000000
_cell_angle_gamma   90.00000000
_symmetry_Int_Tables_number   1
_chemical_formula_structural   SmH32C8N4Cl7
_chemical_formula_sum   'Sm2 H64 C16 N8 Cl14'
_cell_volume   1262.36939780
_cell_formula_units_Z   2
loop_
 _symmetry_equiv_pos_site_id
 _symmetry_equiv_pos_as_xyz
  1  'x, y, z'
loop_
 _atom_site_type_symbol
 _atom_site_label
 _atom_site_symmetry_multiplicity
 _atom_site_fract_x
 _atom_site_fract_y
 _atom_site_fract_z
 _atom_site_occupancy
  Sm  Sm0  1  0.07086500  0.50000000  0.00000000  1
  Sm  Sm1  1  0.92913500  0.00000000  0.50000000  1
  H  H2  1  0.02165800  0.22688400  0.82524500  1
  H  H3  1  0.02165800  0.77311600  0.17475500  1
  H  H4  1  0.97834200  0.27311600  0.32524500  1
  H  H5  1  0.97834200  0.72688400  0.67475500  1
  H  H6  1  0.03737400  0.10934800  0.74378700  1
  H  H7  1  0.03737400  0.89065200  0.25621300  1
  H  H8  1  0.96262600  0.39065200  0.24378700  1
  H  H9  1  0.96262600  0.60934800  0.75621300  1
  H  H10  1  0.45778500  0.17771100  0.05729000  1
  H  H11  1  0.45778500  0.82228900  0.94271000  1
  H  H12  1  0.54221500  0.32228900  0.55729000  1
  H  H13  1  0.54221500  0.67771100  0.44271000  1
  H  H14  1  0.37553700  0.32184700  0.06606200  1
  H  H15  1  0.37553700  0.67815300  0.93393800  1
  H  H16  1  0.62446300  0.17815300  0.56606200  1
  H  H17  1  0.62446300  0.82184700  0.43393800  1
  H  H18  1  0.53623100  0.18539600  0.22751400  1
  H  H19  1  0.53623100  0.81460400  0.77248600  1
  H  H20  1  0.46376900  0.31460400  0.72751400  1
  H  H21  1  0.46376900  0.68539600  0.27248600  1
  H  H22  1  0.33687900  0.20841000  0.21666900  1
  H  H23  1  0.33687900  0.79159000  0.78333100  1
  H  H24  1  0.66312100  0.29159000  0.71666900  1
  H  H25  1  0.66312100  0.70841000  0.28333100  1
  H  H26  1  0.45780400  0.34155600  0.23764300  1
  H  H27  1  0.45780400  0.65844400  0.76235700  1
  H  H28  1  0.54219600  0.15844400  0.73764300  1
  H  H29  1  0.54219600  0.84155600  0.26235700  1
  H  H30  1  0.17380300  0.11530600  0.94464000  1
  H  H31  1  0.17380300  0.88469400  0.05536000  1
  H  H32  1  0.82619700  0.38469400  0.44464000  1
  H  H33  1  0.82619700  0.61530600  0.55536000  1
  H  H34  1  0.27086800  0.13244700  0.82992200  1
  H  H35  1  0.27086800  0.86755300  0.17007800  1
  H  H36  1  0.72913200  0.36755300  0.32992200  1
  H  H37  1  0.72913200  0.63244700  0.67007800  1
  H  H38  1  0.18458500  0.98408300  0.86070000  1
  H  H39  1  0.18458500  0.01591700  0.13930000  1
  H  H40  1  0.81541500  0.51591700  0.36070000  1
  H  H41  1  0.81541500  0.48408300  0.63930000  1
  H  H42  1  0.90472400  0.96653000  0.85748300  1
  H  H43  1  0.90472400  0.03347000  0.14251700  1
  H  H44  1  0.09527600  0.53347000  0.35748300  1
  H  H45  1  0.09527600  0.46653000  0.64251700  1
  H  H46  1  0.79531600  0.09869100  0.81638400  1
  H  H47  1  0.79531600  0.90130900  0.18361600  1
  H  H48  1  0.20468400  0.40130900  0.31638400  1
  H  H49  1  0.20468400  0.59869100  0.68361600  1
  H  H50  1  0.87799300  0.10070600  0.93689000  1
  H  H51  1  0.87799300  0.89929400  0.06311000  1
  H  H52  1  0.12200700  0.39929400  0.43689000  1
  H  H53  1  0.12200700  0.60070600  0.56311000  1
  H  H54  1  0.61616600  0.42221600  0.09544000  1
  H  H55  1  0.61616600  0.57778400  0.90456000  1
  H  H56  1  0.38383400  0.07778400  0.59544000  1
  H  H57  1  0.38383400  0.92221600  0.40456000  1
  H  H58  1  0.61311600  0.33585800  0.98178400  1
  H  H59  1  0.61311600  0.66414200  0.01821600  1
  H  H60  1  0.38688400  0.16414200  0.48178400  1
  H  H61  1  0.38688400  0.83585800  0.51821600  1
  H  H62  1  0.70340100  0.26935800  0.08784000  1
  H  H63  1  0.70340100  0.73064200  0.91216000  1
  H  H64  1  0.29659900  0.23064200  0.58784000  1
  H  H65  1  0.29659900  0.76935800  0.41216000  1
  C  C66  1  0.44806600  0.24962400  0.20101200  1
  C  C67  1  0.44806600  0.75037600  0.79898800  1
  C  C68  1  0.55193400  0.25037600  0.70101200  1
  C  C69  1  0.55193400  0.74962400  0.29898800  1
  C  C70  1  0.17550100  0.08656600  0.86710500  1
  C  C71  1  0.17550100  0.91343400  0.13289500  1
  C  C72  1  0.82449900  0.41343400  0.36710500  1
  C  C73  1  0.82449900  0.58656600  0.63289500  1
  C  C74  1  0.89287500  0.06921900  0.86059900  1
  C  C75  1  0.89287500  0.93078100  0.13940100  1
  C  C76  1  0.10712500  0.43078100  0.36059900  1
  C  C77  1  0.10712500  0.56921900  0.63940100  1
  C  C78  1  0.60920300  0.32799700  0.06253400  1
  C  C79  1  0.60920300  0.67200300  0.93746600  1
  C  C80  1  0.39079700  0.17200300  0.56253400  1
  C  C81  1  0.39079700  0.82799700  0.43746600  1
  N  N82  1  0.03225400  0.12922500  0.81904100  1
  N  N83  1  0.03225400  0.87077500  0.18095900  1
  N  N84  1  0.96774600  0.37077500  0.31904100  1
  N  N85  1  0.96774600  0.62922500  0.68095900  1
  N  N86  1  0.46404200  0.26754000  0.09226500  1
  N  N87  1  0.46404200  0.73246000  0.90773500  1
  N  N88  1  0.53595800  0.23246000  0.59226500  1
  N  N89  1  0.53595800  0.76754000  0.40773500  1
  Cl  Cl90  1  0.06153900  0.26982700  0.09288000  1
  Cl  Cl91  1  0.06153900  0.73017300  0.90712000  1
  Cl  Cl92  1  0.93846100  0.23017300  0.59288000  1
  Cl  Cl93  1  0.93846100  0.76982700  0.40712000  1
  Cl  Cl94  1  0.87356600  0.41417200  0.85887900  1
  Cl  Cl95  1  0.87356600  0.58582800  0.14112100  1
  Cl  Cl96  1  0.12643400  0.08582800  0.35887900  1
  Cl  Cl97  1  0.12643400  0.91417200  0.64112100  1
  Cl  Cl98  1  0.29920300  0.57899900  0.12012200  1
  Cl  Cl99  1  0.29920300  0.42100100  0.87987800  1
  Cl  Cl100  1  0.70079700  0.92100100  0.62012200  1
  Cl  Cl101  1  0.70079700  0.07899900  0.37987800  1
  Cl  Cl102  1  0.51807100  0.00000000  0.00000000  1
  Cl  Cl103  1  0.48192900  0.50000000  0.50000000  1
