# generated using pymatgen
data_Mg6BC
_symmetry_space_group_name_H-M   'P 1'
_cell_length_a   6.35373690
_cell_length_b   6.35373690
_cell_length_c   3.83465000
_cell_angle_alpha   90.00000000
_cell_angle_beta   90.00000000
_cell_angle_gamma   101.94192838
_symmetry_Int_Tables_number   1
_chemical_formula_structural   Mg6BC
_chemical_formula_sum   'Mg6 B1 C1'
_cell_volume   151.45440483
_cell_formula_units_Z   1
loop_
 _symmetry_equiv_pos_site_id
 _symmetry_equiv_pos_as_xyz
  1  'x, y, z'
loop_
 _atom_site_type_symbol
 _atom_site_label
 _atom_site_symmetry_multiplicity
 _atom_site_fract_x
 _atom_site_fract_y
 _atom_site_fract_z
 _atom_site_occupancy
  Mg  Mg0  1  0.40722400  0.08380400  0.50000000  1
  Mg  Mg1  1  0.91619600  0.59277600  0.50000000  1
  Mg  Mg2  1  0.12994900  0.33746500  0.00000000  1
  Mg  Mg3  1  0.66253500  0.87005100  0.00000000  1
  Mg  Mg4  1  0.64866100  0.35133900  0.00000000  1
  Mg  Mg5  1  0.16580800  0.83419200  0.00000000  1
  B  B6  1  0.80519400  0.19480600  0.50000000  1
  C  C7  1  0.26443600  0.73556400  0.50000000  1
