# generated using pymatgen
data_CeSe2
_symmetry_space_group_name_H-M   'P 1'
_cell_length_a   23.81227738
_cell_length_b   23.81227738
_cell_length_c   23.81227738
_cell_angle_alpha   60.00000000
_cell_angle_beta   60.00000000
_cell_angle_gamma   60.00000000
_symmetry_Int_Tables_number   1
_chemical_formula_structural   CeSe2
_chemical_formula_sum   'Ce34 Se68'
_cell_volume   9547.45896853
_cell_formula_units_Z   34
loop_
 _symmetry_equiv_pos_site_id
 _symmetry_equiv_pos_as_xyz
  1  'x, y, z'
loop_
 _atom_site_type_symbol
 _atom_site_label
 _atom_site_symmetry_multiplicity
 _atom_site_fract_x
 _atom_site_fract_y
 _atom_site_fract_z
 _atom_site_occupancy
  Ce  Ce0  1  0.26507814  0.99401250  0.37048403  1
  Ce  Ce1  1  0.87048403  0.37042534  0.76507814  1
  Ce  Ce2  1  0.87042534  0.37048403  0.99401250  1
  Ce  Ce3  1  0.49401250  0.76507814  0.37042534  1
  Ce  Ce4  1  0.26507814  0.37042534  0.99401250  1
  Ce  Ce5  1  0.87048403  0.99401250  0.37042534  1
  Ce  Ce6  1  0.87042534  0.76507814  0.37048403  1
  Ce  Ce7  1  0.49401250  0.37048403  0.76507814  1
  Ce  Ce8  1  0.26507814  0.37048403  0.37042534  1
  Ce  Ce9  1  0.87048403  0.76507814  0.99401250  1
  Ce  Ce10  1  0.87042534  0.99401250  0.76507814  1
  Ce  Ce11  1  0.49401250  0.37042534  0.37048403  1
  Ce  Ce12  1  0.73492186  0.00598750  0.62951597  1
  Ce  Ce13  1  0.12951597  0.62957466  0.23492186  1
  Ce  Ce14  1  0.12957466  0.62951597  0.00598750  1
  Ce  Ce15  1  0.50598750  0.23492186  0.62957466  1
  Ce  Ce16  1  0.73492186  0.62957466  0.00598750  1
  Ce  Ce17  1  0.12951597  0.00598750  0.62957466  1
  Ce  Ce18  1  0.12957466  0.23492186  0.62951597  1
  Ce  Ce19  1  0.50598750  0.62951597  0.23492186  1
  Ce  Ce20  1  0.73492186  0.62951597  0.62957466  1
  Ce  Ce21  1  0.12951597  0.23492186  0.00598750  1
  Ce  Ce22  1  0.12957466  0.00598750  0.23492186  1
  Ce  Ce23  1  0.50598750  0.62957466  0.62951597  1
  Ce  Ce24  1  0.71717415  0.84847755  0.21717415  1
  Ce  Ce25  1  0.71717415  0.21717415  0.21717415  1
  Ce  Ce26  1  0.71717415  0.21717415  0.84847755  1
  Ce  Ce27  1  0.34847755  0.21717415  0.21717415  1
  Ce  Ce28  1  0.28282585  0.15152245  0.78282585  1
  Ce  Ce29  1  0.28282585  0.78282585  0.78282585  1
  Ce  Ce30  1  0.28282585  0.78282585  0.15152245  1
  Ce  Ce31  1  0.65152245  0.78282585  0.78282585  1
  Ce  Ce32  1  0.62500000  0.12500000  0.12500000  1
  Ce  Ce33  1  0.37500000  0.87500000  0.87500000  1
  Se  Se34  1  0.99982701  0.00043177  0.68693913  1
  Se  Se35  1  0.18693913  0.31280209  0.49982701  1
  Se  Se36  1  0.81280209  0.68693913  0.00043177  1
  Se  Se37  1  0.50043177  0.49982701  0.31280209  1
  Se  Se38  1  0.99982701  0.31280209  0.00043177  1
  Se  Se39  1  0.18693913  0.00043177  0.31280209  1
  Se  Se40  1  0.81280209  0.49982701  0.68693913  1
  Se  Se41  1  0.50043177  0.68693913  0.49982701  1
  Se  Se42  1  0.99982701  0.68693913  0.31280209  1
  Se  Se43  1  0.18693913  0.49982701  0.00043177  1
  Se  Se44  1  0.81280209  0.00043177  0.49982701  1
  Se  Se45  1  0.50043177  0.31280209  0.68693913  1
  Se  Se46  1  0.00017299  0.99956823  0.31306087  1
  Se  Se47  1  0.81306087  0.68719791  0.50017299  1
  Se  Se48  1  0.18719791  0.31306087  0.99956823  1
  Se  Se49  1  0.49956823  0.50017299  0.68719791  1
  Se  Se50  1  0.00017299  0.68719791  0.99956823  1
  Se  Se51  1  0.81306087  0.99956823  0.68719791  1
  Se  Se52  1  0.18719791  0.50017299  0.31306087  1
  Se  Se53  1  0.49956823  0.31306087  0.50017299  1
  Se  Se54  1  0.00017299  0.31306087  0.68719791  1
  Se  Se55  1  0.81306087  0.50017299  0.99956823  1
  Se  Se56  1  0.18719791  0.99956823  0.50017299  1
  Se  Se57  1  0.49956823  0.68719791  0.31306087  1
  Se  Se58  1  0.39346780  0.70596478  0.19459027  1
  Se  Se59  1  0.69459027  0.70597715  0.89346780  1
  Se  Se60  1  0.20597715  0.19459027  0.70596478  1
  Se  Se61  1  0.20596478  0.89346780  0.70597715  1
  Se  Se62  1  0.39346780  0.70597715  0.70596478  1
  Se  Se63  1  0.69459027  0.70596478  0.70597715  1
  Se  Se64  1  0.20597715  0.89346780  0.19459027  1
  Se  Se65  1  0.20596478  0.19459027  0.89346780  1
  Se  Se66  1  0.39346780  0.19459027  0.70597715  1
  Se  Se67  1  0.69459027  0.89346780  0.70596478  1
  Se  Se68  1  0.20597715  0.70596478  0.89346780  1
  Se  Se69  1  0.20596478  0.70597715  0.19459027  1
  Se  Se70  1  0.60653220  0.29403522  0.80540973  1
  Se  Se71  1  0.30540973  0.29402285  0.10653220  1
  Se  Se72  1  0.79402285  0.80540973  0.29403522  1
  Se  Se73  1  0.79403522  0.10653220  0.29402285  1
  Se  Se74  1  0.60653220  0.29402285  0.29403522  1
  Se  Se75  1  0.30540973  0.29403522  0.29402285  1
  Se  Se76  1  0.79402285  0.10653220  0.80540973  1
  Se  Se77  1  0.79403522  0.80540973  0.10653220  1
  Se  Se78  1  0.60653220  0.80540973  0.29402285  1
  Se  Se79  1  0.30540973  0.10653220  0.29403522  1
  Se  Se80  1  0.79402285  0.29403522  0.10653220  1
  Se  Se81  1  0.79403522  0.29402285  0.80540973  1
  Se  Se82  1  0.87316230  0.87683770  0.87683770  1
  Se  Se83  1  0.37683770  0.37316230  0.37316230  1
  Se  Se84  1  0.87316230  0.37316230  0.87683770  1
  Se  Se85  1  0.37683770  0.87683770  0.37316230  1
  Se  Se86  1  0.87316230  0.87683770  0.37316230  1
  Se  Se87  1  0.37683770  0.37316230  0.87683770  1
  Se  Se88  1  0.12683770  0.12316230  0.12316230  1
  Se  Se89  1  0.62316230  0.62683770  0.62683770  1
  Se  Se90  1  0.12683770  0.62683770  0.12316230  1
  Se  Se91  1  0.62316230  0.12316230  0.62683770  1
  Se  Se92  1  0.12683770  0.12316230  0.62683770  1
  Se  Se93  1  0.62316230  0.62683770  0.12316230  1
  Se  Se94  1  0.67104718  0.98685846  0.17104718  1
  Se  Se95  1  0.67104718  0.17104718  0.17104718  1
  Se  Se96  1  0.67104718  0.17104718  0.98685846  1
  Se  Se97  1  0.48685846  0.17104718  0.17104718  1
  Se  Se98  1  0.32895282  0.01314154  0.82895282  1
  Se  Se99  1  0.32895282  0.82895282  0.82895282  1
  Se  Se100  1  0.32895282  0.82895282  0.01314154  1
  Se  Se101  1  0.51314154  0.82895282  0.82895282  1
