# generated using pymatgen
data_K3CO3F
_symmetry_space_group_name_H-M   'P 1'
_cell_length_a   7.02067884
_cell_length_b   7.02067884
_cell_length_c   7.02067888
_cell_angle_alpha   65.34563334
_cell_angle_beta   65.34563334
_cell_angle_gamma   65.34562583
_symmetry_Int_Tables_number   1
_chemical_formula_structural   K3CO3F
_chemical_formula_sum   'K6 C2 O6 F2'
_cell_volume   273.16978630
_cell_formula_units_Z   2
loop_
 _symmetry_equiv_pos_site_id
 _symmetry_equiv_pos_as_xyz
  1  'x, y, z'
loop_
 _atom_site_type_symbol
 _atom_site_label
 _atom_site_symmetry_multiplicity
 _atom_site_fract_x
 _atom_site_fract_y
 _atom_site_fract_z
 _atom_site_occupancy
  K  K0  1  0.32494800  0.75000000  0.17505200  1
  K  K1  1  0.17505200  0.32494800  0.75000000  1
  K  K2  1  0.75000000  0.17505200  0.32494800  1
  K  K3  1  0.67505200  0.25000000  0.82494800  1
  K  K4  1  0.82494800  0.67505200  0.25000000  1
  K  K5  1  0.25000000  0.82494800  0.67505200  1
  C  C6  1  0.25000000  0.25000000  0.25000000  1
  C  C7  1  0.75000000  0.75000000  0.75000000  1
  O  O8  1  0.92270400  0.75000000  0.57729600  1
  O  O9  1  0.57729600  0.92270400  0.75000000  1
  O  O10  1  0.75000000  0.57729600  0.92270400  1
  O  O11  1  0.07729600  0.25000000  0.42270400  1
  O  O12  1  0.25000000  0.42270400  0.07729600  1
  O  O13  1  0.42270400  0.07729600  0.25000000  1
  F  F14  1  0.00000000  0.00000000  0.00000000  1
  F  F15  1  0.50000000  0.50000000  0.50000000  1
