# generated using pymatgen
data_TaCuN2
_symmetry_space_group_name_H-M   'P 1'
_cell_length_a   6.12503118
_cell_length_b   6.12503118
_cell_length_c   6.12503151
_cell_angle_alpha   29.83393465
_cell_angle_beta   29.83393465
_cell_angle_gamma   29.83393160
_symmetry_Int_Tables_number   1
_chemical_formula_structural   TaCuN2
_chemical_formula_sum   'Ta1 Cu1 N2'
_cell_volume   50.36281777
_cell_formula_units_Z   1
loop_
 _symmetry_equiv_pos_site_id
 _symmetry_equiv_pos_as_xyz
  1  'x, y, z'
loop_
 _atom_site_type_symbol
 _atom_site_label
 _atom_site_symmetry_multiplicity
 _atom_site_fract_x
 _atom_site_fract_y
 _atom_site_fract_z
 _atom_site_occupancy
  Ta  Ta0  1  0.50000000  0.50000000  0.50000000  1
  Cu  Cu1  1  0.00000000  0.00000000  0.00000000  1
  N  N2  1  0.89405500  0.89405500  0.89405500  1
  N  N3  1  0.10594500  0.10594500  0.10594500  1
