# generated using pymatgen
data_Pr6O11
_symmetry_space_group_name_H-M   'P 1'
_cell_length_a   6.91687300
_cell_length_b   12.26425233
_cell_length_c   13.45349030
_cell_angle_alpha   89.09660662
_cell_angle_beta   78.27549531
_cell_angle_gamma   89.56569399
_symmetry_Int_Tables_number   1
_chemical_formula_structural   Pr6O11
_chemical_formula_sum   'Pr24 O44'
_cell_volume   1117.30190474
_cell_formula_units_Z   4
loop_
 _symmetry_equiv_pos_site_id
 _symmetry_equiv_pos_as_xyz
  1  'x, y, z'
loop_
 _atom_site_type_symbol
 _atom_site_label
 _atom_site_symmetry_multiplicity
 _atom_site_fract_x
 _atom_site_fract_y
 _atom_site_fract_z
 _atom_site_occupancy
  Pr  Pr0  1  0.49139400  0.42151100  0.25118600  1
  Pr  Pr1  1  0.50860600  0.57848900  0.74881400  1
  Pr  Pr2  1  0.75010400  0.40507400  0.50465000  1
  Pr  Pr3  1  0.24989600  0.59492600  0.49535000  1
  Pr  Pr4  1  0.24712000  0.23693500  0.50571500  1
  Pr  Pr5  1  0.75288000  0.76306500  0.49428500  1
  Pr  Pr6  1  0.26340300  0.41621500  0.00252500  1
  Pr  Pr7  1  0.73659700  0.58378500  0.99747500  1
  Pr  Pr8  1  0.24237300  0.07973300  0.99775000  1
  Pr  Pr9  1  0.75762700  0.92026700  0.00225000  1
  Pr  Pr10  1  0.00849200  0.73095500  0.74976200  1
  Pr  Pr11  1  0.99150800  0.26904500  0.25023800  1
  Pr  Pr12  1  0.25684900  0.91900100  0.47784100  1
  Pr  Pr13  1  0.74315100  0.08099900  0.52215900  1
  Pr  Pr14  1  0.54370200  0.91146000  0.75562400  1
  Pr  Pr15  1  0.45629800  0.08854000  0.24437600  1
  Pr  Pr16  1  0.74468900  0.24731500  0.02053200  1
  Pr  Pr17  1  0.25531100  0.75268500  0.97946800  1
  Pr  Pr18  1  0.46614700  0.24533700  0.74855100  1
  Pr  Pr19  1  0.53385300  0.75466300  0.25144900  1
  Pr  Pr20  1  0.01607400  0.42631800  0.73889700  1
  Pr  Pr21  1  0.98392600  0.57368200  0.26110300  1
  Pr  Pr22  1  0.00530100  0.07732100  0.75357500  1
  Pr  Pr23  1  0.99469900  0.92267900  0.24642500  1
  O  O24  1  0.07782800  0.06478100  0.57263000  1
  O  O25  1  0.92217200  0.93521900  0.42737000  1
  O  O26  1  0.47162700  0.07757900  0.42258000  1
  O  O27  1  0.52837300  0.92242100  0.57742000  1
  O  O28  1  0.06728600  0.76875700  0.56719600  1
  O  O29  1  0.93271400  0.23124300  0.43280400  1
  O  O30  1  0.70607100  0.74479100  0.67879200  1
  O  O31  1  0.29392900  0.25520900  0.32120800  1
  O  O32  1  0.85999500  0.90492900  0.80709900  1
  O  O33  1  0.14000500  0.09507100  0.19290100  1
  O  O34  1  0.31052300  0.06213400  0.80750300  1
  O  O35  1  0.68947700  0.93786600  0.19249700  1
  O  O36  1  0.55076300  0.24488500  0.56594200  1
  O  O37  1  0.44923700  0.75511500  0.43405800  1
  O  O38  1  0.69536600  0.09307900  0.70583900  1
  O  O39  1  0.30463400  0.90692100  0.29416100  1
  O  O40  1  0.57002800  0.41602100  0.06410200  1
  O  O41  1  0.67673900  0.24196400  0.20136100  1
  O  O42  1  0.45565500  0.91361200  0.93763100  1
  O  O43  1  0.54434500  0.08638800  0.06236900  1
  O  O44  1  0.07146400  0.25165200  0.06275700  1
  O  O45  1  0.92853600  0.74834800  0.93724300  1
  O  O46  1  0.92791400  0.09211900  0.93506500  1
  O  O47  1  0.07208600  0.90788100  0.06493500  1
  O  O48  1  0.84926700  0.75281100  0.29991200  1
  O  O49  1  0.15073300  0.24718900  0.70008800  1
  O  O50  1  0.58430300  0.57925000  0.55529900  1
  O  O51  1  0.41569700  0.42075000  0.44470100  1
  O  O52  1  0.69289100  0.58514700  0.18282400  1
  O  O53  1  0.30710900  0.41485300  0.81717600  1
  O  O54  1  0.05444200  0.59755300  0.06975700  1
  O  O55  1  0.94555800  0.40244700  0.93024300  1
  O  O56  1  0.92085700  0.58869000  0.44970900  1
  O  O57  1  0.07914300  0.41131000  0.55029100  1
  O  O58  1  0.79021400  0.42150600  0.32328800  1
  O  O59  1  0.20978600  0.57849400  0.67671200  1
  O  O60  1  0.30715600  0.60038600  0.30349400  1
  O  O61  1  0.69284400  0.39961400  0.69650600  1
  O  O62  1  0.18239900  0.42203400  0.18800200  1
  O  O63  1  0.81760100  0.57796600  0.81199800  1
  O  O64  1  0.53135900  0.75619200  0.07096100  1
  O  O65  1  0.46864100  0.24380800  0.92903900  1
  O  O66  1  0.42997200  0.58397900  0.93589800  1
  O  O67  1  0.32326100  0.75803600  0.79863900  1
