# generated using pymatgen
data_TaNi3
_symmetry_space_group_name_H-M   'P 1'
_cell_length_a   4.24630100
_cell_length_b   4.54252900
_cell_length_c   5.10837000
_cell_angle_alpha   90.00000000
_cell_angle_beta   90.00000000
_cell_angle_gamma   90.00000000
_symmetry_Int_Tables_number   1
_chemical_formula_structural   TaNi3
_chemical_formula_sum   'Ta2 Ni6'
_cell_volume   98.53507019
_cell_formula_units_Z   2
loop_
 _symmetry_equiv_pos_site_id
 _symmetry_equiv_pos_as_xyz
  1  'x, y, z'
loop_
 _atom_site_type_symbol
 _atom_site_label
 _atom_site_symmetry_multiplicity
 _atom_site_fract_x
 _atom_site_fract_y
 _atom_site_fract_z
 _atom_site_occupancy
  Ta  Ta0  1  0.00000000  0.34898300  0.00000000  1
  Ta  Ta1  1  0.50000000  0.65101700  0.50000000  1
  Ni  Ni2  1  0.50000000  0.68053900  0.00000000  1
  Ni  Ni3  1  0.00000000  0.31946100  0.50000000  1
  Ni  Ni4  1  0.00000000  0.84117100  0.24970900  1
  Ni  Ni5  1  0.50000000  0.15882900  0.25029100  1
  Ni  Ni6  1  0.00000000  0.84117100  0.75029100  1
  Ni  Ni7  1  0.50000000  0.15882900  0.74970900  1
