# generated using pymatgen
data_RbMg6Mo
_symmetry_space_group_name_H-M   'P 1'
_cell_length_a   6.30933863
_cell_length_b   6.30933863
_cell_length_c   5.22257200
_cell_angle_alpha   90.00000000
_cell_angle_beta   90.00000000
_cell_angle_gamma   110.81618308
_symmetry_Int_Tables_number   1
_chemical_formula_structural   RbMg6Mo
_chemical_formula_sum   'Rb1 Mg6 Mo1'
_cell_volume   194.32833350
_cell_formula_units_Z   1
loop_
 _symmetry_equiv_pos_site_id
 _symmetry_equiv_pos_as_xyz
  1  'x, y, z'
loop_
 _atom_site_type_symbol
 _atom_site_label
 _atom_site_symmetry_multiplicity
 _atom_site_fract_x
 _atom_site_fract_y
 _atom_site_fract_z
 _atom_site_occupancy
  Rb  Rb0  1  0.39765900  0.60234100  0.50000000  1
  Mg  Mg1  1  0.92254100  0.68316200  0.50000000  1
  Mg  Mg2  1  0.31683800  0.07745900  0.50000000  1
  Mg  Mg3  1  0.84343600  0.15656400  0.50000000  1
  Mg  Mg4  1  0.66049700  0.88909200  0.00000000  1
  Mg  Mg5  1  0.11090800  0.33950300  0.00000000  1
  Mg  Mg6  1  0.63576000  0.36424000  0.00000000  1
  Mo  Mo7  1  0.11236100  0.88763900  0.00000000  1
