# generated using pymatgen
data_CsYbS2
_symmetry_space_group_name_H-M   'P 1'
_cell_length_a   8.18035069
_cell_length_b   8.18035069
_cell_length_c   8.18035016
_cell_angle_alpha   30.25617956
_cell_angle_beta   30.25617956
_cell_angle_gamma   30.25617956
_symmetry_Int_Tables_number   1
_chemical_formula_structural   CsYbS2
_chemical_formula_sum   'Cs1 Yb1 S2'
_cell_volume   123.15165081
_cell_formula_units_Z   1
loop_
 _symmetry_equiv_pos_site_id
 _symmetry_equiv_pos_as_xyz
  1  'x, y, z'
loop_
 _atom_site_type_symbol
 _atom_site_label
 _atom_site_symmetry_multiplicity
 _atom_site_fract_x
 _atom_site_fract_y
 _atom_site_fract_z
 _atom_site_occupancy
  Cs  Cs0  1  0.00000000  0.00000000  0.00000000  1
  Yb  Yb1  1  0.50000000  0.50000000  0.50000000  1
  S  S2  1  0.77354900  0.77354900  0.77354900  1
  S  S3  1  0.22645100  0.22645100  0.22645100  1
