# generated using pymatgen
data_Ba3Zr2S7
_symmetry_space_group_name_H-M   'P 1'
_cell_length_a   13.40700331
_cell_length_b   13.40700331
_cell_length_c   13.40700331
_cell_angle_alpha   158.32843571
_cell_angle_beta   158.32843571
_cell_angle_gamma   30.83667950
_symmetry_Int_Tables_number   1
_chemical_formula_structural   Ba3Zr2S7
_chemical_formula_sum   'Ba3 Zr2 S7'
_cell_volume   328.41894421
_cell_formula_units_Z   1
loop_
 _symmetry_equiv_pos_site_id
 _symmetry_equiv_pos_as_xyz
  1  'x, y, z'
loop_
 _atom_site_type_symbol
 _atom_site_label
 _atom_site_symmetry_multiplicity
 _atom_site_fract_x
 _atom_site_fract_y
 _atom_site_fract_z
 _atom_site_occupancy
  Ba  Ba0  1  0.81907700  0.81907700  0.00000000  1
  Ba  Ba1  1  0.18092300  0.18092300  0.00000000  1
  Ba  Ba2  1  0.00000000  0.00000000  0.00000000  1
  Zr  Zr3  1  0.60032500  0.60032500  0.00000000  1
  Zr  Zr4  1  0.39967500  0.39967500  0.00000000  1
  S  S5  1  0.50000000  0.50000000  0.00000000  1
  S  S6  1  0.69822100  0.69822100  0.00000000  1
  S  S7  1  0.30177900  0.30177900  0.00000000  1
  S  S8  1  0.09624600  0.59624600  0.50000000  1
  S  S9  1  0.59624600  0.09624600  0.50000000  1
  S  S10  1  0.40375400  0.90375400  0.50000000  1
  S  S11  1  0.90375400  0.40375400  0.50000000  1
