# generated using pymatgen
data_CaSnS3
_symmetry_space_group_name_H-M   'P 1'
_cell_length_a   8.60726600
_cell_length_b   8.74571355
_cell_length_c   11.84583591
_cell_angle_alpha   69.62833062
_cell_angle_beta   83.86262972
_cell_angle_gamma   76.54816311
_symmetry_Int_Tables_number   1
_chemical_formula_structural   CaSnS3
_chemical_formula_sum   'Ca6 Sn6 S18'
_cell_volume   812.67988338
_cell_formula_units_Z   6
loop_
 _symmetry_equiv_pos_site_id
 _symmetry_equiv_pos_as_xyz
  1  'x, y, z'
loop_
 _atom_site_type_symbol
 _atom_site_label
 _atom_site_symmetry_multiplicity
 _atom_site_fract_x
 _atom_site_fract_y
 _atom_site_fract_z
 _atom_site_occupancy
  Ca  Ca0  1  0.24556700  0.24567900  0.00094900  1
  Ca  Ca1  1  0.75443300  0.75432100  0.99905100  1
  Ca  Ca2  1  0.39791800  0.73637200  0.36721300  1
  Ca  Ca3  1  0.60208200  0.26362800  0.63278700  1
  Ca  Ca4  1  0.07386400  0.42739200  0.33241400  1
  Ca  Ca5  1  0.92613600  0.57260800  0.66758600  1
  Sn  Sn6  1  0.60664900  0.34080200  0.29812800  1
  Sn  Sn7  1  0.39335100  0.65919800  0.70187200  1
  Sn  Sn8  1  0.73170000  0.23093200  0.00210800  1
  Sn  Sn9  1  0.26830000  0.76906800  0.99789200  1
  Sn  Sn10  1  0.96423200  0.97569400  0.31097200  1
  Sn  Sn11  1  0.03576800  0.02430600  0.68902800  1
  S  S12  1  0.74998100  0.55764000  0.25488600  1
  S  S13  1  0.25001900  0.44236000  0.74511400  1
  S  S14  1  0.38754400  0.39238500  0.43228700  1
  S  S15  1  0.61245600  0.60761500  0.56771300  1
  S  S16  1  0.50083500  0.31674200  0.12463800  1
  S  S17  1  0.49916500  0.68325800  0.87536200  1
  S  S18  1  0.10128300  0.57324700  0.06737300  1
  S  S19  1  0.89871700  0.42675300  0.93262700  1
  S  S20  1  0.40915100  0.85954600  0.11595400  1
  S  S21  1  0.59084900  0.14045400  0.88404600  1
  S  S22  1  0.87183600  0.95422600  0.12978200  1
  S  S23  1  0.12816400  0.04577400  0.87021800  1
  S  S24  1  0.16670900  0.13521600  0.26193300  1
  S  S25  1  0.83329100  0.86478400  0.73806700  1
  S  S26  1  0.07726200  0.69294200  0.42682300  1
  S  S27  1  0.92273800  0.30705800  0.57317700  1
  S  S28  1  0.72991400  0.06226000  0.42742600  1
  S  S29  1  0.27008600  0.93774000  0.57257400  1
