# generated using pymatgen
data_Er3P4Pd7
_symmetry_space_group_name_H-M   'P 1'
_cell_length_a   7.92298196
_cell_length_b   7.92298196
_cell_length_c   9.37490918
_cell_angle_alpha   55.89030290
_cell_angle_beta   55.89030290
_cell_angle_gamma   29.17665559
_symmetry_Int_Tables_number   1
_chemical_formula_structural   Er3P4Pd7
_chemical_formula_sum   'Er3 P4 Pd7'
_cell_volume   233.81925555
_cell_formula_units_Z   1
loop_
 _symmetry_equiv_pos_site_id
 _symmetry_equiv_pos_as_xyz
  1  'x, y, z'
loop_
 _atom_site_type_symbol
 _atom_site_label
 _atom_site_symmetry_multiplicity
 _atom_site_fract_x
 _atom_site_fract_y
 _atom_site_fract_z
 _atom_site_occupancy
  Er  Er0  1  0.50000000  0.50000000  0.50000000  1
  Er  Er1  1  0.81995000  0.81995000  0.17675600  1
  Er  Er2  1  0.18005000  0.18005000  0.82324400  1
  P  P3  1  0.39369900  0.39369900  0.32018300  1
  P  P4  1  0.60630100  0.60630100  0.67981700  1
  P  P5  1  0.84069000  0.84069000  0.75258900  1
  P  P6  1  0.15931000  0.15931000  0.24741100  1
  Pd  Pd7  1  0.66785100  0.66785100  0.07924100  1
  Pd  Pd8  1  0.00980500  0.00980500  0.21635600  1
  Pd  Pd9  1  0.99019500  0.99019500  0.78364400  1
  Pd  Pd10  1  0.50000000  0.50000000  0.00000000  1
  Pd  Pd11  1  0.19484800  0.19484800  0.46981500  1
  Pd  Pd12  1  0.80515200  0.80515200  0.53018500  1
  Pd  Pd13  1  0.33214900  0.33214900  0.92075900  1
