# generated using pymatgen
data_Ca4Sn3S10
_symmetry_space_group_name_H-M   'P 1'
_cell_length_a   6.81391298
_cell_length_b   8.06048293
_cell_length_c   16.88999400
_cell_angle_alpha   90.00000000
_cell_angle_beta   90.00000000
_cell_angle_gamma   115.00352504
_symmetry_Int_Tables_number   1
_chemical_formula_structural   Ca4Sn3S10
_chemical_formula_sum   'Ca8 Sn6 S20'
_cell_volume   840.71808897
_cell_formula_units_Z   2
loop_
 _symmetry_equiv_pos_site_id
 _symmetry_equiv_pos_as_xyz
  1  'x, y, z'
loop_
 _atom_site_type_symbol
 _atom_site_label
 _atom_site_symmetry_multiplicity
 _atom_site_fract_x
 _atom_site_fract_y
 _atom_site_fract_z
 _atom_site_occupancy
  Ca  Ca0  1  0.00353100  0.00706300  0.35804400  1
  Ca  Ca1  1  0.99646900  0.99293700  0.64195600  1
  Ca  Ca2  1  0.49646900  0.99293700  0.85804400  1
  Ca  Ca3  1  0.50353100  0.00706300  0.14195600  1
  Ca  Ca4  1  0.76660600  0.53321200  0.13936800  1
  Ca  Ca5  1  0.23339400  0.46678800  0.86063200  1
  Ca  Ca6  1  0.73339400  0.46678800  0.63936800  1
  Ca  Ca7  1  0.26660600  0.53321200  0.36063200  1
  Sn  Sn8  1  0.50000000  0.00000000  0.50000000  1
  Sn  Sn9  1  0.00000000  0.00000000  0.00000000  1
  Sn  Sn10  1  0.65999100  0.31998200  0.35349800  1
  Sn  Sn11  1  0.34000900  0.68001800  0.64650200  1
  Sn  Sn12  1  0.84000900  0.68001800  0.85349800  1
  Sn  Sn13  1  0.15999100  0.31998200  0.14650200  1
  S  S14  1  0.54908800  0.09817500  0.63597900  1
  S  S15  1  0.45091200  0.90182500  0.36402100  1
  S  S16  1  0.95091200  0.90182500  0.13597900  1
  S  S17  1  0.04908800  0.09817500  0.86402100  1
  S  S18  1  0.81743000  0.63486100  0.31038300  1
  S  S19  1  0.18257000  0.36513900  0.68961700  1
  S  S20  1  0.68257000  0.36513900  0.81038300  1
  S  S21  1  0.31743000  0.63486100  0.18961700  1
  S  S22  1  0.89185800  0.26212900  0.45575100  1
  S  S23  1  0.62972900  0.73787100  0.54424900  1
  S  S24  1  0.12972900  0.73787100  0.95575100  1
  S  S25  1  0.39185800  0.26212900  0.04424900  1
  S  S26  1  0.10814200  0.73787100  0.54424900  1
  S  S27  1  0.37027100  0.26212900  0.45575100  1
  S  S28  1  0.87027100  0.26212900  0.04424900  1
  S  S29  1  0.60814200  0.73787100  0.95575100  1
  S  S30  1  0.84973800  0.19947600  0.25000000  1
  S  S31  1  0.65026200  0.80052400  0.75000000  1
  S  S32  1  0.15026200  0.80052400  0.75000000  1
  S  S33  1  0.34973800  0.19947600  0.25000000  1
