# generated using pymatgen
data_Ca2SnS4
_symmetry_space_group_name_H-M   'P 1'
_cell_length_a   7.01900169
_cell_length_b   8.65748500
_cell_length_c   11.80309979
_cell_angle_alpha   90.00000000
_cell_angle_beta   98.55275548
_cell_angle_gamma   90.00000000
_symmetry_Int_Tables_number   1
_chemical_formula_structural   Ca2SnS4
_chemical_formula_sum   'Ca8 Sn4 S16'
_cell_volume   709.26165387
_cell_formula_units_Z   4
loop_
 _symmetry_equiv_pos_site_id
 _symmetry_equiv_pos_as_xyz
  1  'x, y, z'
loop_
 _atom_site_type_symbol
 _atom_site_label
 _atom_site_symmetry_multiplicity
 _atom_site_fract_x
 _atom_site_fract_y
 _atom_site_fract_z
 _atom_site_occupancy
  Ca  Ca0  1  0.71189600  0.13214400  0.93672700  1
  Ca  Ca1  1  0.21189600  0.36785600  0.43672700  1
  Ca  Ca2  1  0.28810400  0.86785600  0.06327300  1
  Ca  Ca3  1  0.78810400  0.63214400  0.56327300  1
  Ca  Ca4  1  0.71071100  0.50411700  0.18948000  1
  Ca  Ca5  1  0.21071100  0.99588300  0.68948100  1
  Ca  Ca6  1  0.28928900  0.49588300  0.81051900  1
  Ca  Ca7  1  0.78928900  0.00411700  0.31052000  1
  Sn  Sn8  1  0.78646200  0.71891000  0.91813500  1
  Sn  Sn9  1  0.28646200  0.78109000  0.41813500  1
  Sn  Sn10  1  0.21353800  0.28109000  0.08186500  1
  Sn  Sn11  1  0.71353800  0.21891000  0.58186500  1
  S  S12  1  0.71479300  0.45797300  0.95417500  1
  S  S13  1  0.21479300  0.04202700  0.45417500  1
  S  S14  1  0.28520700  0.54202700  0.04582500  1
  S  S15  1  0.78520700  0.95797300  0.54582500  1
  S  S16  1  0.48493600  0.85756100  0.87045100  1
  S  S17  1  0.98493600  0.64243900  0.37045100  1
  S  S18  1  0.51506400  0.14243900  0.12954900  1
  S  S19  1  0.01506400  0.35756100  0.62954900  1
  S  S20  1  0.00244100  0.73444500  0.77805100  1
  S  S21  1  0.50244100  0.76555500  0.27805100  1
  S  S22  1  0.99755900  0.26555500  0.22194900  1
  S  S23  1  0.49755900  0.23444500  0.72194900  1
  S  S24  1  0.89773600  0.85315400  0.09589800  1
  S  S25  1  0.39773600  0.64684600  0.59589800  1
  S  S26  1  0.10226400  0.14684600  0.90410200  1
  S  S27  1  0.60226400  0.35315400  0.40410200  1
