# generated using pymatgen
data_KNO3
_symmetry_space_group_name_H-M   'P 1'
_cell_length_a   5.67559400
_cell_length_b   6.95963500
_cell_length_c   7.79946800
_cell_angle_alpha   90.00000000
_cell_angle_beta   90.00000000
_cell_angle_gamma   90.00000000
_symmetry_Int_Tables_number   1
_chemical_formula_structural   KNO3
_chemical_formula_sum   'K4 N4 O12'
_cell_volume   308.07947462
_cell_formula_units_Z   4
loop_
 _symmetry_equiv_pos_site_id
 _symmetry_equiv_pos_as_xyz
  1  'x, y, z'
loop_
 _atom_site_type_symbol
 _atom_site_label
 _atom_site_symmetry_multiplicity
 _atom_site_fract_x
 _atom_site_fract_y
 _atom_site_fract_z
 _atom_site_occupancy
  K  K0  1  0.25000000  0.80900300  0.98352000  1
  K  K1  1  0.75000000  0.19099700  0.01648000  1
  K  K2  1  0.75000000  0.30900300  0.51648000  1
  K  K3  1  0.25000000  0.69099700  0.48352000  1
  N  N4  1  0.25000000  0.35933100  0.84596200  1
  N  N5  1  0.75000000  0.64066900  0.15403800  1
  N  N6  1  0.75000000  0.85933100  0.65403800  1
  N  N7  1  0.25000000  0.14066900  0.34596200  1
  O  O8  1  0.55633200  0.93518000  0.70025000  1
  O  O9  1  0.05633200  0.06482000  0.29975000  1
  O  O10  1  0.44366800  0.43518000  0.79975000  1
  O  O11  1  0.94366800  0.56482000  0.20025000  1
  O  O12  1  0.25000000  0.28802100  0.44106800  1
  O  O13  1  0.75000000  0.71197900  0.55893200  1
  O  O14  1  0.75000000  0.78802100  0.05893200  1
  O  O15  1  0.25000000  0.21197900  0.94106800  1
  O  O16  1  0.44366800  0.06482000  0.29975000  1
  O  O17  1  0.94366800  0.93518000  0.70025000  1
  O  O18  1  0.55633200  0.56482000  0.20025000  1
  O  O19  1  0.05633200  0.43518000  0.79975000  1
