# generated using pymatgen
data_CaSnS3
_symmetry_space_group_name_H-M   'P 1'
_cell_length_a   8.84125859
_cell_length_b   8.84125859
_cell_length_c   25.19747835
_cell_angle_alpha   89.67706098
_cell_angle_beta   89.67706098
_cell_angle_gamma   120.29425912
_symmetry_Int_Tables_number   1
_chemical_formula_structural   CaSnS3
_chemical_formula_sum   'Ca12 Sn12 S36'
_cell_volume   1700.56272814
_cell_formula_units_Z   12
loop_
 _symmetry_equiv_pos_site_id
 _symmetry_equiv_pos_as_xyz
  1  'x, y, z'
loop_
 _atom_site_type_symbol
 _atom_site_label
 _atom_site_symmetry_multiplicity
 _atom_site_fract_x
 _atom_site_fract_y
 _atom_site_fract_z
 _atom_site_occupancy
  Ca  Ca0  1  0.00000000  0.00000000  0.50000000  1
  Ca  Ca1  1  0.66690000  0.32173100  0.49893500  1
  Ca  Ca2  1  0.33310000  0.67826900  0.50106500  1
  Ca  Ca3  1  0.99203100  0.00796900  0.25000000  1
  Ca  Ca4  1  0.00796900  0.99203100  0.75000000  1
  Ca  Ca5  1  0.66929100  0.33070900  0.25000000  1
  Ca  Ca6  1  0.33070900  0.66929100  0.75000000  1
  Ca  Ca7  1  0.32041800  0.67958200  0.25000000  1
  Ca  Ca8  1  0.67958200  0.32041800  0.75000000  1
  Ca  Ca9  1  0.00000000  0.00000000  0.00000000  1
  Ca  Ca10  1  0.67826900  0.33310000  0.00106500  1
  Ca  Ca11  1  0.32173100  0.66690000  0.99893500  1
  Sn  Sn12  1  0.67220300  0.72495600  0.37525300  1
  Sn  Sn13  1  0.32779700  0.27504400  0.62474700  1
  Sn  Sn14  1  0.38584400  0.99513900  0.37801100  1
  Sn  Sn15  1  0.61415600  0.00486100  0.62198900  1
  Sn  Sn16  1  0.94132800  0.28255000  0.37116400  1
  Sn  Sn17  1  0.05867200  0.71745000  0.62883600  1
  Sn  Sn18  1  0.71745000  0.05867200  0.12883600  1
  Sn  Sn19  1  0.28255000  0.94132800  0.87116400  1
  Sn  Sn20  1  0.27504400  0.32779700  0.12474700  1
  Sn  Sn21  1  0.72495600  0.67220300  0.87525300  1
  Sn  Sn22  1  0.00486100  0.61415600  0.12198900  1
  Sn  Sn23  1  0.99513900  0.38584400  0.87801100  1
  S  S24  1  0.68428100  0.64617600  0.46383300  1
  S  S25  1  0.31571900  0.35382400  0.53616700  1
  S  S26  1  0.31058700  0.99719200  0.46852900  1
  S  S27  1  0.68941300  0.00280800  0.53147100  1
  S  S28  1  0.02564600  0.37371400  0.45887400  1
  S  S29  1  0.97435400  0.62628600  0.54112600  1
  S  S30  1  0.67400200  0.64421000  0.28685100  1
  S  S31  1  0.32599800  0.35579000  0.71314900  1
  S  S32  1  0.28927800  0.98664300  0.29047700  1
  S  S33  1  0.71072200  0.01335700  0.70952300  1
  S  S34  1  0.01456600  0.36085900  0.28025600  1
  S  S35  1  0.98543400  0.63914100  0.71974400  1
  S  S36  1  0.63914100  0.98543400  0.21974400  1
  S  S37  1  0.36085900  0.01456600  0.78025600  1
  S  S38  1  0.35579000  0.32599800  0.21314900  1
  S  S39  1  0.64421000  0.67400200  0.78685100  1
  S  S40  1  0.01335700  0.71072200  0.20952300  1
  S  S41  1  0.98664300  0.28927800  0.79047700  1
  S  S42  1  0.62628600  0.97435400  0.04112600  1
  S  S43  1  0.37371400  0.02564600  0.95887400  1
  S  S44  1  0.35382400  0.31571900  0.03616700  1
  S  S45  1  0.64617600  0.68428100  0.96383300  1
  S  S46  1  0.00280800  0.68941300  0.03147100  1
  S  S47  1  0.99719200  0.31058700  0.96852900  1
  S  S48  1  0.38710700  0.71678800  0.37691500  1
  S  S49  1  0.61289300  0.28321200  0.62308500  1
  S  S50  1  0.95270200  0.01007900  0.37353200  1
  S  S51  1  0.04729800  0.98992100  0.62646800  1
  S  S52  1  0.66035400  0.28082000  0.37379500  1
  S  S53  1  0.33964600  0.71918000  0.62620500  1
  S  S54  1  0.98992100  0.04729800  0.12646800  1
  S  S55  1  0.01007900  0.95270200  0.87353200  1
  S  S56  1  0.71918000  0.33964600  0.12620500  1
  S  S57  1  0.28082000  0.66035400  0.87379500  1
  S  S58  1  0.28321200  0.61289300  0.12308500  1
  S  S59  1  0.71678800  0.38710700  0.87691500  1
