# generated using pymatgen
data_SrZrN2
_symmetry_space_group_name_H-M   'P 1'
_cell_length_a   6.25930110
_cell_length_b   6.25930110
_cell_length_c   6.25930154
_cell_angle_alpha   31.49866609
_cell_angle_beta   31.49866609
_cell_angle_gamma   31.49865888
_symmetry_Int_Tables_number   1
_chemical_formula_structural   SrZrN2
_chemical_formula_sum   'Sr1 Zr1 N2'
_cell_volume   59.43316614
_cell_formula_units_Z   1
loop_
 _symmetry_equiv_pos_site_id
 _symmetry_equiv_pos_as_xyz
  1  'x, y, z'
loop_
 _atom_site_type_symbol
 _atom_site_label
 _atom_site_symmetry_multiplicity
 _atom_site_fract_x
 _atom_site_fract_y
 _atom_site_fract_z
 _atom_site_occupancy
  Sr  Sr0  1  0.00000000  0.00000000  0.00000000  1
  Zr  Zr1  1  0.50000000  0.50000000  0.50000000  1
  N  N2  1  0.76610500  0.76610500  0.76610500  1
  N  N3  1  0.23389500  0.23389500  0.23389500  1
