# generated using pymatgen
data_CaSn2S5
_symmetry_space_group_name_H-M   'P 1'
_cell_length_a   7.40676270
_cell_length_b   7.40676270
_cell_length_c   18.91779100
_cell_angle_alpha   90.00000000
_cell_angle_beta   90.00000000
_cell_angle_gamma   123.16513172
_symmetry_Int_Tables_number   1
_chemical_formula_structural   CaSn2S5
_chemical_formula_sum   'Ca4 Sn8 S20'
_cell_volume   868.76691099
_cell_formula_units_Z   4
loop_
 _symmetry_equiv_pos_site_id
 _symmetry_equiv_pos_as_xyz
  1  'x, y, z'
loop_
 _atom_site_type_symbol
 _atom_site_label
 _atom_site_symmetry_multiplicity
 _atom_site_fract_x
 _atom_site_fract_y
 _atom_site_fract_z
 _atom_site_occupancy
  Ca  Ca0  1  0.20731300  0.79268700  0.36437000  1
  Ca  Ca1  1  0.79268700  0.20731300  0.63563000  1
  Ca  Ca2  1  0.29268700  0.70731300  0.86437000  1
  Ca  Ca3  1  0.70731300  0.29268700  0.13563000  1
  Sn  Sn4  1  0.83157200  0.16842800  0.32645500  1
  Sn  Sn5  1  0.16842800  0.83157200  0.67354500  1
  Sn  Sn6  1  0.66842800  0.33157200  0.82645500  1
  Sn  Sn7  1  0.33157200  0.66842800  0.17354500  1
  Sn  Sn8  1  0.49252700  0.50747300  0.35637000  1
  Sn  Sn9  1  0.50747300  0.49252700  0.64363000  1
  Sn  Sn10  1  0.00747300  0.99252700  0.85637000  1
  Sn  Sn11  1  0.99252700  0.00747300  0.14363000  1
  S  S12  1  0.00716400  0.99283600  0.27236100  1
  S  S13  1  0.99283600  0.00716400  0.72763900  1
  S  S14  1  0.49283600  0.50716400  0.77236100  1
  S  S15  1  0.50716400  0.49283600  0.22763900  1
  S  S16  1  0.66071500  0.33928500  0.40822400  1
  S  S17  1  0.33928500  0.66071500  0.59177600  1
  S  S18  1  0.83928500  0.16071500  0.90822400  1
  S  S19  1  0.16071500  0.83928500  0.09177600  1
  S  S20  1  0.48966100  0.01033900  0.25000000  1
  S  S21  1  0.01033900  0.48966100  0.75000000  1
  S  S22  1  0.51033900  0.98966100  0.75000000  1
  S  S23  1  0.98966100  0.51033900  0.25000000  1
  S  S24  1  0.61542300  0.85705300  0.41347300  1
  S  S25  1  0.85705300  0.61542300  0.58652700  1
  S  S26  1  0.35705300  0.11542300  0.91347300  1
  S  S27  1  0.11542300  0.35705300  0.08652700  1
  S  S28  1  0.38457700  0.14294700  0.58652700  1
  S  S29  1  0.14294700  0.38457700  0.41347300  1
  S  S30  1  0.64294700  0.88457700  0.08652700  1
  S  S31  1  0.88457700  0.64294700  0.91347300  1
