# generated using pymatgen
data_CaSn4S9
_symmetry_space_group_name_H-M   'P 1'
_cell_length_a   6.35697800
_cell_length_b   14.38189626
_cell_length_c   14.38184241
_cell_angle_alpha   119.99987733
_cell_angle_beta   90.00000283
_cell_angle_gamma   90.00063343
_symmetry_Int_Tables_number   1
_chemical_formula_structural   CaSn4S9
_chemical_formula_sum   'Ca3 Sn12 S27'
_cell_volume   1138.70847852
_cell_formula_units_Z   3
loop_
 _symmetry_equiv_pos_site_id
 _symmetry_equiv_pos_as_xyz
  1  'x, y, z'
loop_
 _atom_site_type_symbol
 _atom_site_label
 _atom_site_symmetry_multiplicity
 _atom_site_fract_x
 _atom_site_fract_y
 _atom_site_fract_z
 _atom_site_occupancy
  Ca  Ca0  1  0.99997700  0.67175600  0.67175600  1
  Ca  Ca1  1  0.00002300  0.32824400  0.00000100  1
  Ca  Ca2  1  0.00000000  0.00000000  0.32824200  1
  Sn  Sn3  1  0.00000000  0.00000000  0.00000200  1
  Sn  Sn4  1  0.12391100  0.33332600  0.66666400  1
  Sn  Sn5  1  0.87608900  0.66667400  0.33333700  1
  Sn  Sn6  1  0.50000700  0.18183800  0.18183600  1
  Sn  Sn7  1  0.49999300  0.81816200  0.99999800  1
  Sn  Sn8  1  0.50000000  0.00000000  0.81816300  1
  Sn  Sn9  1  0.38987500  0.85087400  0.50485400  1
  Sn  Sn10  1  0.38982700  0.49515500  0.34601100  1
  Sn  Sn11  1  0.38989400  0.65396600  0.14912100  1
  Sn  Sn12  1  0.61012500  0.14912600  0.65397900  1
  Sn  Sn13  1  0.61010600  0.34603400  0.49515500  1
  Sn  Sn14  1  0.61017300  0.50484500  0.85085600  1
  S  S15  1  0.49998700  0.51795200  0.51794100  1
  S  S16  1  0.50001300  0.48204800  0.99998900  1
  S  S17  1  0.50000000  0.00000000  0.48204100  1
  S  S18  1  0.11362100  0.82732000  0.37586100  1
  S  S19  1  0.11359700  0.62415300  0.45146900  1
  S  S20  1  0.11362400  0.54854000  0.17268700  1
  S  S21  1  0.88637900  0.17268000  0.54854100  1
  S  S22  1  0.88637600  0.45146000  0.62414700  1
  S  S23  1  0.88640300  0.37584700  0.82731700  1
  S  S24  1  0.75960900  0.88159700  0.83644600  1
  S  S25  1  0.75962000  0.16355900  0.04515600  1
  S  S26  1  0.75961300  0.95484600  0.11840400  1
  S  S27  1  0.24039100  0.11840300  0.95485000  1
  S  S28  1  0.24038700  0.04515400  0.16355900  1
  S  S29  1  0.24038000  0.83644100  0.88159700  1
  S  S30  1  0.23252900  0.90141800  0.67823600  1
  S  S31  1  0.23253100  0.32176600  0.22318100  1
  S  S32  1  0.23253300  0.77681500  0.09859000  1
  S  S33  1  0.76747100  0.09858200  0.77681800  1
  S  S34  1  0.76746700  0.22318500  0.32177500  1
  S  S35  1  0.76746900  0.67823400  0.90141600  1
  S  S36  1  0.66847800  0.73789800  0.50544000  1
  S  S37  1  0.66846000  0.49459000  0.23246800  1
  S  S38  1  0.66846900  0.76755400  0.26211500  1
  S  S39  1  0.33152200  0.26210200  0.76754200  1
  S  S40  1  0.33153100  0.23244600  0.49456200  1
  S  S41  1  0.33154000  0.50541000  0.73787800  1
