# generated using pymatgen
data_AgCN
_symmetry_space_group_name_H-M   'P 1'
_cell_length_a   4.34043207
_cell_length_b   4.34043207
_cell_length_c   4.34043181
_cell_angle_alpha   104.81188742
_cell_angle_beta   104.81188742
_cell_angle_gamma   104.81188359
_symmetry_Int_Tables_number   1
_chemical_formula_structural   AgCN
_chemical_formula_sum   'Ag1 C1 N1'
_cell_volume   71.77788094
_cell_formula_units_Z   1
loop_
 _symmetry_equiv_pos_site_id
 _symmetry_equiv_pos_as_xyz
  1  'x, y, z'
loop_
 _atom_site_type_symbol
 _atom_site_label
 _atom_site_symmetry_multiplicity
 _atom_site_fract_x
 _atom_site_fract_y
 _atom_site_fract_z
 _atom_site_occupancy
  Ag  Ag0  1  0.02079800  0.02079800  0.02079800  1
  C  C1  1  0.40578100  0.40578100  0.40578100  1
  N  N2  1  0.62842100  0.62842100  0.62842100  1
