# generated using pymatgen
data_Ca3SnS5
_symmetry_space_group_name_H-M   'P 1'
_cell_length_a   8.84126604
_cell_length_b   8.84126600
_cell_length_c   12.13109329
_cell_angle_alpha   68.62902013
_cell_angle_beta   68.62901864
_cell_angle_gamma   60.00000014
_symmetry_Int_Tables_number   1
_chemical_formula_structural   Ca3SnS5
_chemical_formula_sum   'Ca9 Sn3 S15'
_cell_volume   744.98055693
_cell_formula_units_Z   3
loop_
 _symmetry_equiv_pos_site_id
 _symmetry_equiv_pos_as_xyz
  1  'x, y, z'
loop_
 _atom_site_type_symbol
 _atom_site_label
 _atom_site_symmetry_multiplicity
 _atom_site_fract_x
 _atom_site_fract_y
 _atom_site_fract_z
 _atom_site_occupancy
  Ca  Ca0  1  0.51403400  0.51403400  0.96643300  1
  Ca  Ca1  1  0.00549800  0.51403400  0.96643300  1
  Ca  Ca2  1  0.51403400  0.00549800  0.96643300  1
  Ca  Ca3  1  0.07009600  0.07009600  0.34635800  1
  Ca  Ca4  1  0.51344900  0.07009600  0.34635800  1
  Ca  Ca5  1  0.07009600  0.51344900  0.34635800  1
  Ca  Ca6  1  0.25919700  0.25919700  0.69311500  1
  Ca  Ca7  1  0.78849000  0.25919700  0.69311500  1
  Ca  Ca8  1  0.25919700  0.78849000  0.69311500  1
  Sn  Sn9  1  0.99158000  0.99158000  0.02525900  1
  Sn  Sn10  1  0.55471000  0.55471000  0.33587000  1
  Sn  Sn11  1  0.76963900  0.76963900  0.69108400  1
  S  S12  1  0.83996700  0.83996700  0.48009800  1
  S  S13  1  0.40904300  0.40904300  0.77287100  1
  S  S14  1  0.14661100  0.14661100  0.56016600  1
  S  S15  1  0.92023600  0.92023600  0.23929200  1
  S  S16  1  0.26860200  0.26860200  0.19419400  1
  S  S17  1  0.63025900  0.63025900  0.10922300  1
  S  S18  1  0.87590900  0.87590900  0.79061400  1
  S  S19  1  0.45756700  0.87590900  0.79061400  1
  S  S20  1  0.87590900  0.45756700  0.79061400  1
  S  S21  1  0.38134600  0.38134600  0.42659400  1
  S  S22  1  0.81071500  0.38134600  0.42659400  1
  S  S23  1  0.38134600  0.81071500  0.42659400  1
  S  S24  1  0.16155800  0.16155800  0.96403300  1
  S  S25  1  0.71285100  0.16155800  0.96403300  1
  S  S26  1  0.16155800  0.71285100  0.96403300  1
