# generated using pymatgen
data_Ba3TiS5
_symmetry_space_group_name_H-M   'P 1'
_cell_length_a   9.23675143
_cell_length_b   9.23675143
_cell_length_c   9.23675143
_cell_angle_alpha   124.79126882
_cell_angle_beta   124.79126882
_cell_angle_gamma   81.88404846
_symmetry_Int_Tables_number   1
_chemical_formula_structural   Ba3TiS5
_chemical_formula_sum   'Ba6 Ti2 S10'
_cell_volume   511.23783765
_cell_formula_units_Z   2
loop_
 _symmetry_equiv_pos_site_id
 _symmetry_equiv_pos_as_xyz
  1  'x, y, z'
loop_
 _atom_site_type_symbol
 _atom_site_label
 _atom_site_symmetry_multiplicity
 _atom_site_fract_x
 _atom_site_fract_y
 _atom_site_fract_z
 _atom_site_occupancy
  Ba  Ba0  1  0.66339000  0.16339000  0.82678100  1
  Ba  Ba1  1  0.16339000  0.33661000  0.50000000  1
  Ba  Ba2  1  0.83661000  0.66339000  0.50000000  1
  Ba  Ba3  1  0.33661000  0.83661000  0.17321900  1
  Ba  Ba4  1  0.25000000  0.25000000  0.00000000  1
  Ba  Ba5  1  0.75000000  0.75000000  0.00000000  1
  Ti  Ti6  1  0.75000000  0.25000000  0.50000000  1
  Ti  Ti7  1  0.25000000  0.75000000  0.50000000  1
  S  S8  1  0.00448200  0.50448200  0.20437400  1
  S  S9  1  0.69989200  0.19989200  0.20437400  1
  S  S10  1  0.99551800  0.49551800  0.79562600  1
  S  S11  1  0.49551800  0.69989200  0.50000000  1
  S  S12  1  0.19989200  0.99551800  0.50000000  1
  S  S13  1  0.50448200  0.30010800  0.50000000  1
  S  S14  1  0.80010800  0.00448200  0.50000000  1
  S  S15  1  0.30010800  0.80010800  0.79562600  1
  S  S16  1  0.50000000  0.50000000  0.00000000  1
  S  S17  1  0.00000000  0.00000000  0.00000000  1
