# generated using pymatgen
data_Ca(BH4)2
_symmetry_space_group_name_H-M   'P 1'
_cell_length_a   7.44432700
_cell_length_b   8.25421400
_cell_length_c   12.85444500
_cell_angle_alpha   90.00000000
_cell_angle_beta   90.00000000
_cell_angle_gamma   90.00000000
_symmetry_Int_Tables_number   1
_chemical_formula_structural   Ca(BH4)2
_chemical_formula_sum   'Ca8 B16 H64'
_cell_volume   789.86795787
_cell_formula_units_Z   8
loop_
 _symmetry_equiv_pos_site_id
 _symmetry_equiv_pos_as_xyz
  1  'x, y, z'
loop_
 _atom_site_type_symbol
 _atom_site_label
 _atom_site_symmetry_multiplicity
 _atom_site_fract_x
 _atom_site_fract_y
 _atom_site_fract_z
 _atom_site_occupancy
  Ca  Ca0  1  0.14499800  0.37348900  0.62610800  1
  Ca  Ca1  1  0.64499800  0.62651100  0.87389200  1
  Ca  Ca2  1  0.85500200  0.12651100  0.12610800  1
  Ca  Ca3  1  0.35500200  0.87348900  0.37389200  1
  Ca  Ca4  1  0.85500200  0.62651100  0.37389200  1
  Ca  Ca5  1  0.35500200  0.37348900  0.12610800  1
  Ca  Ca6  1  0.14499800  0.87348900  0.87389200  1
  Ca  Ca7  1  0.64499800  0.12651100  0.62610800  1
  B  B8  1  0.67125500  0.83226500  0.51064900  1
  B  B9  1  0.17125500  0.16773500  0.98935100  1
  B  B10  1  0.32874500  0.66773500  0.01064900  1
  B  B11  1  0.82874500  0.33226500  0.48935100  1
  B  B12  1  0.32874500  0.16773500  0.48935100  1
  B  B13  1  0.01647000  0.41406600  0.22107000  1
  B  B14  1  0.51647000  0.58593400  0.27893000  1
  B  B15  1  0.82874500  0.83226500  0.01064900  1
  B  B16  1  0.67125500  0.33226500  0.98935100  1
  B  B17  1  0.17125500  0.66773500  0.51064900  1
  B  B18  1  0.98353000  0.08593400  0.72107000  1
  B  B19  1  0.48353000  0.91406600  0.77893000  1
  B  B20  1  0.98353000  0.58593400  0.77893000  1
  B  B21  1  0.48353000  0.41406600  0.72107000  1
  B  B22  1  0.01647000  0.91406600  0.27893000  1
  B  B23  1  0.51647000  0.08593400  0.22107000  1
  H  H24  1  0.14079100  0.34482800  0.26506000  1
  H  H25  1  0.64079100  0.65517200  0.23494000  1
  H  H26  1  0.85920900  0.15517200  0.76506000  1
  H  H27  1  0.35920900  0.84482800  0.73494000  1
  H  H28  1  0.85920900  0.65517200  0.73494000  1
  H  H29  1  0.35920900  0.34482800  0.76506000  1
  H  H30  1  0.14079100  0.84482800  0.23494000  1
  H  H31  1  0.64079100  0.15517200  0.26506000  1
  H  H32  1  0.03316900  0.56115500  0.22927200  1
  H  H33  1  0.53316900  0.43884500  0.27072800  1
  H  H34  1  0.96683100  0.93884500  0.72927200  1
  H  H35  1  0.46683100  0.06115500  0.77072800  1
  H  H36  1  0.96683100  0.43884500  0.77072800  1
  H  H37  1  0.46683100  0.56115500  0.72927200  1
  H  H38  1  0.03316900  0.06115500  0.27072800  1
  H  H39  1  0.53316900  0.93884500  0.22927200  1
  H  H40  1  0.87466300  0.36562000  0.25849100  1
  H  H41  1  0.37466300  0.63438000  0.24150900  1
  H  H42  1  0.12533700  0.13438000  0.75849100  1
  H  H43  1  0.62533700  0.86562000  0.74150900  1
  H  H44  1  0.12533700  0.63438000  0.74150900  1
  H  H45  1  0.62533700  0.36562000  0.75849100  1
  H  H46  1  0.87466300  0.86562000  0.24150900  1
  H  H47  1  0.37466300  0.13438000  0.25849100  1
  H  H48  1  0.69165000  0.68742500  0.52767200  1
  H  H49  1  0.19165000  0.31257500  0.97232800  1
  H  H50  1  0.30835000  0.81257500  0.02767200  1
  H  H51  1  0.80835000  0.18742500  0.47232800  1
  H  H52  1  0.30835000  0.31257500  0.47232800  1
  H  H53  1  0.80835000  0.68742500  0.02767200  1
  H  H54  1  0.69165000  0.18742500  0.97232800  1
  H  H55  1  0.19165000  0.81257500  0.52767200  1
  H  H56  1  0.01574100  0.38999100  0.12685500  1
  H  H57  1  0.51574100  0.61000900  0.37314500  1
  H  H58  1  0.98425900  0.11000900  0.62685500  1
  H  H59  1  0.48425900  0.88999100  0.87314500  1
  H  H60  1  0.98425900  0.61000900  0.87314500  1
  H  H61  1  0.48425900  0.38999100  0.62685500  1
  H  H62  1  0.01574100  0.88999100  0.37314500  1
  H  H63  1  0.51574100  0.11000900  0.12685500  1
  H  H64  1  0.52331000  0.86831600  0.54559600  1
  H  H65  1  0.02331000  0.13168400  0.95440400  1
  H  H66  1  0.47669000  0.63168400  0.04559600  1
  H  H67  1  0.97669000  0.36831600  0.45440400  1
  H  H68  1  0.47669000  0.13168400  0.45440400  1
  H  H69  1  0.97669000  0.86831600  0.04559600  1
  H  H70  1  0.52331000  0.36831600  0.95440400  1
  H  H71  1  0.02331000  0.63168400  0.54559600  1
  H  H72  1  0.67815400  0.86537700  0.41708700  1
  H  H73  1  0.17815400  0.13462300  0.08291300  1
  H  H74  1  0.32184600  0.63462300  0.91708700  1
  H  H75  1  0.82184600  0.36537700  0.58291300  1
  H  H76  1  0.32184600  0.13462300  0.58291300  1
  H  H77  1  0.82184600  0.86537700  0.91708700  1
  H  H78  1  0.67815400  0.36537700  0.08291300  1
  H  H79  1  0.17815400  0.63462300  0.41708700  1
  H  H80  1  0.79354600  0.90604400  0.55248700  1
  H  H81  1  0.29354600  0.09395600  0.94751300  1
  H  H82  1  0.20645400  0.59395600  0.05248700  1
  H  H83  1  0.70645400  0.40604400  0.44751300  1
  H  H84  1  0.20645400  0.09395600  0.44751300  1
  H  H85  1  0.70645400  0.90604400  0.05248700  1
  H  H86  1  0.79354600  0.40604400  0.94751300  1
  H  H87  1  0.29354600  0.59395600  0.55248700  1
