# generated using pymatgen
data_ZnCdTe2
_symmetry_space_group_name_H-M   'P 1'
_cell_length_a   7.81632010
_cell_length_b   7.81632010
_cell_length_c   7.81632010
_cell_angle_alpha   131.41470114
_cell_angle_beta   131.41470114
_cell_angle_gamma   71.15502865
_symmetry_Int_Tables_number   1
_chemical_formula_structural   ZnCdTe2
_chemical_formula_sum   'Zn2 Cd2 Te4'
_cell_volume   262.93989707
_cell_formula_units_Z   2
loop_
 _symmetry_equiv_pos_site_id
 _symmetry_equiv_pos_as_xyz
  1  'x, y, z'
loop_
 _atom_site_type_symbol
 _atom_site_label
 _atom_site_symmetry_multiplicity
 _atom_site_fract_x
 _atom_site_fract_y
 _atom_site_fract_z
 _atom_site_occupancy
  Zn  Zn0  1  0.75000000  0.25000000  0.50000000  1
  Zn  Zn1  1  0.00000000  0.00000000  0.00000000  1
  Cd  Cd2  1  0.25000000  0.75000000  0.50000000  1
  Cd  Cd3  1  0.50000000  0.50000000  0.00000000  1
  Te  Te4  1  0.64841300  0.62500000  0.52341300  1
  Te  Te5  1  0.10158700  0.12500000  0.47658700  1
  Te  Te6  1  0.87500000  0.35158700  0.97658700  1
  Te  Te7  1  0.37500000  0.89841300  0.02341300  1
