# generated using pymatgen
data_Tm
_symmetry_space_group_name_H-M   'P 1'
_cell_length_a   3.50476566
_cell_length_b   3.50476566
_cell_length_c   11.30122300
_cell_angle_alpha   90.00000000
_cell_angle_beta   90.00000000
_cell_angle_gamma   119.99999362
_symmetry_Int_Tables_number   1
_chemical_formula_structural   Tm
_chemical_formula_sum   Tm4
_cell_volume   120.21926672
_cell_formula_units_Z   4
loop_
 _symmetry_equiv_pos_site_id
 _symmetry_equiv_pos_as_xyz
  1  'x, y, z'
loop_
 _atom_site_type_symbol
 _atom_site_label
 _atom_site_symmetry_multiplicity
 _atom_site_fract_x
 _atom_site_fract_y
 _atom_site_fract_z
 _atom_site_occupancy
  Tm  Tm0  1  0.00000000  0.00000000  0.00000000  1
  Tm  Tm1  1  0.33333300  0.66666700  0.25000000  1
  Tm  Tm2  1  0.00000000  0.00000000  0.50000000  1
  Tm  Tm3  1  0.66666700  0.33333300  0.75000000  1
