# generated using pymatgen
data_Sm2Mg
_symmetry_space_group_name_H-M   'P 1'
_cell_length_a   8.90225119
_cell_length_b   8.90225119
_cell_length_c   5.59005800
_cell_angle_alpha   90.00000000
_cell_angle_beta   90.00000000
_cell_angle_gamma   155.54598098
_symmetry_Int_Tables_number   1
_chemical_formula_structural   Sm2Mg
_chemical_formula_sum   'Sm4 Mg2'
_cell_volume   183.39072529
_cell_formula_units_Z   2
loop_
 _symmetry_equiv_pos_site_id
 _symmetry_equiv_pos_as_xyz
  1  'x, y, z'
loop_
 _atom_site_type_symbol
 _atom_site_label
 _atom_site_symmetry_multiplicity
 _atom_site_fract_x
 _atom_site_fract_y
 _atom_site_fract_z
 _atom_site_occupancy
  Sm  Sm0  1  0.08997900  0.91002100  0.25000000  1
  Sm  Sm1  1  0.77248800  0.22751200  0.25000000  1
  Sm  Sm2  1  0.91002100  0.08997900  0.75000000  1
  Sm  Sm3  1  0.22751200  0.77248800  0.75000000  1
  Mg  Mg4  1  0.43257100  0.56742900  0.25000000  1
  Mg  Mg5  1  0.56742900  0.43257100  0.75000000  1
