# generated using pymatgen
data_La(Mg4Al3)4
_symmetry_space_group_name_H-M   'P 1'
_cell_length_a   9.17015248
_cell_length_b   9.17015248
_cell_length_c   9.17015248
_cell_angle_alpha   109.47122063
_cell_angle_beta   109.47122063
_cell_angle_gamma   109.47122063
_symmetry_Int_Tables_number   1
_chemical_formula_structural   La(Mg4Al3)4
_chemical_formula_sum   'La1 Mg16 Al12'
_cell_volume   593.61898212
_cell_formula_units_Z   1
loop_
 _symmetry_equiv_pos_site_id
 _symmetry_equiv_pos_as_xyz
  1  'x, y, z'
loop_
 _atom_site_type_symbol
 _atom_site_label
 _atom_site_symmetry_multiplicity
 _atom_site_fract_x
 _atom_site_fract_y
 _atom_site_fract_z
 _atom_site_occupancy
  La  La0  1  0.00000000  0.00000000  0.00000000  1
  Mg  Mg1  1  0.71773900  0.31981500  0.31981500  1
  Mg  Mg2  1  0.63546700  0.00000000  0.00000000  1
  Mg  Mg3  1  0.28226100  0.60207600  0.60207600  1
  Mg  Mg4  1  0.36453300  0.36453300  0.36453300  1
  Mg  Mg5  1  0.00000000  0.68018500  0.39792400  1
  Mg  Mg6  1  0.60207600  0.60207600  0.28226100  1
  Mg  Mg7  1  0.39792400  0.00000000  0.68018500  1
  Mg  Mg8  1  0.00000000  0.00000000  0.63546700  1
  Mg  Mg9  1  0.68018500  0.39792400  0.00000000  1
  Mg  Mg10  1  0.31981500  0.71773900  0.31981500  1
  Mg  Mg11  1  0.68018500  0.00000000  0.39792400  1
  Mg  Mg12  1  0.31981500  0.31981500  0.71773900  1
  Mg  Mg13  1  0.00000000  0.63546700  0.00000000  1
  Mg  Mg14  1  0.39792400  0.68018500  0.00000000  1
  Mg  Mg15  1  0.60207600  0.28226100  0.60207600  1
  Mg  Mg16  1  0.00000000  0.39792400  0.68018500  1
  Al  Al17  1  0.81642500  0.62850300  0.62850300  1
  Al  Al18  1  0.18357500  0.81207800  0.81207800  1
  Al  Al19  1  0.00000000  0.37149700  0.18792200  1
  Al  Al20  1  0.62850300  0.81642500  0.62850300  1
  Al  Al21  1  0.37149700  0.18792200  0.00000000  1
  Al  Al22  1  0.81207800  0.18357500  0.81207800  1
  Al  Al23  1  0.18792200  0.37149700  0.00000000  1
  Al  Al24  1  0.18792200  0.00000000  0.37149700  1
  Al  Al25  1  0.81207800  0.81207800  0.18357500  1
  Al  Al26  1  0.37149700  0.00000000  0.18792200  1
  Al  Al27  1  0.62850300  0.62850300  0.81642500  1
  Al  Al28  1  0.00000000  0.18792200  0.37149700  1
