# generated using pymatgen
data_SiC3
_symmetry_space_group_name_H-M   'P 1'
_cell_length_a   7.30648388
_cell_length_b   7.30648388
_cell_length_c   7.30648388
_cell_angle_alpha   159.85881490
_cell_angle_beta   159.85881490
_cell_angle_gamma   28.63457345
_symmetry_Int_Tables_number   1
_chemical_formula_structural   SiC3
_chemical_formula_sum   'Si1 C3'
_cell_volume   46.22432646
_cell_formula_units_Z   1
loop_
 _symmetry_equiv_pos_site_id
 _symmetry_equiv_pos_as_xyz
  1  'x, y, z'
loop_
 _atom_site_type_symbol
 _atom_site_label
 _atom_site_symmetry_multiplicity
 _atom_site_fract_x
 _atom_site_fract_y
 _atom_site_fract_z
 _atom_site_occupancy
  Si  Si0  1  0.00000000  0.00000000  0.00000000  1
  C  C1  1  0.75000000  0.25000000  0.50000000  1
  C  C2  1  0.25000000  0.75000000  0.50000000  1
  C  C3  1  0.50000000  0.50000000  0.00000000  1
