# generated using pymatgen
data_SiO2
_symmetry_space_group_name_H-M   'P 1'
_cell_length_a   8.26390000
_cell_length_b   5.02236800
_cell_length_c   5.09856993
_cell_angle_alpha   61.62754332
_cell_angle_beta   90.00000000
_cell_angle_gamma   90.00000000
_symmetry_Int_Tables_number   1
_chemical_formula_structural   SiO2
_chemical_formula_sum   'Si4 O8'
_cell_volume   186.19327326
_cell_formula_units_Z   4
loop_
 _symmetry_equiv_pos_site_id
 _symmetry_equiv_pos_as_xyz
  1  'x, y, z'
loop_
 _atom_site_type_symbol
 _atom_site_label
 _atom_site_symmetry_multiplicity
 _atom_site_fract_x
 _atom_site_fract_y
 _atom_site_fract_z
 _atom_site_occupancy
  Si  Si0  1  0.93807500  0.58639400  0.64731400  1
  Si  Si1  1  0.56345200  0.74176500  0.69406900  1
  Si  Si2  1  0.43807500  0.41360600  0.35268600  1
  Si  Si3  1  0.06345200  0.25823500  0.30593100  1
  O  O4  1  0.94673400  0.44124500  0.42259600  1
  O  O5  1  0.75074200  0.65374700  0.68447700  1
  O  O6  1  0.54353900  0.10404600  0.48469900  1
  O  O7  1  0.51255800  0.65658700  0.03256800  1
  O  O8  1  0.44673400  0.55875500  0.57740400  1
  O  O9  1  0.25074200  0.34625300  0.31552300  1
  O  O10  1  0.04353900  0.89595400  0.51530100  1
  O  O11  1  0.01255800  0.34341300  0.96743200  1
