# generated using pymatgen
data_LaP3
_symmetry_space_group_name_H-M   'P 1'
_cell_length_a   5.84547761
_cell_length_b   5.84547761
_cell_length_c   5.39202800
_cell_angle_alpha   90.00000000
_cell_angle_beta   90.00000000
_cell_angle_gamma   119.99999564
_symmetry_Int_Tables_number   1
_chemical_formula_structural   LaP3
_chemical_formula_sum   'La2 P6'
_cell_volume   159.55954637
_cell_formula_units_Z   2
loop_
 _symmetry_equiv_pos_site_id
 _symmetry_equiv_pos_as_xyz
  1  'x, y, z'
loop_
 _atom_site_type_symbol
 _atom_site_label
 _atom_site_symmetry_multiplicity
 _atom_site_fract_x
 _atom_site_fract_y
 _atom_site_fract_z
 _atom_site_occupancy
  La  La0  1  0.66666700  0.33333300  0.25000000  1
  La  La1  1  0.33333300  0.66666700  0.75000000  1
  P  P2  1  0.86344100  0.13655900  0.75000000  1
  P  P3  1  0.27311900  0.13655900  0.75000000  1
  P  P4  1  0.86344100  0.72688100  0.75000000  1
  P  P5  1  0.13655900  0.86344100  0.25000000  1
  P  P6  1  0.72688100  0.86344100  0.25000000  1
  P  P7  1  0.13655900  0.27311900  0.25000000  1
