# generated using pymatgen
data_H8PdC2NCl3
_symmetry_space_group_name_H-M   'P 1'
_cell_length_a   7.76366300
_cell_length_b   7.76366300
_cell_length_c   7.23444395
_cell_angle_alpha   89.80075173
_cell_angle_beta   89.80075173
_cell_angle_gamma   118.42277109
_symmetry_Int_Tables_number   1
_chemical_formula_structural   H8PdC2NCl3
_chemical_formula_sum   'H16 Pd2 C4 N2 Cl6'
_cell_volume   383.48141213
_cell_formula_units_Z   2
loop_
 _symmetry_equiv_pos_site_id
 _symmetry_equiv_pos_as_xyz
  1  'x, y, z'
loop_
 _atom_site_type_symbol
 _atom_site_label
 _atom_site_symmetry_multiplicity
 _atom_site_fract_x
 _atom_site_fract_y
 _atom_site_fract_z
 _atom_site_occupancy
  H  H0  1  0.56121500  0.08876400  0.83288400  1
  H  H1  1  0.50040700  0.22322500  0.99963600  1
  H  H2  1  0.71740300  0.24866900  0.53840400  1
  H  H3  1  0.75133100  0.28259700  0.96159600  1
  H  H4  1  0.49099700  0.33016000  0.68976100  1
  H  H5  1  0.91123600  0.43878500  0.66711600  1
  H  H6  1  0.33016000  0.49099700  0.18976100  1
  H  H7  1  0.22322500  0.50040700  0.49963600  1
  H  H8  1  0.77677500  0.49959300  0.50036400  1
  H  H9  1  0.66984000  0.50900300  0.81023900  1
  H  H10  1  0.08876400  0.56121500  0.33288400  1
  H  H11  1  0.50900300  0.66984000  0.31023900  1
  H  H12  1  0.24866900  0.71740300  0.03840400  1
  H  H13  1  0.28259700  0.75133100  0.46159600  1
  H  H14  1  0.49959300  0.77677500  0.00036400  1
  H  H15  1  0.43878500  0.91123600  0.16711600  1
  Pd  Pd16  1  0.00000000  0.00000000  0.50000000  1
  Pd  Pd17  1  0.00000000  0.00000000  0.00000000  1
  C  C18  1  0.60844200  0.23136200  0.89697200  1
  C  C19  1  0.76863800  0.39155800  0.60302800  1
  C  C20  1  0.23136200  0.60844200  0.39697200  1
  C  C21  1  0.39155800  0.76863800  0.10302800  1
  N  N22  1  0.62647700  0.37352300  0.75000000  1
  N  N23  1  0.37352300  0.62647700  0.25000000  1
  Cl  Cl24  1  0.89014600  0.10985400  0.25000000  1
  Cl  Cl25  1  0.32277700  0.17934000  0.39507900  1
  Cl  Cl26  1  0.17934000  0.32277700  0.89507900  1
  Cl  Cl27  1  0.82066000  0.67722300  0.10492100  1
  Cl  Cl28  1  0.67722300  0.82066000  0.60492100  1
  Cl  Cl29  1  0.10985400  0.89014600  0.75000000  1
