# generated using pymatgen
data_MgIn3
_symmetry_space_group_name_H-M   'P 1'
_cell_length_a   5.82026468
_cell_length_b   5.82026468
_cell_length_c   5.82026468
_cell_angle_alpha   133.33580068
_cell_angle_beta   133.33580068
_cell_angle_gamma   68.12728326
_symmetry_Int_Tables_number   1
_chemical_formula_structural   MgIn3
_chemical_formula_sum   'Mg1 In3'
_cell_volume   102.48459634
_cell_formula_units_Z   1
loop_
 _symmetry_equiv_pos_site_id
 _symmetry_equiv_pos_as_xyz
  1  'x, y, z'
loop_
 _atom_site_type_symbol
 _atom_site_label
 _atom_site_symmetry_multiplicity
 _atom_site_fract_x
 _atom_site_fract_y
 _atom_site_fract_z
 _atom_site_occupancy
  Mg  Mg0  1  0.00000000  0.00000000  0.00000000  1
  In  In1  1  0.50000000  0.50000000  0.00000000  1
  In  In2  1  0.75000000  0.25000000  0.50000000  1
  In  In3  1  0.25000000  0.75000000  0.50000000  1
