# generated using pymatgen
data_Ho3Lu
_symmetry_space_group_name_H-M   'P 1'
_cell_length_a   7.15895981
_cell_length_b   7.15895981
_cell_length_c   5.56879500
_cell_angle_alpha   90.00000000
_cell_angle_beta   90.00000000
_cell_angle_gamma   119.99999820
_symmetry_Int_Tables_number   1
_chemical_formula_structural   Ho3Lu
_chemical_formula_sum   'Ho6 Lu2'
_cell_volume   247.16770123
_cell_formula_units_Z   2
loop_
 _symmetry_equiv_pos_site_id
 _symmetry_equiv_pos_as_xyz
  1  'x, y, z'
loop_
 _atom_site_type_symbol
 _atom_site_label
 _atom_site_symmetry_multiplicity
 _atom_site_fract_x
 _atom_site_fract_y
 _atom_site_fract_z
 _atom_site_occupancy
  Ho  Ho0  1  0.16705700  0.33411400  0.25000000  1
  Ho  Ho1  1  0.83294300  0.16705700  0.75000000  1
  Ho  Ho2  1  0.33411400  0.16705700  0.75000000  1
  Ho  Ho3  1  0.83294300  0.66588600  0.75000000  1
  Ho  Ho4  1  0.16705700  0.83294300  0.25000000  1
  Ho  Ho5  1  0.66588600  0.83294300  0.25000000  1
  Lu  Lu6  1  0.66666700  0.33333300  0.25000000  1
  Lu  Lu7  1  0.33333300  0.66666700  0.75000000  1
