# generated using pymatgen
data_Ba4Sm4Zn3PtO15
_symmetry_space_group_name_H-M   'P 1'
_cell_length_a   11.82070404
_cell_length_b   11.82070404
_cell_length_c   6.79950200
_cell_angle_alpha   90.00000000
_cell_angle_beta   90.00000000
_cell_angle_gamma   120.00000022
_symmetry_Int_Tables_number   1
_chemical_formula_structural   Ba4Sm4Zn3PtO15
_chemical_formula_sum   'Ba8 Sm8 Zn6 Pt2 O30'
_cell_volume   822.80026756
_cell_formula_units_Z   2
loop_
 _symmetry_equiv_pos_site_id
 _symmetry_equiv_pos_as_xyz
  1  'x, y, z'
loop_
 _atom_site_type_symbol
 _atom_site_label
 _atom_site_symmetry_multiplicity
 _atom_site_fract_x
 _atom_site_fract_y
 _atom_site_fract_z
 _atom_site_occupancy
  Ba  Ba0  1  0.34537700  0.17268900  0.15718700  1
  Ba  Ba1  1  0.17268900  0.34537700  0.65718700  1
  Ba  Ba2  1  0.17268900  0.82731100  0.65718700  1
  Ba  Ba3  1  0.82731100  0.17268900  0.15718700  1
  Ba  Ba4  1  0.65462300  0.82731100  0.65718700  1
  Ba  Ba5  1  0.82731100  0.65462300  0.15718700  1
  Ba  Ba6  1  0.33333300  0.66666700  0.33649400  1
  Ba  Ba7  1  0.66666700  0.33333300  0.83649400  1
  Sm  Sm8  1  0.00000000  0.00000000  0.34158300  1
  Sm  Sm9  1  0.52260300  0.47739700  0.49777000  1
  Sm  Sm10  1  0.47739700  0.95479400  0.99777000  1
  Sm  Sm11  1  0.52260300  0.04520600  0.49777000  1
  Sm  Sm12  1  0.95479400  0.47739700  0.49777000  1
  Sm  Sm13  1  0.00000000  0.00000000  0.84158300  1
  Sm  Sm14  1  0.04520600  0.52260300  0.99777000  1
  Sm  Sm15  1  0.47739700  0.52260300  0.99777000  1
  Zn  Zn16  1  0.65744200  0.82872100  0.17439800  1
  Zn  Zn17  1  0.82872100  0.65744200  0.67439800  1
  Zn  Zn18  1  0.82872100  0.17127900  0.67439800  1
  Zn  Zn19  1  0.17127900  0.82872100  0.17439800  1
  Zn  Zn20  1  0.17127900  0.34255800  0.17439800  1
  Zn  Zn21  1  0.34255800  0.17127900  0.67439800  1
  Pt  Pt22  1  0.33333300  0.66666700  0.81447300  1
  Pt  Pt23  1  0.66666700  0.33333300  0.31447300  1
  O  O24  1  0.83461700  0.91730900  0.07054300  1
  O  O25  1  0.91730900  0.83461700  0.57054300  1
  O  O26  1  0.91730900  0.08269100  0.57054300  1
  O  O27  1  0.08269100  0.91730900  0.07054300  1
  O  O28  1  0.08269100  0.16538300  0.07054300  1
  O  O29  1  0.16538300  0.08269100  0.57054300  1
  O  O30  1  0.60418300  0.66050900  0.29918100  1
  O  O31  1  0.33949100  0.94367400  0.29918100  1
  O  O32  1  0.05632600  0.39581700  0.29918100  1
  O  O33  1  0.94367400  0.60418300  0.79918100  1
  O  O34  1  0.39581700  0.33949100  0.79918100  1
  O  O35  1  0.66050900  0.05632600  0.79918100  1
  O  O36  1  0.60418300  0.94367400  0.29918100  1
  O  O37  1  0.66050900  0.60418300  0.79918100  1
  O  O38  1  0.94367400  0.33949100  0.79918100  1
  O  O39  1  0.05632600  0.66050900  0.29918100  1
  O  O40  1  0.33949100  0.39581700  0.29918100  1
  O  O41  1  0.39581700  0.05632600  0.79918100  1
  O  O42  1  0.49797100  0.74898500  0.98803000  1
  O  O43  1  0.74898500  0.49797100  0.48803000  1
  O  O44  1  0.74898500  0.25101500  0.48803000  1
  O  O45  1  0.25101500  0.74898500  0.98803000  1
  O  O46  1  0.25101500  0.50202900  0.98803000  1
  O  O47  1  0.50202900  0.25101500  0.48803000  1
  O  O48  1  0.83530500  0.41765300  0.15540500  1
  O  O49  1  0.41765300  0.83530500  0.65540500  1
  O  O50  1  0.41765300  0.58234700  0.65540500  1
  O  O51  1  0.58234700  0.41765300  0.15540500  1
  O  O52  1  0.58234700  0.16469500  0.15540500  1
  O  O53  1  0.16469500  0.58234700  0.65540500  1
