# generated using pymatgen
data_Ga3Te
_symmetry_space_group_name_H-M   'P 1'
_cell_length_a   6.39412192
_cell_length_b   6.39412192
_cell_length_c   5.26189500
_cell_angle_alpha   90.00000000
_cell_angle_beta   90.00000000
_cell_angle_gamma   119.99999922
_symmetry_Int_Tables_number   1
_chemical_formula_structural   Ga3Te
_chemical_formula_sum   'Ga6 Te2'
_cell_volume   186.30934508
_cell_formula_units_Z   2
loop_
 _symmetry_equiv_pos_site_id
 _symmetry_equiv_pos_as_xyz
  1  'x, y, z'
loop_
 _atom_site_type_symbol
 _atom_site_label
 _atom_site_symmetry_multiplicity
 _atom_site_fract_x
 _atom_site_fract_y
 _atom_site_fract_z
 _atom_site_occupancy
  Ga  Ga0  1  0.15840700  0.31681400  0.25000000  1
  Ga  Ga1  1  0.68318600  0.84159300  0.25000000  1
  Ga  Ga2  1  0.15840700  0.84159300  0.25000000  1
  Ga  Ga3  1  0.84159300  0.68318600  0.75000000  1
  Ga  Ga4  1  0.31681400  0.15840700  0.75000000  1
  Ga  Ga5  1  0.84159300  0.15840700  0.75000000  1
  Te  Te6  1  0.33333300  0.66666700  0.75000000  1
  Te  Te7  1  0.66666700  0.33333300  0.25000000  1
