# generated using pymatgen
data_HoGa3
_symmetry_space_group_name_H-M   'P 1'
_cell_length_a   12.40193714
_cell_length_b   12.40193714
_cell_length_c   12.40193648
_cell_angle_alpha   28.42414324
_cell_angle_beta   28.42414324
_cell_angle_gamma   28.42414485
_symmetry_Int_Tables_number   1
_chemical_formula_structural   HoGa3
_chemical_formula_sum   'Ho5 Ga15'
_cell_volume   381.95340818
_cell_formula_units_Z   5
loop_
 _symmetry_equiv_pos_site_id
 _symmetry_equiv_pos_as_xyz
  1  'x, y, z'
loop_
 _atom_site_type_symbol
 _atom_site_label
 _atom_site_symmetry_multiplicity
 _atom_site_fract_x
 _atom_site_fract_y
 _atom_site_fract_z
 _atom_site_occupancy
  Ho  Ho0  1  0.13066600  0.13066600  0.13066600  1
  Ho  Ho1  1  0.86933400  0.86933400  0.86933400  1
  Ho  Ho2  1  0.40001600  0.40001600  0.40001600  1
  Ho  Ho3  1  0.59998400  0.59998400  0.59998400  1
  Ho  Ho4  1  0.00000000  0.00000000  0.00000000  1
  Ga  Ga5  1  0.43671800  0.88078400  0.88078400  1
  Ga  Ga6  1  0.88078400  0.88078400  0.43671800  1
  Ga  Ga7  1  0.88078400  0.43671800  0.88078400  1
  Ga  Ga8  1  0.11921600  0.56328200  0.11921600  1
  Ga  Ga9  1  0.11921600  0.11921600  0.56328200  1
  Ga  Ga10  1  0.56328200  0.11921600  0.11921600  1
  Ga  Ga11  1  0.13235600  0.63503500  0.63503500  1
  Ga  Ga12  1  0.63503500  0.63503500  0.13235600  1
  Ga  Ga13  1  0.63503500  0.13235600  0.63503500  1
  Ga  Ga14  1  0.36496500  0.86764400  0.36496500  1
  Ga  Ga15  1  0.36496500  0.36496500  0.86764400  1
  Ga  Ga16  1  0.86764400  0.36496500  0.36496500  1
  Ga  Ga17  1  0.50000000  0.50000000  0.00000000  1
  Ga  Ga18  1  0.50000000  0.00000000  0.50000000  1
  Ga  Ga19  1  0.00000000  0.50000000  0.50000000  1
