data_image0
_chemical_formula_structural       F18Nd6
_chemical_formula_sum              "F18 Nd6"
_cell_length_a       6.65303
_cell_length_b       6.65277
_cell_length_c       6.81262
_cell_angle_alpha    90.0136
_cell_angle_beta     90.0008
_cell_angle_gamma    120.034

_space_group_name_H-M_alt    "P 1"
_space_group_IT_number       1

loop_
  _space_group_symop_operation_xyz
  'x, y, z'

loop_
  _atom_site_type_symbol
  _atom_site_label
  _atom_site_symmetry_multiplicity
  _atom_site_fract_x
  _atom_site_fract_y
  _atom_site_fract_z
  _atom_site_occupancy
  F   F1        1.0  0.00000  0.99900  0.75000  1.0000
  F   F2        1.0  0.00000  0.00059  0.24800  1.0000
  F   F3        1.0  0.33300  0.66700  0.46700  1.0000
  F   F4        1.0  0.66700  0.33300  0.96500  1.0000
  F   F5        1.0  0.66700  0.33300  0.53200  1.0000
  F   F6        1.0  0.33300  0.66700  0.03430  1.0000
  F   F7        1.0  0.66000  0.01090  0.33600  1.0000
  F   F8        1.0  0.35100  0.34000  0.33700  1.0000
  F   F9        1.0  0.98900  0.65000  0.33700  1.0000
  F   F10       1.0  0.01250  0.35100  0.83700  1.0000
  F   F11       1.0  0.64800  0.66100  0.83700  1.0000
  F   F12       1.0  0.33900  0.98700  0.83700  1.0000
  F   F13       1.0  0.01150  0.65800  0.66400  1.0000
  F   F14       1.0  0.34000  0.35100  0.66400  1.0000
  F   F15       1.0  0.66000  0.64700  0.16400  1.0000
  F   F16       1.0  0.98700  0.34100  0.16400  1.0000
  F   F17       1.0  0.64800  0.98900  0.66400  1.0000
  F   F18       1.0  0.35300  0.01320  0.16400  1.0000
  Nd  Nd1       1.0  0.32000  0.00000  0.50000  1.0000
  Nd  Nd2       1.0  0.00000  0.32000  0.50000  1.0000
  Nd  Nd3       1.0  0.00006  0.68000  0.00013  1.0000
  Nd  Nd4       1.0  0.68000  0.00017  0.00011  1.0000
  Nd  Nd5       1.0  0.68000  0.68000  0.50000  1.0000
  Nd  Nd6       1.0  0.32000  0.32000  0.00020  1.0000
