# generated using pymatgen
data_Re3W
_symmetry_space_group_name_H-M   'P 1'
_cell_length_a   4.83194366
_cell_length_b   4.83194366
_cell_length_c   4.83194366
_cell_angle_alpha   131.65152756
_cell_angle_beta   131.65152756
_cell_angle_gamma   70.77996119
_symmetry_Int_Tables_number   1
_chemical_formula_structural   Re3W
_chemical_formula_sum   'Re3 W1'
_cell_volume   61.69362664
_cell_formula_units_Z   1
loop_
 _symmetry_equiv_pos_site_id
 _symmetry_equiv_pos_as_xyz
  1  'x, y, z'
loop_
 _atom_site_type_symbol
 _atom_site_label
 _atom_site_symmetry_multiplicity
 _atom_site_fract_x
 _atom_site_fract_y
 _atom_site_fract_z
 _atom_site_occupancy
  Re  Re0  1  0.75000000  0.25000000  0.50000000  1
  Re  Re1  1  0.25000000  0.75000000  0.50000000  1
  Re  Re2  1  0.50000000  0.50000000  0.00000000  1
  W  W3  1  0.00000000  0.00000000  0.00000000  1
