# generated using pymatgen
data_Rb4NO
_symmetry_space_group_name_H-M   'P 1'
_cell_length_a   4.97146600
_cell_length_b   4.97146600
_cell_length_c   7.00969200
_cell_angle_alpha   90.00000000
_cell_angle_beta   90.00000000
_cell_angle_gamma   90.00000000
_symmetry_Int_Tables_number   1
_chemical_formula_structural   Rb4NO
_chemical_formula_sum   'Rb4 N1 O1'
_cell_volume   173.24786170
_cell_formula_units_Z   1
loop_
 _symmetry_equiv_pos_site_id
 _symmetry_equiv_pos_as_xyz
  1  'x, y, z'
loop_
 _atom_site_type_symbol
 _atom_site_label
 _atom_site_symmetry_multiplicity
 _atom_site_fract_x
 _atom_site_fract_y
 _atom_site_fract_z
 _atom_site_occupancy
  Rb  Rb0  1  0.00000000  0.50000000  0.25509200  1
  Rb  Rb1  1  0.50000000  0.00000000  0.74490800  1
  Rb  Rb2  1  0.00000000  0.50000000  0.74490800  1
  Rb  Rb3  1  0.50000000  0.00000000  0.25509200  1
  N  N4  1  0.50000000  0.50000000  0.00000000  1
  O  O5  1  0.00000000  0.00000000  0.50000000  1
