# generated using pymatgen
data_Pr3Y
_symmetry_space_group_name_H-M   'P 1'
_cell_length_a   7.43114941
_cell_length_b   7.43114941
_cell_length_c   5.97829000
_cell_angle_alpha   90.00000000
_cell_angle_beta   90.00000000
_cell_angle_gamma   119.99999476
_symmetry_Int_Tables_number   1
_chemical_formula_structural   Pr3Y
_chemical_formula_sum   'Pr6 Y2'
_cell_volume   285.90359726
_cell_formula_units_Z   2
loop_
 _symmetry_equiv_pos_site_id
 _symmetry_equiv_pos_as_xyz
  1  'x, y, z'
loop_
 _atom_site_type_symbol
 _atom_site_label
 _atom_site_symmetry_multiplicity
 _atom_site_fract_x
 _atom_site_fract_y
 _atom_site_fract_z
 _atom_site_occupancy
  Pr  Pr0  1  0.16720100  0.33440200  0.25000000  1
  Pr  Pr1  1  0.66559800  0.83279900  0.25000000  1
  Pr  Pr2  1  0.16720100  0.83279900  0.25000000  1
  Pr  Pr3  1  0.83279900  0.66559800  0.75000000  1
  Pr  Pr4  1  0.33440200  0.16720100  0.75000000  1
  Pr  Pr5  1  0.83279900  0.16720100  0.75000000  1
  Y  Y6  1  0.33333300  0.66666700  0.75000000  1
  Y  Y7  1  0.66666700  0.33333300  0.25000000  1
