# generated using pymatgen
data_Rb2Al2Si3O10
_symmetry_space_group_name_H-M   'P 1'
_cell_length_a   12.90392996
_cell_length_b   9.99619337
_cell_length_c   9.40258956
_cell_angle_alpha   83.33394897
_cell_angle_beta   50.30234387
_cell_angle_gamma   46.36370716
_symmetry_Int_Tables_number   1
_chemical_formula_structural   Rb2Al2Si3O10
_chemical_formula_sum   'Rb4 Al4 Si6 O20'
_cell_volume   548.68988609
_cell_formula_units_Z   2
loop_
 _symmetry_equiv_pos_site_id
 _symmetry_equiv_pos_as_xyz
  1  'x, y, z'
loop_
 _atom_site_type_symbol
 _atom_site_label
 _atom_site_symmetry_multiplicity
 _atom_site_fract_x
 _atom_site_fract_y
 _atom_site_fract_z
 _atom_site_occupancy
  Rb  Rb0  1  0.98407600  0.63889500  0.10783100  1
  Rb  Rb1  1  0.26919700  0.10783100  0.63889500  1
  Rb  Rb2  1  0.14216900  0.98080300  0.26592400  1
  Rb  Rb3  1  0.61110500  0.26592400  0.98080300  1
  Al  Al4  1  0.56526100  0.24977400  0.51632900  1
  Al  Al5  1  0.66863600  0.51632900  0.24977400  1
  Al  Al6  1  0.73367100  0.58136400  0.68473900  1
  Al  Al7  1  0.00022600  0.68473900  0.58136400  1
  Si  Si8  1  0.55892600  0.01011900  0.73927400  1
  Si  Si9  1  0.69168000  0.73927400  0.01011900  1
  Si  Si10  1  0.51072600  0.55832000  0.69107400  1
  Si  Si11  1  0.23988100  0.69107400  0.55832000  1
  Si  Si12  1  0.99980800  0.00019200  0.00019200  1
  Si  Si13  1  0.24980800  0.25019200  0.25019200  1
  O  O14  1  0.37026200  0.20961400  0.00254400  1
  O  O15  1  0.41758000  0.00254400  0.20961400  1
  O  O16  1  0.24745600  0.83242000  0.87973800  1
  O  O17  1  0.04038600  0.87973800  0.83242000  1
  O  O18  1  0.81015000  0.85830600  0.58475900  1
  O  O19  1  0.74678500  0.58475900  0.85830600  1
  O  O20  1  0.66524100  0.50321500  0.43985000  1
  O  O21  1  0.39169400  0.43985000  0.50321500  1
  O  O22  1  0.50676100  0.39776300  0.70073600  1
  O  O23  1  0.39474000  0.70073600  0.39776300  1
  O  O24  1  0.54926400  0.85526000  0.74323900  1
  O  O25  1  0.85223700  0.74323900  0.85526000  1
  O  O26  1  0.48717700  0.14385500  0.63732300  1
  O  O27  1  0.73164400  0.63732300  0.14385500  1
  O  O28  1  0.61267700  0.51835600  0.76282300  1
  O  O29  1  0.10614500  0.76282300  0.51835600  1
  O  O30  1  0.85067100  0.02895000  0.23603500  1
  O  O31  1  0.88434300  0.23603500  0.02895000  1
  O  O32  1  0.01396500  0.36565700  0.39932900  1
  O  O33  1  0.22105000  0.39932900  0.36565700  1
