# generated using pymatgen
data_K3Rb
_symmetry_space_group_name_H-M   'P 1'
_cell_length_a   9.59830305
_cell_length_b   9.59830305
_cell_length_c   7.80854000
_cell_angle_alpha   90.00000000
_cell_angle_beta   90.00000000
_cell_angle_gamma   119.99999345
_symmetry_Int_Tables_number   1
_chemical_formula_structural   K3Rb
_chemical_formula_sum   'K6 Rb2'
_cell_volume   623.00196366
_cell_formula_units_Z   2
loop_
 _symmetry_equiv_pos_site_id
 _symmetry_equiv_pos_as_xyz
  1  'x, y, z'
loop_
 _atom_site_type_symbol
 _atom_site_label
 _atom_site_symmetry_multiplicity
 _atom_site_fract_x
 _atom_site_fract_y
 _atom_site_fract_z
 _atom_site_occupancy
  K  K0  1  0.16522000  0.33044100  0.25000000  1
  K  K1  1  0.66955900  0.83478000  0.25000000  1
  K  K2  1  0.16522000  0.83478000  0.25000000  1
  K  K3  1  0.83478000  0.66955900  0.75000000  1
  K  K4  1  0.33044100  0.16522000  0.75000000  1
  K  K5  1  0.83478000  0.16522000  0.75000000  1
  Rb  Rb6  1  0.33333300  0.66666700  0.75000000  1
  Rb  Rb7  1  0.66666700  0.33333300  0.25000000  1
