# generated using pymatgen
data_K3Mg
_symmetry_space_group_name_H-M   'P 1'
_cell_length_a   8.63574924
_cell_length_b   8.63574924
_cell_length_c   6.81580200
_cell_angle_alpha   90.00000000
_cell_angle_beta   90.00000000
_cell_angle_gamma   119.99999416
_symmetry_Int_Tables_number   1
_chemical_formula_structural   K3Mg
_chemical_formula_sum   'K6 Mg2'
_cell_volume   440.19759828
_cell_formula_units_Z   2
loop_
 _symmetry_equiv_pos_site_id
 _symmetry_equiv_pos_as_xyz
  1  'x, y, z'
loop_
 _atom_site_type_symbol
 _atom_site_label
 _atom_site_symmetry_multiplicity
 _atom_site_fract_x
 _atom_site_fract_y
 _atom_site_fract_z
 _atom_site_occupancy
  K  K0  1  0.17512800  0.35025600  0.25000000  1
  K  K1  1  0.17512800  0.82487200  0.25000000  1
  K  K2  1  0.64974400  0.82487200  0.25000000  1
  K  K3  1  0.35025600  0.17512800  0.75000000  1
  K  K4  1  0.82487200  0.17512800  0.75000000  1
  K  K5  1  0.82487200  0.64974400  0.75000000  1
  Mg  Mg6  1  0.66666700  0.33333300  0.25000000  1
  Mg  Mg7  1  0.33333300  0.66666700  0.75000000  1
