# generated using pymatgen
data_Nd2Mg
_symmetry_space_group_name_H-M   'P 1'
_cell_length_a   8.98706359
_cell_length_b   8.98706359
_cell_length_c   5.64520700
_cell_angle_alpha   90.00000000
_cell_angle_beta   90.00000000
_cell_angle_gamma   155.39463144
_symmetry_Int_Tables_number   1
_chemical_formula_structural   Nd2Mg
_chemical_formula_sum   'Nd4 Mg2'
_cell_volume   189.84131911
_cell_formula_units_Z   2
loop_
 _symmetry_equiv_pos_site_id
 _symmetry_equiv_pos_as_xyz
  1  'x, y, z'
loop_
 _atom_site_type_symbol
 _atom_site_label
 _atom_site_symmetry_multiplicity
 _atom_site_fract_x
 _atom_site_fract_y
 _atom_site_fract_z
 _atom_site_occupancy
  Nd  Nd0  1  0.08775800  0.91224200  0.25000000  1
  Nd  Nd1  1  0.77232800  0.22767200  0.25000000  1
  Nd  Nd2  1  0.91224200  0.08775800  0.75000000  1
  Nd  Nd3  1  0.22767200  0.77232800  0.75000000  1
  Mg  Mg4  1  0.43174000  0.56826000  0.25000000  1
  Mg  Mg5  1  0.56826000  0.43174000  0.75000000  1
