# generated using pymatgen
data_K3Sr
_symmetry_space_group_name_H-M   'P 1'
_cell_length_a   9.20686837
_cell_length_b   9.20686837
_cell_length_c   7.51062000
_cell_angle_alpha   90.00000000
_cell_angle_beta   90.00000000
_cell_angle_gamma   120.00000263
_symmetry_Int_Tables_number   1
_chemical_formula_structural   K3Sr
_chemical_formula_sum   'K6 Sr2'
_cell_volume   551.35367979
_cell_formula_units_Z   2
loop_
 _symmetry_equiv_pos_site_id
 _symmetry_equiv_pos_as_xyz
  1  'x, y, z'
loop_
 _atom_site_type_symbol
 _atom_site_label
 _atom_site_symmetry_multiplicity
 _atom_site_fract_x
 _atom_site_fract_y
 _atom_site_fract_z
 _atom_site_occupancy
  K  K0  1  0.16794300  0.33588600  0.25000000  1
  K  K1  1  0.66411400  0.83205700  0.25000000  1
  K  K2  1  0.16794300  0.83205700  0.25000000  1
  K  K3  1  0.83205700  0.66411400  0.75000000  1
  K  K4  1  0.33588600  0.16794300  0.75000000  1
  K  K5  1  0.83205700  0.16794300  0.75000000  1
  Sr  Sr6  1  0.33333300  0.66666700  0.75000000  1
  Sr  Sr7  1  0.66666700  0.33333300  0.25000000  1
