# generated using pymatgen
data_Pm3Sc
_symmetry_space_group_name_H-M   'P 1'
_cell_length_a   7.21859282
_cell_length_b   7.21859282
_cell_length_c   5.71821000
_cell_angle_alpha   90.00000000
_cell_angle_beta   90.00000000
_cell_angle_gamma   120.00000753
_symmetry_Int_Tables_number   1
_chemical_formula_structural   Pm3Sc
_chemical_formula_sum   'Pm6 Sc2'
_cell_volume   258.04520298
_cell_formula_units_Z   2
loop_
 _symmetry_equiv_pos_site_id
 _symmetry_equiv_pos_as_xyz
  1  'x, y, z'
loop_
 _atom_site_type_symbol
 _atom_site_label
 _atom_site_symmetry_multiplicity
 _atom_site_fract_x
 _atom_site_fract_y
 _atom_site_fract_z
 _atom_site_occupancy
  Pm  Pm0  1  0.16969200  0.33938300  0.25000000  1
  Pm  Pm1  1  0.83030800  0.16969200  0.75000000  1
  Pm  Pm2  1  0.33938300  0.16969200  0.75000000  1
  Pm  Pm3  1  0.66061700  0.83030800  0.25000000  1
  Pm  Pm4  1  0.16969200  0.83030800  0.25000000  1
  Pm  Pm5  1  0.83030800  0.66061700  0.75000000  1
  Sc  Sc6  1  0.66666700  0.33333300  0.25000000  1
  Sc  Sc7  1  0.33333300  0.66666700  0.75000000  1
