# generated using pymatgen
data_NaTi5Se8
_symmetry_space_group_name_H-M   'P 1'
_cell_length_a   9.56069283
_cell_length_b   9.56069283
_cell_length_c   9.14997666
_cell_angle_alpha   75.06358897
_cell_angle_beta   75.06358897
_cell_angle_gamma   21.62714734
_symmetry_Int_Tables_number   1
_chemical_formula_structural   NaTi5Se8
_chemical_formula_sum   'Na1 Ti5 Se8'
_cell_volume   297.45482785
_cell_formula_units_Z   1
loop_
 _symmetry_equiv_pos_site_id
 _symmetry_equiv_pos_as_xyz
  1  'x, y, z'
loop_
 _atom_site_type_symbol
 _atom_site_label
 _atom_site_symmetry_multiplicity
 _atom_site_fract_x
 _atom_site_fract_y
 _atom_site_fract_z
 _atom_site_occupancy
  Na  Na0  1  0.50000000  0.50000000  0.50000000  1
  Ti  Ti1  1  0.00000000  0.00000000  0.00000000  1
  Ti  Ti2  1  0.34992100  0.34992100  0.99182900  1
  Ti  Ti3  1  0.29035200  0.29035200  0.34985200  1
  Ti  Ti4  1  0.70964800  0.70964800  0.65014800  1
  Ti  Ti5  1  0.65007900  0.65007900  0.00817100  1
  Se  Se6  1  0.42637500  0.42637500  0.17745700  1
  Se  Se7  1  0.91714600  0.91714600  0.80945100  1
  Se  Se8  1  0.84078500  0.84078500  0.49797400  1
  Se  Se9  1  0.75814100  0.75814100  0.15976300  1
  Se  Se10  1  0.24185900  0.24185900  0.84023700  1
  Se  Se11  1  0.15921500  0.15921500  0.50202600  1
  Se  Se12  1  0.08285400  0.08285400  0.19054900  1
  Se  Se13  1  0.57362500  0.57362500  0.82254300  1
