# generated using pymatgen
data_Mg3Br
_symmetry_space_group_name_H-M   'P 1'
_cell_length_a   6.19229005
_cell_length_b   6.19229005
_cell_length_c   6.19229005
_cell_angle_alpha   138.85194099
_cell_angle_beta   138.85194099
_cell_angle_gamma   59.60068464
_symmetry_Int_Tables_number   1
_chemical_formula_structural   Mg3Br
_chemical_formula_sum   'Mg3 Br1'
_cell_volume   101.77967724
_cell_formula_units_Z   1
loop_
 _symmetry_equiv_pos_site_id
 _symmetry_equiv_pos_as_xyz
  1  'x, y, z'
loop_
 _atom_site_type_symbol
 _atom_site_label
 _atom_site_symmetry_multiplicity
 _atom_site_fract_x
 _atom_site_fract_y
 _atom_site_fract_z
 _atom_site_occupancy
  Mg  Mg0  1  0.50000000  0.50000000  0.00000000  1
  Mg  Mg1  1  0.75000000  0.25000000  0.50000000  1
  Mg  Mg2  1  0.25000000  0.75000000  0.50000000  1
  Br  Br3  1  0.00000000  0.00000000  0.00000000  1
