data_image0
_chemical_formula_structural       Al2F10H8Mg2O4
_chemical_formula_sum              "Al2 F10 H8 Mg2 O4"
_cell_length_a       6.36241
_cell_length_b       6.882
_cell_length_c       6.882
_cell_angle_alpha    92.8662
_cell_angle_beta     117.532
_cell_angle_gamma    117.532

_space_group_name_H-M_alt    "P 1"
_space_group_IT_number       1

loop_
  _space_group_symop_operation_xyz
  'x, y, z'

loop_
  _atom_site_type_symbol
  _atom_site_label
  _atom_site_symmetry_multiplicity
  _atom_site_fract_x
  _atom_site_fract_y
  _atom_site_fract_z
  _atom_site_occupancy
  Al  Al1       1.0  0.50000  0.00000  0.50000  1.0000
  Al  Al2       1.0  0.00000  0.50000  0.00000  1.0000
  F   F1        1.0  0.15300  0.33300  0.08360  1.0000
  F   F2        1.0  0.84700  0.41600  0.16700  1.0000
  F   F3        1.0  0.32400  0.75000  0.25000  1.0000
  F   F4        1.0  0.26300  0.08360  0.33300  1.0000
  F   F5        1.0  0.73700  0.16700  0.41600  1.0000
  F   F6        1.0  0.26300  0.83300  0.58400  1.0000
  F   F7        1.0  0.73700  0.91600  0.66700  1.0000
  F   F8        1.0  0.67600  0.25000  0.75000  1.0000
  F   F9        1.0  0.15300  0.58400  0.83300  1.0000
  F   F10       1.0  0.84700  0.66700  0.91600  1.0000
  H   H1        1.0  0.49300  0.20900  0.01350  1.0000
  H   H2        1.0  0.73000  0.01350  0.20900  1.0000
  H   H3        1.0  0.50700  0.48600  0.29100  1.0000
  H   H4        1.0  0.27000  0.29100  0.48600  1.0000
  H   H5        1.0  0.73000  0.70900  0.51400  1.0000
  H   H6        1.0  0.49300  0.51400  0.70900  1.0000
  H   H7        1.0  0.27000  0.98600  0.79100  1.0000
  H   H8        1.0  0.50700  0.79100  0.98600  1.0000
  Mg  Mg1       1.0  0.00000  0.00000  0.00000  1.0000
  Mg  Mg2       1.0  0.00000  0.50000  0.50000  1.0000
  O   O1        1.0  0.70600  0.92300  0.07700  1.0000
  O   O2        1.0  0.70600  0.57700  0.42300  1.0000
  O   O3        1.0  0.29400  0.42300  0.57700  1.0000
  O   O4        1.0  0.29400  0.07700  0.92300  1.0000
