# generated using pymatgen
data_MgNi
_symmetry_space_group_name_H-M   'P 1'
_cell_length_a   4.95406580
_cell_length_b   4.95406580
_cell_length_c   4.95406540
_cell_angle_alpha   60.60378346
_cell_angle_beta   60.60378346
_cell_angle_gamma   60.60377625
_symmetry_Int_Tables_number   1
_chemical_formula_structural   MgNi
_chemical_formula_sum   'Mg3 Ni3'
_cell_volume   87.14698181
_cell_formula_units_Z   3
loop_
 _symmetry_equiv_pos_site_id
 _symmetry_equiv_pos_as_xyz
  1  'x, y, z'
loop_
 _atom_site_type_symbol
 _atom_site_label
 _atom_site_symmetry_multiplicity
 _atom_site_fract_x
 _atom_site_fract_y
 _atom_site_fract_z
 _atom_site_occupancy
  Mg  Mg0  1  0.00000000  0.00000000  0.00000000  1
  Mg  Mg1  1  0.38038000  0.38038000  0.38038000  1
  Mg  Mg2  1  0.61962000  0.61962000  0.61962000  1
  Ni  Ni3  1  0.00000000  0.50000000  0.00000000  1
  Ni  Ni4  1  0.00000000  0.00000000  0.50000000  1
  Ni  Ni5  1  0.50000000  0.00000000  0.00000000  1
