# generated using pymatgen
data_WSCl4
_symmetry_space_group_name_H-M   'P 1'
_cell_length_a   6.98898800
_cell_length_b   8.00985811
_cell_length_c   8.10862216
_cell_angle_alpha   76.65848285
_cell_angle_beta   78.38776505
_cell_angle_gamma   79.45205200
_symmetry_Int_Tables_number   1
_chemical_formula_structural   WSCl4
_chemical_formula_sum   'W2 S2 Cl8'
_cell_volume   428.16925397
_cell_formula_units_Z   2
loop_
 _symmetry_equiv_pos_site_id
 _symmetry_equiv_pos_as_xyz
  1  'x, y, z'
loop_
 _atom_site_type_symbol
 _atom_site_label
 _atom_site_symmetry_multiplicity
 _atom_site_fract_x
 _atom_site_fract_y
 _atom_site_fract_z
 _atom_site_occupancy
  W  W0  1  0.85919300  0.75146600  0.80209400  1
  W  W1  1  0.14080700  0.24853400  0.19790600  1
  S  S2  1  0.65782400  0.98044000  0.76064000  1
  S  S3  1  0.34217600  0.01956000  0.23936000  1
  Cl  Cl4  1  0.13978700  0.84861300  0.82981400  1
  Cl  Cl5  1  0.01700400  0.71918800  0.53114500  1
  Cl  Cl6  1  0.80900100  0.66441000  0.09928800  1
  Cl  Cl7  1  0.68041100  0.53869500  0.79853000  1
  Cl  Cl8  1  0.31958900  0.46130500  0.20147000  1
  Cl  Cl9  1  0.19099900  0.33559000  0.90071200  1
  Cl  Cl10  1  0.98299600  0.28081200  0.46885500  1
  Cl  Cl11  1  0.86021300  0.15138700  0.17018600  1
