# generated using pymatgen
data_TbAgSe2
_symmetry_space_group_name_H-M   'P 1'
_cell_length_a   7.26866417
_cell_length_b   7.26866417
_cell_length_c   7.26866417
_cell_angle_alpha   133.39399940
_cell_angle_beta   133.39399940
_cell_angle_gamma   68.03606965
_symmetry_Int_Tables_number   1
_chemical_formula_structural   TbAgSe2
_chemical_formula_sum   'Tb2 Ag2 Se4'
_cell_volume   199.25273177
_cell_formula_units_Z   2
loop_
 _symmetry_equiv_pos_site_id
 _symmetry_equiv_pos_as_xyz
  1  'x, y, z'
loop_
 _atom_site_type_symbol
 _atom_site_label
 _atom_site_symmetry_multiplicity
 _atom_site_fract_x
 _atom_site_fract_y
 _atom_site_fract_z
 _atom_site_occupancy
  Tb  Tb0  1  0.75898000  0.75898000  0.00000000  1
  Tb  Tb1  1  0.50898000  0.00898000  0.50000000  1
  Ag  Ag2  1  0.26358000  0.26358000  0.00000000  1
  Ag  Ag3  1  0.01358000  0.51358000  0.50000000  1
  Se  Se4  1  0.99885500  0.99885500  0.00000000  1
  Se  Se5  1  0.74885500  0.24885500  0.50000000  1
  Se  Se6  1  0.51858400  0.51858400  0.00000000  1
  Se  Se7  1  0.26858400  0.76858400  0.50000000  1
