# generated using pymatgen
data_YbH2ClO2
_symmetry_space_group_name_H-M   'P 1'
_cell_length_a   3.63324200
_cell_length_b   6.10021800
_cell_length_c   6.69874511
_cell_angle_alpha   74.37522533
_cell_angle_beta   90.00000000
_cell_angle_gamma   90.00000000
_symmetry_Int_Tables_number   1
_chemical_formula_structural   YbH2ClO2
_chemical_formula_sum   'Yb2 H4 Cl2 O4'
_cell_volume   142.98163364
_cell_formula_units_Z   2
loop_
 _symmetry_equiv_pos_site_id
 _symmetry_equiv_pos_as_xyz
  1  'x, y, z'
loop_
 _atom_site_type_symbol
 _atom_site_label
 _atom_site_symmetry_multiplicity
 _atom_site_fract_x
 _atom_site_fract_y
 _atom_site_fract_z
 _atom_site_occupancy
  Yb  Yb0  1  0.75000000  0.71420600  0.10237500  1
  Yb  Yb1  1  0.25000000  0.28579400  0.89762500  1
  H  H2  1  0.75000000  0.12591300  0.24581800  1
  H  H3  1  0.25000000  0.35410900  0.31850700  1
  H  H4  1  0.75000000  0.64589100  0.68149300  1
  H  H5  1  0.25000000  0.87408700  0.75418200  1
  Cl  Cl6  1  0.25000000  0.77739200  0.42566200  1
  Cl  Cl7  1  0.75000000  0.22260800  0.57433800  1
  O  O8  1  0.75000000  0.10758900  0.10406600  1
  O  O9  1  0.25000000  0.44655900  0.17360000  1
  O  O10  1  0.75000000  0.55344100  0.82640000  1
  O  O11  1  0.25000000  0.89241100  0.89593400  1
