# generated using pymatgen
data_Ti3Si
_symmetry_space_group_name_H-M   'P 1'
_cell_length_a   10.15525600
_cell_length_b   10.15525600
_cell_length_c   5.07772400
_cell_angle_alpha   90.00000000
_cell_angle_beta   90.00000000
_cell_angle_gamma   90.00000000
_symmetry_Int_Tables_number   1
_chemical_formula_structural   Ti3Si
_chemical_formula_sum   'Ti24 Si8'
_cell_volume   523.66173797
_cell_formula_units_Z   8
loop_
 _symmetry_equiv_pos_site_id
 _symmetry_equiv_pos_as_xyz
  1  'x, y, z'
loop_
 _atom_site_type_symbol
 _atom_site_label
 _atom_site_symmetry_multiplicity
 _atom_site_fract_x
 _atom_site_fract_y
 _atom_site_fract_z
 _atom_site_occupancy
  Ti  Ti0  1  0.21689500  0.68217100  0.99602100  1
  Ti  Ti1  1  0.78310500  0.31782900  0.99602100  1
  Ti  Ti2  1  0.18217100  0.28310500  0.49602100  1
  Ti  Ti3  1  0.81782900  0.71689500  0.49602100  1
  Ti  Ti4  1  0.28310500  0.81782900  0.50397900  1
  Ti  Ti5  1  0.71689500  0.18217100  0.50397900  1
  Ti  Ti6  1  0.31782900  0.21689500  0.00397900  1
  Ti  Ti7  1  0.68217100  0.78310500  0.00397900  1
  Ti  Ti8  1  0.64179800  0.52798800  0.71665200  1
  Ti  Ti9  1  0.35820200  0.47201200  0.71665200  1
  Ti  Ti10  1  0.02798800  0.85820200  0.21665200  1
  Ti  Ti11  1  0.97201200  0.14179800  0.21665200  1
  Ti  Ti12  1  0.85820200  0.97201200  0.78334800  1
  Ti  Ti13  1  0.14179800  0.02798800  0.78334800  1
  Ti  Ti14  1  0.47201200  0.64179800  0.28334800  1
  Ti  Ti15  1  0.52798800  0.35820200  0.28334800  1
  Ti  Ti16  1  0.10680400  0.58134900  0.46656900  1
  Ti  Ti17  1  0.89319600  0.41865100  0.46656900  1
  Ti  Ti18  1  0.08134900  0.39319600  0.96656900  1
  Ti  Ti19  1  0.91865100  0.60680400  0.96656900  1
  Ti  Ti20  1  0.39319600  0.91865100  0.03343100  1
  Ti  Ti21  1  0.60680400  0.08134900  0.03343100  1
  Ti  Ti22  1  0.41865100  0.10680400  0.53343100  1
  Ti  Ti23  1  0.58134900  0.89319600  0.53343100  1
  Si  Si24  1  0.70532000  0.54192900  0.21038500  1
  Si  Si25  1  0.29468000  0.45807100  0.21038500  1
  Si  Si26  1  0.04192900  0.79468000  0.71038500  1
  Si  Si27  1  0.95807100  0.20532000  0.71038500  1
  Si  Si28  1  0.79468000  0.95807100  0.28961500  1
  Si  Si29  1  0.20532000  0.04192900  0.28961500  1
  Si  Si30  1  0.45807100  0.70532000  0.78961500  1
  Si  Si31  1  0.54192900  0.29468000  0.78961500  1
