# generated using pymatgen
data_YbSm3
_symmetry_space_group_name_H-M   'P 1'
_cell_length_a   6.34591787
_cell_length_b   6.34591787
_cell_length_c   6.34591828
_cell_angle_alpha   132.01634465
_cell_angle_beta   132.01635453
_cell_angle_gamma   70.20320049
_symmetry_Int_Tables_number   1
_chemical_formula_structural   YbSm3
_chemical_formula_sum   'Yb1 Sm3'
_cell_volume   138.26613434
_cell_formula_units_Z   1
loop_
 _symmetry_equiv_pos_site_id
 _symmetry_equiv_pos_as_xyz
  1  'x, y, z'
loop_
 _atom_site_type_symbol
 _atom_site_label
 _atom_site_symmetry_multiplicity
 _atom_site_fract_x
 _atom_site_fract_y
 _atom_site_fract_z
 _atom_site_occupancy
  Yb  Yb0  1  0.00000000  0.00000000  0.00000000  1
  Sm  Sm1  1  0.75000000  0.25000000  0.50000000  1
  Sm  Sm2  1  0.25000000  0.75000000  0.50000000  1
  Sm  Sm3  1  0.50000000  0.50000000  0.00000000  1
