# generated using pymatgen
data_Sm3Ag
_symmetry_space_group_name_H-M   'P 1'
_cell_length_a   7.01463689
_cell_length_b   7.01463689
_cell_length_c   5.42635200
_cell_angle_alpha   90.00000000
_cell_angle_beta   90.00000000
_cell_angle_gamma   120.00000838
_symmetry_Int_Tables_number   1
_chemical_formula_structural   Sm3Ag
_chemical_formula_sum   'Sm6 Ag2'
_cell_volume   231.23253851
_cell_formula_units_Z   2
loop_
 _symmetry_equiv_pos_site_id
 _symmetry_equiv_pos_as_xyz
  1  'x, y, z'
loop_
 _atom_site_type_symbol
 _atom_site_label
 _atom_site_symmetry_multiplicity
 _atom_site_fract_x
 _atom_site_fract_y
 _atom_site_fract_z
 _atom_site_occupancy
  Sm  Sm0  1  0.17401300  0.34802500  0.25000000  1
  Sm  Sm1  1  0.65197500  0.82598700  0.25000000  1
  Sm  Sm2  1  0.17401300  0.82598700  0.25000000  1
  Sm  Sm3  1  0.82598700  0.65197500  0.75000000  1
  Sm  Sm4  1  0.34802500  0.17401300  0.75000000  1
  Sm  Sm5  1  0.82598700  0.17401300  0.75000000  1
  Ag  Ag6  1  0.33333300  0.66666700  0.75000000  1
  Ag  Ag7  1  0.66666700  0.33333300  0.25000000  1
