# generated using pymatgen
data_SrHg3
_symmetry_space_group_name_H-M   'P 1'
_cell_length_a   5.51402600
_cell_length_b   5.83068600
_cell_length_c   7.05633100
_cell_angle_alpha   90.00000000
_cell_angle_beta   90.00000000
_cell_angle_gamma   90.00000000
_symmetry_Int_Tables_number   1
_chemical_formula_structural   SrHg3
_chemical_formula_sum   'Sr2 Hg6'
_cell_volume   226.86495228
_cell_formula_units_Z   2
loop_
 _symmetry_equiv_pos_site_id
 _symmetry_equiv_pos_as_xyz
  1  'x, y, z'
loop_
 _atom_site_type_symbol
 _atom_site_label
 _atom_site_symmetry_multiplicity
 _atom_site_fract_x
 _atom_site_fract_y
 _atom_site_fract_z
 _atom_site_occupancy
  Sr  Sr0  1  0.50000000  0.84520000  0.50000000  1
  Sr  Sr1  1  0.00000000  0.15480000  0.00000000  1
  Hg  Hg2  1  0.50000000  0.33679600  0.24580000  1
  Hg  Hg3  1  0.50000000  0.33679600  0.75420000  1
  Hg  Hg4  1  0.50000000  0.80892700  0.00000000  1
  Hg  Hg5  1  0.00000000  0.66320400  0.74580000  1
  Hg  Hg6  1  0.00000000  0.66320400  0.25420000  1
  Hg  Hg7  1  0.00000000  0.19107300  0.50000000  1
