# generated using pymatgen
data_Tl3Br
_symmetry_space_group_name_H-M   'P 1'
_cell_length_a   6.97888638
_cell_length_b   6.97888638
_cell_length_c   6.26983500
_cell_angle_alpha   90.00000000
_cell_angle_beta   90.00000000
_cell_angle_gamma   120.00000356
_symmetry_Int_Tables_number   1
_chemical_formula_structural   Tl3Br
_chemical_formula_sum   'Tl6 Br2'
_cell_volume   264.45938468
_cell_formula_units_Z   2
loop_
 _symmetry_equiv_pos_site_id
 _symmetry_equiv_pos_as_xyz
  1  'x, y, z'
loop_
 _atom_site_type_symbol
 _atom_site_label
 _atom_site_symmetry_multiplicity
 _atom_site_fract_x
 _atom_site_fract_y
 _atom_site_fract_z
 _atom_site_occupancy
  Tl  Tl0  1  0.16736900  0.33473800  0.25000000  1
  Tl  Tl1  1  0.66526200  0.83263100  0.25000000  1
  Tl  Tl2  1  0.16736900  0.83263100  0.25000000  1
  Tl  Tl3  1  0.83263100  0.66526200  0.75000000  1
  Tl  Tl4  1  0.33473800  0.16736900  0.75000000  1
  Tl  Tl5  1  0.83263100  0.16736900  0.75000000  1
  Br  Br6  1  0.33333300  0.66666700  0.75000000  1
  Br  Br7  1  0.66666700  0.33333300  0.25000000  1
