# generated using pymatgen
data_Be3Ru
_symmetry_space_group_name_H-M   'P 1'
_cell_length_a   4.79989971
_cell_length_b   4.79989971
_cell_length_c   3.75191800
_cell_angle_alpha   90.00000000
_cell_angle_beta   90.00000000
_cell_angle_gamma   119.99999599
_symmetry_Int_Tables_number   1
_chemical_formula_structural   Be3Ru
_chemical_formula_sum   'Be6 Ru2'
_cell_volume   74.85973988
_cell_formula_units_Z   2
loop_
 _symmetry_equiv_pos_site_id
 _symmetry_equiv_pos_as_xyz
  1  'x, y, z'
loop_
 _atom_site_type_symbol
 _atom_site_label
 _atom_site_symmetry_multiplicity
 _atom_site_fract_x
 _atom_site_fract_y
 _atom_site_fract_z
 _atom_site_occupancy
  Be  Be0  1  0.16069600  0.32139200  0.25000000  1
  Be  Be1  1  0.67860800  0.83930400  0.25000000  1
  Be  Be2  1  0.16069600  0.83930400  0.25000000  1
  Be  Be3  1  0.83930400  0.67860800  0.75000000  1
  Be  Be4  1  0.32139200  0.16069600  0.75000000  1
  Be  Be5  1  0.83930400  0.16069600  0.75000000  1
  Ru  Ru6  1  0.33333300  0.66666700  0.75000000  1
  Ru  Ru7  1  0.66666700  0.33333300  0.25000000  1
