# generated using pymatgen
data_Rb2Sr2(CO3)3
_symmetry_space_group_name_H-M   'P 1'
_cell_length_a   8.61223813
_cell_length_b   8.61223813
_cell_length_c   8.61223813
_cell_angle_alpha   109.47122063
_cell_angle_beta   109.47122063
_cell_angle_gamma   109.47122063
_symmetry_Int_Tables_number   1
_chemical_formula_structural   Rb2Sr2(CO3)3
_chemical_formula_sum   'Rb4 Sr4 C6 O18'
_cell_volume   491.72942534
_cell_formula_units_Z   2
loop_
 _symmetry_equiv_pos_site_id
 _symmetry_equiv_pos_as_xyz
  1  'x, y, z'
loop_
 _atom_site_type_symbol
 _atom_site_label
 _atom_site_symmetry_multiplicity
 _atom_site_fract_x
 _atom_site_fract_y
 _atom_site_fract_z
 _atom_site_occupancy
  Rb  Rb0  1  0.86956900  0.86956900  0.86956900  1
  Rb  Rb1  1  0.50000000  0.00000000  0.63043100  1
  Rb  Rb2  1  0.63043100  0.50000000  0.00000000  1
  Rb  Rb3  1  0.00000000  0.63043100  0.50000000  1
  Sr  Sr4  1  0.42377200  0.42377200  0.42377200  1
  Sr  Sr5  1  0.50000000  0.00000000  0.07622800  1
  Sr  Sr6  1  0.07622800  0.50000000  0.00000000  1
  Sr  Sr7  1  0.00000000  0.07622800  0.50000000  1
  C  C8  1  0.58351300  0.75000000  0.33351300  1
  C  C9  1  0.91648700  0.25000000  0.16648700  1
  C  C10  1  0.33351300  0.58351300  0.75000000  1
  C  C11  1  0.75000000  0.33351300  0.58351300  1
  C  C12  1  0.25000000  0.16648700  0.91648700  1
  C  C13  1  0.16648700  0.91648700  0.25000000  1
  O  O14  1  0.71583100  0.75000000  0.46583100  1
  O  O15  1  0.78416900  0.25000000  0.03416900  1
  O  O16  1  0.46583100  0.71583100  0.75000000  1
  O  O17  1  0.75000000  0.46583100  0.71583100  1
  O  O18  1  0.25000000  0.03416900  0.78416900  1
  O  O19  1  0.03416900  0.78416900  0.25000000  1
  O  O20  1  0.41055900  0.67075200  0.30104900  1
  O  O21  1  0.86970300  0.10951000  0.19895100  1
  O  O22  1  0.08944100  0.39049000  0.26019200  1
  O  O23  1  0.63029700  0.82924800  0.23980800  1
  O  O24  1  0.30104900  0.41055900  0.67075200  1
  O  O25  1  0.67075200  0.30104900  0.41055900  1
  O  O26  1  0.23980800  0.63029700  0.82924800  1
  O  O27  1  0.10951000  0.19895100  0.86970300  1
  O  O28  1  0.19895100  0.86970300  0.10951000  1
  O  O29  1  0.39049000  0.26019200  0.08944100  1
  O  O30  1  0.26019200  0.08944100  0.39049000  1
  O  O31  1  0.82924800  0.23980800  0.63029700  1
