# generated using pymatgen
data_SnH16C4(NO4)3
_symmetry_space_group_name_H-M   'P 1'
_cell_length_a   8.10036900
_cell_length_b   11.57491000
_cell_length_c   16.08571300
_cell_angle_alpha   90.00000000
_cell_angle_beta   90.00000000
_cell_angle_gamma   90.00000000
_symmetry_Int_Tables_number   1
_chemical_formula_structural   SnH16C4(NO4)3
_chemical_formula_sum   'Sn4 H64 C16 N12 O48'
_cell_volume   1508.21321447
_cell_formula_units_Z   4
loop_
 _symmetry_equiv_pos_site_id
 _symmetry_equiv_pos_as_xyz
  1  'x, y, z'
loop_
 _atom_site_type_symbol
 _atom_site_label
 _atom_site_symmetry_multiplicity
 _atom_site_fract_x
 _atom_site_fract_y
 _atom_site_fract_z
 _atom_site_occupancy
  Sn  Sn0  1  0.54258000  0.03825500  0.24077300  1
  Sn  Sn1  1  0.04258000  0.46174500  0.75922700  1
  Sn  Sn2  1  0.45742000  0.53825500  0.25922700  1
  Sn  Sn3  1  0.95742000  0.96174500  0.74077300  1
  H  H4  1  0.48830700  0.07760100  0.01070900  1
  H  H5  1  0.98830700  0.42239900  0.98929100  1
  H  H6  1  0.51169300  0.57760100  0.48929100  1
  H  H7  1  0.01169300  0.92239900  0.51070900  1
  H  H8  1  0.40588400  0.10759000  0.92480200  1
  H  H9  1  0.90588400  0.39241000  0.07519800  1
  H  H10  1  0.59411600  0.60759000  0.57519800  1
  H  H11  1  0.09411600  0.89241000  0.42480200  1
  H  H12  1  0.15795900  0.96039900  0.16579600  1
  H  H13  1  0.65795900  0.53960100  0.83420400  1
  H  H14  1  0.84204100  0.46039900  0.33420400  1
  H  H15  1  0.34204100  0.03960100  0.66579600  1
  H  H16  1  0.96328100  0.96489800  0.16800000  1
  H  H17  1  0.46328100  0.53510200  0.83200000  1
  H  H18  1  0.03671900  0.46489800  0.33200000  1
  H  H19  1  0.53671900  0.03510200  0.66800000  1
  H  H20  1  0.96155900  0.09606200  0.42096000  1
  H  H21  1  0.46155900  0.40393800  0.57904000  1
  H  H22  1  0.03844100  0.59606200  0.07904000  1
  H  H23  1  0.53844100  0.90393800  0.92096000  1
  H  H24  1  0.02478500  0.23381000  0.40500100  1
  H  H25  1  0.52478500  0.26619000  0.59499900  1
  H  H26  1  0.97521500  0.73381000  0.09499900  1
  H  H27  1  0.47521500  0.76619000  0.90500100  1
  H  H28  1  0.83374600  0.20748200  0.44460900  1
  H  H29  1  0.33374600  0.29251700  0.55539100  1
  H  H30  1  0.16625400  0.70748300  0.05539100  1
  H  H31  1  0.66625400  0.79251700  0.94460900  1
  H  H32  1  0.86905300  0.17672000  0.34494300  1
  H  H33  1  0.36905300  0.32328000  0.65505700  1
  H  H34  1  0.13094700  0.67672000  0.15505700  1
  H  H35  1  0.63094700  0.82328000  0.84494300  1
  H  H36  1  0.10124800  0.28566700  0.15881100  1
  H  H37  1  0.60124800  0.21433300  0.84118900  1
  H  H38  1  0.89875200  0.78566700  0.34118900  1
  H  H39  1  0.39875200  0.71433300  0.65881100  1
  H  H40  1  0.26966100  0.20492400  0.17180800  1
  H  H41  1  0.76966100  0.29507600  0.82819200  1
  H  H42  1  0.73033900  0.70492400  0.32819200  1
  H  H43  1  0.23033900  0.79507600  0.67180800  1
  H  H44  1  0.29249500  0.34610100  0.14037900  1
  H  H45  1  0.79249500  0.15389900  0.85962100  1
  H  H46  1  0.70750500  0.84610100  0.35962100  1
  H  H47  1  0.20750500  0.65389900  0.64037900  1
  H  H48  1  0.20670400  0.24815200  0.07302300  1
  H  H49  1  0.70670400  0.25184800  0.92697700  1
  H  H50  1  0.79329600  0.74815200  0.42697700  1
  H  H51  1  0.29329600  0.75184800  0.57302300  1
  H  H52  1  0.25764700  0.02261200  0.46786900  1
  H  H53  1  0.75764700  0.47738800  0.53213100  1
  H  H54  1  0.74235300  0.52261200  0.03213100  1
  H  H55  1  0.24235300  0.97738800  0.96786900  1
  H  H56  1  0.42483800  0.05177200  0.52512700  1
  H  H57  1  0.92483800  0.44822800  0.47487300  1
  H  H58  1  0.57516200  0.55177200  0.97487300  1
  H  H59  1  0.07516200  0.94822800  0.02512700  1
  H  H60  1  0.45078500  0.02186600  0.41973400  1
  H  H61  1  0.95078500  0.47813400  0.58026600  1
  H  H62  1  0.54921500  0.52186600  0.08026600  1
  H  H63  1  0.04921500  0.97813400  0.91973400  1
  H  H64  1  0.35828100  0.14761900  0.45173400  1
  H  H65  1  0.85828100  0.35238100  0.54826600  1
  H  H66  1  0.64171900  0.64761900  0.04826600  1
  H  H67  1  0.14171900  0.85238100  0.95173400  1
  C  C68  1  0.77577600  0.22865300  0.18822600  1
  C  C69  1  0.27577600  0.27134700  0.81177400  1
  C  C70  1  0.22422400  0.72865300  0.31177400  1
  C  C71  1  0.72422400  0.77134700  0.68822600  1
  C  C72  1  0.67622600  0.20582600  0.10746300  1
  C  C73  1  0.17622600  0.29417400  0.89253700  1
  C  C74  1  0.32377400  0.70582600  0.39253700  1
  C  C75  1  0.82377400  0.79417400  0.60746300  1
  C  C76  1  0.48255900  0.84700400  0.12217500  1
  C  C77  1  0.98255900  0.65299600  0.87782500  1
  C  C78  1  0.51744100  0.34700400  0.37782500  1
  C  C79  1  0.01744100  0.15299600  0.62217500  1
  C  C80  1  0.67380800  0.85537000  0.12862700  1
  C  C81  1  0.17380800  0.64463000  0.87137300  1
  C  C82  1  0.32619200  0.35537000  0.37137300  1
  C  C83  1  0.82619200  0.14463000  0.62862700  1
  N  N84  1  0.92301400  0.17870600  0.40370100  1
  N  N85  1  0.42301400  0.32129400  0.59629900  1
  N  N86  1  0.07698600  0.67870600  0.09629900  1
  N  N87  1  0.57698600  0.82129400  0.90370100  1
  N  N88  1  0.21806200  0.27113300  0.13503300  1
  N  N89  1  0.71806200  0.22886700  0.86496700  1
  N  N90  1  0.78193800  0.77113300  0.36496700  1
  N  N91  1  0.28193800  0.72886700  0.63503300  1
  N  N92  1  0.37346000  0.06125000  0.46620500  1
  N  N93  1  0.87346000  0.43875000  0.53379500  1
  N  N94  1  0.62654000  0.56125000  0.03379500  1
  N  N95  1  0.12654000  0.93875000  0.96620500  1
  O  O96  1  0.57102600  0.96369300  0.35021800  1
  O  O97  1  0.07102600  0.53630700  0.64978200  1
  O  O98  1  0.42897400  0.46369300  0.14978200  1
  O  O99  1  0.92897400  0.03630700  0.85021800  1
  O  O100  1  0.73809900  0.16522200  0.25233100  1
  O  O101  1  0.23809900  0.33477800  0.74766900  1
  O  O102  1  0.26190100  0.66522200  0.24766900  1
  O  O103  1  0.76190100  0.83477800  0.75233100  1
  O  O104  1  0.56602800  0.12482500  0.11266300  1
  O  O105  1  0.06602800  0.37517500  0.88733700  1
  O  O106  1  0.43397200  0.62482500  0.38733700  1
  O  O107  1  0.93397200  0.87517500  0.61266300  1
  O  O108  1  0.88554400  0.30329100  0.18815200  1
  O  O109  1  0.38554400  0.19670900  0.81184800  1
  O  O110  1  0.11445600  0.80329100  0.31184800  1
  O  O111  1  0.61445600  0.69670900  0.68815200  1
  O  O112  1  0.71003800  0.26397000  0.04492400  1
  O  O113  1  0.21003800  0.23603000  0.95507600  1
  O  O114  1  0.28996200  0.76397000  0.45507600  1
  O  O115  1  0.78996200  0.73603000  0.54492400  1
  O  O116  1  0.34817000  0.14199000  0.26038600  1
  O  O117  1  0.84817000  0.35801000  0.73961400  1
  O  O118  1  0.65183000  0.64199000  0.23961400  1
  O  O119  1  0.15183000  0.85801000  0.76038600  1
  O  O120  1  0.39993100  0.91477100  0.17204300  1
  O  O121  1  0.89993100  0.58522900  0.82795700  1
  O  O122  1  0.60006900  0.41477100  0.32795700  1
  O  O123  1  0.10006900  0.08522900  0.67204300  1
  O  O124  1  0.73107800  0.92835800  0.18250500  1
  O  O125  1  0.23107800  0.57164200  0.81749500  1
  O  O126  1  0.26892200  0.42835800  0.31749500  1
  O  O127  1  0.76892200  0.07164200  0.68250500  1
  O  O128  1  0.42092500  0.77992900  0.07160800  1
  O  O129  1  0.92092500  0.72007100  0.92839200  1
  O  O130  1  0.57907500  0.27992900  0.42839200  1
  O  O131  1  0.07907500  0.22007100  0.57160800  1
  O  O132  1  0.75912400  0.79414000  0.08187300  1
  O  O133  1  0.25912400  0.70586000  0.91812700  1
  O  O134  1  0.24087600  0.29414000  0.41812700  1
  O  O135  1  0.74087600  0.20586000  0.58187300  1
  O  O136  1  0.45139800  0.04291600  0.95754200  1
  O  O137  1  0.95139800  0.45708400  0.04245800  1
  O  O138  1  0.54860200  0.54291600  0.54245800  1
  O  O139  1  0.04860200  0.95708400  0.45754200  1
  O  O140  1  0.06065100  0.99001300  0.13650600  1
  O  O141  1  0.56065100  0.50998700  0.86349400  1
  O  O142  1  0.93934900  0.49001300  0.36349400  1
  O  O143  1  0.43934900  0.00998700  0.63650600  1
