# generated using pymatgen
data_SrTcN3
_symmetry_space_group_name_H-M   'P 1'
_cell_length_a   6.55100055
_cell_length_b   6.55100055
_cell_length_c   6.70894538
_cell_angle_alpha   75.63629731
_cell_angle_beta   75.63629731
_cell_angle_gamma   33.47106734
_symmetry_Int_Tables_number   1
_chemical_formula_structural   SrTcN3
_chemical_formula_sum   'Sr2 Tc2 N6'
_cell_volume   153.37113589
_cell_formula_units_Z   2
loop_
 _symmetry_equiv_pos_site_id
 _symmetry_equiv_pos_as_xyz
  1  'x, y, z'
loop_
 _atom_site_type_symbol
 _atom_site_label
 _atom_site_symmetry_multiplicity
 _atom_site_fract_x
 _atom_site_fract_y
 _atom_site_fract_z
 _atom_site_occupancy
  Sr  Sr0  1  0.61608000  0.61608000  0.67014000  1
  Sr  Sr1  1  0.38392000  0.38392000  0.32986000  1
  Tc  Tc2  1  0.15726000  0.15726000  0.14060000  1
  Tc  Tc3  1  0.84274000  0.84274000  0.85940000  1
  N  N4  1  0.31808000  0.31808000  0.98777000  1
  N  N5  1  0.00680000  0.00680000  0.09144000  1
  N  N6  1  0.99320000  0.99320000  0.90856000  1
  N  N7  1  0.15632000  0.15632000  0.40420000  1
  N  N8  1  0.68192000  0.68192000  0.01223000  1
  N  N9  1  0.84368000  0.84368000  0.59580000  1
