# generated using pymatgen
data_B2(CN2)3
_symmetry_space_group_name_H-M   'P 1'
_cell_length_a   6.53641422
_cell_length_b   6.53641422
_cell_length_c   6.53641320
_cell_angle_alpha   77.94100538
_cell_angle_beta   77.94100538
_cell_angle_gamma   77.94100473
_symmetry_Int_Tables_number   1
_chemical_formula_structural   B2(CN2)3
_chemical_formula_sum   'B2 C3 N6'
_cell_volume   263.05887308
_cell_formula_units_Z   1
loop_
 _symmetry_equiv_pos_site_id
 _symmetry_equiv_pos_as_xyz
  1  'x, y, z'
loop_
 _atom_site_type_symbol
 _atom_site_label
 _atom_site_symmetry_multiplicity
 _atom_site_fract_x
 _atom_site_fract_y
 _atom_site_fract_z
 _atom_site_occupancy
  B  B0  1  0.31440800  0.31440800  0.31440800  1
  B  B1  1  0.68559200  0.68559200  0.68559200  1
  C  C2  1  0.41248600  0.58751400  0.00000000  1
  C  C3  1  0.58751400  0.00000000  0.41248600  1
  C  C4  1  0.00000000  0.41248600  0.58751400  1
  N  N5  1  0.29903800  0.49689700  0.14888700  1
  N  N6  1  0.14888700  0.29903800  0.49689700  1
  N  N7  1  0.50310300  0.70096200  0.85111300  1
  N  N8  1  0.70096200  0.85111300  0.50310300  1
  N  N9  1  0.85111300  0.50310300  0.70096200  1
  N  N10  1  0.49689700  0.14888700  0.29903800  1
