# generated using pymatgen
data_Cr(GaS2)2
_symmetry_space_group_name_H-M   'P 1'
_cell_length_a   3.70012813
_cell_length_b   3.70012813
_cell_length_c   12.08947800
_cell_angle_alpha   90.00000000
_cell_angle_beta   90.00000000
_cell_angle_gamma   120.00000240
_symmetry_Int_Tables_number   1
_chemical_formula_structural   Cr(GaS2)2
_chemical_formula_sum   'Cr1 Ga2 S4'
_cell_volume   143.34141854
_cell_formula_units_Z   1
loop_
 _symmetry_equiv_pos_site_id
 _symmetry_equiv_pos_as_xyz
  1  'x, y, z'
loop_
 _atom_site_type_symbol
 _atom_site_label
 _atom_site_symmetry_multiplicity
 _atom_site_fract_x
 _atom_site_fract_y
 _atom_site_fract_z
 _atom_site_occupancy
  Cr  Cr0  1  0.00000000  0.00000000  0.00000000  1
  Ga  Ga1  1  0.33333300  0.66666700  0.70733700  1
  Ga  Ga2  1  0.66666700  0.33333300  0.29266300  1
  S  S3  1  0.33333300  0.66666700  0.89634400  1
  S  S4  1  0.66666700  0.33333300  0.10365600  1
  S  S5  1  0.33333300  0.66666700  0.37532400  1
  S  S6  1  0.66666700  0.33333300  0.62467600  1
