# generated using pymatgen
data_GaP
_symmetry_space_group_name_H-M   'P 1'
_cell_length_a   6.81095147
_cell_length_b   6.81095147
_cell_length_c   6.81095211
_cell_angle_alpha   33.15094473
_cell_angle_beta   33.15094473
_cell_angle_gamma   33.15094019
_symmetry_Int_Tables_number   1
_chemical_formula_structural   GaP
_chemical_formula_sum   'Ga2 P2'
_cell_volume   84.10246395
_cell_formula_units_Z   2
loop_
 _symmetry_equiv_pos_site_id
 _symmetry_equiv_pos_as_xyz
  1  'x, y, z'
loop_
 _atom_site_type_symbol
 _atom_site_label
 _atom_site_symmetry_multiplicity
 _atom_site_fract_x
 _atom_site_fract_y
 _atom_site_fract_z
 _atom_site_occupancy
  Ga  Ga0  1  0.56462800  0.56462800  0.56462800  1
  Ga  Ga1  1  0.43537200  0.43537200  0.43537200  1
  P  P2  1  0.94261100  0.94261100  0.94261100  1
  P  P3  1  0.05738900  0.05738900  0.05738900  1
