# generated using pymatgen
data_Nd2O5
_symmetry_space_group_name_H-M   'P 1'
_cell_length_a   7.01904776
_cell_length_b   7.01904776
_cell_length_c   6.05338325
_cell_angle_alpha   68.65308731
_cell_angle_beta   68.65308731
_cell_angle_gamma   47.47741572
_symmetry_Int_Tables_number   1
_chemical_formula_structural   Nd2O5
_chemical_formula_sum   'Nd4 O10'
_cell_volume   201.67414578
_cell_formula_units_Z   2
loop_
 _symmetry_equiv_pos_site_id
 _symmetry_equiv_pos_as_xyz
  1  'x, y, z'
loop_
 _atom_site_type_symbol
 _atom_site_label
 _atom_site_symmetry_multiplicity
 _atom_site_fract_x
 _atom_site_fract_y
 _atom_site_fract_z
 _atom_site_occupancy
  Nd  Nd0  1  0.68091300  0.10040800  0.05725500  1
  Nd  Nd1  1  0.89959200  0.31908700  0.44274500  1
  Nd  Nd2  1  0.31908700  0.89959200  0.94274500  1
  Nd  Nd3  1  0.10040800  0.68091300  0.55725500  1
  O  O4  1  0.38400600  0.99255800  0.27490500  1
  O  O5  1  0.00744200  0.61599400  0.22509500  1
  O  O6  1  0.61599400  0.00744200  0.72509500  1
  O  O7  1  0.99255800  0.38400600  0.77490500  1
  O  O8  1  0.94481800  0.05518200  0.25000000  1
  O  O9  1  0.05518200  0.94481800  0.75000000  1
  O  O10  1  0.47623600  0.72020800  0.32025400  1
  O  O11  1  0.27979200  0.52376400  0.17974600  1
  O  O12  1  0.52376400  0.27979200  0.67974600  1
  O  O13  1  0.72020800  0.47623600  0.82025400  1
