# generated using pymatgen
data_SrWN3
_symmetry_space_group_name_H-M   'P 1'
_cell_length_a   6.55367980
_cell_length_b   6.55367980
_cell_length_c   6.71311629
_cell_angle_alpha   76.70970783
_cell_angle_beta   76.70970783
_cell_angle_gamma   33.97996975
_symmetry_Int_Tables_number   1
_chemical_formula_structural   SrWN3
_chemical_formula_sum   'Sr2 W2 N6'
_cell_volume   156.42534306
_cell_formula_units_Z   2
loop_
 _symmetry_equiv_pos_site_id
 _symmetry_equiv_pos_as_xyz
  1  'x, y, z'
loop_
 _atom_site_type_symbol
 _atom_site_label
 _atom_site_symmetry_multiplicity
 _atom_site_fract_x
 _atom_site_fract_y
 _atom_site_fract_z
 _atom_site_occupancy
  Sr  Sr0  1  0.61776000  0.61776000  0.66585000  1
  Sr  Sr1  1  0.38224000  0.38224000  0.33415000  1
  W  W2  1  0.84691000  0.84691000  0.86841000  1
  W  W3  1  0.15309000  0.15309000  0.13159000  1
  N  N4  1  0.84562000  0.84562000  0.60139000  1
  N  N5  1  0.00119000  0.00119000  0.10418000  1
  N  N6  1  0.99881000  0.99881000  0.89582000  1
  N  N7  1  0.68065000  0.68065000  0.02221000  1
  N  N8  1  0.31935000  0.31935000  0.97779000  1
  N  N9  1  0.15438000  0.15438000  0.39861000  1
