# generated using pymatgen
data_KCaSiHO4
_symmetry_space_group_name_H-M   'P 1'
_cell_length_a   7.53915700
_cell_length_b   5.60810300
_cell_length_c   5.65630045
_cell_angle_alpha   61.40153414
_cell_angle_beta   90.00000000
_cell_angle_gamma   90.00000000
_symmetry_Int_Tables_number   1
_chemical_formula_structural   KCaSiHO4
_chemical_formula_sum   'K2 Ca2 Si2 H2 O8'
_cell_volume   209.97310672
_cell_formula_units_Z   2
loop_
 _symmetry_equiv_pos_site_id
 _symmetry_equiv_pos_as_xyz
  1  'x, y, z'
loop_
 _atom_site_type_symbol
 _atom_site_label
 _atom_site_symmetry_multiplicity
 _atom_site_fract_x
 _atom_site_fract_y
 _atom_site_fract_z
 _atom_site_occupancy
  K  K0  1  0.76682200  0.35419600  0.27919400  1
  K  K1  1  0.26682200  0.64580400  0.72080600  1
  Ca  Ca2  1  0.51506200  0.99519100  0.99295900  1
  Ca  Ca3  1  0.01506200  0.00480900  0.00704100  1
  Si  Si4  1  0.75458000  0.68109100  0.62455100  1
  Si  Si5  1  0.25458000  0.31890900  0.37544900  1
  H  H6  1  0.99746300  0.95989900  0.53511900  1
  H  H7  1  0.49746300  0.04010100  0.46488100  1
  O  O8  1  0.76197800  0.34898800  0.78405700  1
  O  O9  1  0.26197800  0.65101200  0.21594300  1
  O  O10  1  0.75976300  0.81241800  0.29440300  1
  O  O11  1  0.25976300  0.18758200  0.70559700  1
  O  O12  1  0.58962600  0.80886700  0.71804500  1
  O  O13  1  0.08962600  0.19113300  0.28195500  1
  O  O14  1  0.93770500  0.80843100  0.70635300  1
  O  O15  1  0.43770500  0.19156900  0.29364700  1
