# generated using pymatgen
data_H6C6NO
_symmetry_space_group_name_H-M   'P 1'
_cell_length_a   9.98666200
_cell_length_b   14.89876801
_cell_length_c   19.86741760
_cell_angle_alpha   90.01390902
_cell_angle_beta   90.00201297
_cell_angle_gamma   90.00164595
_symmetry_Int_Tables_number   1
_chemical_formula_structural   H6C6NO
_chemical_formula_sum   'H12 C12 N2 O2'
_cell_volume   2956.05231793
_cell_formula_units_Z   2
loop_
 _symmetry_equiv_pos_site_id
 _symmetry_equiv_pos_as_xyz
  1  'x, y, z'
loop_
 _atom_site_type_symbol
 _atom_site_label
 _atom_site_symmetry_multiplicity
 _atom_site_fract_x
 _atom_site_fract_y
 _atom_site_fract_z
 _atom_site_occupancy
  H  H0  1  0.50008600  0.57156500  0.21305000  1
  H  H1  1  0.49585800  0.36122000  0.47758200  1
  H  H2  1  0.49646200  0.36042100  0.59966000  1
  H  H3  1  0.50014000  0.65220500  0.60125700  1
  H  H4  1  0.49885500  0.65155000  0.47832300  1
  H  H5  1  0.49772700  0.58311200  0.37583600  1
  H  H6  1  0.49783000  0.43332200  0.77090900  1
  H  H7  1  0.40395700  0.38161900  0.70547800  1
  H  H8  1  0.58319000  0.37750000  0.70459200  1
  H  H9  1  0.50304400  0.57204300  0.77264000  1
  H  H10  1  0.59204800  0.62792500  0.70750800  1
  H  H11  1  0.41271000  0.62939700  0.70868600  1
  C  C12  1  0.49720000  0.50685200  0.46707800  1
  C  C13  1  0.49641700  0.42527100  0.50410900  1
  C  C14  1  0.49680500  0.42478700  0.57371600  1
  C  C15  1  0.49841400  0.50602700  0.61155900  1
  C  C16  1  0.49902300  0.58807900  0.57489100  1
  C  C17  1  0.49830700  0.58752100  0.50520700  1
  C  C18  1  0.49750700  0.51415300  0.39480500  1
  C  C19  1  0.49807900  0.44979900  0.34486100  1
  C  C20  1  0.49852300  0.35554600  0.35705800  1
  C  C21  1  0.49911200  0.47445100  0.27277700  1
  C  C22  1  0.49590700  0.41975500  0.71680900  1
  C  C23  1  0.50190700  0.58793600  0.71886800  1
  N  N24  1  0.49954000  0.50467400  0.68059300  1
  N  N25  1  0.49907100  0.27867000  0.36845000  1
  O  O26  1  0.49989000  0.42088500  0.22598800  1
  O  O27  1  0.49928000  0.56520600  0.26200900  1
