# generated using pymatgen
data_AgClO2
_symmetry_space_group_name_H-M   'P 1'
_cell_length_a   10.64400008
_cell_length_b   10.64400008
_cell_length_c   3.47542874
_cell_angle_alpha   89.85585285
_cell_angle_beta   89.85585285
_cell_angle_gamma   151.90852776
_symmetry_Int_Tables_number   1
_chemical_formula_structural   AgClO2
_chemical_formula_sum   'Ag2 Cl2 O4'
_cell_volume   185.39822517
_cell_formula_units_Z   2
loop_
 _symmetry_equiv_pos_site_id
 _symmetry_equiv_pos_as_xyz
  1  'x, y, z'
loop_
 _atom_site_type_symbol
 _atom_site_label
 _atom_site_symmetry_multiplicity
 _atom_site_fract_x
 _atom_site_fract_y
 _atom_site_fract_z
 _atom_site_occupancy
  Ag  Ag0  1  0.50000000  0.00000000  0.00000000  1
  Ag  Ag1  1  0.00000000  0.50000000  0.50000000  1
  Cl  Cl2  1  0.66177000  0.33823000  0.25000000  1
  Cl  Cl3  1  0.33823000  0.66177000  0.75000000  1
  O  O4  1  0.08613000  0.15229000  0.24823000  1
  O  O5  1  0.84771000  0.91387000  0.25177000  1
  O  O6  1  0.15229000  0.08613000  0.74823000  1
  O  O7  1  0.91387000  0.84771000  0.75177000  1
