# generated using pymatgen
data_Cu3OF5
_symmetry_space_group_name_H-M   'P 1'
_cell_length_a   7.80440636
_cell_length_b   5.52355361
_cell_length_c   5.39306736
_cell_angle_alpha   71.10849957
_cell_angle_beta   106.98041543
_cell_angle_gamma   105.56887341
_symmetry_Int_Tables_number   1
_chemical_formula_structural   Cu3OF5
_chemical_formula_sum   'Cu6 O2 F10'
_cell_volume   206.45361288
_cell_formula_units_Z   2
loop_
 _symmetry_equiv_pos_site_id
 _symmetry_equiv_pos_as_xyz
  1  'x, y, z'
loop_
 _atom_site_type_symbol
 _atom_site_label
 _atom_site_symmetry_multiplicity
 _atom_site_fract_x
 _atom_site_fract_y
 _atom_site_fract_z
 _atom_site_occupancy
  Cu  Cu0  1  0.66294200  0.62282100  0.69782500  1
  Cu  Cu1  1  0.82119500  0.32354100  0.31649600  1
  Cu  Cu2  1  0.17880500  0.67645900  0.68350400  1
  Cu  Cu3  1  0.33705800  0.37717900  0.30217500  1
  Cu  Cu4  1  0.50000000  0.00000000  0.00000000  1
  Cu  Cu5  1  0.00000000  0.00000000  0.00000000  1
  O  O6  1  0.65852800  0.32786200  0.98551200  1
  O  O7  1  0.34147200  0.67213800  0.01448800  1
  F  F8  1  0.99412200  0.76618300  0.79776200  1
  F  F9  1  0.69290900  0.85535600  0.90942700  1
  F  F10  1  0.65522800  0.91933000  0.39444200  1
  F  F11  1  0.97943700  0.28169400  0.67603900  1
  F  F12  1  0.65434200  0.43242100  0.45201400  1
  F  F13  1  0.34565800  0.56757900  0.54798600  1
  F  F14  1  0.02056300  0.71830600  0.32396100  1
  F  F15  1  0.34477200  0.08067000  0.60555800  1
  F  F16  1  0.30709100  0.14464400  0.09057300  1
  F  F17  1  0.00587800  0.23381700  0.20223800  1
