# generated using pymatgen
data_CuBrO2
_symmetry_space_group_name_H-M   'P 1'
_cell_length_a   3.77470407
_cell_length_b   3.77470407
_cell_length_c   6.05042027
_cell_angle_alpha   82.20752454
_cell_angle_beta   82.20752454
_cell_angle_gamma   46.26989465
_symmetry_Int_Tables_number   1
_chemical_formula_structural   CuBrO2
_chemical_formula_sum   'Cu1 Br1 O2'
_cell_volume   61.61394938
_cell_formula_units_Z   1
loop_
 _symmetry_equiv_pos_site_id
 _symmetry_equiv_pos_as_xyz
  1  'x, y, z'
loop_
 _atom_site_type_symbol
 _atom_site_label
 _atom_site_symmetry_multiplicity
 _atom_site_fract_x
 _atom_site_fract_y
 _atom_site_fract_z
 _atom_site_occupancy
  Cu  Cu0  1  0.50000000  0.50000000  0.00000000  1
  Br  Br1  1  0.00000000  0.00000000  0.50000000  1
  O  O2  1  0.91785300  0.91785300  0.83383400  1
  O  O3  1  0.08214700  0.08214700  0.16616600  1
