# generated using pymatgen
data_TbTa3O9
_symmetry_space_group_name_H-M   'P 1'
_cell_length_a   8.81492529
_cell_length_b   8.81492529
_cell_length_c   9.68875044
_cell_angle_alpha   56.91639777
_cell_angle_beta   56.91639777
_cell_angle_gamma   36.78678402
_symmetry_Int_Tables_number   1
_chemical_formula_structural   TbTa3O9
_chemical_formula_sum   'Tb2 Ta6 O18'
_cell_volume   368.77064630
_cell_formula_units_Z   2
loop_
 _symmetry_equiv_pos_site_id
 _symmetry_equiv_pos_as_xyz
  1  'x, y, z'
loop_
 _atom_site_type_symbol
 _atom_site_label
 _atom_site_symmetry_multiplicity
 _atom_site_fract_x
 _atom_site_fract_y
 _atom_site_fract_z
 _atom_site_occupancy
  Tb  Tb0  1  0.31597200  0.32689700  0.50499700  1
  Tb  Tb1  1  0.67310300  0.68402800  0.49500300  1
  Ta  Ta2  1  0.07461100  0.07502600  0.75699500  1
  Ta  Ta3  1  0.58252800  0.58164300  0.25387700  1
  Ta  Ta4  1  0.74745700  0.74812500  0.76427200  1
  Ta  Ta5  1  0.25187500  0.25254300  0.23572800  1
  Ta  Ta6  1  0.92497400  0.92538900  0.24300500  1
  Ta  Ta7  1  0.41835700  0.41747200  0.74612300  1
  O  O8  1  0.50305800  0.49694200  0.50000000  1
  O  O9  1  0.57275800  0.09550600  0.72637600  1
  O  O10  1  0.09713000  0.57270500  0.72628600  1
  O  O11  1  0.93173700  0.42153500  0.71906400  1
  O  O12  1  0.18374800  0.16816300  0.50011400  1
  O  O13  1  0.83183700  0.81625200  0.49988600  1
  O  O14  1  0.00223700  0.99776300  0.00000000  1
  O  O15  1  0.66582200  0.66211500  0.00386800  1
  O  O16  1  0.72557200  0.24788500  0.27361000  1
  O  O17  1  0.57846500  0.06826300  0.28093600  1
  O  O18  1  0.43186900  0.91843800  0.71883500  1
  O  O19  1  0.24934800  0.72683000  0.27310900  1
  O  O20  1  0.75211500  0.27442800  0.72639000  1
  O  O21  1  0.27317000  0.75065200  0.72689100  1
  O  O22  1  0.33788500  0.33417800  0.99613200  1
  O  O23  1  0.08156200  0.56813100  0.28116500  1
  O  O24  1  0.90449400  0.42724200  0.27362400  1
  O  O25  1  0.42729500  0.90287000  0.27371400  1
