# generated using pymatgen
data_CuClO2
_symmetry_space_group_name_H-M   'P 1'
_cell_length_a   6.37249696
_cell_length_b   6.37249696
_cell_length_c   3.78687400
_cell_angle_alpha   90.00000000
_cell_angle_beta   90.00000000
_cell_angle_gamma   113.84239150
_symmetry_Int_Tables_number   1
_chemical_formula_structural   CuClO2
_chemical_formula_sum   'Cu2 Cl2 O4'
_cell_volume   140.65663324
_cell_formula_units_Z   2
loop_
 _symmetry_equiv_pos_site_id
 _symmetry_equiv_pos_as_xyz
  1  'x, y, z'
loop_
 _atom_site_type_symbol
 _atom_site_label
 _atom_site_symmetry_multiplicity
 _atom_site_fract_x
 _atom_site_fract_y
 _atom_site_fract_z
 _atom_site_occupancy
  Cu  Cu0  1  0.27259500  0.27259500  0.00000000  1
  Cu  Cu1  1  0.72740500  0.72740500  0.50000000  1
  Cl  Cl2  1  0.62739900  0.37260100  0.25000000  1
  Cl  Cl3  1  0.37260100  0.62739900  0.75000000  1
  O  O4  1  0.81657300  0.99819000  0.78456200  1
  O  O5  1  0.99819000  0.81657300  0.21543800  1
  O  O6  1  0.00181000  0.18342700  0.71543800  1
  O  O7  1  0.18342700  0.00181000  0.28456200  1
