# generated using pymatgen
data_Gd3NbO7
_symmetry_space_group_name_H-M   'P 1'
_cell_length_a   8.25096212
_cell_length_b   8.25096212
_cell_length_c   5.43299000
_cell_angle_alpha   90.00000000
_cell_angle_beta   90.00000000
_cell_angle_gamma   125.13345939
_symmetry_Int_Tables_number   1
_chemical_formula_structural   Gd3NbO7
_chemical_formula_sum   'Gd6 Nb2 O14'
_cell_volume   302.48407921
_cell_formula_units_Z   2
loop_
 _symmetry_equiv_pos_site_id
 _symmetry_equiv_pos_as_xyz
  1  'x, y, z'
loop_
 _atom_site_type_symbol
 _atom_site_label
 _atom_site_symmetry_multiplicity
 _atom_site_fract_x
 _atom_site_fract_y
 _atom_site_fract_z
 _atom_site_occupancy
  Gd  Gd0  1  0.00000000  0.50000000  0.00000000  1
  Gd  Gd1  1  0.50000000  0.00000000  0.00000000  1
  Gd  Gd2  1  0.61872700  0.38127300  0.47105800  1
  Gd  Gd3  1  0.11872700  0.88127300  0.52894200  1
  Gd  Gd4  1  0.88127300  0.11872700  0.47105800  1
  Gd  Gd5  1  0.38127300  0.61872700  0.52894200  1
  Nb  Nb6  1  0.75000000  0.75000000  0.00000000  1
  Nb  Nb7  1  0.25000000  0.25000000  0.00000000  1
  O  O8  1  0.75000000  0.25000000  0.24037700  1
  O  O9  1  0.83902700  0.60269900  0.76445700  1
  O  O10  1  0.98912200  0.01087800  0.21140000  1
  O  O11  1  0.25000000  0.75000000  0.75962300  1
  O  O12  1  0.39730100  0.16097300  0.76445700  1
  O  O13  1  0.10269900  0.33902700  0.76445700  1
  O  O14  1  0.33902700  0.10269900  0.23554300  1
  O  O15  1  0.51087800  0.48912200  0.21140000  1
  O  O16  1  0.48912200  0.51087800  0.78860000  1
  O  O17  1  0.66097300  0.89730100  0.76445700  1
  O  O18  1  0.60269900  0.83902700  0.23554300  1
  O  O19  1  0.89730100  0.66097300  0.23554300  1
  O  O20  1  0.01087800  0.98912200  0.78860000  1
  O  O21  1  0.16097300  0.39730100  0.23554300  1
