# generated using pymatgen
data_CaTlF3
_symmetry_space_group_name_H-M   'P 1'
_cell_length_a   6.38215932
_cell_length_b   6.38215932
_cell_length_c   6.38215988
_cell_angle_alpha   60.09700276
_cell_angle_beta   60.09700276
_cell_angle_gamma   60.09699725
_symmetry_Int_Tables_number   1
_chemical_formula_structural   CaTlF3
_chemical_formula_sum   'Ca2 Tl2 F6'
_cell_volume   184.22198394
_cell_formula_units_Z   2
loop_
 _symmetry_equiv_pos_site_id
 _symmetry_equiv_pos_as_xyz
  1  'x, y, z'
loop_
 _atom_site_type_symbol
 _atom_site_label
 _atom_site_symmetry_multiplicity
 _atom_site_fract_x
 _atom_site_fract_y
 _atom_site_fract_z
 _atom_site_occupancy
  Ca  Ca0  1  0.99335800  0.99335800  0.99335800  1
  Ca  Ca1  1  0.49335800  0.49335800  0.49335800  1
  Tl  Tl2  1  0.73065600  0.73065600  0.73065600  1
  Tl  Tl3  1  0.23065600  0.23065600  0.23065600  1
  F  F4  1  0.30238900  0.75884000  0.18625800  1
  F  F5  1  0.75884000  0.18625800  0.30238900  1
  F  F6  1  0.18625800  0.30238900  0.75884000  1
  F  F7  1  0.25884000  0.80238900  0.68625800  1
  F  F8  1  0.68625800  0.25884000  0.80238900  1
  F  F9  1  0.80238900  0.68625800  0.25884000  1
