# generated using pymatgen
data_CsSrBr3
_symmetry_space_group_name_H-M   'P 1'
_cell_length_a   8.10067316
_cell_length_b   8.10067344
_cell_length_c   11.51672600
_cell_angle_alpha   90.00000000
_cell_angle_beta   90.00000000
_cell_angle_gamma   146.95687345
_symmetry_Int_Tables_number   1
_chemical_formula_structural   CsSrBr3
_chemical_formula_sum   'Cs2 Sr2 Br6'
_cell_volume   412.08138007
_cell_formula_units_Z   2
loop_
 _symmetry_equiv_pos_site_id
 _symmetry_equiv_pos_as_xyz
  1  'x, y, z'
loop_
 _atom_site_type_symbol
 _atom_site_label
 _atom_site_symmetry_multiplicity
 _atom_site_fract_x
 _atom_site_fract_y
 _atom_site_fract_z
 _atom_site_occupancy
  Cs  Cs0  1  0.74730800  0.25269200  0.75000000  1
  Cs  Cs1  1  0.25269200  0.74730800  0.25000000  1
  Sr  Sr2  1  0.00000000  0.00000000  0.50000000  1
  Sr  Sr3  1  0.00000000  0.00000000  0.00000000  1
  Br  Br4  1  0.63006000  0.36994000  0.45218600  1
  Br  Br5  1  0.36994000  0.63006000  0.95218600  1
  Br  Br6  1  0.63006000  0.36994000  0.04781400  1
  Br  Br7  1  0.36994000  0.63006000  0.54781400  1
  Br  Br8  1  0.06665500  0.93334500  0.75000000  1
  Br  Br9  1  0.93334500  0.06665500  0.25000000  1
