# generated using pymatgen
data_K2O
_symmetry_space_group_name_H-M   'P 1'
_cell_length_a   4.27014413
_cell_length_b   4.27014413
_cell_length_c   10.17037691
_cell_angle_alpha   77.27749181
_cell_angle_beta   77.27749181
_cell_angle_gamma   60.11632623
_symmetry_Int_Tables_number   1
_chemical_formula_structural   K2O
_chemical_formula_sum   'K4 O2'
_cell_volume   155.49838926
_cell_formula_units_Z   2
loop_
 _symmetry_equiv_pos_site_id
 _symmetry_equiv_pos_as_xyz
  1  'x, y, z'
loop_
 _atom_site_type_symbol
 _atom_site_label
 _atom_site_symmetry_multiplicity
 _atom_site_fract_x
 _atom_site_fract_y
 _atom_site_fract_z
 _atom_site_occupancy
  K  K0  1  0.88435200  0.88435200  0.33033900  1
  K  K1  1  0.70598700  0.70598700  0.88876300  1
  K  K2  1  0.29401300  0.29401300  0.11123700  1
  K  K3  1  0.11564800  0.11564800  0.66966100  1
  O  O4  1  0.40906000  0.40906000  0.78437000  1
  O  O5  1  0.59094000  0.59094000  0.21563000  1
