# generated using pymatgen
data_TlCdF3
_symmetry_space_group_name_H-M   'P 1'
_cell_length_a   4.49441591
_cell_length_b   4.49706235
_cell_length_c   4.49812388
_cell_angle_alpha   89.89303601
_cell_angle_beta   89.75995072
_cell_angle_gamma   89.94808157
_symmetry_Int_Tables_number   1
_chemical_formula_structural   TlCdF3
_chemical_formula_sum   'Tl1 Cd1 F3'
_cell_volume   90.91359608
_cell_formula_units_Z   1
loop_
 _symmetry_equiv_pos_site_id
 _symmetry_equiv_pos_as_xyz
  1  'x, y, z'
loop_
 _atom_site_type_symbol
 _atom_site_label
 _atom_site_symmetry_multiplicity
 _atom_site_fract_x
 _atom_site_fract_y
 _atom_site_fract_z
 _atom_site_occupancy
  Tl  Tl0  1  0.99446100  0.99327300  0.98502200  1
  Cd  Cd1  1  0.48818000  0.49870700  0.49509600  1
  F  F2  1  0.48251800  0.99962800  0.49918500  1
  F  F3  1  0.98752700  0.50910400  0.51377100  1
  F  F4  1  0.48731400  0.49928600  0.99692600  1
