# generated using pymatgen
data_TlS
_symmetry_space_group_name_H-M   'P 1'
_cell_length_a   7.66744777
_cell_length_b   7.66744777
_cell_length_c   7.66744766
_cell_angle_alpha   30.67121013
_cell_angle_beta   30.67121013
_cell_angle_gamma   30.67120529
_symmetry_Int_Tables_number   1
_chemical_formula_structural   TlS
_chemical_formula_sum   'Tl2 S2'
_cell_volume   104.00277927
_cell_formula_units_Z   2
loop_
 _symmetry_equiv_pos_site_id
 _symmetry_equiv_pos_as_xyz
  1  'x, y, z'
loop_
 _atom_site_type_symbol
 _atom_site_label
 _atom_site_symmetry_multiplicity
 _atom_site_fract_x
 _atom_site_fract_y
 _atom_site_fract_z
 _atom_site_occupancy
  Tl  Tl0  1  0.00000000  0.00000000  0.00000000  1
  Tl  Tl1  1  0.50000000  0.50000000  0.50000000  1
  S  S2  1  0.73547200  0.73547200  0.73547200  1
  S  S3  1  0.26452800  0.26452800  0.26452800  1
