# generated using pymatgen
data_NaOsO3
_symmetry_space_group_name_H-M   'P 1'
_cell_length_a   5.39863047
_cell_length_b   5.39863047
_cell_length_c   5.39863034
_cell_angle_alpha   60.36734736
_cell_angle_beta   60.36734736
_cell_angle_gamma   60.36734334
_symmetry_Int_Tables_number   1
_chemical_formula_structural   NaOsO3
_chemical_formula_sum   'Na2 Os2 O6'
_cell_volume   112.18363342
_cell_formula_units_Z   2
loop_
 _symmetry_equiv_pos_site_id
 _symmetry_equiv_pos_as_xyz
  1  'x, y, z'
loop_
 _atom_site_type_symbol
 _atom_site_label
 _atom_site_symmetry_multiplicity
 _atom_site_fract_x
 _atom_site_fract_y
 _atom_site_fract_z
 _atom_site_occupancy
  Na  Na0  1  0.25000000  0.25000000  0.25000000  1
  Na  Na1  1  0.75000000  0.75000000  0.75000000  1
  Os  Os2  1  0.00000000  0.00000000  0.00000000  1
  Os  Os3  1  0.50000000  0.50000000  0.50000000  1
  O  O4  1  0.82513400  0.25000000  0.67486600  1
  O  O5  1  0.67486600  0.82513400  0.25000000  1
  O  O6  1  0.25000000  0.67486600  0.82513400  1
  O  O7  1  0.32513400  0.17486600  0.75000000  1
  O  O8  1  0.17486600  0.75000000  0.32513400  1
  O  O9  1  0.75000000  0.32513400  0.17486600  1
