# generated using pymatgen
data_RbSnF3
_symmetry_space_group_name_H-M   'P 1'
_cell_length_a   6.76606495
_cell_length_b   6.76606495
_cell_length_c   6.76606486
_cell_angle_alpha   61.64227895
_cell_angle_beta   61.64227895
_cell_angle_gamma   61.64227265
_symmetry_Int_Tables_number   1
_chemical_formula_structural   RbSnF3
_chemical_formula_sum   'Rb2 Sn2 F6'
_cell_volume   227.09114222
_cell_formula_units_Z   2
loop_
 _symmetry_equiv_pos_site_id
 _symmetry_equiv_pos_as_xyz
  1  'x, y, z'
loop_
 _atom_site_type_symbol
 _atom_site_label
 _atom_site_symmetry_multiplicity
 _atom_site_fract_x
 _atom_site_fract_y
 _atom_site_fract_z
 _atom_site_occupancy
  Rb  Rb0  1  0.12560300  0.12560300  0.12560300  1
  Rb  Rb1  1  0.87439700  0.87439700  0.87439700  1
  Sn  Sn2  1  0.35626300  0.35626300  0.35626300  1
  Sn  Sn3  1  0.64373700  0.64373700  0.64373700  1
  F  F4  1  0.04788300  0.25094900  0.52470800  1
  F  F5  1  0.25094900  0.52470800  0.04788300  1
  F  F6  1  0.52470800  0.04788300  0.25094900  1
  F  F7  1  0.95211700  0.74905100  0.47529200  1
  F  F8  1  0.47529200  0.95211700  0.74905100  1
  F  F9  1  0.74905100  0.47529200  0.95211700  1
