# generated using pymatgen
data_RuN
_symmetry_space_group_name_H-M   'P 1'
_cell_length_a   2.99723109
_cell_length_b   2.99723109
_cell_length_c   5.18532200
_cell_angle_alpha   90.00000000
_cell_angle_beta   90.00000000
_cell_angle_gamma   119.99997987
_symmetry_Int_Tables_number   1
_chemical_formula_structural   RuN
_chemical_formula_sum   'Ru2 N2'
_cell_volume   40.34102302
_cell_formula_units_Z   2
loop_
 _symmetry_equiv_pos_site_id
 _symmetry_equiv_pos_as_xyz
  1  'x, y, z'
loop_
 _atom_site_type_symbol
 _atom_site_label
 _atom_site_symmetry_multiplicity
 _atom_site_fract_x
 _atom_site_fract_y
 _atom_site_fract_z
 _atom_site_occupancy
  Ru  Ru0  1  0.00000000  0.00000000  0.50000000  1
  Ru  Ru1  1  0.00000000  0.00000000  0.00000000  1
  N  N2  1  0.33333300  0.66666700  0.25000000  1
  N  N3  1  0.66666700  0.33333300  0.75000000  1
