# generated using pymatgen
data_PrAu
_symmetry_space_group_name_H-M   'P 1'
_cell_length_a   6.05451448
_cell_length_b   6.05451448
_cell_length_c   4.84509700
_cell_angle_alpha   90.00000000
_cell_angle_beta   90.00000000
_cell_angle_gamma   142.12268492
_symmetry_Int_Tables_number   1
_chemical_formula_structural   PrAu
_chemical_formula_sum   'Pr2 Au2'
_cell_volume   109.04611669
_cell_formula_units_Z   2
loop_
 _symmetry_equiv_pos_site_id
 _symmetry_equiv_pos_as_xyz
  1  'x, y, z'
loop_
 _atom_site_type_symbol
 _atom_site_label
 _atom_site_symmetry_multiplicity
 _atom_site_fract_x
 _atom_site_fract_y
 _atom_site_fract_z
 _atom_site_occupancy
  Pr  Pr0  1  0.86207100  0.13792900  0.75000000  1
  Pr  Pr1  1  0.13792900  0.86207100  0.25000000  1
  Au  Au2  1  0.58521200  0.41478800  0.75000000  1
  Au  Au3  1  0.41478800  0.58521200  0.25000000  1
