# generated using pymatgen
data_TaNb2Zn2O8
_symmetry_space_group_name_H-M   'P 1'
_cell_length_a   5.28303400
_cell_length_b   5.97531459
_cell_length_c   10.13287984
_cell_angle_alpha   103.47572221
_cell_angle_beta   91.81457622
_cell_angle_gamma   91.92598444
_symmetry_Int_Tables_number   1
_chemical_formula_structural   TaNb2Zn2O8
_chemical_formula_sum   'Ta2 Nb4 Zn4 O16'
_cell_volume   310.63358644
_cell_formula_units_Z   2
loop_
 _symmetry_equiv_pos_site_id
 _symmetry_equiv_pos_as_xyz
  1  'x, y, z'
loop_
 _atom_site_type_symbol
 _atom_site_label
 _atom_site_symmetry_multiplicity
 _atom_site_fract_x
 _atom_site_fract_y
 _atom_site_fract_z
 _atom_site_occupancy
  Ta  Ta0  1  0.75681600  0.65253400  0.99533300  1
  Ta  Ta1  1  0.24318400  0.34746600  0.00466700  1
  Nb  Nb2  1  0.70706200  0.23974900  0.24193500  1
  Nb  Nb3  1  0.72705300  0.00710000  0.76707900  1
  Nb  Nb4  1  0.29293800  0.76025100  0.75806500  1
  Nb  Nb5  1  0.27294700  0.99290000  0.23292100  1
  Zn  Zn6  1  0.77950700  0.42651800  0.56179900  1
  Zn  Zn7  1  0.73628200  0.85787200  0.43945200  1
  Zn  Zn8  1  0.22049300  0.57348200  0.43820100  1
  Zn  Zn9  1  0.26371800  0.14212800  0.56054800  1
  O  O10  1  0.06495100  0.19715000  0.13013600  1
  O  O11  1  0.40230400  0.09287600  0.88483000  1
  O  O12  1  0.93504900  0.80285000  0.86986400  1
  O  O13  1  0.59769600  0.90712400  0.11517000  1
  O  O14  1  0.58346600  0.44192600  0.10949900  1
  O  O15  1  0.91421800  0.32681500  0.89594900  1
  O  O16  1  0.41653400  0.55807400  0.89050100  1
  O  O17  1  0.08578200  0.67318500  0.10405100  1
  O  O18  1  0.40934500  0.29581500  0.36594300  1
  O  O19  1  0.07954300  0.93290300  0.64815800  1
  O  O20  1  0.36608400  0.84448000  0.38354000  1
  O  O21  1  0.14486000  0.46069900  0.61385800  1
  O  O22  1  0.63391600  0.15552000  0.61646000  1
  O  O23  1  0.85514000  0.53930100  0.38614200  1
  O  O24  1  0.92045700  0.06709700  0.35184200  1
  O  O25  1  0.59065500  0.70418500  0.63405700  1
