# generated using pymatgen
data_LaCrSnO6
_symmetry_space_group_name_H-M   'P 1'
_cell_length_a   5.50023100
_cell_length_b   5.52325690
_cell_length_c   5.53378500
_cell_angle_alpha   90.54868195
_cell_angle_beta   119.68367438
_cell_angle_gamma   119.60083727
_symmetry_Int_Tables_number   1
_chemical_formula_structural   LaCrSnO6
_chemical_formula_sum   'La1 Cr1 Sn1 O6'
_cell_volume   119.58396466
_cell_formula_units_Z   1
loop_
 _symmetry_equiv_pos_site_id
 _symmetry_equiv_pos_as_xyz
  1  'x, y, z'
loop_
 _atom_site_type_symbol
 _atom_site_label
 _atom_site_symmetry_multiplicity
 _atom_site_fract_x
 _atom_site_fract_y
 _atom_site_fract_z
 _atom_site_occupancy
  La  La0  1  0.98571900  0.24244300  0.24817500  1
  Cr  Cr1  1  0.49534600  0.00476400  0.50137000  1
  Sn  Sn2  1  0.49102800  0.50049500  0.99783800  1
  O  O3  1  0.40824800  0.67553900  0.25308200  1
  O  O4  1  0.49764300  0.80035300  0.77019000  1
  O  O5  1  0.51643200  0.20965900  0.21688300  1
  O  O6  1  0.01271900  0.80952800  0.26920100  1
  O  O7  1  0.96270000  0.20363100  0.68962500  1
  O  O8  1  0.52851600  0.29335300  0.71180900  1
