# generated using pymatgen
data_Ba2Mo2F11
_symmetry_space_group_name_H-M   'P 1'
_cell_length_a   8.03345825
_cell_length_b   8.03345825
_cell_length_c   14.64604800
_cell_angle_alpha   90.00000000
_cell_angle_beta   90.00000000
_cell_angle_gamma   120.00000208
_symmetry_Int_Tables_number   1
_chemical_formula_structural   Ba2Mo2F11
_chemical_formula_sum   'Ba6 Mo6 F33'
_cell_volume   818.57062948
_cell_formula_units_Z   3
loop_
 _symmetry_equiv_pos_site_id
 _symmetry_equiv_pos_as_xyz
  1  'x, y, z'
loop_
 _atom_site_type_symbol
 _atom_site_label
 _atom_site_symmetry_multiplicity
 _atom_site_fract_x
 _atom_site_fract_y
 _atom_site_fract_z
 _atom_site_occupancy
  Ba  Ba0  1  0.93504500  0.85968500  0.64998100  1
  Ba  Ba1  1  0.48726000  0.07631000  0.80750100  1
  Ba  Ba2  1  0.92464000  0.06495500  0.98331400  1
  Ba  Ba3  1  0.92369000  0.41095100  0.47416800  1
  Ba  Ba4  1  0.58904900  0.51274000  0.14083400  1
  Ba  Ba5  1  0.14031500  0.07536000  0.31664800  1
  Mo  Mo6  1  0.93560600  0.60009800  0.88854100  1
  Mo  Mo7  1  0.18897100  0.43993800  0.72941500  1
  Mo  Mo8  1  0.56006200  0.74903300  0.39608200  1
  Mo  Mo9  1  0.66449200  0.06439400  0.22187400  1
  Mo  Mo10  1  0.25096700  0.81102900  0.06274800  1
  Mo  Mo11  1  0.39990200  0.33550800  0.55520700  1
  F  F12  1  0.95997900  0.68094000  0.03352500  1
  F  F13  1  0.82895800  0.32925000  0.94442200  1
  F  F14  1  0.72096100  0.04002100  0.36685900  1
  F  F15  1  0.53026600  0.19671400  0.50116600  1
  F  F16  1  0.84691800  0.96566200  0.17792700  1
  F  F17  1  0.25616600  0.25112900  0.16357200  1
  F  F18  1  0.80328600  0.33355100  0.16783300  1
  F  F19  1  0.74887100  0.00503700  0.83023800  1
  F  F20  1  0.11874400  0.15308200  0.51126000  1
  F  F21  1  0.54562600  0.98240200  0.08692300  1
  F  F22  1  0.66644900  0.46973400  0.83450000  1
  F  F23  1  0.31906000  0.27903900  0.70019200  1
  F  F24  1  0.66067200  0.72135200  0.00478000  1
  F  F25  1  0.28009500  0.04933100  0.00711600  1
  F  F26  1  0.06068000  0.33932800  0.33811300  1
  F  F27  1  0.67075000  0.49970800  0.61108800  1
  F  F28  1  0.24926700  0.74684100  0.92461800  1
  F  F29  1  0.43677600  0.45437400  0.42025600  1
  F  F30  1  0.32232800  0.74764400  0.41183400  1
  F  F31  1  0.27864800  0.93932000  0.67144700  1
  F  F32  1  0.42531600  0.67767200  0.74516700  1
  F  F33  1  0.95066900  0.23076400  0.67378300  1
  F  F34  1  0.76923600  0.71990500  0.34045000  1
  F  F35  1  0.49757400  0.75073300  0.25795100  1
  F  F36  1  0.01759800  0.56322400  0.75359000  1
  F  F37  1  0.03433800  0.88125600  0.84459400  1
  F  F38  1  0.50029200  0.17104200  0.27775500  1
  F  F39  1  0.15527900  0.35579000  0.85474800  1
  F  F40  1  0.20051000  0.84472100  0.18808200  1
  F  F41  1  0.25235600  0.57468400  0.07850000  1
  F  F42  1  0.99496300  0.74383400  0.49690500  1
  F  F43  1  0.25315900  0.50242600  0.59128500  1
  F  F44  1  0.64421000  0.79949000  0.52141500  1
