# generated using pymatgen
data_MgCr2P2O9
_symmetry_space_group_name_H-M   'P 1'
_cell_length_a   6.31151200
_cell_length_b   7.29632500
_cell_length_c   14.13482700
_cell_angle_alpha   90.00000000
_cell_angle_beta   90.00000000
_cell_angle_gamma   90.00000000
_symmetry_Int_Tables_number   1
_chemical_formula_structural   MgCr2P2O9
_chemical_formula_sum   'Mg4 Cr8 P8 O36'
_cell_volume   650.92069609
_cell_formula_units_Z   4
loop_
 _symmetry_equiv_pos_site_id
 _symmetry_equiv_pos_as_xyz
  1  'x, y, z'
loop_
 _atom_site_type_symbol
 _atom_site_label
 _atom_site_symmetry_multiplicity
 _atom_site_fract_x
 _atom_site_fract_y
 _atom_site_fract_z
 _atom_site_occupancy
  Mg  Mg0  1  0.75000000  0.91776700  0.77447700  1
  Mg  Mg1  1  0.75000000  0.58223300  0.27447700  1
  Mg  Mg2  1  0.25000000  0.41776800  0.72552300  1
  Mg  Mg3  1  0.25000000  0.08223300  0.22552300  1
  Cr  Cr4  1  0.75000000  0.35585300  0.87723400  1
  Cr  Cr5  1  0.25000000  0.64414700  0.12276600  1
  Cr  Cr6  1  0.25000000  0.85585300  0.62276600  1
  Cr  Cr7  1  0.75000000  0.14414700  0.37723400  1
  Cr  Cr8  1  0.50000000  0.00000000  0.00000000  1
  Cr  Cr9  1  0.50000000  0.50000000  0.50000000  1
  Cr  Cr10  1  0.00000000  0.50000000  0.50000000  1
  Cr  Cr11  1  0.00000000  0.00000000  0.00000000  1
  P  P12  1  0.25000000  0.36492800  0.92806700  1
  P  P13  1  0.75000000  0.63507200  0.07193300  1
  P  P14  1  0.75000000  0.86492800  0.57193300  1
  P  P15  1  0.25000000  0.13507200  0.42806700  1
  P  P16  1  0.75000000  0.38832100  0.69296300  1
  P  P17  1  0.75000000  0.11167900  0.19296300  1
  P  P18  1  0.25000000  0.88832100  0.80703700  1
  P  P19  1  0.25000000  0.61167900  0.30703700  1
  O  O20  1  0.04007200  0.60610200  0.36572600  1
  O  O21  1  0.54007200  0.39389800  0.63427400  1
  O  O22  1  0.95992800  0.10610200  0.13427400  1
  O  O23  1  0.45992800  0.89389800  0.86572600  1
  O  O24  1  0.95992800  0.39389800  0.63427400  1
  O  O25  1  0.45992800  0.60610200  0.36572600  1
  O  O26  1  0.04007200  0.89389800  0.86572600  1
  O  O27  1  0.54007200  0.10610200  0.13427400  1
  O  O28  1  0.25000000  0.32886900  0.47658500  1
  O  O29  1  0.75000000  0.67113100  0.52341500  1
  O  O30  1  0.75000000  0.82886900  0.02341500  1
  O  O31  1  0.25000000  0.17113100  0.97658500  1
  O  O32  1  0.75000000  0.12851000  0.94647300  1
  O  O33  1  0.25000000  0.87149000  0.05352700  1
  O  O34  1  0.25000000  0.62851000  0.55352700  1
  O  O35  1  0.75000000  0.37149000  0.44647300  1
  O  O36  1  0.75000000  0.20832800  0.75391100  1
  O  O37  1  0.25000000  0.79167200  0.24608900  1
  O  O38  1  0.25000000  0.70832800  0.74608900  1
  O  O39  1  0.75000000  0.29167200  0.25391100  1
  O  O40  1  0.43716900  0.12596500  0.35746300  1
  O  O41  1  0.93716900  0.87403500  0.64253700  1
  O  O42  1  0.56283100  0.62596500  0.14253700  1
  O  O43  1  0.06283100  0.37403500  0.85746300  1
  O  O44  1  0.56283100  0.87403500  0.64253700  1
  O  O45  1  0.06283100  0.12596500  0.35746300  1
  O  O46  1  0.43716900  0.37403500  0.85746300  1
  O  O47  1  0.93716900  0.62596500  0.14253700  1
  O  O48  1  0.75000000  0.48966900  0.99726900  1
  O  O49  1  0.25000000  0.04596600  0.73299900  1
  O  O50  1  0.25000000  0.45403400  0.23299900  1
  O  O51  1  0.75000000  0.54596600  0.76700100  1
  O  O52  1  0.75000000  0.01033100  0.49726900  1
  O  O53  1  0.25000000  0.98966900  0.50273100  1
  O  O54  1  0.25000000  0.51033100  0.00273100  1
  O  O55  1  0.75000000  0.95403400  0.26700100  1
