# generated using pymatgen
data_Li9Mn2Co5O16
_symmetry_space_group_name_H-M   'P 1'
_cell_length_a   2.92118900
_cell_length_b   8.37299864
_cell_length_c   11.77962265
_cell_angle_alpha   89.70669199
_cell_angle_beta   90.00000000
_cell_angle_gamma   90.00000000
_symmetry_Int_Tables_number   1
_chemical_formula_structural   Li9Mn2Co5O16
_chemical_formula_sum   'Li9 Mn2 Co5 O16'
_cell_volume   288.11532879
_cell_formula_units_Z   1
loop_
 _symmetry_equiv_pos_site_id
 _symmetry_equiv_pos_as_xyz
  1  'x, y, z'
loop_
 _atom_site_type_symbol
 _atom_site_label
 _atom_site_symmetry_multiplicity
 _atom_site_fract_x
 _atom_site_fract_y
 _atom_site_fract_z
 _atom_site_occupancy
  Li  Li0  1  0.50000000  0.24933700  0.11915200  1
  Li  Li1  1  0.50000000  0.75000000  0.37500000  1
  Li  Li2  1  0.50000000  0.25066300  0.63084800  1
  Li  Li3  1  0.00000000  0.48334200  0.99891400  1
  Li  Li4  1  0.00000000  0.00224100  0.25208500  1
  Li  Li5  1  0.00000000  0.49775900  0.49791500  1
  Li  Li6  1  0.50000000  0.75000000  0.87500000  1
  Li  Li7  1  0.00000000  0.01665800  0.75108600  1
  Li  Li8  1  0.50000000  0.25000000  0.87500000  1
  Mn  Mn9  1  0.00000000  0.01141200  0.99716000  1
  Mn  Mn10  1  0.00000000  0.48858800  0.75284000  1
  Co  Co11  1  0.00000000  0.49967300  0.24861300  1
  Co  Co12  1  0.00000000  0.00032700  0.50138700  1
  Co  Co13  1  0.50000000  0.75007800  0.12363200  1
  Co  Co14  1  0.50000000  0.25000000  0.37500000  1
  Co  Co15  1  0.50000000  0.74992200  0.62636800  1
  O  O16  1  0.50000000  0.99691600  0.11183800  1
  O  O17  1  0.50000000  0.49742500  0.36569300  1
  O  O18  1  0.50000000  0.99461300  0.61904800  1
  O  O19  1  0.00000000  0.22941700  0.00162300  1
  O  O20  1  0.00000000  0.74757100  0.24063000  1
  O  O21  1  0.00000000  0.24594000  0.49097000  1
  O  O22  1  0.50000000  0.50228200  0.86173600  1
  O  O23  1  0.00000000  0.73535000  0.74152800  1
  O  O24  1  0.50000000  0.50538700  0.13095200  1
  O  O25  1  0.50000000  0.00257500  0.38430700  1
  O  O26  1  0.50000000  0.50308400  0.63816200  1
  O  O27  1  0.00000000  0.76465000  0.00847200  1
  O  O28  1  0.00000000  0.25406000  0.25903000  1
  O  O29  1  0.00000000  0.75242900  0.50937000  1
  O  O30  1  0.50000000  0.99771800  0.88826400  1
  O  O31  1  0.00000000  0.27058300  0.74837700  1
