# generated using pymatgen
data_MgTa2(CuO4)2
_symmetry_space_group_name_H-M   'P 1'
_cell_length_a   8.60947600
_cell_length_b   6.65169800
_cell_length_c   12.28383668
_cell_angle_alpha   87.96361772
_cell_angle_beta   90.00000000
_cell_angle_gamma   90.00000000
_symmetry_Int_Tables_number   1
_chemical_formula_structural   MgTa2(CuO4)2
_chemical_formula_sum   'Mg4 Ta8 Cu8 O32'
_cell_volume   703.02200269
_cell_formula_units_Z   4
loop_
 _symmetry_equiv_pos_site_id
 _symmetry_equiv_pos_as_xyz
  1  'x, y, z'
loop_
 _atom_site_type_symbol
 _atom_site_label
 _atom_site_symmetry_multiplicity
 _atom_site_fract_x
 _atom_site_fract_y
 _atom_site_fract_z
 _atom_site_occupancy
  Mg  Mg0  1  0.83963000  0.88883300  0.05075700  1
  Mg  Mg1  1  0.16037000  0.11116700  0.94924300  1
  Mg  Mg2  1  0.33963000  0.11116700  0.44924300  1
  Mg  Mg3  1  0.66037000  0.88883300  0.55075700  1
  Ta  Ta4  1  0.54406400  0.90301600  0.84400200  1
  Ta  Ta5  1  0.95593600  0.90301600  0.34400200  1
  Ta  Ta6  1  0.91277900  0.38555100  0.13597200  1
  Ta  Ta7  1  0.04406400  0.09698400  0.65599800  1
  Ta  Ta8  1  0.08722100  0.61444900  0.86402800  1
  Ta  Ta9  1  0.41277900  0.61444900  0.36402800  1
  Ta  Ta10  1  0.58722100  0.38555100  0.63597200  1
  Ta  Ta11  1  0.45593600  0.09698400  0.15599800  1
  Cu  Cu12  1  0.81592700  0.23337700  0.87729800  1
  Cu  Cu13  1  0.93951400  0.62634400  0.62277200  1
  Cu  Cu14  1  0.06048600  0.37365600  0.37722800  1
  Cu  Cu15  1  0.18407300  0.76662300  0.12270200  1
  Cu  Cu16  1  0.68407300  0.23337700  0.37729800  1
  Cu  Cu17  1  0.56048600  0.62634400  0.12277200  1
  Cu  Cu18  1  0.31592700  0.76662300  0.62270200  1
  Cu  Cu19  1  0.43951400  0.37365600  0.87722800  1
  O  O20  1  0.75629300  0.96053300  0.40024000  1
  O  O21  1  0.98328500  0.34759600  0.60213300  1
  O  O22  1  0.42434400  0.81364100  0.47196400  1
  O  O23  1  0.92434400  0.18635900  0.02803600  1
  O  O24  1  0.74370700  0.96053300  0.90024000  1
  O  O25  1  0.24370700  0.03946700  0.59976000  1
  O  O26  1  0.88850800  0.91339200  0.61210700  1
  O  O27  1  0.10412700  0.49985900  0.13865500  1
  O  O28  1  0.39587300  0.49985900  0.63865500  1
  O  O29  1  0.12636200  0.70316500  0.71556300  1
  O  O30  1  0.62636200  0.29683500  0.78443700  1
  O  O31  1  0.89587300  0.50014100  0.86134500  1
  O  O32  1  0.11149200  0.08660800  0.38789300  1
  O  O33  1  0.45547900  0.11582000  0.30526900  1
  O  O34  1  0.71980100  0.58840700  0.58550300  1
  O  O35  1  0.78019900  0.58840700  0.08550300  1
  O  O36  1  0.95547900  0.88418000  0.19473100  1
  O  O37  1  0.60412700  0.50014100  0.36134500  1
  O  O38  1  0.54452100  0.88418000  0.69473100  1
  O  O39  1  0.57565600  0.18635900  0.52803600  1
  O  O40  1  0.51671500  0.34759600  0.10213300  1
  O  O41  1  0.87363800  0.29683500  0.28443700  1
  O  O42  1  0.25629300  0.03946700  0.09976000  1
  O  O43  1  0.61149200  0.91339200  0.11210700  1
  O  O44  1  0.07565600  0.81364100  0.97196400  1
  O  O45  1  0.21980100  0.41159300  0.91449700  1
  O  O46  1  0.01671500  0.65240400  0.39786700  1
  O  O47  1  0.48328500  0.65240400  0.89786700  1
  O  O48  1  0.38850800  0.08660800  0.88789300  1
  O  O49  1  0.28019900  0.41159300  0.41449700  1
  O  O50  1  0.37363800  0.70316500  0.21556300  1
  O  O51  1  0.04452100  0.11582000  0.80526900  1
