# generated using pymatgen
data_CaNi2(PO4)2
_symmetry_space_group_name_H-M   'P 1'
_cell_length_a   8.98139509
_cell_length_b   8.98139509
_cell_length_c   16.73636973
_cell_angle_alpha   62.73977128
_cell_angle_beta   62.73977128
_cell_angle_gamma   32.02845829
_symmetry_Int_Tables_number   1
_chemical_formula_structural   CaNi2(PO4)2
_chemical_formula_sum   'Ca4 Ni8 P8 O32'
_cell_volume   629.46553735
_cell_formula_units_Z   4
loop_
 _symmetry_equiv_pos_site_id
 _symmetry_equiv_pos_as_xyz
  1  'x, y, z'
loop_
 _atom_site_type_symbol
 _atom_site_label
 _atom_site_symmetry_multiplicity
 _atom_site_fract_x
 _atom_site_fract_y
 _atom_site_fract_z
 _atom_site_occupancy
  Ca  Ca0  1  0.47640100  0.83188900  0.86001700  1
  Ca  Ca1  1  0.16811100  0.52359900  0.63998300  1
  Ca  Ca2  1  0.83188900  0.47640100  0.36001700  1
  Ca  Ca3  1  0.52359900  0.16811100  0.13998300  1
  Ni  Ni4  1  0.19368000  0.61439200  0.96205400  1
  Ni  Ni5  1  0.38560800  0.80632000  0.53794600  1
  Ni  Ni6  1  0.80632000  0.38560800  0.03794600  1
  Ni  Ni7  1  0.50000000  0.00000000  0.00000000  1
  Ni  Ni8  1  0.61439200  0.19368000  0.46205400  1
  Ni  Ni9  1  0.65499700  0.34500300  0.25000000  1
  Ni  Ni10  1  0.34500300  0.65499700  0.75000000  1
  Ni  Ni11  1  0.00000000  0.50000000  0.50000000  1
  P  P12  1  0.05360400  0.51500400  0.86811900  1
  P  P13  1  0.77304000  0.19131000  0.61270100  1
  P  P14  1  0.94639600  0.48499600  0.13188100  1
  P  P15  1  0.19131000  0.77304000  0.11270100  1
  P  P16  1  0.51500400  0.05360400  0.36811900  1
  P  P17  1  0.48499600  0.94639600  0.63188100  1
  P  P18  1  0.22696000  0.80869000  0.38729900  1
  P  P19  1  0.80869000  0.22696000  0.88729900  1
  O  O20  1  0.69056000  0.81207200  0.10476500  1
  O  O21  1  0.82935200  0.33662400  0.92603100  1
  O  O22  1  0.81207200  0.69056000  0.60476500  1
  O  O23  1  0.78416300  0.37164200  0.54067600  1
  O  O24  1  0.19519500  0.35925500  0.04966100  1
  O  O25  1  0.56446200  0.33174100  0.69844600  1
  O  O26  1  0.62835800  0.21583700  0.95932400  1
  O  O27  1  0.87996900  0.08246600  0.13147900  1
  O  O28  1  0.21583700  0.62835800  0.45932400  1
  O  O29  1  0.66337600  0.17064800  0.57396900  1
  O  O30  1  0.86907700  0.37231500  0.14356200  1
  O  O31  1  0.61266400  0.94548700  0.28523900  1
  O  O32  1  0.17064800  0.66337600  0.07396900  1
  O  O33  1  0.08246600  0.87996900  0.63147900  1
  O  O34  1  0.30944000  0.18792800  0.89523500  1
  O  O35  1  0.13092300  0.62768500  0.85643800  1
  O  O36  1  0.94548700  0.61266400  0.78523900  1
  O  O37  1  0.37164200  0.78416300  0.04067600  1
  O  O38  1  0.37231500  0.86907700  0.64356200  1
  O  O39  1  0.38733600  0.05451300  0.71476100  1
  O  O40  1  0.91753400  0.12003100  0.36852100  1
  O  O41  1  0.35925500  0.19519500  0.54966100  1
  O  O42  1  0.12003100  0.91753400  0.86852100  1
  O  O43  1  0.33174100  0.56446200  0.19844600  1
  O  O44  1  0.33662400  0.82935200  0.42603100  1
  O  O45  1  0.18792800  0.30944000  0.39523500  1
  O  O46  1  0.05451300  0.38733600  0.21476100  1
  O  O47  1  0.64074500  0.80480500  0.45033900  1
  O  O48  1  0.80480500  0.64074500  0.95033900  1
  O  O49  1  0.66825900  0.43553800  0.80155400  1
  O  O50  1  0.43553800  0.66825900  0.30155400  1
  O  O51  1  0.62768500  0.13092300  0.35643800  1
