# generated using pymatgen
data_CaCo2(CuO4)2
_symmetry_space_group_name_H-M   'P 1'
_cell_length_a   8.73329500
_cell_length_b   6.62276300
_cell_length_c   11.96545862
_cell_angle_alpha   86.53170426
_cell_angle_beta   90.00000000
_cell_angle_gamma   90.00000000
_symmetry_Int_Tables_number   1
_chemical_formula_structural   CaCo2(CuO4)2
_chemical_formula_sum   'Ca4 Co8 Cu8 O32'
_cell_volume   690.79712531
_cell_formula_units_Z   4
loop_
 _symmetry_equiv_pos_site_id
 _symmetry_equiv_pos_as_xyz
  1  'x, y, z'
loop_
 _atom_site_type_symbol
 _atom_site_label
 _atom_site_symmetry_multiplicity
 _atom_site_fract_x
 _atom_site_fract_y
 _atom_site_fract_z
 _atom_site_occupancy
  Ca  Ca0  1  0.16707100  0.13629400  0.03643700  1
  Ca  Ca1  1  0.83292900  0.86370600  0.96356300  1
  Ca  Ca2  1  0.66707100  0.86370600  0.46356300  1
  Ca  Ca3  1  0.33292900  0.13629400  0.53643700  1
  Co  Co4  1  0.46618000  0.09551900  0.84180100  1
  Co  Co5  1  0.03382000  0.09551900  0.34180100  1
  Co  Co6  1  0.09788100  0.60272400  0.13317900  1
  Co  Co7  1  0.96618000  0.90448100  0.65819900  1
  Co  Co8  1  0.90211900  0.39727600  0.86682100  1
  Co  Co9  1  0.59788100  0.39727600  0.36682100  1
  Co  Co10  1  0.40211900  0.60272400  0.63317900  1
  Co  Co11  1  0.53382000  0.90448100  0.15819900  1
  Cu  Cu12  1  0.19342000  0.74122300  0.87417000  1
  Cu  Cu13  1  0.04428600  0.39260900  0.63675600  1
  Cu  Cu14  1  0.95571400  0.60739100  0.36324400  1
  Cu  Cu15  1  0.80658000  0.25877700  0.12583000  1
  Cu  Cu16  1  0.30658000  0.74122300  0.37417000  1
  Cu  Cu17  1  0.45571400  0.39260900  0.13675600  1
  Cu  Cu18  1  0.69342000  0.25877700  0.62583000  1
  Cu  Cu19  1  0.54428600  0.60739100  0.86324400  1
  O  O20  1  0.22261100  0.00796000  0.37812800  1
  O  O21  1  0.99600200  0.66761900  0.60219700  1
  O  O22  1  0.59366000  0.20163100  0.48208700  1
  O  O23  1  0.09366000  0.79836900  0.01791300  1
  O  O24  1  0.27738900  0.00796000  0.87812800  1
  O  O25  1  0.77738900  0.99204000  0.62187200  1
  O  O26  1  0.08389100  0.11442500  0.61740900  1
  O  O27  1  0.90363200  0.51885700  0.13384000  1
  O  O28  1  0.59636800  0.51885700  0.63384000  1
  O  O29  1  0.86223800  0.33330700  0.72064900  1
  O  O30  1  0.36223800  0.66669300  0.77935100  1
  O  O31  1  0.09636800  0.48114300  0.86616000  1
  O  O32  1  0.91610900  0.88557500  0.38259100  1
  O  O33  1  0.50432800  0.86422700  0.29713000  1
  O  O34  1  0.25106400  0.43878300  0.59802000  1
  O  O35  1  0.24893600  0.43878300  0.09802000  1
  O  O36  1  0.00432800  0.13577300  0.20287000  1
  O  O37  1  0.40363200  0.48114300  0.36616000  1
  O  O38  1  0.49567200  0.13577300  0.70287000  1
  O  O39  1  0.40634000  0.79836900  0.51791300  1
  O  O40  1  0.50399800  0.66761900  0.10219700  1
  O  O41  1  0.13776200  0.66669300  0.27935100  1
  O  O42  1  0.72261100  0.99204000  0.12187200  1
  O  O43  1  0.41610900  0.11442500  0.11740900  1
  O  O44  1  0.90634000  0.20163100  0.98208700  1
  O  O45  1  0.75106400  0.56121700  0.90198000  1
  O  O46  1  0.00399800  0.33238100  0.39780300  1
  O  O47  1  0.49600200  0.33238100  0.89780300  1
  O  O48  1  0.58389100  0.88557500  0.88259100  1
  O  O49  1  0.74893600  0.56121700  0.40198000  1
  O  O50  1  0.63776200  0.33330700  0.22064900  1
  O  O51  1  0.99567200  0.86422700  0.79713000  1
