# generated using pymatgen
data_HoMg(MoO3)2
_symmetry_space_group_name_H-M   'P 1'
_cell_length_a   5.64076400
_cell_length_b   5.39130000
_cell_length_c   9.58709196
_cell_angle_alpha   56.10942938
_cell_angle_beta   90.00000000
_cell_angle_gamma   90.00000000
_symmetry_Int_Tables_number   1
_chemical_formula_structural   HoMg(MoO3)2
_chemical_formula_sum   'Ho2 Mg2 Mo4 O12'
_cell_volume   242.01978022
_cell_formula_units_Z   2
loop_
 _symmetry_equiv_pos_site_id
 _symmetry_equiv_pos_as_xyz
  1  'x, y, z'
loop_
 _atom_site_type_symbol
 _atom_site_label
 _atom_site_symmetry_multiplicity
 _atom_site_fract_x
 _atom_site_fract_y
 _atom_site_fract_z
 _atom_site_occupancy
  Ho  Ho0  1  0.18867100  0.73827300  0.25082900  1
  Ho  Ho1  1  0.81132900  0.73827300  0.75082900  1
  Mg  Mg2  1  0.70884400  0.25449400  0.24899700  1
  Mg  Mg3  1  0.29115600  0.25449400  0.74899700  1
  Mo  Mo4  1  0.74619200  0.00057100  0.99996100  1
  Mo  Mo5  1  0.74351400  0.50005500  0.50028900  1
  Mo  Mo6  1  0.25380800  0.00057100  0.49996100  1
  Mo  Mo7  1  0.25648600  0.50005500  0.00028900  1
  O  O8  1  0.66269400  0.12408900  0.74715800  1
  O  O9  1  0.43361600  0.74018200  0.07060800  1
  O  O10  1  0.43979600  0.39528900  0.43189000  1
  O  O11  1  0.93807100  0.59901600  0.06953800  1
  O  O12  1  0.92883900  0.25965600  0.42708900  1
  O  O13  1  0.18448800  0.88838600  0.75361700  1
  O  O14  1  0.33730600  0.12408900  0.24715800  1
  O  O15  1  0.56638400  0.74018200  0.57060800  1
  O  O16  1  0.56020400  0.39528900  0.93189000  1
  O  O17  1  0.07116100  0.25965600  0.92708900  1
  O  O18  1  0.06192900  0.59901600  0.56953800  1
  O  O19  1  0.81551200  0.88838600  0.25361700  1
