# generated using pymatgen
data_CaCo4O9
_symmetry_space_group_name_H-M   'P 1'
_cell_length_a   8.26876600
_cell_length_b   8.26876600
_cell_length_c   5.19515200
_cell_angle_alpha   90.00000000
_cell_angle_beta   90.00000000
_cell_angle_gamma   90.00000000
_symmetry_Int_Tables_number   1
_chemical_formula_structural   CaCo4O9
_chemical_formula_sum   'Ca2 Co8 O18'
_cell_volume   355.20548421
_cell_formula_units_Z   2
loop_
 _symmetry_equiv_pos_site_id
 _symmetry_equiv_pos_as_xyz
  1  'x, y, z'
loop_
 _atom_site_type_symbol
 _atom_site_label
 _atom_site_symmetry_multiplicity
 _atom_site_fract_x
 _atom_site_fract_y
 _atom_site_fract_z
 _atom_site_occupancy
  Ca  Ca0  1  0.00000000  0.50000000  0.86223900  1
  Ca  Ca1  1  0.50000000  0.00000000  0.13776100  1
  Co  Co2  1  0.71438600  0.41161600  0.39175200  1
  Co  Co3  1  0.41161600  0.28561400  0.60824800  1
  Co  Co4  1  0.91161600  0.78561400  0.39175200  1
  Co  Co5  1  0.21438600  0.91161600  0.60824800  1
  Co  Co6  1  0.28561400  0.58838400  0.39175200  1
  Co  Co7  1  0.08838400  0.21438600  0.39175200  1
  Co  Co8  1  0.78561400  0.08838400  0.60824800  1
  Co  Co9  1  0.58838400  0.71438600  0.60824800  1
  O  O10  1  0.50000000  0.50000000  0.50000000  1
  O  O11  1  0.00000000  0.00000000  0.50000000  1
  O  O12  1  0.57228700  0.75608400  0.91760800  1
  O  O13  1  0.74391600  0.07228700  0.91760800  1
  O  O14  1  0.25608400  0.92771300  0.91760800  1
  O  O15  1  0.42771300  0.24391600  0.91760800  1
  O  O16  1  0.92771300  0.74391600  0.08239200  1
  O  O17  1  0.75608400  0.42771300  0.08239200  1
  O  O18  1  0.24391600  0.57228700  0.08239200  1
  O  O19  1  0.07228700  0.25608400  0.08239200  1
  O  O20  1  0.21022900  0.39448600  0.55205600  1
  O  O21  1  0.10551400  0.71022900  0.55205600  1
  O  O22  1  0.89448600  0.28977100  0.55205600  1
  O  O23  1  0.78977100  0.60551400  0.55205600  1
  O  O24  1  0.71022900  0.89448600  0.44794400  1
  O  O25  1  0.39448600  0.78977100  0.44794400  1
  O  O26  1  0.60551400  0.21022900  0.44794400  1
  O  O27  1  0.28977100  0.10551400  0.44794400  1
