# generated using pymatgen
data_CuReO4
_symmetry_space_group_name_H-M   'P 1'
_cell_length_a   9.04658900
_cell_length_b   6.62143800
_cell_length_c   13.07881798
_cell_angle_alpha   89.59983630
_cell_angle_beta   90.00000000
_cell_angle_gamma   90.00000000
_symmetry_Int_Tables_number   1
_chemical_formula_structural   CuReO4
_chemical_formula_sum   'Cu8 Re8 O32'
_cell_volume   783.42076849
_cell_formula_units_Z   8
loop_
 _symmetry_equiv_pos_site_id
 _symmetry_equiv_pos_as_xyz
  1  'x, y, z'
loop_
 _atom_site_type_symbol
 _atom_site_label
 _atom_site_symmetry_multiplicity
 _atom_site_fract_x
 _atom_site_fract_y
 _atom_site_fract_z
 _atom_site_occupancy
  Cu  Cu0  1  0.13591300  0.30733400  0.89051000  1
  Cu  Cu1  1  0.05322900  0.87929400  0.61291900  1
  Cu  Cu2  1  0.94677100  0.12070600  0.38708100  1
  Cu  Cu3  1  0.86408700  0.69266600  0.10949000  1
  Cu  Cu4  1  0.36408700  0.30733400  0.39051000  1
  Cu  Cu5  1  0.44677100  0.87929400  0.11291900  1
  Cu  Cu6  1  0.63591300  0.69266600  0.60949000  1
  Cu  Cu7  1  0.55322900  0.12070600  0.88708100  1
  Re  Re8  1  0.45021700  0.60300100  0.85282800  1
  Re  Re9  1  0.04978300  0.60300100  0.35282800  1
  Re  Re10  1  0.08635100  0.10013200  0.13573500  1
  Re  Re11  1  0.95021700  0.39699900  0.64717200  1
  Re  Re12  1  0.91364900  0.89986800  0.86426500  1
  Re  Re13  1  0.58635100  0.89986800  0.36426500  1
  Re  Re14  1  0.41364900  0.10013200  0.63573500  1
  Re  Re15  1  0.54978300  0.39699900  0.14717200  1
  O  O16  1  0.23705300  0.54007800  0.37522700  1
  O  O17  1  0.99135500  0.15785400  0.59256600  1
  O  O18  1  0.60568400  0.70168700  0.45420600  1
  O  O19  1  0.10568400  0.29831300  0.04579400  1
  O  O20  1  0.26294700  0.54007800  0.87522700  1
  O  O21  1  0.76294700  0.45992200  0.62477300  1
  O  O22  1  0.06830600  0.58526300  0.59491900  1
  O  O23  1  0.91097000  0.98309600  0.12182600  1
  O  O24  1  0.58903000  0.98309600  0.62182600  1
  O  O25  1  0.89846600  0.81251500  0.73691400  1
  O  O26  1  0.39846600  0.18748500  0.76308600  1
  O  O27  1  0.08903000  0.01690400  0.87817400  1
  O  O28  1  0.93169400  0.41473700  0.40508100  1
  O  O29  1  0.51578400  0.37679600  0.27939800  1
  O  O30  1  0.27286400  0.92190700  0.61401900  1
  O  O31  1  0.22713600  0.92190700  0.11401900  1
  O  O32  1  0.01578400  0.62320400  0.22060200  1
  O  O33  1  0.41097000  0.01690400  0.37817400  1
  O  O34  1  0.48421600  0.62320400  0.72060200  1
  O  O35  1  0.39431600  0.29831300  0.54579400  1
  O  O36  1  0.50864500  0.15785400  0.09256600  1
  O  O37  1  0.10153400  0.18748500  0.26308600  1
  O  O38  1  0.73705300  0.45992200  0.12477300  1
  O  O39  1  0.43169400  0.58526300  0.09491900  1
  O  O40  1  0.89431600  0.70168700  0.95420600  1
  O  O41  1  0.77286400  0.07809300  0.88598100  1
  O  O42  1  0.00864500  0.84214600  0.40743400  1
  O  O43  1  0.49135500  0.84214600  0.90743400  1
  O  O44  1  0.56830600  0.41473700  0.90508100  1
  O  O45  1  0.72713600  0.07809300  0.38598100  1
  O  O46  1  0.60153400  0.81251500  0.23691400  1
  O  O47  1  0.98421600  0.37679600  0.77939800  1
