# generated using pymatgen
data_Sb3P3O13
_symmetry_space_group_name_H-M   'P 1'
_cell_length_a   6.71935500
_cell_length_b   7.82580000
_cell_length_c   11.40780401
_cell_angle_alpha   86.78953072
_cell_angle_beta   90.00000000
_cell_angle_gamma   90.00000000
_symmetry_Int_Tables_number   1
_chemical_formula_structural   Sb3P3O13
_chemical_formula_sum   'Sb6 P6 O26'
_cell_volume   598.93024158
_cell_formula_units_Z   2
loop_
 _symmetry_equiv_pos_site_id
 _symmetry_equiv_pos_as_xyz
  1  'x, y, z'
loop_
 _atom_site_type_symbol
 _atom_site_label
 _atom_site_symmetry_multiplicity
 _atom_site_fract_x
 _atom_site_fract_y
 _atom_site_fract_z
 _atom_site_occupancy
  Sb  Sb0  1  0.25000000  0.65103900  0.20107000  1
  Sb  Sb1  1  0.75000000  0.34896100  0.79893000  1
  Sb  Sb2  1  0.25000000  0.25084400  0.46900500  1
  Sb  Sb3  1  0.50000000  0.00000000  0.00000000  1
  Sb  Sb4  1  0.75000000  0.74915600  0.53099500  1
  Sb  Sb5  1  0.00000000  0.00000000  0.00000000  1
  P  P6  1  0.25000000  0.81970400  0.47219100  1
  P  P7  1  0.75000000  0.18029600  0.52780900  1
  P  P8  1  0.25000000  0.24515300  0.77138500  1
  P  P9  1  0.75000000  0.75484700  0.22861500  1
  P  P10  1  0.75000000  0.66836900  0.88146700  1
  P  P11  1  0.25000000  0.33163100  0.11853300  1
  O  O12  1  0.75000000  0.60504700  0.74911500  1
  O  O13  1  0.56631700  0.21987400  0.45285900  1
  O  O14  1  0.25000000  0.16913500  0.64969700  1
  O  O15  1  0.55824200  0.76529500  0.90544500  1
  O  O16  1  0.75000000  0.31106600  0.62983400  1
  O  O17  1  0.75000000  0.12787200  0.88711000  1
  O  O18  1  0.25000000  0.68893400  0.37016600  1
  O  O19  1  0.05824200  0.23470500  0.09455500  1
  O  O20  1  0.25000000  0.00475400  0.41262000  1
  O  O21  1  0.75000000  0.99524600  0.58738000  1
  O  O22  1  0.06177900  0.35668800  0.79100500  1
  O  O23  1  0.25000000  0.87212800  0.11289000  1
  O  O24  1  0.56177900  0.64331200  0.20899500  1
  O  O25  1  0.75000000  0.48169600  0.94563400  1
  O  O26  1  0.75000000  0.83086500  0.35030300  1
  O  O27  1  0.44175800  0.23470500  0.09455500  1
  O  O28  1  0.93368300  0.21987400  0.45285900  1
  O  O29  1  0.43368300  0.78012600  0.54714100  1
  O  O30  1  0.43822100  0.35668800  0.79100500  1
  O  O31  1  0.25000000  0.39495300  0.25088500  1
  O  O32  1  0.75000000  0.90975800  0.13374700  1
  O  O33  1  0.25000000  0.09024200  0.86625300  1
  O  O34  1  0.93822100  0.64331200  0.20899500  1
  O  O35  1  0.94175800  0.76529500  0.90544500  1
  O  O36  1  0.06631700  0.78012600  0.54714100  1
  O  O37  1  0.25000000  0.51830400  0.05436600  1
