# generated using pymatgen
data_CaCr4O9
_symmetry_space_group_name_H-M   'P 1'
_cell_length_a   8.45708300
_cell_length_b   8.45708300
_cell_length_c   5.18640800
_cell_angle_alpha   90.00000000
_cell_angle_beta   90.00000000
_cell_angle_gamma   90.00000000
_symmetry_Int_Tables_number   1
_chemical_formula_structural   CaCr4O9
_chemical_formula_sum   'Ca2 Cr8 O18'
_cell_volume   370.94358446
_cell_formula_units_Z   2
loop_
 _symmetry_equiv_pos_site_id
 _symmetry_equiv_pos_as_xyz
  1  'x, y, z'
loop_
 _atom_site_type_symbol
 _atom_site_label
 _atom_site_symmetry_multiplicity
 _atom_site_fract_x
 _atom_site_fract_y
 _atom_site_fract_z
 _atom_site_occupancy
  Ca  Ca0  1  0.50000000  0.00000000  0.13865800  1
  Ca  Ca1  1  0.00000000  0.50000000  0.86134200  1
  Cr  Cr2  1  0.59078000  0.28821300  0.61034200  1
  Cr  Cr3  1  0.71178700  0.59078000  0.38965800  1
  Cr  Cr4  1  0.21178700  0.09078000  0.61034200  1
  Cr  Cr5  1  0.09078000  0.78821300  0.38965800  1
  Cr  Cr6  1  0.40922000  0.71178700  0.61034200  1
  Cr  Cr7  1  0.78821300  0.90922000  0.61034200  1
  Cr  Cr8  1  0.90922000  0.21178700  0.38965800  1
  Cr  Cr9  1  0.28821300  0.40922000  0.38965800  1
  O  O10  1  0.50000000  0.50000000  0.50000000  1
  O  O11  1  0.00000000  0.00000000  0.50000000  1
  O  O12  1  0.23721900  0.42860300  0.07847600  1
  O  O13  1  0.92860300  0.26278100  0.07847600  1
  O  O14  1  0.07139700  0.73721900  0.07847600  1
  O  O15  1  0.76278100  0.57139700  0.07847600  1
  O  O16  1  0.26278100  0.07139700  0.92152400  1
  O  O17  1  0.57139700  0.23721900  0.92152400  1
  O  O18  1  0.42860300  0.76278100  0.92152400  1
  O  O19  1  0.73721900  0.92860300  0.92152400  1
  O  O20  1  0.60417900  0.78886200  0.46443700  1
  O  O21  1  0.28886200  0.89582100  0.46443700  1
  O  O22  1  0.71113800  0.10417900  0.46443700  1
  O  O23  1  0.39582100  0.21113800  0.46443700  1
  O  O24  1  0.10417900  0.28886200  0.53556300  1
  O  O25  1  0.21113800  0.60417900  0.53556300  1
  O  O26  1  0.78886200  0.39582100  0.53556300  1
  O  O27  1  0.89582100  0.71113800  0.53556300  1
