# generated using pymatgen
data_CaV2O4
_symmetry_space_group_name_H-M   'P 1'
_cell_length_a   6.30176056
_cell_length_b   6.30176056
_cell_length_c   15.47552296
_cell_angle_alpha   89.87511084
_cell_angle_beta   89.87511084
_cell_angle_gamma   59.88871945
_symmetry_Int_Tables_number   1
_chemical_formula_structural   CaV2O4
_chemical_formula_sum   'Ca6 V12 O24'
_cell_volume   531.63100863
_cell_formula_units_Z   6
loop_
 _symmetry_equiv_pos_site_id
 _symmetry_equiv_pos_as_xyz
  1  'x, y, z'
loop_
 _atom_site_type_symbol
 _atom_site_label
 _atom_site_symmetry_multiplicity
 _atom_site_fract_x
 _atom_site_fract_y
 _atom_site_fract_z
 _atom_site_occupancy
  Ca  Ca0  1  0.83333800  0.83333800  0.04481800  1
  Ca  Ca1  1  0.50064100  0.50064100  0.37752800  1
  Ca  Ca2  1  0.49959900  0.49959900  0.00070100  1
  Ca  Ca3  1  0.16644200  0.16644200  0.71021900  1
  Ca  Ca4  1  0.83302600  0.83302600  0.28755600  1
  Ca  Ca5  1  0.50018300  0.50018300  0.62585300  1
  V  V6  1  0.33559900  0.82975900  0.16964600  1
  V  V7  1  0.33486400  0.33486400  0.16992900  1
  V  V8  1  0.99972600  0.50053100  0.49950300  1
  V  V9  1  0.82975900  0.33559900  0.16964600  1
  V  V10  1  0.16657400  0.16657400  0.33489800  1
  V  V11  1  0.00101700  0.00101700  0.49933800  1
  V  V12  1  0.66868700  0.15883600  0.83107400  1
  V  V13  1  0.50053100  0.99972600  0.49950300  1
  V  V14  1  0.15883600  0.66868700  0.83107400  1
  V  V15  1  0.83383600  0.83383600  0.66302800  1
  V  V16  1  0.67050400  0.67050400  0.83112700  1
  V  V17  1  0.16669100  0.16669100  0.95554300  1
  O  O18  1  0.65066600  0.65066600  0.10378100  1
  O  O19  1  0.49979200  0.49979200  0.23814400  1
  O  O20  1  0.19791100  0.65152400  0.10388600  1
  O  O21  1  0.65152400  0.19791100  0.10388600  1
  O  O22  1  0.02859900  0.44485600  0.24484500  1
  O  O23  1  0.30783100  0.30783100  0.41991500  1
  O  O24  1  0.44485600  0.02859900  0.24484500  1
  O  O25  1  0.16697300  0.16697300  0.08076200  1
  O  O26  1  0.87788400  0.31287600  0.42730900  1
  O  O27  1  0.17323200  0.17323200  0.56681700  1
  O  O28  1  0.02781000  0.02781000  0.24571800  1
  O  O29  1  0.31287600  0.87788400  0.42730900  1
  O  O30  1  0.69322100  0.12294500  0.57525600  1
  O  O31  1  0.97442300  0.97442300  0.75175800  1
  O  O32  1  0.12294500  0.69322100  0.57525600  1
  O  O33  1  0.82744800  0.82744800  0.43237600  1
  O  O34  1  0.83456400  0.83456400  0.89773300  1
  O  O35  1  0.55047000  0.96903600  0.75421200  1
  O  O36  1  0.69108800  0.69108800  0.57934100  1
  O  O37  1  0.96903600  0.55047000  0.75421200  1
  O  O38  1  0.32948700  0.83238700  0.90332700  1
  O  O39  1  0.49904700  0.49904700  0.76999000  1
  O  O40  1  0.83238700  0.32948700  0.90332700  1
  O  O41  1  0.33373300  0.33373300  0.90385900  1
