# generated using pymatgen
data_BaMgSbF7
_symmetry_space_group_name_H-M   'P 1'
_cell_length_a   10.72473200
_cell_length_b   5.82403600
_cell_length_c   9.97286763
_cell_angle_alpha   84.76164554
_cell_angle_beta   90.00000000
_cell_angle_gamma   90.00000000
_symmetry_Int_Tables_number   1
_chemical_formula_structural   BaMgSbF7
_chemical_formula_sum   'Ba4 Mg4 Sb4 F28'
_cell_volume   620.31591967
_cell_formula_units_Z   4
loop_
 _symmetry_equiv_pos_site_id
 _symmetry_equiv_pos_as_xyz
  1  'x, y, z'
loop_
 _atom_site_type_symbol
 _atom_site_label
 _atom_site_symmetry_multiplicity
 _atom_site_fract_x
 _atom_site_fract_y
 _atom_site_fract_z
 _atom_site_occupancy
  Ba  Ba0  1  0.33958100  0.73618900  0.47639000  1
  Ba  Ba1  1  0.83958100  0.26381100  0.02361000  1
  Ba  Ba2  1  0.66041900  0.26381100  0.52361000  1
  Ba  Ba3  1  0.16041900  0.73618900  0.97639000  1
  Mg  Mg4  1  0.36626000  0.30193800  0.80274900  1
  Mg  Mg5  1  0.86626000  0.69806200  0.69725100  1
  Mg  Mg6  1  0.13374000  0.30193800  0.30274900  1
  Mg  Mg7  1  0.63374000  0.69806200  0.19725100  1
  Sb  Sb8  1  0.58854300  0.79449400  0.84446500  1
  Sb  Sb9  1  0.41145700  0.20550600  0.15553500  1
  Sb  Sb10  1  0.91145700  0.79449400  0.34446500  1
  Sb  Sb11  1  0.08854300  0.20550600  0.65553500  1
  F  F12  1  0.47624600  0.86736500  0.13696600  1
  F  F13  1  0.11612400  0.57864900  0.40239500  1
  F  F14  1  0.71075400  0.52559800  0.76952500  1
  F  F15  1  0.28924600  0.47440200  0.23047500  1
  F  F16  1  0.46710900  0.11153000  0.35563100  1
  F  F17  1  0.79180000  0.85016900  0.52423100  1
  F  F18  1  0.75166400  0.96610600  0.77071700  1
  F  F19  1  0.96710900  0.88847000  0.14436900  1
  F  F20  1  0.38387600  0.57864900  0.90239500  1
  F  F21  1  0.21075400  0.47440200  0.73047500  1
  F  F22  1  0.02375400  0.86736500  0.63696600  1
  F  F23  1  0.52375400  0.13263500  0.86303400  1
  F  F24  1  0.25166400  0.03389400  0.72928300  1
  F  F25  1  0.95011000  0.59549300  0.86546600  1
  F  F26  1  0.53289100  0.88847000  0.64436900  1
  F  F27  1  0.03289100  0.11153000  0.85563100  1
  F  F28  1  0.24833600  0.03389400  0.22928300  1
  F  F29  1  0.97624600  0.13263500  0.36303400  1
  F  F30  1  0.45011000  0.40450700  0.63453400  1
  F  F31  1  0.88387600  0.42135100  0.59760500  1
  F  F32  1  0.04989000  0.40450700  0.13453400  1
  F  F33  1  0.74833600  0.96610600  0.27071700  1
  F  F34  1  0.54989000  0.59549300  0.36546600  1
  F  F35  1  0.29180000  0.14983100  0.97576900  1
  F  F36  1  0.20820000  0.14983100  0.47576900  1
  F  F37  1  0.70820000  0.85016900  0.02423100  1
  F  F38  1  0.61612400  0.42135100  0.09760500  1
  F  F39  1  0.78924600  0.52559800  0.26952500  1
