# generated using pymatgen
data_P4W3O14
_symmetry_space_group_name_H-M   'P 1'
_cell_length_a   8.14036600
_cell_length_b   7.63856700
_cell_length_c   9.75324319
_cell_angle_alpha   71.10666464
_cell_angle_beta   90.00000000
_cell_angle_gamma   90.00000000
_symmetry_Int_Tables_number   1
_chemical_formula_structural   P4W3O14
_chemical_formula_sum   'P8 W6 O28'
_cell_volume   573.78936062
_cell_formula_units_Z   2
loop_
 _symmetry_equiv_pos_site_id
 _symmetry_equiv_pos_as_xyz
  1  'x, y, z'
loop_
 _atom_site_type_symbol
 _atom_site_label
 _atom_site_symmetry_multiplicity
 _atom_site_fract_x
 _atom_site_fract_y
 _atom_site_fract_z
 _atom_site_occupancy
  P  P0  1  0.69892600  0.87439800  0.30344800  1
  P  P1  1  0.06440500  0.58701800  0.79467500  1
  P  P2  1  0.43559500  0.58701800  0.29467500  1
  P  P3  1  0.56440500  0.41298200  0.70532500  1
  P  P4  1  0.93559500  0.41298200  0.20532500  1
  P  P5  1  0.30107400  0.12560200  0.69655200  1
  P  P6  1  0.80107400  0.87439800  0.80344800  1
  P  P7  1  0.19892600  0.12560200  0.19655200  1
  W  W8  1  0.63046100  0.19548100  0.47112000  1
  W  W9  1  0.86953900  0.19548100  0.97112000  1
  W  W10  1  0.13046100  0.80451900  0.02888000  1
  W  W11  1  0.50000000  0.00000000  0.00000000  1
  W  W12  1  0.36953900  0.80451900  0.52888000  1
  W  W13  1  0.00000000  0.00000000  0.50000000  1
  O  O14  1  0.64775800  0.31635900  0.85069200  1
  O  O15  1  0.71013200  0.00142700  0.14179200  1
  O  O16  1  0.07309600  0.04179600  0.11156900  1
  O  O17  1  0.36272600  0.15443800  0.12164200  1
  O  O18  1  0.78986800  0.00142700  0.64179200  1
  O  O19  1  0.42690400  0.04179600  0.61156900  1
  O  O20  1  0.28986800  0.99857300  0.85820800  1
  O  O21  1  0.92690400  0.95820400  0.88843100  1
  O  O22  1  0.63727400  0.84556200  0.87835800  1
  O  O23  1  0.21013200  0.99857300  0.35820800  1
  O  O24  1  0.57309600  0.95820400  0.38843100  1
  O  O25  1  0.88306600  0.68963900  0.79381100  1
  O  O26  1  0.16107200  0.61049900  0.92129300  1
  O  O27  1  0.86272600  0.84556200  0.37835800  1
  O  O28  1  0.14775800  0.68364100  0.64930800  1
  O  O29  1  0.51851900  0.61225500  0.68602600  1
  O  O30  1  0.61693400  0.68963900  0.29381100  1
  O  O31  1  0.83892800  0.38950100  0.07870700  1
  O  O32  1  0.35224200  0.68364100  0.14930800  1
  O  O33  1  0.01851900  0.38774500  0.81397400  1
  O  O34  1  0.98148100  0.61225500  0.18602600  1
  O  O35  1  0.11693400  0.31036100  0.20618900  1
  O  O36  1  0.66107200  0.38950100  0.57870700  1
  O  O37  1  0.38306600  0.31036100  0.70618900  1
  O  O38  1  0.48148100  0.38774500  0.31397400  1
  O  O39  1  0.85224200  0.31635900  0.35069200  1
  O  O40  1  0.13727400  0.15443800  0.62164200  1
  O  O41  1  0.33892800  0.61049900  0.42129300  1
