# generated using pymatgen
data_Mn2P2O9
_symmetry_space_group_name_H-M   'P 1'
_cell_length_a   6.21688600
_cell_length_b   7.66278800
_cell_length_c   13.83812000
_cell_angle_alpha   90.00000000
_cell_angle_beta   90.00000000
_cell_angle_gamma   90.00000000
_symmetry_Int_Tables_number   1
_chemical_formula_structural   Mn2P2O9
_chemical_formula_sum   'Mn8 P8 O36'
_cell_volume   659.22976271
_cell_formula_units_Z   4
loop_
 _symmetry_equiv_pos_site_id
 _symmetry_equiv_pos_as_xyz
  1  'x, y, z'
loop_
 _atom_site_type_symbol
 _atom_site_label
 _atom_site_symmetry_multiplicity
 _atom_site_fract_x
 _atom_site_fract_y
 _atom_site_fract_z
 _atom_site_occupancy
  Mn  Mn0  1  0.25000000  0.85402800  0.37495000  1
  Mn  Mn1  1  0.75000000  0.14597200  0.62505000  1
  Mn  Mn2  1  0.75000000  0.35402800  0.12505000  1
  Mn  Mn3  1  0.25000000  0.64597200  0.87495000  1
  Mn  Mn4  1  0.00000000  0.50000000  0.50000000  1
  Mn  Mn5  1  0.00000000  0.00000000  0.00000000  1
  Mn  Mn6  1  0.50000000  0.00000000  0.00000000  1
  Mn  Mn7  1  0.50000000  0.50000000  0.50000000  1
  P  P8  1  0.75000000  0.85447500  0.43651600  1
  P  P9  1  0.25000000  0.14552500  0.56348400  1
  P  P10  1  0.25000000  0.35447500  0.06348400  1
  P  P11  1  0.75000000  0.64552500  0.93651600  1
  P  P12  1  0.25000000  0.89637300  0.18963500  1
  P  P13  1  0.25000000  0.60362700  0.68963500  1
  P  P14  1  0.75000000  0.39637300  0.31036500  1
  P  P15  1  0.75000000  0.10362700  0.81036500  1
  O  O16  1  0.54542200  0.09240100  0.87372400  1
  O  O17  1  0.04542200  0.90759900  0.12627600  1
  O  O18  1  0.45457800  0.59240100  0.62627600  1
  O  O19  1  0.95457800  0.40759900  0.37372400  1
  O  O20  1  0.45457800  0.90759900  0.12627600  1
  O  O21  1  0.95457800  0.09240100  0.87372400  1
  O  O22  1  0.54542200  0.40759900  0.37372400  1
  O  O23  1  0.04542200  0.59240100  0.62627600  1
  O  O24  1  0.75000000  0.83771900  0.98593300  1
  O  O25  1  0.25000000  0.16228100  0.01406700  1
  O  O26  1  0.25000000  0.33771900  0.51406700  1
  O  O27  1  0.75000000  0.66228100  0.48593300  1
  O  O28  1  0.25000000  0.63765700  0.45296000  1
  O  O29  1  0.75000000  0.36234300  0.54704000  1
  O  O30  1  0.75000000  0.13765700  0.04704000  1
  O  O31  1  0.25000000  0.86234300  0.95296000  1
  O  O32  1  0.25000000  0.72609200  0.25268400  1
  O  O33  1  0.75000000  0.27390800  0.74731600  1
  O  O34  1  0.75000000  0.22609200  0.24731600  1
  O  O35  1  0.25000000  0.77390800  0.75268400  1
  O  O36  1  0.94585600  0.64440800  0.87105900  1
  O  O37  1  0.44585600  0.35559200  0.12894100  1
  O  O38  1  0.05414400  0.14440800  0.62894100  1
  O  O39  1  0.55414400  0.85559200  0.37105900  1
  O  O40  1  0.05414400  0.35559200  0.12894100  1
  O  O41  1  0.55414400  0.64440800  0.87105900  1
  O  O42  1  0.94585600  0.85559200  0.37105900  1
  O  O43  1  0.44585600  0.14440800  0.62894100  1
  O  O44  1  0.25000000  0.00977900  0.48546400  1
  O  O45  1  0.75000000  0.53279000  0.22591600  1
  O  O46  1  0.75000000  0.96721000  0.72591600  1
  O  O47  1  0.25000000  0.03279000  0.27408400  1
  O  O48  1  0.25000000  0.49022100  0.98546400  1
  O  O49  1  0.75000000  0.50977900  0.01453600  1
  O  O50  1  0.75000000  0.99022100  0.51453600  1
  O  O51  1  0.25000000  0.46721000  0.77408400  1
