# generated using pymatgen
data_CaSb4O9
_symmetry_space_group_name_H-M   'P 1'
_cell_length_a   5.51707100
_cell_length_b   8.93420062
_cell_length_c   9.83220220
_cell_angle_alpha   95.46459883
_cell_angle_beta   98.51408223
_cell_angle_gamma   92.53304413
_symmetry_Int_Tables_number   1
_chemical_formula_structural   CaSb4O9
_chemical_formula_sum   'Ca2 Sb8 O18'
_cell_volume   476.27895528
_cell_formula_units_Z   2
loop_
 _symmetry_equiv_pos_site_id
 _symmetry_equiv_pos_as_xyz
  1  'x, y, z'
loop_
 _atom_site_type_symbol
 _atom_site_label
 _atom_site_symmetry_multiplicity
 _atom_site_fract_x
 _atom_site_fract_y
 _atom_site_fract_z
 _atom_site_occupancy
  Ca  Ca0  1  0.19178600  0.26484500  0.23097200  1
  Ca  Ca1  1  0.80821400  0.73515500  0.76902800  1
  Sb  Sb2  1  0.75936600  0.57708400  0.43657800  1
  Sb  Sb3  1  0.28035300  0.80890700  0.50359700  1
  Sb  Sb4  1  0.61119400  0.34727100  0.97370700  1
  Sb  Sb5  1  0.32950200  0.02383300  0.84709100  1
  Sb  Sb6  1  0.67049800  0.97616700  0.15290900  1
  Sb  Sb7  1  0.71964700  0.19109300  0.49640300  1
  Sb  Sb8  1  0.24063400  0.42291600  0.56342200  1
  Sb  Sb9  1  0.38880600  0.65272900  0.02629300  1
  O  O10  1  0.56744500  0.76815400  0.19397300  1
  O  O11  1  0.43255500  0.23184600  0.80602700  1
  O  O12  1  0.06059300  0.67247500  0.96476100  1
  O  O13  1  0.89401400  0.48178000  0.61220500  1
  O  O14  1  0.99453200  0.98299200  0.83564300  1
  O  O15  1  0.95696900  0.77458500  0.56188700  1
  O  O16  1  0.93940700  0.32752500  0.03523900  1
  O  O17  1  0.10598600  0.51822000  0.38779500  1
  O  O18  1  0.00546800  0.01700800  0.16435700  1
  O  O19  1  0.04303100  0.22541500  0.43811300  1
  O  O20  1  0.55626600  0.06066000  0.31891600  1
  O  O21  1  0.47348000  0.13641200  0.04655200  1
  O  O22  1  0.53587900  0.35296000  0.40544000  1
  O  O23  1  0.43350800  0.45423800  0.11164000  1
  O  O24  1  0.56649200  0.54576200  0.88836000  1
  O  O25  1  0.52652000  0.86358800  0.95344800  1
  O  O26  1  0.46412100  0.64704000  0.59456000  1
  O  O27  1  0.44373400  0.93934000  0.68108400  1
