# generated using pymatgen
data_MgCu2(MoO4)2
_symmetry_space_group_name_H-M   'P 1'
_cell_length_a   8.56239900
_cell_length_b   6.74732000
_cell_length_c   12.32876465
_cell_angle_alpha   88.81456865
_cell_angle_beta   90.00000000
_cell_angle_gamma   90.00000000
_symmetry_Int_Tables_number   1
_chemical_formula_structural   MgCu2(MoO4)2
_chemical_formula_sum   'Mg4 Cu8 Mo8 O32'
_cell_volume   712.12030988
_cell_formula_units_Z   4
loop_
 _symmetry_equiv_pos_site_id
 _symmetry_equiv_pos_as_xyz
  1  'x, y, z'
loop_
 _atom_site_type_symbol
 _atom_site_label
 _atom_site_symmetry_multiplicity
 _atom_site_fract_x
 _atom_site_fract_y
 _atom_site_fract_z
 _atom_site_occupancy
  Mg  Mg0  1  0.83902500  0.88686000  0.05008000  1
  Mg  Mg1  1  0.16097500  0.11314000  0.94992000  1
  Mg  Mg2  1  0.33902500  0.11314000  0.44992000  1
  Mg  Mg3  1  0.66097500  0.88686000  0.55008000  1
  Cu  Cu4  1  0.81844100  0.23332500  0.87033200  1
  Cu  Cu5  1  0.94537700  0.62145800  0.62221700  1
  Cu  Cu6  1  0.05462300  0.37854200  0.37778300  1
  Cu  Cu7  1  0.18155900  0.76667500  0.12966800  1
  Cu  Cu8  1  0.68155900  0.23332500  0.37033200  1
  Cu  Cu9  1  0.55462300  0.62145800  0.12221700  1
  Cu  Cu10  1  0.31844100  0.76667500  0.62966800  1
  Cu  Cu11  1  0.44537700  0.37854200  0.87778300  1
  Mo  Mo12  1  0.54038400  0.89764700  0.84567400  1
  Mo  Mo13  1  0.95961600  0.89764700  0.34567400  1
  Mo  Mo14  1  0.91605000  0.38786900  0.13192200  1
  Mo  Mo15  1  0.04038400  0.10235300  0.65432600  1
  Mo  Mo16  1  0.08395000  0.61213100  0.86807800  1
  Mo  Mo17  1  0.41605000  0.61213100  0.36807800  1
  Mo  Mo18  1  0.58395000  0.38786900  0.63192200  1
  Mo  Mo19  1  0.45961600  0.10235300  0.15432600  1
  O  O20  1  0.76564300  0.95660500  0.39905400  1
  O  O21  1  0.98635200  0.33882800  0.59804500  1
  O  O22  1  0.42757500  0.81896900  0.46722800  1
  O  O23  1  0.92757500  0.18103100  0.03277200  1
  O  O24  1  0.73435700  0.95660500  0.89905400  1
  O  O25  1  0.23435700  0.04339500  0.60094600  1
  O  O26  1  0.89143600  0.92185400  0.61322700  1
  O  O27  1  0.10514800  0.49215900  0.13720000  1
  O  O28  1  0.39485200  0.49215900  0.63720000  1
  O  O29  1  0.13097000  0.69175300  0.72919300  1
  O  O30  1  0.63097000  0.30824700  0.77080700  1
  O  O31  1  0.89485200  0.50784100  0.86280000  1
  O  O32  1  0.10856400  0.07814600  0.38677300  1
  O  O33  1  0.45742000  0.12178500  0.30101900  1
  O  O34  1  0.71258700  0.58828300  0.58505900  1
  O  O35  1  0.78741300  0.58828300  0.08505900  1
  O  O36  1  0.95742000  0.87821500  0.19898100  1
  O  O37  1  0.60514800  0.50784100  0.36280000  1
  O  O38  1  0.54258000  0.87821500  0.69898100  1
  O  O39  1  0.57242500  0.18103100  0.53277200  1
  O  O40  1  0.51364800  0.33882800  0.09804500  1
  O  O41  1  0.86903000  0.30824700  0.27080700  1
  O  O42  1  0.26564300  0.04339500  0.10094600  1
  O  O43  1  0.60856400  0.92185400  0.11322700  1
  O  O44  1  0.07242500  0.81896900  0.96722800  1
  O  O45  1  0.21258700  0.41171700  0.91494100  1
  O  O46  1  0.01364800  0.66117200  0.40195500  1
  O  O47  1  0.48635200  0.66117200  0.90195500  1
  O  O48  1  0.39143600  0.07814600  0.88677300  1
  O  O49  1  0.28741300  0.41171700  0.41494100  1
  O  O50  1  0.36903000  0.69175300  0.22919300  1
  O  O51  1  0.04258000  0.12178500  0.80101900  1
