# generated using pymatgen
data_V2ZnP2O9
_symmetry_space_group_name_H-M   'P 1'
_cell_length_a   6.30484700
_cell_length_b   7.44561200
_cell_length_c   14.32497600
_cell_angle_alpha   90.00000000
_cell_angle_beta   90.00000000
_cell_angle_gamma   90.00000000
_symmetry_Int_Tables_number   1
_chemical_formula_structural   V2ZnP2O9
_chemical_formula_sum   'V8 Zn4 P8 O36'
_cell_volume   672.46371555
_cell_formula_units_Z   4
loop_
 _symmetry_equiv_pos_site_id
 _symmetry_equiv_pos_as_xyz
  1  'x, y, z'
loop_
 _atom_site_type_symbol
 _atom_site_label
 _atom_site_symmetry_multiplicity
 _atom_site_fract_x
 _atom_site_fract_y
 _atom_site_fract_z
 _atom_site_occupancy
  V  V0  1  0.75000000  0.85286400  0.87759500  1
  V  V1  1  0.25000000  0.14713600  0.12240500  1
  V  V2  1  0.25000000  0.35286400  0.62240500  1
  V  V3  1  0.75000000  0.64713600  0.37759500  1
  V  V4  1  0.50000000  0.50000000  0.00000000  1
  V  V5  1  0.50000000  0.00000000  0.50000000  1
  V  V6  1  0.00000000  0.00000000  0.50000000  1
  V  V7  1  0.00000000  0.50000000  0.00000000  1
  Zn  Zn8  1  0.75000000  0.42951600  0.76876700  1
  Zn  Zn9  1  0.75000000  0.07048400  0.26876700  1
  Zn  Zn10  1  0.25000000  0.92951600  0.73123300  1
  Zn  Zn11  1  0.25000000  0.57048400  0.23123300  1
  P  P12  1  0.25000000  0.86642200  0.92935600  1
  P  P13  1  0.75000000  0.13357800  0.07064400  1
  P  P14  1  0.75000000  0.36642200  0.57064400  1
  P  P15  1  0.25000000  0.63357800  0.42935600  1
  P  P16  1  0.75000000  0.88644700  0.69416200  1
  P  P17  1  0.75000000  0.61355300  0.19416200  1
  P  P18  1  0.25000000  0.38644700  0.80583800  1
  P  P19  1  0.25000000  0.11355300  0.30583800  1
  O  O20  1  0.03912200  0.10514900  0.36398800  1
  O  O21  1  0.53912200  0.89485100  0.63601200  1
  O  O22  1  0.96087800  0.60514900  0.13601200  1
  O  O23  1  0.46087800  0.39485100  0.86398800  1
  O  O24  1  0.96087800  0.89485100  0.63601200  1
  O  O25  1  0.46087800  0.10514900  0.36398800  1
  O  O26  1  0.03912200  0.39485100  0.86398800  1
  O  O27  1  0.53912200  0.60514900  0.13601200  1
  O  O28  1  0.25000000  0.82295900  0.47490700  1
  O  O29  1  0.75000000  0.17704100  0.52509300  1
  O  O30  1  0.75000000  0.32295900  0.02509300  1
  O  O31  1  0.25000000  0.67704100  0.97490700  1
  O  O32  1  0.75000000  0.63233800  0.95285300  1
  O  O33  1  0.25000000  0.36766200  0.04714700  1
  O  O34  1  0.25000000  0.13233800  0.54714700  1
  O  O35  1  0.75000000  0.86766200  0.45285300  1
  O  O36  1  0.75000000  0.70688000  0.75298500  1
  O  O37  1  0.25000000  0.29312000  0.24701500  1
  O  O38  1  0.25000000  0.20688000  0.74701500  1
  O  O39  1  0.75000000  0.79312000  0.25298500  1
  O  O40  1  0.43766200  0.62216500  0.35864800  1
  O  O41  1  0.93766200  0.37783500  0.64135200  1
  O  O42  1  0.56233800  0.12216500  0.14135200  1
  O  O43  1  0.06233800  0.87783500  0.85864800  1
  O  O44  1  0.56233800  0.37783500  0.64135200  1
  O  O45  1  0.06233800  0.62216500  0.35864800  1
  O  O46  1  0.43766200  0.87783500  0.85864800  1
  O  O47  1  0.93766200  0.12216500  0.14135200  1
  O  O48  1  0.75000000  0.98843500  0.99859100  1
  O  O49  1  0.25000000  0.53811000  0.73199700  1
  O  O50  1  0.25000000  0.96189000  0.23199700  1
  O  O51  1  0.75000000  0.03811000  0.76800300  1
  O  O52  1  0.75000000  0.51156500  0.49859100  1
  O  O53  1  0.25000000  0.48843500  0.50140900  1
  O  O54  1  0.25000000  0.01156500  0.00140900  1
  O  O55  1  0.75000000  0.46189000  0.26800300  1
