# generated using pymatgen
data_CuMoO4
_symmetry_space_group_name_H-M   'P 1'
_cell_length_a   8.88857700
_cell_length_b   6.69547400
_cell_length_c   12.13386537
_cell_angle_alpha   89.82228356
_cell_angle_beta   90.00000000
_cell_angle_gamma   90.00000000
_symmetry_Int_Tables_number   1
_chemical_formula_structural   CuMoO4
_chemical_formula_sum   'Cu8 Mo8 O32'
_cell_volume   722.12212200
_cell_formula_units_Z   8
loop_
 _symmetry_equiv_pos_site_id
 _symmetry_equiv_pos_as_xyz
  1  'x, y, z'
loop_
 _atom_site_type_symbol
 _atom_site_label
 _atom_site_symmetry_multiplicity
 _atom_site_fract_x
 _atom_site_fract_y
 _atom_site_fract_z
 _atom_site_occupancy
  Cu  Cu0  1  0.83975200  0.21581800  0.87949900  1
  Cu  Cu1  1  0.95484200  0.62722300  0.61415500  1
  Cu  Cu2  1  0.04515800  0.37277700  0.38584500  1
  Cu  Cu3  1  0.16024800  0.78418200  0.12050100  1
  Cu  Cu4  1  0.66024800  0.21581800  0.37949900  1
  Cu  Cu5  1  0.54515800  0.62722300  0.11415500  1
  Cu  Cu6  1  0.33975200  0.78418200  0.62050100  1
  Cu  Cu7  1  0.45484200  0.37277700  0.88584500  1
  Mo  Mo8  1  0.55021600  0.89507500  0.85724600  1
  Mo  Mo9  1  0.94978400  0.89507500  0.35724600  1
  Mo  Mo10  1  0.90222000  0.40411000  0.14091200  1
  Mo  Mo11  1  0.05021600  0.10492500  0.64275400  1
  Mo  Mo12  1  0.09778000  0.59589000  0.85908800  1
  Mo  Mo13  1  0.40222000  0.59589000  0.35908800  1
  Mo  Mo14  1  0.59778000  0.40411000  0.64091200  1
  Mo  Mo15  1  0.44978400  0.10492500  0.14275400  1
  O  O16  1  0.75456000  0.95911100  0.37569000  1
  O  O17  1  0.00182900  0.35027000  0.58510200  1
  O  O18  1  0.37815400  0.79301700  0.45557600  1
  O  O19  1  0.87815400  0.20698300  0.04442400  1
  O  O20  1  0.74544000  0.95911100  0.87569000  1
  O  O21  1  0.24544000  0.04088900  0.62431000  1
  O  O22  1  0.92602000  0.91029400  0.59140900  1
  O  O23  1  0.08788400  0.51423500  0.12631000  1
  O  O24  1  0.41211600  0.51423500  0.62631000  1
  O  O25  1  0.12635600  0.68537700  0.71476000  1
  O  O26  1  0.62635600  0.31462300  0.78524000  1
  O  O27  1  0.91211600  0.48576500  0.87369000  1
  O  O28  1  0.07398000  0.08970600  0.40859100  1
  O  O29  1  0.48500800  0.12648000  0.28630000  1
  O  O30  1  0.73867100  0.58401700  0.61154800  1
  O  O31  1  0.76132900  0.58401700  0.11154800  1
  O  O32  1  0.98500800  0.87352000  0.21370000  1
  O  O33  1  0.58788400  0.48576500  0.37369000  1
  O  O34  1  0.51499200  0.87352000  0.71370000  1
  O  O35  1  0.62184600  0.20698300  0.54442400  1
  O  O36  1  0.49817100  0.35027000  0.08510200  1
  O  O37  1  0.87364400  0.31462300  0.28524000  1
  O  O38  1  0.25456000  0.04088900  0.12431000  1
  O  O39  1  0.57398000  0.91029400  0.09140900  1
  O  O40  1  0.12184600  0.79301700  0.95557600  1
  O  O41  1  0.23867100  0.41598300  0.88845200  1
  O  O42  1  0.99817100  0.64973000  0.41489800  1
  O  O43  1  0.50182900  0.64973000  0.91489800  1
  O  O44  1  0.42602000  0.08970600  0.90859100  1
  O  O45  1  0.26132900  0.41598300  0.38845200  1
  O  O46  1  0.37364400  0.68537700  0.21476000  1
  O  O47  1  0.01499200  0.12648000  0.78630000  1
