# generated using pymatgen
data_MgSn4O9
_symmetry_space_group_name_H-M   'P 1'
_cell_length_a   8.15665800
_cell_length_b   8.15665800
_cell_length_c   5.06677200
_cell_angle_alpha   90.00000000
_cell_angle_beta   90.00000000
_cell_angle_gamma   90.00000000
_symmetry_Int_Tables_number   1
_chemical_formula_structural   MgSn4O9
_chemical_formula_sum   'Mg2 Sn8 O18'
_cell_volume   337.09776123
_cell_formula_units_Z   2
loop_
 _symmetry_equiv_pos_site_id
 _symmetry_equiv_pos_as_xyz
  1  'x, y, z'
loop_
 _atom_site_type_symbol
 _atom_site_label
 _atom_site_symmetry_multiplicity
 _atom_site_fract_x
 _atom_site_fract_y
 _atom_site_fract_z
 _atom_site_occupancy
  Mg  Mg0  1  0.00000000  0.50000000  0.71985000  1
  Mg  Mg1  1  0.50000000  0.00000000  0.28015000  1
  Sn  Sn2  1  0.68803700  0.38631600  0.26851500  1
  Sn  Sn3  1  0.38631600  0.31196300  0.73148500  1
  Sn  Sn4  1  0.88631600  0.81196300  0.26851500  1
  Sn  Sn5  1  0.18803700  0.88631600  0.73148500  1
  Sn  Sn6  1  0.31196300  0.61368400  0.26851500  1
  Sn  Sn7  1  0.11368400  0.18803700  0.26851500  1
  Sn  Sn8  1  0.81196300  0.11368400  0.73148500  1
  Sn  Sn9  1  0.61368400  0.68803700  0.73148500  1
  O  O10  1  0.50000000  0.50000000  0.50000000  1
  O  O11  1  0.00000000  0.00000000  0.50000000  1
  O  O12  1  0.50413900  0.74625700  0.08255300  1
  O  O13  1  0.75374300  0.00413900  0.08255300  1
  O  O14  1  0.24625700  0.99586100  0.08255300  1
  O  O15  1  0.49586100  0.25374300  0.08255300  1
  O  O16  1  0.99586100  0.75374300  0.91744700  1
  O  O17  1  0.74625700  0.49586100  0.91744700  1
  O  O18  1  0.25374300  0.50413900  0.91744700  1
  O  O19  1  0.00413900  0.24625700  0.91744700  1
  O  O20  1  0.20558900  0.39695400  0.44197300  1
  O  O21  1  0.10304600  0.70558900  0.44197300  1
  O  O22  1  0.89695400  0.29441100  0.44197300  1
  O  O23  1  0.79441100  0.60304600  0.44197300  1
  O  O24  1  0.70558900  0.89695400  0.55802700  1
  O  O25  1  0.39695400  0.79441100  0.55802700  1
  O  O26  1  0.60304600  0.20558900  0.55802700  1
  O  O27  1  0.29441100  0.10304600  0.55802700  1
