# generated using pymatgen
data_MgBi3P3O13
_symmetry_space_group_name_H-M   'P 1'
_cell_length_a   7.11563300
_cell_length_b   8.47175800
_cell_length_c   10.94178159
_cell_angle_alpha   79.35974139
_cell_angle_beta   90.00000000
_cell_angle_gamma   90.00000000
_symmetry_Int_Tables_number   1
_chemical_formula_structural   MgBi3P3O13
_chemical_formula_sum   'Mg2 Bi6 P6 O26'
_cell_volume   648.25049669
_cell_formula_units_Z   2
loop_
 _symmetry_equiv_pos_site_id
 _symmetry_equiv_pos_as_xyz
  1  'x, y, z'
loop_
 _atom_site_type_symbol
 _atom_site_label
 _atom_site_symmetry_multiplicity
 _atom_site_fract_x
 _atom_site_fract_y
 _atom_site_fract_z
 _atom_site_occupancy
  Mg  Mg0  1  0.75000000  0.42476800  0.16446000  1
  Mg  Mg1  1  0.25000000  0.57523200  0.83554000  1
  Bi  Bi2  1  0.25000000  0.64336700  0.23168100  1
  Bi  Bi3  1  0.75000000  0.35663300  0.76831900  1
  Bi  Bi4  1  0.25000000  0.19924500  0.43411500  1
  Bi  Bi5  1  0.50000000  0.00000000  0.00000000  1
  Bi  Bi6  1  0.75000000  0.80075500  0.56588500  1
  Bi  Bi7  1  0.00000000  0.00000000  0.00000000  1
  P  P8  1  0.25000000  0.77052200  0.52495700  1
  P  P9  1  0.75000000  0.22947800  0.47504300  1
  P  P10  1  0.25000000  0.28199000  0.76239500  1
  P  P11  1  0.75000000  0.71801000  0.23760500  1
  P  P12  1  0.75000000  0.67354200  0.89958800  1
  P  P13  1  0.25000000  0.32645800  0.10041200  1
  O  O14  1  0.75000000  0.64159800  0.76160500  1
  O  O15  1  0.57557600  0.24958600  0.38775400  1
  O  O16  1  0.25000000  0.23434800  0.63526200  1
  O  O17  1  0.56508800  0.76461800  0.91507900  1
  O  O18  1  0.75000000  0.35716900  0.56049000  1
  O  O19  1  0.75000000  0.12272500  0.89012900  1
  O  O20  1  0.25000000  0.64283100  0.43951000  1
  O  O21  1  0.06508800  0.23538200  0.08492100  1
  O  O22  1  0.25000000  0.93880200  0.43593700  1
  O  O23  1  0.75000000  0.06119800  0.56406300  1
  O  O24  1  0.08209700  0.39338900  0.78372100  1
  O  O25  1  0.25000000  0.87727500  0.10987100  1
  O  O26  1  0.58209700  0.60661100  0.21627900  1
  O  O27  1  0.75000000  0.50222000  0.98131200  1
  O  O28  1  0.75000000  0.76565200  0.36473800  1
  O  O29  1  0.43491200  0.23538200  0.08492100  1
  O  O30  1  0.92442400  0.24958600  0.38775400  1
  O  O31  1  0.42442400  0.75041400  0.61224600  1
  O  O32  1  0.41790300  0.39338900  0.78372100  1
  O  O33  1  0.25000000  0.35840200  0.23839500  1
  O  O34  1  0.75000000  0.87616600  0.13751700  1
  O  O35  1  0.25000000  0.12383400  0.86248300  1
  O  O36  1  0.91790300  0.60661100  0.21627900  1
  O  O37  1  0.93491200  0.76461800  0.91507900  1
  O  O38  1  0.07557600  0.75041400  0.61224600  1
  O  O39  1  0.25000000  0.49778000  0.01868800  1
