# generated using pymatgen
data_Ca(WO2)2
_symmetry_space_group_name_H-M   'P 1'
_cell_length_a   6.63856300
_cell_length_b   6.67497065
_cell_length_c   16.10556418
_cell_angle_alpha   90.48232738
_cell_angle_beta   90.92919951
_cell_angle_gamma   119.59925505
_symmetry_Int_Tables_number   1
_chemical_formula_structural   Ca(WO2)2
_chemical_formula_sum   'Ca6 W12 O24'
_cell_volume   620.34742115
_cell_formula_units_Z   6
loop_
 _symmetry_equiv_pos_site_id
 _symmetry_equiv_pos_as_xyz
  1  'x, y, z'
loop_
 _atom_site_type_symbol
 _atom_site_label
 _atom_site_symmetry_multiplicity
 _atom_site_fract_x
 _atom_site_fract_y
 _atom_site_fract_z
 _atom_site_occupancy
  Ca  Ca0  1  0.83956000  0.69040000  0.95878400  1
  Ca  Ca1  1  0.50587600  0.99945000  0.62484700  1
  Ca  Ca2  1  0.17925600  0.34253000  0.66507600  1
  Ca  Ca3  1  0.16164200  0.31231100  0.28138200  1
  Ca  Ca4  1  0.49118600  0.00869800  0.00239200  1
  Ca  Ca5  1  0.50090400  0.98106400  0.37594500  1
  W  W6  1  0.33789500  0.69069300  0.83134000  1
  W  W7  1  0.83452200  0.19090200  0.83651300  1
  W  W8  1  0.00444700  0.98977800  0.49935400  1
  W  W9  1  0.34588300  0.19631900  0.83656100  1
  W  W10  1  0.50240000  0.48781800  0.49969500  1
  W  W11  1  0.83316400  0.64788000  0.33408200  1
  W  W12  1  0.91349800  0.74263500  0.70805800  1
  W  W13  1  0.65306200  0.31712400  0.16853500  1
  W  W14  1  0.00405400  0.48714400  0.49742200  1
  W  W15  1  0.15846000  0.81707700  0.16591900  1
  W  W16  1  0.65733700  0.81211600  0.16877200  1
  W  W17  1  0.10291400  0.34028900  0.04226500  1
  O  O18  1  0.64031500  0.32079800  0.90578400  1
  O  O19  1  0.50230600  0.02515800  0.76662600  1
  O  O20  1  0.20177200  0.88675100  0.89902400  1
  O  O21  1  0.65634200  0.87354700  0.90512900  1
  O  O22  1  0.30986700  0.63003600  0.56491100  1
  O  O23  1  0.00416300  0.49044400  0.75182400  1
  O  O24  1  0.16457800  0.31813700  0.42949700  1
  O  O25  1  0.46120500  0.48318900  0.76582200  1
  O  O26  1  0.18504900  0.36974200  0.90376500  1
  O  O27  1  0.86844200  0.19003000  0.56373500  1
  O  O28  1  0.32608600  0.17667600  0.57040100  1
  O  O29  1  0.01931100  0.05186300  0.76632800  1
  O  O30  1  0.96967300  0.93124100  0.24905500  1
  O  O31  1  0.68799400  0.79372100  0.42292300  1
  O  O32  1  0.12667200  0.78786700  0.42587500  1
  O  O33  1  0.81914900  0.64496900  0.10170800  1
  O  O34  1  0.84530100  0.65041000  0.56936200  1
  O  O35  1  0.53853700  0.50890800  0.24777200  1
  O  O36  1  0.97688200  0.50622800  0.24485400  1
  O  O37  1  0.69657000  0.36085300  0.42483000  1
  O  O38  1  0.32468100  0.14021100  0.10027000  1
  O  O39  1  0.80556000  0.13194100  0.10126800  1
  O  O40  1  0.49443900  0.98631100  0.23585200  1
  O  O41  1  0.34905400  0.68674600  0.08644400  1
