# generated using pymatgen
data_Ca(WO2)2
_symmetry_space_group_name_H-M   'P 1'
_cell_length_a   6.56585600
_cell_length_b   6.66342614
_cell_length_c   16.22623040
_cell_angle_alpha   90.87882184
_cell_angle_beta   89.99685030
_cell_angle_gamma   119.28692834
_symmetry_Int_Tables_number   1
_chemical_formula_structural   Ca(WO2)2
_chemical_formula_sum   'Ca6 W12 O24'
_cell_volume   619.07921488
_cell_formula_units_Z   6
loop_
 _symmetry_equiv_pos_site_id
 _symmetry_equiv_pos_as_xyz
  1  'x, y, z'
loop_
 _atom_site_type_symbol
 _atom_site_label
 _atom_site_symmetry_multiplicity
 _atom_site_fract_x
 _atom_site_fract_y
 _atom_site_fract_z
 _atom_site_occupancy
  Ca  Ca0  1  0.16777900  0.33312000  0.04308100  1
  Ca  Ca1  1  0.49644800  0.99391800  0.37584900  1
  Ca  Ca2  1  0.50487800  0.00341200  0.00212700  1
  Ca  Ca3  1  0.83844200  0.67226600  0.71227400  1
  Ca  Ca4  1  0.16433700  0.32787000  0.28910300  1
  Ca  Ca5  1  0.49831900  0.99740300  0.62225700  1
  W  W6  1  0.16834500  0.83262300  0.16795900  1
  W  W7  1  0.66377900  0.32712600  0.16815700  1
  W  W8  1  0.49768000  0.49527700  0.50014900  1
  W  W9  1  0.66401100  0.83239000  0.16805200  1
  W  W10  1  0.83114100  0.66221800  0.33393200  1
  W  W11  1  0.99714300  0.99514600  0.50082400  1
  W  W12  1  0.83601600  0.17165800  0.83125400  1
  W  W13  1  0.99701500  0.49530200  0.50036000  1
  W  W14  1  0.33715800  0.17243000  0.83092700  1
  W  W15  1  0.16876300  0.33470900  0.66605700  1
  W  W16  1  0.33492600  0.66944100  0.83189900  1
  W  W17  1  0.86791700  0.73455400  0.97475400  1
  O  O18  1  0.34903700  0.69754000  0.09175200  1
  O  O19  1  0.50028100  0.00176900  0.23612800  1
  O  O20  1  0.34189400  0.14677200  0.09687600  1
  O  O21  1  0.80628300  0.14669200  0.09645100  1
  O  O22  1  0.54088700  0.52352200  0.24497400  1
  O  O23  1  0.68590200  0.37107900  0.42089000  1
  O  O24  1  0.98255200  0.52313500  0.24460300  1
  O  O25  1  0.82529400  0.65099100  0.09748300  1
  O  O26  1  0.68044600  0.80386400  0.42461100  1
  O  O27  1  0.83297300  0.66819000  0.56949700  1
  O  O28  1  0.97447800  0.95026800  0.24829500  1
  O  O29  1  0.12265600  0.80326000  0.42437100  1
  O  O30  1  0.87516500  0.18959600  0.57870800  1
  O  O31  1  0.03460800  0.05155300  0.75371500  1
  O  O32  1  0.31441300  0.18787300  0.57749000  1
  O  O33  1  0.16101700  0.32162000  0.43283500  1
  O  O34  1  0.17440000  0.34092100  0.89659700  1
  O  O35  1  0.02151100  0.48049500  0.75477900  1
  O  O36  1  0.30958600  0.62046700  0.57999300  1
  O  O37  1  0.46005500  0.46979200  0.75760000  1
  O  O38  1  0.17317000  0.86211400  0.89110200  1
  O  O39  1  0.49654300  0.99711900  0.76372100  1
  O  O40  1  0.67401200  0.85037900  0.89827000  1
  O  O41  1  0.62874200  0.29013100  0.90024300  1
