# generated using pymatgen
data_V2ZnO4
_symmetry_space_group_name_H-M   'P 1'
_cell_length_a   6.06836900
_cell_length_b   6.06836900
_cell_length_c   14.87783900
_cell_angle_alpha   90.00000000
_cell_angle_beta   90.00000000
_cell_angle_gamma   120.00001088
_symmetry_Int_Tables_number   1
_chemical_formula_structural   V2ZnO4
_chemical_formula_sum   'V12 Zn6 O24'
_cell_volume   474.47616490
_cell_formula_units_Z   6
loop_
 _symmetry_equiv_pos_site_id
 _symmetry_equiv_pos_as_xyz
  1  'x, y, z'
loop_
 _atom_site_type_symbol
 _atom_site_label
 _atom_site_symmetry_multiplicity
 _atom_site_fract_x
 _atom_site_fract_y
 _atom_site_fract_z
 _atom_site_occupancy
  V  V0  1  0.16472000  0.83528000  0.83342500  1
  V  V1  1  0.16472000  0.32944000  0.83342500  1
  V  V2  1  0.49885900  0.50114100  0.49993200  1
  V  V3  1  0.67056000  0.83528000  0.83342500  1
  V  V4  1  0.49885900  0.99771900  0.49993200  1
  V  V5  1  0.66666700  0.33333300  0.33456600  1
  V  V6  1  0.66666700  0.33333300  0.70935400  1
  V  V7  1  0.83265200  0.16734800  0.16739700  1
  V  V8  1  0.00228100  0.50114100  0.49993200  1
  V  V9  1  0.83265200  0.66530500  0.16739700  1
  V  V10  1  0.33469500  0.16734800  0.16739700  1
  V  V11  1  0.33333300  0.66666700  0.04207000  1
  Zn  Zn12  1  0.66666700  0.33333300  0.95446800  1
  Zn  Zn13  1  0.00000000  0.00000000  0.61976200  1
  Zn  Zn14  1  0.33333300  0.66666700  0.66514900  1
  Zn  Zn15  1  0.33333300  0.66666700  0.29306500  1
  Zn  Zn16  1  0.00000000  0.00000000  0.99920600  1
  Zn  Zn17  1  0.00000000  0.00000000  0.37648000  1
  O  O18  1  0.84482900  0.15517100  0.91075000  1
  O  O19  1  0.00000000  0.00000000  0.75967200  1
  O  O20  1  0.84482900  0.68965800  0.91075000  1
  O  O21  1  0.31034200  0.15517100  0.91075000  1
  O  O22  1  0.17770300  0.82229700  0.57490900  1
  O  O23  1  0.01646000  0.50823000  0.75559500  1
  O  O24  1  0.33333300  0.66666700  0.42577500  1
  O  O25  1  0.49177000  0.98354000  0.75559500  1
  O  O26  1  0.33333300  0.66666700  0.90816000  1
  O  O27  1  0.17770300  0.35540600  0.57490900  1
  O  O28  1  0.64459400  0.82229700  0.57490900  1
  O  O29  1  0.49177000  0.50823000  0.75559500  1
  O  O30  1  0.51500700  0.48499300  0.24794300  1
  O  O31  1  0.36035100  0.18017600  0.42139000  1
  O  O32  1  0.81982400  0.63964900  0.42139000  1
  O  O33  1  0.66666700  0.33333300  0.09479900  1
  O  O34  1  0.66666700  0.33333300  0.57801300  1
  O  O35  1  0.51500700  0.03001500  0.24794300  1
  O  O36  1  0.96998500  0.48499300  0.24794300  1
  O  O37  1  0.81982400  0.18017600  0.42139000  1
  O  O38  1  0.67906600  0.83953300  0.08986800  1
  O  O39  1  0.16046700  0.32093400  0.08986800  1
  O  O40  1  0.00000000  0.00000000  0.23829900  1
  O  O41  1  0.16046700  0.83953300  0.08986800  1
