# generated using pymatgen
data_TiP2O7
_symmetry_space_group_name_H-M   'P 1'
_cell_length_a   8.69302700
_cell_length_b   6.90017600
_cell_length_c   9.62651560
_cell_angle_alpha   74.11222029
_cell_angle_beta   90.00000000
_cell_angle_gamma   90.00000000
_symmetry_Int_Tables_number   1
_chemical_formula_structural   TiP2O7
_chemical_formula_sum   'Ti4 P8 O28'
_cell_volume   555.37325492
_cell_formula_units_Z   4
loop_
 _symmetry_equiv_pos_site_id
 _symmetry_equiv_pos_as_xyz
  1  'x, y, z'
loop_
 _atom_site_type_symbol
 _atom_site_label
 _atom_site_symmetry_multiplicity
 _atom_site_fract_x
 _atom_site_fract_y
 _atom_site_fract_z
 _atom_site_occupancy
  Ti  Ti0  1  0.07774900  0.70120200  0.20017100  1
  Ti  Ti1  1  0.42225100  0.70120200  0.70017100  1
  Ti  Ti2  1  0.57774900  0.29879800  0.29982900  1
  Ti  Ti3  1  0.92225100  0.29879800  0.79982900  1
  P  P4  1  0.71711600  0.52630000  0.53693100  1
  P  P5  1  0.24913600  0.10635000  0.23235100  1
  P  P6  1  0.74913600  0.89365000  0.26764900  1
  P  P7  1  0.25086400  0.10635000  0.73235100  1
  P  P8  1  0.78288400  0.52630000  0.03693100  1
  P  P9  1  0.75086400  0.89365000  0.76764900  1
  P  P10  1  0.21711600  0.47370000  0.96306900  1
  P  P11  1  0.28288400  0.47370000  0.46306900  1
  O  O12  1  0.12818900  0.53263000  0.37886800  1
  O  O13  1  0.23727400  0.25941800  0.06965500  1
  O  O14  1  0.27205100  0.89934400  0.69746800  1
  O  O15  1  0.07702900  0.12336900  0.77145600  1
  O  O16  1  0.87181100  0.46737000  0.62113200  1
  O  O17  1  0.76272600  0.74058200  0.93034500  1
  O  O18  1  0.19122100  0.62965500  0.04796100  1
  O  O19  1  0.91079600  0.53740300  0.14238400  1
  O  O20  1  0.57702900  0.87663100  0.72854400  1
  O  O21  1  0.69122100  0.37034500  0.45203900  1
  O  O22  1  0.37181100  0.53263000  0.87886800  1
  O  O23  1  0.86265600  0.84738900  0.66742900  1
  O  O24  1  0.62818900  0.46737000  0.12113200  1
  O  O25  1  0.72794900  0.10065600  0.30253200  1
  O  O26  1  0.41079600  0.46259700  0.35761600  1
  O  O27  1  0.80877900  0.37034500  0.95203900  1
  O  O28  1  0.92297100  0.87663100  0.22854400  1
  O  O29  1  0.22794900  0.89934400  0.19746800  1
  O  O30  1  0.13734400  0.15261100  0.33257100  1
  O  O31  1  0.58920400  0.53740300  0.64238400  1
  O  O32  1  0.26272600  0.25941800  0.56965500  1
  O  O33  1  0.30877900  0.62965500  0.54796100  1
  O  O34  1  0.08920400  0.46259700  0.85761600  1
  O  O35  1  0.42297100  0.12336900  0.27145600  1
  O  O36  1  0.73727400  0.74058200  0.43034500  1
  O  O37  1  0.63734400  0.84738900  0.16742900  1
  O  O38  1  0.77205100  0.10065600  0.80253200  1
  O  O39  1  0.36265600  0.15261100  0.83257100  1
