# generated using pymatgen
data_MgCo2(CuO4)2
_symmetry_space_group_name_H-M   'P 1'
_cell_length_a   6.45463008
_cell_length_b   8.30304400
_cell_length_c   11.71318065
_cell_angle_alpha   90.00000000
_cell_angle_beta   91.05165471
_cell_angle_gamma   90.00000000
_symmetry_Int_Tables_number   1
_chemical_formula_structural   MgCo2(CuO4)2
_chemical_formula_sum   'Mg4 Co8 Cu8 O32'
_cell_volume   627.63965821
_cell_formula_units_Z   4
loop_
 _symmetry_equiv_pos_site_id
 _symmetry_equiv_pos_as_xyz
  1  'x, y, z'
loop_
 _atom_site_type_symbol
 _atom_site_label
 _atom_site_symmetry_multiplicity
 _atom_site_fract_x
 _atom_site_fract_y
 _atom_site_fract_z
 _atom_site_occupancy
  Mg  Mg0  1  0.11507000  0.15914200  0.04744600  1
  Mg  Mg1  1  0.88493000  0.84085800  0.95255400  1
  Mg  Mg2  1  0.88493000  0.65914200  0.45255400  1
  Mg  Mg3  1  0.11507000  0.34085800  0.54744600  1
  Co  Co4  1  0.10385200  0.46453200  0.84275700  1
  Co  Co5  1  0.10385200  0.03546800  0.34275700  1
  Co  Co6  1  0.60928300  0.09114700  0.13273100  1
  Co  Co7  1  0.89614800  0.96453200  0.65724300  1
  Co  Co8  1  0.39071700  0.90885300  0.86726900  1
  Co  Co9  1  0.39071700  0.59114700  0.36726900  1
  Co  Co10  1  0.60928300  0.40885300  0.63273100  1
  Co  Co11  1  0.89614800  0.53546800  0.15724300  1
  Cu  Cu12  1  0.75787400  0.18885400  0.87800900  1
  Cu  Cu13  1  0.37736800  0.05953800  0.63187400  1
  Cu  Cu14  1  0.62263200  0.94046200  0.36812600  1
  Cu  Cu15  1  0.24212600  0.81114600  0.12199100  1
  Cu  Cu16  1  0.75787400  0.31114600  0.37800900  1
  Cu  Cu17  1  0.37736800  0.44046200  0.13187400  1
  Cu  Cu18  1  0.24212600  0.68885400  0.62199100  1
  Cu  Cu19  1  0.62263200  0.55953800  0.86812600  1
  O  O20  1  0.02896200  0.22933500  0.39500400  1
  O  O21  1  0.65275200  0.00945600  0.59965200  1
  O  O22  1  0.18803900  0.57606700  0.47728700  1
  O  O23  1  0.81196100  0.07606700  0.02271300  1
  O  O24  1  0.02896200  0.27066500  0.89500400  1
  O  O25  1  0.97103800  0.77066500  0.60499600  1
  O  O26  1  0.09423000  0.10844400  0.62095000  1
  O  O27  1  0.50758200  0.89781900  0.14149800  1
  O  O28  1  0.50758200  0.60218100  0.64149800  1
  O  O29  1  0.31790200  0.87045300  0.71655800  1
  O  O30  1  0.68209800  0.37045300  0.78344200  1
  O  O31  1  0.49241800  0.10218100  0.85850200  1
  O  O32  1  0.90577000  0.89155600  0.37905000  1
  O  O33  1  0.87279100  0.51990900  0.30078800  1
  O  O34  1  0.41406700  0.27129000  0.58343100  1
  O  O35  1  0.41406700  0.22871000  0.08343100  1
  O  O36  1  0.12720900  0.01990900  0.19921200  1
  O  O37  1  0.49241800  0.39781900  0.35850200  1
  O  O38  1  0.12720900  0.48009100  0.69921200  1
  O  O39  1  0.81196100  0.42393300  0.52271300  1
  O  O40  1  0.65275200  0.49054400  0.09965200  1
  O  O41  1  0.68209800  0.12954700  0.28344200  1
  O  O42  1  0.97103800  0.72933500  0.10499600  1
  O  O43  1  0.09423000  0.39155600  0.12095000  1
  O  O44  1  0.18803900  0.92393300  0.97728700  1
  O  O45  1  0.58593300  0.77129000  0.91656900  1
  O  O46  1  0.34724800  0.99054400  0.40034800  1
  O  O47  1  0.34724800  0.50945600  0.90034800  1
  O  O48  1  0.90577000  0.60844400  0.87905000  1
  O  O49  1  0.58593300  0.72871000  0.41656900  1
  O  O50  1  0.31790200  0.62954700  0.21655800  1
  O  O51  1  0.87279100  0.98009100  0.80078800  1
