# generated using pymatgen
data_Sr2GaSn2O7
_symmetry_space_group_name_H-M   'P 1'
_cell_length_a   12.16680443
_cell_length_b   12.16680443
_cell_length_c   5.85775330
_cell_angle_alpha   76.62366136
_cell_angle_beta   76.62366136
_cell_angle_gamma   27.09294542
_symmetry_Int_Tables_number   1
_chemical_formula_structural   Sr2GaSn2O7
_chemical_formula_sum   'Sr4 Ga2 Sn4 O14'
_cell_volume   383.57678455
_cell_formula_units_Z   2
loop_
 _symmetry_equiv_pos_site_id
 _symmetry_equiv_pos_as_xyz
  1  'x, y, z'
loop_
 _atom_site_type_symbol
 _atom_site_label
 _atom_site_symmetry_multiplicity
 _atom_site_fract_x
 _atom_site_fract_y
 _atom_site_fract_z
 _atom_site_occupancy
  Sr  Sr0  1  0.85380700  0.83913200  0.67279600  1
  Sr  Sr1  1  0.16086800  0.14619300  0.32720400  1
  Sr  Sr2  1  0.34430900  0.34693900  0.12534800  1
  Sr  Sr3  1  0.65306100  0.65569100  0.87465200  1
  Ga  Ga4  1  0.78938900  0.70776800  0.33387200  1
  Ga  Ga5  1  0.29223200  0.21061100  0.66612800  1
  Sn  Sn6  1  0.55962500  0.56664300  0.43827300  1
  Sn  Sn7  1  0.91123400  0.91679400  0.09203200  1
  Sn  Sn8  1  0.08320600  0.08876600  0.90796800  1
  Sn  Sn9  1  0.43335700  0.44037500  0.56172700  1
  O  O10  1  0.16845300  0.67229100  0.83825600  1
  O  O11  1  0.12098800  0.37866100  0.38902500  1
  O  O12  1  0.67195200  0.16652400  0.83319200  1
  O  O13  1  0.16119800  0.19460900  0.87065700  1
  O  O14  1  0.33928300  0.84410400  0.65663600  1
  O  O15  1  0.83600600  0.34769100  0.65639800  1
  O  O16  1  0.62133900  0.87901200  0.61097500  1
  O  O17  1  0.83347600  0.32804800  0.16680800  1
  O  O18  1  0.32770900  0.83154700  0.16174400  1
  O  O19  1  0.65361100  0.70453500  0.26337300  1
  O  O20  1  0.80539100  0.83880200  0.12934300  1
  O  O21  1  0.29546500  0.34638900  0.73662700  1
  O  O22  1  0.15589600  0.66071700  0.34336400  1
  O  O23  1  0.65230900  0.16399400  0.34360200  1
