# generated using pymatgen
data_BaCaWF7
_symmetry_space_group_name_H-M   'P 1'
_cell_length_a   10.66116100
_cell_length_b   5.97731200
_cell_length_c   10.27059251
_cell_angle_alpha   88.66076828
_cell_angle_beta   90.00000000
_cell_angle_gamma   90.00000000
_symmetry_Int_Tables_number   1
_chemical_formula_structural   BaCaWF7
_chemical_formula_sum   'Ba4 Ca4 W4 F28'
_cell_volume   654.31560528
_cell_formula_units_Z   4
loop_
 _symmetry_equiv_pos_site_id
 _symmetry_equiv_pos_as_xyz
  1  'x, y, z'
loop_
 _atom_site_type_symbol
 _atom_site_label
 _atom_site_symmetry_multiplicity
 _atom_site_fract_x
 _atom_site_fract_y
 _atom_site_fract_z
 _atom_site_occupancy
  Ba  Ba0  1  0.33656000  0.73019000  0.50053200  1
  Ba  Ba1  1  0.83656000  0.26981000  0.99946800  1
  Ba  Ba2  1  0.66344000  0.26981000  0.49946800  1
  Ba  Ba3  1  0.16344000  0.73019000  0.00053200  1
  Ca  Ca4  1  0.40641400  0.30386000  0.81891700  1
  Ca  Ca5  1  0.90641400  0.69614000  0.68108300  1
  Ca  Ca6  1  0.09358600  0.30386000  0.31891700  1
  Ca  Ca7  1  0.59358600  0.69614000  0.18108300  1
  W  W8  1  0.62057500  0.81050000  0.80997700  1
  W  W9  1  0.37942500  0.18950000  0.19002300  1
  W  W10  1  0.87942500  0.81050000  0.30997700  1
  W  W11  1  0.12057500  0.18950000  0.69002300  1
  F  F12  1  0.42451000  0.88006300  0.10727800  1
  F  F13  1  0.04417200  0.64938000  0.37593900  1
  F  F14  1  0.70793800  0.51813800  0.73489100  1
  F  F15  1  0.29206200  0.48186200  0.26510900  1
  F  F16  1  0.46355400  0.07072800  0.36531900  1
  F  F17  1  0.79433200  0.71003100  0.48915600  1
  F  F18  1  0.78244000  0.98885700  0.74474500  1
  F  F19  1  0.96355400  0.92927200  0.13468100  1
  F  F20  1  0.45582800  0.64938000  0.87593900  1
  F  F21  1  0.20793800  0.48186200  0.76510900  1
  F  F22  1  0.07549000  0.88006300  0.60727800  1
  F  F23  1  0.57549000  0.11993700  0.89272200  1
  F  F24  1  0.28244000  0.01114300  0.75525500  1
  F  F25  1  0.96001700  0.58717700  0.87896500  1
  F  F26  1  0.53644600  0.92927200  0.63468100  1
  F  F27  1  0.03644600  0.07072800  0.86531900  1
  F  F28  1  0.21756000  0.01114300  0.25525500  1
  F  F29  1  0.92451000  0.11993700  0.39272200  1
  F  F30  1  0.46001700  0.41282300  0.62103500  1
  F  F31  1  0.95582800  0.35062000  0.62406100  1
  F  F32  1  0.03998300  0.41282300  0.12103500  1
  F  F33  1  0.71756000  0.98885700  0.24474500  1
  F  F34  1  0.53998300  0.58717700  0.37896500  1
  F  F35  1  0.29433200  0.28996900  0.01084400  1
  F  F36  1  0.20566800  0.28996900  0.51084400  1
  F  F37  1  0.70566800  0.71003100  0.98915600  1
  F  F38  1  0.54417200  0.35062000  0.12406100  1
  F  F39  1  0.79206200  0.51813800  0.23489100  1
