# generated using pymatgen
data_BaMgCoF7
_symmetry_space_group_name_H-M   'P 1'
_cell_length_a   9.92850400
_cell_length_b   5.66141900
_cell_length_c   9.60242696
_cell_angle_alpha   86.80529438
_cell_angle_beta   90.00000000
_cell_angle_gamma   90.00000000
_symmetry_Int_Tables_number   1
_chemical_formula_structural   BaMgCoF7
_chemical_formula_sum   'Ba4 Mg4 Co4 F28'
_cell_volume   538.90805047
_cell_formula_units_Z   4
loop_
 _symmetry_equiv_pos_site_id
 _symmetry_equiv_pos_as_xyz
  1  'x, y, z'
loop_
 _atom_site_type_symbol
 _atom_site_label
 _atom_site_symmetry_multiplicity
 _atom_site_fract_x
 _atom_site_fract_y
 _atom_site_fract_z
 _atom_site_occupancy
  Ba  Ba0  1  0.31581300  0.73357700  0.50009200  1
  Ba  Ba1  1  0.81581300  0.26642300  0.99990800  1
  Ba  Ba2  1  0.68418700  0.26642300  0.49990800  1
  Ba  Ba3  1  0.18418700  0.73357700  0.00009200  1
  Mg  Mg4  1  0.39634100  0.30365000  0.80979800  1
  Mg  Mg5  1  0.89634100  0.69635000  0.69020200  1
  Mg  Mg6  1  0.10365900  0.30365000  0.30979800  1
  Mg  Mg7  1  0.60365900  0.69635000  0.19020200  1
  Co  Co8  1  0.61152500  0.80640800  0.81091100  1
  Co  Co9  1  0.38847500  0.19359200  0.18908900  1
  Co  Co10  1  0.88847500  0.80640800  0.31091100  1
  Co  Co11  1  0.11152500  0.19359200  0.68908900  1
  F  F12  1  0.44690200  0.88653100  0.12565500  1
  F  F13  1  0.04930400  0.62773500  0.36947100  1
  F  F14  1  0.71385100  0.52729300  0.74938900  1
  F  F15  1  0.28614900  0.47270700  0.25061100  1
  F  F16  1  0.45540400  0.11447400  0.36385200  1
  F  F17  1  0.81169500  0.74220100  0.49374700  1
  F  F18  1  0.78133000  0.97423500  0.75056100  1
  F  F19  1  0.95540400  0.88552600  0.13614800  1
  F  F20  1  0.45069600  0.62773500  0.86947100  1
  F  F21  1  0.21385100  0.47270700  0.75061100  1
  F  F22  1  0.05309800  0.88653100  0.62565500  1
  F  F23  1  0.55309800  0.11346900  0.87434500  1
  F  F24  1  0.28133000  0.02576500  0.74943900  1
  F  F25  1  0.95868900  0.61683600  0.87630000  1
  F  F26  1  0.54459600  0.88552600  0.63614800  1
  F  F27  1  0.04459600  0.11447400  0.86385200  1
  F  F28  1  0.21867000  0.02576500  0.24943900  1
  F  F29  1  0.94690200  0.11346900  0.37434500  1
  F  F30  1  0.45868900  0.38316400  0.62370000  1
  F  F31  1  0.95069600  0.37226500  0.63052900  1
  F  F32  1  0.04131100  0.38316400  0.12370000  1
  F  F33  1  0.71867000  0.97423500  0.25056100  1
  F  F34  1  0.54131100  0.61683600  0.37630000  1
  F  F35  1  0.31169500  0.25779900  0.00625300  1
  F  F36  1  0.18830500  0.25779900  0.50625300  1
  F  F37  1  0.68830500  0.74220100  0.99374700  1
  F  F38  1  0.54930400  0.37226500  0.13052900  1
  F  F39  1  0.78614900  0.52729300  0.24938900  1
