# generated using pymatgen
data_BaCa2(CoN2)2
_symmetry_space_group_name_H-M   'P 1'
_cell_length_a   8.05967800
_cell_length_b   9.11057700
_cell_length_c   11.72581800
_cell_angle_alpha   90.00000000
_cell_angle_beta   90.00000000
_cell_angle_gamma   90.00000000
_symmetry_Int_Tables_number   1
_chemical_formula_structural   BaCa2(CoN2)2
_chemical_formula_sum   'Ba4 Ca8 Co8 N16'
_cell_volume   861.00708135
_cell_formula_units_Z   4
loop_
 _symmetry_equiv_pos_site_id
 _symmetry_equiv_pos_as_xyz
  1  'x, y, z'
loop_
 _atom_site_type_symbol
 _atom_site_label
 _atom_site_symmetry_multiplicity
 _atom_site_fract_x
 _atom_site_fract_y
 _atom_site_fract_z
 _atom_site_occupancy
  Ba  Ba0  1  0.28173100  0.27122600  0.39269700  1
  Ba  Ba1  1  0.78173100  0.77122600  0.10730300  1
  Ba  Ba2  1  0.21826900  0.27122600  0.89269700  1
  Ba  Ba3  1  0.71826900  0.77122600  0.60730300  1
  Ca  Ca4  1  0.36851400  0.86819300  0.33793500  1
  Ca  Ca5  1  0.13148600  0.86819300  0.83793500  1
  Ca  Ca6  1  0.85417600  0.09268800  0.35517000  1
  Ca  Ca7  1  0.35417600  0.59268800  0.14483000  1
  Ca  Ca8  1  0.14582400  0.59268800  0.64483000  1
  Ca  Ca9  1  0.64582400  0.09268800  0.85517000  1
  Ca  Ca10  1  0.63148600  0.36819300  0.66206500  1
  Ca  Ca11  1  0.86851400  0.36819300  0.16206500  1
  Co  Co12  1  0.42593800  0.56881300  0.48566100  1
  Co  Co13  1  0.92593800  0.06881300  0.01433900  1
  Co  Co14  1  0.42590400  0.89692200  0.00717200  1
  Co  Co15  1  0.57409600  0.39692200  0.99282800  1
  Co  Co16  1  0.57406200  0.06881300  0.51433900  1
  Co  Co17  1  0.92590400  0.39692200  0.49282800  1
  Co  Co18  1  0.07409600  0.89692200  0.50717200  1
  Co  Co19  1  0.07406200  0.56881300  0.98566100  1
  N  N20  1  0.54838800  0.07394200  0.37443700  1
  N  N21  1  0.55312300  0.33677800  0.86089000  1
  N  N22  1  0.61536800  0.09846000  0.64955400  1
  N  N23  1  0.94687700  0.33677800  0.36089000  1
  N  N24  1  0.62740800  0.49616300  0.10450800  1
  N  N25  1  0.37259200  0.99616300  0.89549200  1
  N  N26  1  0.04838800  0.57394200  0.12556300  1
  N  N27  1  0.05312300  0.83677800  0.63911000  1
  N  N28  1  0.45161200  0.57394200  0.62556300  1
  N  N29  1  0.44687700  0.83677800  0.13911000  1
  N  N30  1  0.95161200  0.07394200  0.87443700  1
  N  N31  1  0.12740800  0.99616300  0.39549200  1
  N  N32  1  0.11536800  0.59846000  0.85044600  1
  N  N33  1  0.38463200  0.59846000  0.35044600  1
  N  N34  1  0.87259200  0.49616300  0.60450800  1
  N  N35  1  0.88463200  0.09846000  0.14955400  1
