# generated using pymatgen
data_Sr2AlGaCu2O7
_symmetry_space_group_name_H-M   'P 1'
_cell_length_a   12.17940898
_cell_length_b   12.17940898
_cell_length_c   5.29360894
_cell_angle_alpha   77.58482089
_cell_angle_beta   77.58482089
_cell_angle_gamma   25.65454766
_symmetry_Int_Tables_number   1
_chemical_formula_structural   Sr2AlGaCu2O7
_chemical_formula_sum   'Sr4 Al2 Ga2 Cu4 O14'
_cell_volume   331.59915077
_cell_formula_units_Z   2
loop_
 _symmetry_equiv_pos_site_id
 _symmetry_equiv_pos_as_xyz
  1  'x, y, z'
loop_
 _atom_site_type_symbol
 _atom_site_label
 _atom_site_symmetry_multiplicity
 _atom_site_fract_x
 _atom_site_fract_y
 _atom_site_fract_z
 _atom_site_occupancy
  Sr  Sr0  1  0.13592600  0.66428900  0.85207200  1
  Sr  Sr1  1  0.87011700  0.33033200  0.16078500  1
  Sr  Sr2  1  0.66428900  0.13592600  0.35207200  1
  Sr  Sr3  1  0.33033200  0.87011700  0.66078500  1
  Al  Al4  1  0.49078800  0.00899100  0.48699100  1
  Al  Al5  1  0.00899100  0.49078800  0.98699100  1
  Ga  Ga6  1  0.68131200  0.31905600  0.71023900  1
  Ga  Ga7  1  0.31905600  0.68131200  0.21023900  1
  Cu  Cu8  1  0.93913700  0.44512500  0.56224400  1
  Cu  Cu9  1  0.55782500  0.05851100  0.93419000  1
  Cu  Cu10  1  0.44512500  0.93913700  0.06224400  1
  Cu  Cu11  1  0.05851000  0.55782500  0.43419000  1
  O  O12  1  0.72868800  0.87413300  0.62012000  1
  O  O13  1  0.64614500  0.35439100  0.35101000  1
  O  O14  1  0.87413300  0.72868800  0.12012000  1
  O  O15  1  0.29333200  0.85690500  0.20078200  1
  O  O16  1  0.77599500  0.61086700  0.89154300  1
  O  O17  1  0.61086700  0.77599500  0.39154300  1
  O  O18  1  0.35439100  0.64614500  0.85101000  1
  O  O19  1  0.13856600  0.26046000  0.23887600  1
  O  O20  1  0.26046000  0.13856600  0.73887600  1
  O  O21  1  0.85690500  0.29333200  0.70078200  1
  O  O22  1  0.71062700  0.13965700  0.84530700  1
  O  O23  1  0.13965700  0.71062700  0.34530700  1
  O  O24  1  0.23074600  0.38245800  0.76410600  1
  O  O25  1  0.38245800  0.23074600  0.26410600  1
