# generated using pymatgen
data_BaMnZnF7
_symmetry_space_group_name_H-M   'P 1'
_cell_length_a   10.03379700
_cell_length_b   5.79631000
_cell_length_c   9.61454336
_cell_angle_alpha   86.38595698
_cell_angle_beta   90.00000000
_cell_angle_gamma   90.00000000
_symmetry_Int_Tables_number   1
_chemical_formula_structural   BaMnZnF7
_chemical_formula_sum   'Ba4 Mn4 Zn4 F28'
_cell_volume   558.06018600
_cell_formula_units_Z   4
loop_
 _symmetry_equiv_pos_site_id
 _symmetry_equiv_pos_as_xyz
  1  'x, y, z'
loop_
 _atom_site_type_symbol
 _atom_site_label
 _atom_site_symmetry_multiplicity
 _atom_site_fract_x
 _atom_site_fract_y
 _atom_site_fract_z
 _atom_site_occupancy
  Ba  Ba0  1  0.31362400  0.73104600  0.50005900  1
  Ba  Ba1  1  0.81362400  0.26895400  0.99994100  1
  Ba  Ba2  1  0.68637600  0.26895400  0.49994100  1
  Ba  Ba3  1  0.18637600  0.73104600  0.00005900  1
  Mn  Mn4  1  0.60967400  0.80648400  0.81099800  1
  Mn  Mn5  1  0.39032600  0.19351600  0.18900200  1
  Mn  Mn6  1  0.89032600  0.80648400  0.31099800  1
  Mn  Mn7  1  0.10967400  0.19351600  0.68900200  1
  Zn  Zn8  1  0.40022000  0.30334300  0.80777300  1
  Zn  Zn9  1  0.90022000  0.69665700  0.69222700  1
  Zn  Zn10  1  0.09978000  0.30334300  0.30777300  1
  Zn  Zn11  1  0.59978000  0.69665700  0.19222700  1
  F  F12  1  0.44053700  0.87396800  0.12132000  1
  F  F13  1  0.05002000  0.63434000  0.36930700  1
  F  F14  1  0.71641800  0.52214300  0.74460700  1
  F  F15  1  0.28358200  0.47785700  0.25539300  1
  F  F16  1  0.45855500  0.11473600  0.36348800  1
  F  F17  1  0.81172000  0.74126900  0.48906800  1
  F  F18  1  0.77776800  0.97534100  0.74778000  1
  F  F19  1  0.95855500  0.88526400  0.13651200  1
  F  F20  1  0.44998000  0.63434000  0.86930700  1
  F  F21  1  0.21641800  0.47785700  0.75539300  1
  F  F22  1  0.05946300  0.87396800  0.62132000  1
  F  F23  1  0.55946300  0.12603200  0.87868000  1
  F  F24  1  0.27776800  0.02465900  0.75222000  1
  F  F25  1  0.95859800  0.61675100  0.88156900  1
  F  F26  1  0.54144500  0.88526400  0.63651200  1
  F  F27  1  0.04144500  0.11473600  0.86348800  1
  F  F28  1  0.22223200  0.02465900  0.25222000  1
  F  F29  1  0.94053700  0.12603200  0.37868000  1
  F  F30  1  0.45859800  0.38324900  0.61843100  1
  F  F31  1  0.94998000  0.36566000  0.63069300  1
  F  F32  1  0.04140200  0.38324900  0.11843100  1
  F  F33  1  0.72223200  0.97534100  0.24778000  1
  F  F34  1  0.54140200  0.61675100  0.38156900  1
  F  F35  1  0.31172000  0.25873100  0.01093200  1
  F  F36  1  0.18828000  0.25873100  0.51093200  1
  F  F37  1  0.68828000  0.74126900  0.98906800  1
  F  F38  1  0.55002000  0.36566000  0.13069300  1
  F  F39  1  0.78358200  0.52214300  0.24460700  1
