# generated using pymatgen
data_Ca3Mn2(SbO6)2
_symmetry_space_group_name_H-M   'P 1'
_cell_length_a   7.77199100
_cell_length_b   5.40681100
_cell_length_c   5.43479417
_cell_angle_alpha   89.70678292
_cell_angle_beta   90.00000000
_cell_angle_gamma   90.00000000
_symmetry_Int_Tables_number   1
_chemical_formula_structural   Ca3Mn2(SbO6)2
_chemical_formula_sum   'Ca3 Mn2 Sb2 O12'
_cell_volume   228.37622574
_cell_formula_units_Z   1
loop_
 _symmetry_equiv_pos_site_id
 _symmetry_equiv_pos_as_xyz
  1  'x, y, z'
loop_
 _atom_site_type_symbol
 _atom_site_label
 _atom_site_symmetry_multiplicity
 _atom_site_fract_x
 _atom_site_fract_y
 _atom_site_fract_z
 _atom_site_occupancy
  Ca  Ca0  1  0.00000000  0.55757000  0.51178400  1
  Ca  Ca1  1  0.50000000  0.44758500  0.49084000  1
  Ca  Ca2  1  0.50000000  0.95854200  0.00880900  1
  Mn  Mn3  1  0.75663400  0.99955700  0.50177800  1
  Mn  Mn4  1  0.24336600  0.99955700  0.50177800  1
  Sb  Sb5  1  0.75733100  0.49189100  0.99907400  1
  Sb  Sb6  1  0.24266900  0.49189100  0.99907400  1
  O  O7  1  0.70797200  0.70836300  0.29215300  1
  O  O8  1  0.30605400  0.21051000  0.21609800  1
  O  O9  1  0.21864900  0.30538400  0.68574000  1
  O  O10  1  0.79242700  0.79136200  0.78794900  1
  O  O11  1  0.69394600  0.21051000  0.21609800  1
  O  O12  1  0.20757300  0.79136200  0.78794900  1
  O  O13  1  0.50000000  0.51765800  0.91935100  1
  O  O14  1  0.29202800  0.70836300  0.29215300  1
  O  O15  1  0.00000000  0.98596600  0.41917700  1
  O  O16  1  0.78135100  0.30538400  0.68574000  1
  O  O17  1  0.00000000  0.46995400  0.09595200  1
  O  O18  1  0.50000000  0.00965600  0.58205000  1
