# generated using pymatgen
data_CaP4W3O14
_symmetry_space_group_name_H-M   'P 1'
_cell_length_a   7.36871000
_cell_length_b   8.06550300
_cell_length_c   10.12017607
_cell_angle_alpha   78.86779995
_cell_angle_beta   90.00000000
_cell_angle_gamma   90.00000000
_symmetry_Int_Tables_number   1
_chemical_formula_structural   CaP4W3O14
_chemical_formula_sum   'Ca2 P8 W6 O28'
_cell_volume   590.14887880
_cell_formula_units_Z   2
loop_
 _symmetry_equiv_pos_site_id
 _symmetry_equiv_pos_as_xyz
  1  'x, y, z'
loop_
 _atom_site_type_symbol
 _atom_site_label
 _atom_site_symmetry_multiplicity
 _atom_site_fract_x
 _atom_site_fract_y
 _atom_site_fract_z
 _atom_site_occupancy
  Ca  Ca0  1  0.00000000  0.50000000  0.00000000  1
  Ca  Ca1  1  0.50000000  0.50000000  0.50000000  1
  P  P2  1  0.90500200  0.42847800  0.68329800  1
  P  P3  1  0.40500200  0.57152200  0.81670200  1
  P  P4  1  0.09499800  0.57152200  0.31670200  1
  P  P5  1  0.59499800  0.42847800  0.18329800  1
  P  P6  1  0.18236200  0.15768000  0.67750900  1
  P  P7  1  0.68236200  0.84232000  0.82249100  1
  P  P8  1  0.81763800  0.84232000  0.32249100  1
  P  P9  1  0.31763800  0.15768000  0.17750900  1
  W  W10  1  0.15089800  0.81176400  0.54875100  1
  W  W11  1  0.65089800  0.18823600  0.95124900  1
  W  W12  1  0.84910200  0.18823600  0.45124900  1
  W  W13  1  0.34910200  0.81176400  0.04875100  1
  W  W14  1  0.00000000  0.00000000  0.00000000  1
  W  W15  1  0.50000000  0.00000000  0.50000000  1
  O  O16  1  0.36777500  0.18877800  0.60689100  1
  O  O17  1  0.86777500  0.81122200  0.89310900  1
  O  O18  1  0.63222500  0.81122200  0.39310900  1
  O  O19  1  0.13222500  0.18877800  0.10689100  1
  O  O20  1  0.35311700  0.64024600  0.66803900  1
  O  O21  1  0.85311700  0.35975400  0.83196100  1
  O  O22  1  0.64688300  0.35975400  0.33196100  1
  O  O23  1  0.14688300  0.64024600  0.16803900  1
  O  O24  1  0.76996200  0.36859200  0.58471900  1
  O  O25  1  0.26996200  0.63140800  0.91528100  1
  O  O26  1  0.23003800  0.63140800  0.41528100  1
  O  O27  1  0.73003800  0.36859200  0.08471900  1
  O  O28  1  0.09820900  0.34622700  0.65522900  1
  O  O29  1  0.59820900  0.65377300  0.84477100  1
  O  O30  1  0.90179100  0.65377300  0.34477100  1
  O  O31  1  0.40179100  0.34622700  0.15522900  1
  O  O32  1  0.56452300  0.61631000  0.15782500  1
  O  O33  1  0.06452300  0.38369000  0.34217500  1
  O  O34  1  0.43547700  0.38369000  0.84217500  1
  O  O35  1  0.93547700  0.61631000  0.65782500  1
  O  O36  1  0.82143100  0.91712500  0.17387700  1
  O  O37  1  0.32143100  0.08287500  0.32612300  1
  O  O38  1  0.17856900  0.08287500  0.82612300  1
  O  O39  1  0.67856900  0.91712500  0.67387700  1
  O  O40  1  0.44815600  0.05540800  0.10055100  1
  O  O41  1  0.94815600  0.94459200  0.39944900  1
  O  O42  1  0.55184400  0.94459200  0.89944900  1
  O  O43  1  0.05184400  0.05540800  0.60055100  1
