# generated using pymatgen
data_FeS2
_symmetry_space_group_name_H-M   'P 1'
_cell_length_a   7.45229889
_cell_length_b   7.45229889
_cell_length_c   7.45229857
_cell_angle_alpha   24.80276950
_cell_angle_beta   24.80276950
_cell_angle_gamma   24.80277346
_symmetry_Int_Tables_number   1
_chemical_formula_structural   FeS2
_chemical_formula_sum   'Fe1 S2'
_cell_volume   64.05929607
_cell_formula_units_Z   1
loop_
 _symmetry_equiv_pos_site_id
 _symmetry_equiv_pos_as_xyz
  1  'x, y, z'
loop_
 _atom_site_type_symbol
 _atom_site_label
 _atom_site_symmetry_multiplicity
 _atom_site_fract_x
 _atom_site_fract_y
 _atom_site_fract_z
 _atom_site_occupancy
  Fe  Fe0  1  0.00000000  0.00000000  0.00000000  1
  S  S1  1  0.39497900  0.39497900  0.39497900  1
  S  S2  1  0.60502100  0.60502100  0.60502100  1
