# generated using pymatgen
data_FeS2
_symmetry_space_group_name_H-M   'P 1'
_cell_length_a   6.04830943
_cell_length_b   6.04830943
_cell_length_c   6.04830943
_cell_angle_alpha   128.32192256
_cell_angle_beta   128.32192256
_cell_angle_gamma   76.10410368
_symmetry_Int_Tables_number   1
_chemical_formula_structural   FeS2
_chemical_formula_sum   'Fe2 S4'
_cell_volume   132.38799528
_cell_formula_units_Z   2
loop_
 _symmetry_equiv_pos_site_id
 _symmetry_equiv_pos_as_xyz
  1  'x, y, z'
loop_
 _atom_site_type_symbol
 _atom_site_label
 _atom_site_symmetry_multiplicity
 _atom_site_fract_x
 _atom_site_fract_y
 _atom_site_fract_z
 _atom_site_occupancy
  Fe  Fe0  1  0.75000000  0.25000000  0.50000000  1
  Fe  Fe1  1  0.00000000  0.00000000  0.00000000  1
  S  S2  1  0.87500000  0.92000900  0.54500900  1
  S  S3  1  0.07999100  0.62500000  0.95499100  1
  S  S4  1  0.37500000  0.32999100  0.45499100  1
  S  S5  1  0.67000900  0.12500000  0.04500900  1
