# generated using pymatgen
data_Mg(SbO2)4
_symmetry_space_group_name_H-M   'P 1'
_cell_length_a   3.24719300
_cell_length_b   8.14644884
_cell_length_c   8.48657103
_cell_angle_alpha   111.77129469
_cell_angle_beta   96.60571381
_cell_angle_gamma   95.11363639
_symmetry_Int_Tables_number   1
_chemical_formula_structural   Mg(SbO2)4
_chemical_formula_sum   'Mg1 Sb4 O8'
_cell_volume   204.97454206
_cell_formula_units_Z   1
loop_
 _symmetry_equiv_pos_site_id
 _symmetry_equiv_pos_as_xyz
  1  'x, y, z'
loop_
 _atom_site_type_symbol
 _atom_site_label
 _atom_site_symmetry_multiplicity
 _atom_site_fract_x
 _atom_site_fract_y
 _atom_site_fract_z
 _atom_site_occupancy
  Mg  Mg0  1  0.73319100  0.14813900  0.96331900  1
  Sb  Sb1  1  0.77630400  0.12782300  0.31489100  1
  Sb  Sb2  1  0.54050900  0.50321500  0.72825400  1
  Sb  Sb3  1  0.36526300  0.49468700  0.18094600  1
  Sb  Sb4  1  0.07405500  0.84551500  0.57222400  1
  O  O5  1  0.47915200  0.65476200  0.42615400  1
  O  O6  1  0.83773500  0.34841300  0.23461200  1
  O  O7  1  0.05663500  0.63791600  0.67861800  1
  O  O8  1  0.40806100  0.29813900  0.50646900  1
  O  O9  1  0.22588700  0.06421500  0.13354800  1
  O  O10  1  0.25616500  0.29940500  0.95166400  1
  O  O11  1  0.64043600  0.93634100  0.74695700  1
  O  O12  1  0.87847900  0.61753900  0.13169900  1
