# generated using pymatgen
data_MgFe4O9
_symmetry_space_group_name_H-M   'P 1'
_cell_length_a   8.24090500
_cell_length_b   8.24090500
_cell_length_c   5.25893700
_cell_angle_alpha   90.00000000
_cell_angle_beta   90.00000000
_cell_angle_gamma   90.00000000
_symmetry_Int_Tables_number   1
_chemical_formula_structural   MgFe4O9
_chemical_formula_sum   'Mg2 Fe8 O18'
_cell_volume   357.14763905
_cell_formula_units_Z   2
loop_
 _symmetry_equiv_pos_site_id
 _symmetry_equiv_pos_as_xyz
  1  'x, y, z'
loop_
 _atom_site_type_symbol
 _atom_site_label
 _atom_site_symmetry_multiplicity
 _atom_site_fract_x
 _atom_site_fract_y
 _atom_site_fract_z
 _atom_site_occupancy
  Mg  Mg0  1  0.00000000  0.50000000  0.81542300  1
  Mg  Mg1  1  0.50000000  0.00000000  0.18457700  1
  Fe  Fe2  1  0.91002700  0.78036900  0.37355700  1
  Fe  Fe3  1  0.78036900  0.08997300  0.62644300  1
  Fe  Fe4  1  0.28036900  0.58997300  0.37355700  1
  Fe  Fe5  1  0.41002700  0.28036900  0.62644300  1
  Fe  Fe6  1  0.08997300  0.21963100  0.37355700  1
  Fe  Fe7  1  0.71963100  0.41002700  0.37355700  1
  Fe  Fe8  1  0.58997300  0.71963100  0.62644300  1
  Fe  Fe9  1  0.21963100  0.91002700  0.62644300  1
  O  O10  1  0.00000000  0.00000000  0.50000000  1
  O  O11  1  0.50000000  0.50000000  0.50000000  1
  O  O12  1  0.29706400  0.94270900  0.95156400  1
  O  O13  1  0.55729100  0.79706400  0.95156400  1
  O  O14  1  0.44270900  0.20293600  0.95156400  1
  O  O15  1  0.70293600  0.05729100  0.95156400  1
  O  O16  1  0.20293600  0.55729100  0.04843600  1
  O  O17  1  0.94270900  0.70293600  0.04843600  1
  O  O18  1  0.05729100  0.29706400  0.04843600  1
  O  O19  1  0.79706400  0.44270900  0.04843600  1
  O  O20  1  0.89555700  0.29714900  0.55566600  1
  O  O21  1  0.20285100  0.39555700  0.55566600  1
  O  O22  1  0.79714900  0.60444300  0.55566600  1
  O  O23  1  0.10444300  0.70285100  0.55566600  1
  O  O24  1  0.39555700  0.79714900  0.44433400  1
  O  O25  1  0.29714900  0.10444300  0.44433400  1
  O  O26  1  0.70285100  0.89555700  0.44433400  1
  O  O27  1  0.60444300  0.20285100  0.44433400  1
