# generated using pymatgen
data_MgTi2O4
_symmetry_space_group_name_H-M   'P 1'
_cell_length_a   2.85977200
_cell_length_b   9.27666800
_cell_length_c   10.58261100
_cell_angle_alpha   90.00000000
_cell_angle_beta   90.00000000
_cell_angle_gamma   90.00000000
_symmetry_Int_Tables_number   1
_chemical_formula_structural   MgTi2O4
_chemical_formula_sum   'Mg4 Ti8 O16'
_cell_volume   280.74773175
_cell_formula_units_Z   4
loop_
 _symmetry_equiv_pos_site_id
 _symmetry_equiv_pos_as_xyz
  1  'x, y, z'
loop_
 _atom_site_type_symbol
 _atom_site_label
 _atom_site_symmetry_multiplicity
 _atom_site_fract_x
 _atom_site_fract_y
 _atom_site_fract_z
 _atom_site_occupancy
  Mg  Mg0  1  0.25000000  0.75232800  0.15631100  1
  Mg  Mg1  1  0.75000000  0.24767200  0.84368900  1
  Mg  Mg2  1  0.25000000  0.25232800  0.34368900  1
  Mg  Mg3  1  0.75000000  0.74767200  0.65631100  1
  Ti  Ti4  1  0.25000000  0.93482700  0.38396900  1
  Ti  Ti5  1  0.75000000  0.06517300  0.61603100  1
  Ti  Ti6  1  0.25000000  0.43482700  0.11603100  1
  Ti  Ti7  1  0.75000000  0.56517300  0.88396900  1
  Ti  Ti8  1  0.25000000  0.91444600  0.90213300  1
  Ti  Ti9  1  0.75000000  0.08555400  0.09786700  1
  Ti  Ti10  1  0.25000000  0.41444600  0.59786700  1
  Ti  Ti11  1  0.75000000  0.58555400  0.40213300  1
  O  O12  1  0.25000000  0.71361100  0.81435400  1
  O  O13  1  0.75000000  0.28638900  0.18564600  1
  O  O14  1  0.25000000  0.21361100  0.68564600  1
  O  O15  1  0.75000000  0.78638900  0.31435400  1
  O  O16  1  0.25000000  0.62740700  0.53992900  1
  O  O17  1  0.75000000  0.37259300  0.46007100  1
  O  O18  1  0.25000000  0.12740700  0.96007100  1
  O  O19  1  0.75000000  0.87259300  0.03992900  1
  O  O20  1  0.25000000  0.52579300  0.28129100  1
  O  O21  1  0.75000000  0.47420700  0.71870900  1
  O  O22  1  0.25000000  0.02579300  0.21870900  1
  O  O23  1  0.75000000  0.97420700  0.78129100  1
  O  O24  1  0.25000000  0.90333900  0.57277700  1
  O  O25  1  0.75000000  0.09666100  0.42722300  1
  O  O26  1  0.25000000  0.40333900  0.92722300  1
  O  O27  1  0.75000000  0.59666100  0.07277700  1
