# generated using pymatgen
data_CaMo3P3O13
_symmetry_space_group_name_H-M   'P 1'
_cell_length_a   6.68475400
_cell_length_b   7.83988200
_cell_length_c   10.72022981
_cell_angle_alpha   80.15397570
_cell_angle_beta   90.00000000
_cell_angle_gamma   90.00000000
_symmetry_Int_Tables_number   1
_chemical_formula_structural   CaMo3P3O13
_chemical_formula_sum   'Ca2 Mo6 P6 O26'
_cell_volume   553.54723772
_cell_formula_units_Z   2
loop_
 _symmetry_equiv_pos_site_id
 _symmetry_equiv_pos_as_xyz
  1  'x, y, z'
loop_
 _atom_site_type_symbol
 _atom_site_label
 _atom_site_symmetry_multiplicity
 _atom_site_fract_x
 _atom_site_fract_y
 _atom_site_fract_z
 _atom_site_occupancy
  Ca  Ca0  1  0.75000000  0.35213800  0.19428500  1
  Ca  Ca1  1  0.25000000  0.64786200  0.80571500  1
  Mo  Mo2  1  0.25000000  0.63901600  0.20488900  1
  Mo  Mo3  1  0.75000000  0.36098400  0.79511100  1
  Mo  Mo4  1  0.25000000  0.22880000  0.44195000  1
  Mo  Mo5  1  0.50000000  0.00000000  0.00000000  1
  Mo  Mo6  1  0.75000000  0.77120000  0.55805000  1
  Mo  Mo7  1  0.00000000  0.00000000  0.00000000  1
  P  P8  1  0.25000000  0.78685400  0.49304800  1
  P  P9  1  0.75000000  0.21314600  0.50695200  1
  P  P10  1  0.25000000  0.26251900  0.76653200  1
  P  P11  1  0.75000000  0.73748100  0.23346800  1
  P  P12  1  0.75000000  0.68306900  0.88875900  1
  P  P13  1  0.25000000  0.31693100  0.11124100  1
  O  O14  1  0.75000000  0.64661100  0.74831100  1
  O  O15  1  0.56863600  0.24825500  0.41394300  1
  O  O16  1  0.25000000  0.20029100  0.64043500  1
  O  O17  1  0.55331700  0.78056000  0.90457000  1
  O  O18  1  0.75000000  0.34387200  0.59948600  1
  O  O19  1  0.75000000  0.11945400  0.90275300  1
  O  O20  1  0.25000000  0.65612800  0.40051400  1
  O  O21  1  0.05331700  0.21944000  0.09543000  1
  O  O22  1  0.25000000  0.97218400  0.41596800  1
  O  O23  1  0.75000000  0.02781600  0.58403200  1
  O  O24  1  0.07069000  0.37983900  0.78729700  1
  O  O25  1  0.25000000  0.88054600  0.09724700  1
  O  O26  1  0.57069000  0.62016100  0.21270300  1
  O  O27  1  0.75000000  0.49668400  0.96646500  1
  O  O28  1  0.75000000  0.79970900  0.35956500  1
  O  O29  1  0.44668300  0.21944000  0.09543000  1
  O  O30  1  0.93136400  0.24825500  0.41394300  1
  O  O31  1  0.43136400  0.75174500  0.58605700  1
  O  O32  1  0.42931000  0.37983900  0.78729700  1
  O  O33  1  0.25000000  0.35338900  0.25168900  1
  O  O34  1  0.75000000  0.90523100  0.12770200  1
  O  O35  1  0.25000000  0.09476900  0.87229800  1
  O  O36  1  0.92931000  0.62016100  0.21270300  1
  O  O37  1  0.94668300  0.78056000  0.90457000  1
  O  O38  1  0.06863600  0.75174500  0.58605700  1
  O  O39  1  0.25000000  0.50331600  0.03353500  1
