# generated using pymatgen
data_Mn4ZnO9
_symmetry_space_group_name_H-M   'P 1'
_cell_length_a   8.55721400
_cell_length_b   8.55721400
_cell_length_c   4.76161700
_cell_angle_alpha   90.00000000
_cell_angle_beta   90.00000000
_cell_angle_gamma   90.00000000
_symmetry_Int_Tables_number   1
_chemical_formula_structural   Mn4ZnO9
_chemical_formula_sum   'Mn8 Zn2 O18'
_cell_volume   348.67374476
_cell_formula_units_Z   2
loop_
 _symmetry_equiv_pos_site_id
 _symmetry_equiv_pos_as_xyz
  1  'x, y, z'
loop_
 _atom_site_type_symbol
 _atom_site_label
 _atom_site_symmetry_multiplicity
 _atom_site_fract_x
 _atom_site_fract_y
 _atom_site_fract_z
 _atom_site_occupancy
  Mn  Mn0  1  0.09043300  0.78227900  0.60331900  1
  Mn  Mn1  1  0.21772100  0.09043300  0.39668100  1
  Mn  Mn2  1  0.71772100  0.59043300  0.60331900  1
  Mn  Mn3  1  0.59043300  0.28227900  0.39668100  1
  Mn  Mn4  1  0.90956700  0.21772100  0.60331900  1
  Mn  Mn5  1  0.28227900  0.40956700  0.60331900  1
  Mn  Mn6  1  0.40956700  0.71772100  0.39668100  1
  Mn  Mn7  1  0.78227900  0.90956700  0.39668100  1
  Zn  Zn8  1  0.00000000  0.50000000  0.00592500  1
  Zn  Zn9  1  0.50000000  0.00000000  0.99407500  1
  O  O10  1  0.00000000  0.00000000  0.50000000  1
  O  O11  1  0.50000000  0.50000000  0.50000000  1
  O  O12  1  0.72177000  0.93534000  0.04743800  1
  O  O13  1  0.43534000  0.77823000  0.04743800  1
  O  O14  1  0.56466000  0.22177000  0.04743800  1
  O  O15  1  0.27823000  0.06466000  0.04743800  1
  O  O16  1  0.77823000  0.56466000  0.95256200  1
  O  O17  1  0.06466000  0.72177000  0.95256200  1
  O  O18  1  0.93534000  0.27823000  0.95256200  1
  O  O19  1  0.22177000  0.43534000  0.95256200  1
  O  O20  1  0.10859200  0.28776700  0.46985100  1
  O  O21  1  0.78776700  0.39140800  0.46985100  1
  O  O22  1  0.21223300  0.60859200  0.46985100  1
  O  O23  1  0.89140800  0.71223300  0.46985100  1
  O  O24  1  0.60859200  0.78776700  0.53014900  1
  O  O25  1  0.71223300  0.10859200  0.53014900  1
  O  O26  1  0.28776700  0.89140800  0.53014900  1
  O  O27  1  0.39140800  0.21223300  0.53014900  1
