# generated using pymatgen
data_VBiO5
_symmetry_space_group_name_H-M   'P 1'
_cell_length_a   6.01321600
_cell_length_b   11.57487600
_cell_length_c   15.44556200
_cell_angle_alpha   90.00000000
_cell_angle_beta   90.00000000
_cell_angle_gamma   90.00000000
_symmetry_Int_Tables_number   1
_chemical_formula_structural   VBiO5
_chemical_formula_sum   'V8 Bi8 O40'
_cell_volume   1075.04555203
_cell_formula_units_Z   8
loop_
 _symmetry_equiv_pos_site_id
 _symmetry_equiv_pos_as_xyz
  1  'x, y, z'
loop_
 _atom_site_type_symbol
 _atom_site_label
 _atom_site_symmetry_multiplicity
 _atom_site_fract_x
 _atom_site_fract_y
 _atom_site_fract_z
 _atom_site_occupancy
  V  V0  1  0.97800200  0.39955100  0.38586100  1
  V  V1  1  0.52199800  0.89955100  0.61413900  1
  V  V2  1  0.02199800  0.60044900  0.61413900  1
  V  V3  1  0.47800200  0.10044900  0.38586100  1
  V  V4  1  0.02199800  0.10044900  0.88586100  1
  V  V5  1  0.97800200  0.89955100  0.11413900  1
  V  V6  1  0.52199800  0.39955100  0.88586100  1
  V  V7  1  0.47800200  0.60044900  0.11413900  1
  Bi  Bi8  1  0.92087600  0.82167600  0.79151100  1
  Bi  Bi9  1  0.07912400  0.17832400  0.20848900  1
  Bi  Bi10  1  0.57912400  0.32167600  0.20848900  1
  Bi  Bi11  1  0.07912400  0.67832400  0.29151100  1
  Bi  Bi12  1  0.42087600  0.17832400  0.70848900  1
  Bi  Bi13  1  0.42087600  0.67832400  0.79151100  1
  Bi  Bi14  1  0.57912400  0.82167600  0.29151100  1
  Bi  Bi15  1  0.92087600  0.32167600  0.70848900  1
  O  O16  1  0.87879600  0.29644800  0.29813800  1
  O  O17  1  0.24948400  0.04651300  0.92918100  1
  O  O18  1  0.25051600  0.54651300  0.07081900  1
  O  O19  1  0.23276200  0.80224400  0.85567000  1
  O  O20  1  0.26723800  0.30224400  0.14433000  1
  O  O21  1  0.87879600  0.79644800  0.20186200  1
  O  O22  1  0.26723800  0.80224400  0.35567000  1
  O  O23  1  0.62120400  0.79644800  0.70186200  1
  O  O24  1  0.24948400  0.54651300  0.57081900  1
  O  O25  1  0.12120400  0.70355200  0.70186200  1
  O  O26  1  0.62120400  0.29644800  0.79813800  1
  O  O27  1  0.61775600  0.17029100  0.46222300  1
  O  O28  1  0.74948400  0.95348700  0.57081900  1
  O  O29  1  0.76723800  0.69775600  0.35567000  1
  O  O30  1  0.16033600  0.00882100  0.16574600  1
  O  O31  1  0.74948400  0.45348700  0.92918100  1
  O  O32  1  0.12120400  0.20355200  0.79813800  1
  O  O33  1  0.73276200  0.19775600  0.64433000  1
  O  O34  1  0.11775600  0.82970900  0.03777700  1
  O  O35  1  0.25051600  0.04651300  0.42918100  1
  O  O36  1  0.38224400  0.82970900  0.53777700  1
  O  O37  1  0.83966400  0.99117900  0.83425400  1
  O  O38  1  0.76723800  0.19775600  0.14433000  1
  O  O39  1  0.66033600  0.99117900  0.33425400  1
  O  O40  1  0.38224400  0.32970900  0.96222300  1
  O  O41  1  0.11775600  0.32970900  0.46222300  1
  O  O42  1  0.75051600  0.45348700  0.42918100  1
  O  O43  1  0.75051600  0.95348700  0.07081900  1
  O  O44  1  0.66033600  0.49117900  0.16574600  1
  O  O45  1  0.88224400  0.67029100  0.53777700  1
  O  O46  1  0.88224400  0.17029100  0.96222300  1
  O  O47  1  0.61775600  0.67029100  0.03777700  1
  O  O48  1  0.83966400  0.49117900  0.66574600  1
  O  O49  1  0.73276200  0.69775600  0.85567000  1
  O  O50  1  0.23276200  0.30224400  0.64433000  1
  O  O51  1  0.16033600  0.50882100  0.33425400  1
  O  O52  1  0.33966400  0.50882100  0.83425400  1
  O  O53  1  0.37879600  0.20355200  0.29813800  1
  O  O54  1  0.33966400  0.00882100  0.66574600  1
  O  O55  1  0.37879600  0.70355200  0.20186200  1
