# generated using pymatgen
data_Ba2AlV3O8
_symmetry_space_group_name_H-M   'P 1'
_cell_length_a   3.83002300
_cell_length_b   4.00904000
_cell_length_c   11.86963600
_cell_angle_alpha   90.00000000
_cell_angle_beta   90.00000000
_cell_angle_gamma   90.00000000
_symmetry_Int_Tables_number   1
_chemical_formula_structural   Ba2AlV3O8
_chemical_formula_sum   'Ba2 Al1 V3 O8'
_cell_volume   182.25488278
_cell_formula_units_Z   1
loop_
 _symmetry_equiv_pos_site_id
 _symmetry_equiv_pos_as_xyz
  1  'x, y, z'
loop_
 _atom_site_type_symbol
 _atom_site_label
 _atom_site_symmetry_multiplicity
 _atom_site_fract_x
 _atom_site_fract_y
 _atom_site_fract_z
 _atom_site_occupancy
  Ba  Ba0  1  0.50000000  0.00000000  0.16731800  1
  Ba  Ba1  1  0.50000000  0.00000000  0.83268200  1
  Al  Al2  1  0.50000000  0.00000000  0.50000000  1
  V  V3  1  0.00000000  0.50000000  0.34954000  1
  V  V4  1  0.00000000  0.50000000  0.00000000  1
  V  V5  1  0.00000000  0.50000000  0.65046000  1
  O  O6  1  0.00000000  0.00000000  0.39329000  1
  O  O7  1  0.50000000  0.50000000  0.39620400  1
  O  O8  1  0.50000000  0.50000000  0.00000000  1
  O  O9  1  0.00000000  0.50000000  0.18978600  1
  O  O10  1  0.00000000  0.00000000  0.60671000  1
  O  O11  1  0.50000000  0.50000000  0.60379600  1
  O  O12  1  0.00000000  0.50000000  0.81021400  1
  O  O13  1  0.00000000  0.00000000  0.00000000  1
