# generated using pymatgen
data_V3P3O13
_symmetry_space_group_name_H-M   'P 1'
_cell_length_a   6.37654400
_cell_length_b   7.62652700
_cell_length_c   10.37980519
_cell_angle_alpha   81.02418317
_cell_angle_beta   90.00000000
_cell_angle_gamma   90.00000000
_symmetry_Int_Tables_number   1
_chemical_formula_structural   V3P3O13
_chemical_formula_sum   'V6 P6 O26'
_cell_volume   498.59772857
_cell_formula_units_Z   2
loop_
 _symmetry_equiv_pos_site_id
 _symmetry_equiv_pos_as_xyz
  1  'x, y, z'
loop_
 _atom_site_type_symbol
 _atom_site_label
 _atom_site_symmetry_multiplicity
 _atom_site_fract_x
 _atom_site_fract_y
 _atom_site_fract_z
 _atom_site_occupancy
  V  V0  1  0.25000000  0.64453800  0.19143100  1
  V  V1  1  0.75000000  0.35546200  0.80856900  1
  V  V2  1  0.25000000  0.20902500  0.44463300  1
  V  V3  1  0.50000000  0.00000000  0.00000000  1
  V  V4  1  0.75000000  0.79097500  0.55536700  1
  V  V5  1  0.00000000  0.00000000  0.00000000  1
  P  P6  1  0.25000000  0.78266800  0.47991600  1
  P  P7  1  0.75000000  0.21733200  0.52008400  1
  P  P8  1  0.25000000  0.25806300  0.76718500  1
  P  P9  1  0.75000000  0.74193700  0.23281500  1
  P  P10  1  0.75000000  0.69778700  0.87690900  1
  P  P11  1  0.25000000  0.30221300  0.12309100  1
  O  O12  1  0.75000000  0.66575700  0.73038800  1
  O  O13  1  0.55231800  0.24937000  0.43575200  1
  O  O14  1  0.25000000  0.20870600  0.62464800  1
  O  O15  1  0.55030700  0.79363600  0.90846000  1
  O  O16  1  0.75000000  0.33832600  0.62399600  1
  O  O17  1  0.75000000  0.13213400  0.90454800  1
  O  O18  1  0.25000000  0.66167400  0.37600400  1
  O  O19  1  0.05030700  0.20636400  0.09154000  1
  O  O20  1  0.25000000  0.98309700  0.40877800  1
  O  O21  1  0.75000000  0.01690300  0.59122200  1
  O  O22  1  0.05452500  0.36624400  0.78566500  1
  O  O23  1  0.25000000  0.86786600  0.09545200  1
  O  O24  1  0.55452500  0.63375600  0.21433500  1
  O  O25  1  0.75000000  0.49694600  0.94221500  1
  O  O26  1  0.75000000  0.79129400  0.37535200  1
  O  O27  1  0.44969300  0.20636400  0.09154000  1
  O  O28  1  0.94768200  0.24937000  0.43575200  1
  O  O29  1  0.44768200  0.75063000  0.56424800  1
  O  O30  1  0.44547500  0.36624400  0.78566500  1
  O  O31  1  0.25000000  0.33424300  0.26961200  1
  O  O32  1  0.75000000  0.91852300  0.13309600  1
  O  O33  1  0.25000000  0.08147700  0.86690400  1
  O  O34  1  0.94547500  0.63375600  0.21433500  1
  O  O35  1  0.94969300  0.79363600  0.90846000  1
  O  O36  1  0.05231800  0.75063000  0.56424800  1
  O  O37  1  0.25000000  0.50305400  0.05778500  1
