# generated using pymatgen
data_V4O9
_symmetry_space_group_name_H-M   'P 1'
_cell_length_a   8.49285400
_cell_length_b   8.49285400
_cell_length_c   5.02144500
_cell_angle_alpha   90.00000000
_cell_angle_beta   90.00000000
_cell_angle_gamma   90.00000000
_symmetry_Int_Tables_number   1
_chemical_formula_structural   V4O9
_chemical_formula_sum   'V8 O18'
_cell_volume   362.18964249
_cell_formula_units_Z   2
loop_
 _symmetry_equiv_pos_site_id
 _symmetry_equiv_pos_as_xyz
  1  'x, y, z'
loop_
 _atom_site_type_symbol
 _atom_site_label
 _atom_site_symmetry_multiplicity
 _atom_site_fract_x
 _atom_site_fract_y
 _atom_site_fract_z
 _atom_site_occupancy
  V  V0  1  0.09316800  0.78184700  0.61630300  1
  V  V1  1  0.21815300  0.09316800  0.38369700  1
  V  V2  1  0.71815300  0.59316800  0.61630300  1
  V  V3  1  0.59316800  0.28184700  0.38369700  1
  V  V4  1  0.90683200  0.21815300  0.61630300  1
  V  V5  1  0.28184700  0.40683200  0.61630300  1
  V  V6  1  0.40683200  0.71815300  0.38369700  1
  V  V7  1  0.78184700  0.90683200  0.38369700  1
  O  O8  1  0.00000000  0.00000000  0.50000000  1
  O  O9  1  0.50000000  0.50000000  0.50000000  1
  O  O10  1  0.76421600  0.91977600  0.06611000  1
  O  O11  1  0.41977600  0.73578400  0.06611000  1
  O  O12  1  0.58022400  0.26421600  0.06611000  1
  O  O13  1  0.23578400  0.08022400  0.06611000  1
  O  O14  1  0.73578400  0.58022400  0.93389000  1
  O  O15  1  0.08022400  0.76421600  0.93389000  1
  O  O16  1  0.91977600  0.23578400  0.93389000  1
  O  O17  1  0.26421600  0.41977600  0.93389000  1
  O  O18  1  0.10632900  0.28711200  0.48671700  1
  O  O19  1  0.78711200  0.39367100  0.48671700  1
  O  O20  1  0.21288800  0.60632900  0.48671700  1
  O  O21  1  0.89367100  0.71288800  0.48671700  1
  O  O22  1  0.60632900  0.78711200  0.51328300  1
  O  O23  1  0.71288800  0.10632900  0.51328300  1
  O  O24  1  0.28711200  0.89367100  0.51328300  1
  O  O25  1  0.39367100  0.21288800  0.51328300  1
