# generated using pymatgen
data_Ca(BiO2)4
_symmetry_space_group_name_H-M   'P 1'
_cell_length_a   7.93133846
_cell_length_b   7.93133846
_cell_length_c   10.05831389
_cell_angle_alpha   57.12901810
_cell_angle_beta   57.12901810
_cell_angle_gamma   24.92559976
_symmetry_Int_Tables_number   1
_chemical_formula_structural   Ca(BiO2)4
_chemical_formula_sum   'Ca1 Bi4 O8'
_cell_volume   221.66888599
_cell_formula_units_Z   1
loop_
 _symmetry_equiv_pos_site_id
 _symmetry_equiv_pos_as_xyz
  1  'x, y, z'
loop_
 _atom_site_type_symbol
 _atom_site_label
 _atom_site_symmetry_multiplicity
 _atom_site_fract_x
 _atom_site_fract_y
 _atom_site_fract_z
 _atom_site_occupancy
  Ca  Ca0  1  0.59499000  0.59499000  0.88098000  1
  Bi  Bi1  1  0.39103200  0.39103200  0.86334400  1
  Bi  Bi2  1  0.87080300  0.87080300  0.50369900  1
  Bi  Bi3  1  0.15630600  0.15630600  0.51195400  1
  Bi  Bi4  1  0.62908700  0.62908700  0.18310300  1
  O  O5  1  0.09293400  0.09293400  0.37494100  1
  O  O6  1  0.55939900  0.55939900  0.66038400  1
  O  O7  1  0.46265300  0.46265300  0.33222600  1
  O  O8  1  0.87542900  0.87542900  0.72419100  1
  O  O9  1  0.97228100  0.97228100  0.91468200  1
  O  O10  1  0.21924800  0.21924800  0.65439900  1
  O  O11  1  0.12143000  0.12143000  0.03564500  1
  O  O12  1  0.75735700  0.75735700  0.38434800  1
