# generated using pymatgen
data_BaCaCoF7
_symmetry_space_group_name_H-M   'P 1'
_cell_length_a   10.43785500
_cell_length_b   5.81910700
_cell_length_c   9.94396064
_cell_angle_alpha   87.05726750
_cell_angle_beta   90.00000000
_cell_angle_gamma   90.00000000
_symmetry_Int_Tables_number   1
_chemical_formula_structural   BaCaCoF7
_chemical_formula_sum   'Ba4 Ca4 Co4 F28'
_cell_volume   603.18972797
_cell_formula_units_Z   4
loop_
 _symmetry_equiv_pos_site_id
 _symmetry_equiv_pos_as_xyz
  1  'x, y, z'
loop_
 _atom_site_type_symbol
 _atom_site_label
 _atom_site_symmetry_multiplicity
 _atom_site_fract_x
 _atom_site_fract_y
 _atom_site_fract_z
 _atom_site_occupancy
  Ba  Ba0  1  0.32589200  0.72977200  0.50533900  1
  Ba  Ba1  1  0.82589200  0.27022800  0.99466100  1
  Ba  Ba2  1  0.67410800  0.27022800  0.49466100  1
  Ba  Ba3  1  0.17410800  0.72977200  0.00533900  1
  Ca  Ca4  1  0.40867900  0.29467000  0.82090400  1
  Ca  Ca5  1  0.90867900  0.70533000  0.67909600  1
  Ca  Ca6  1  0.09132100  0.29467000  0.32090400  1
  Ca  Ca7  1  0.59132100  0.70533000  0.17909600  1
  Co  Co8  1  0.62037900  0.80977500  0.80762500  1
  Co  Co9  1  0.37962100  0.19022500  0.19237500  1
  Co  Co10  1  0.87962100  0.80977500  0.30762500  1
  Co  Co11  1  0.12037900  0.19022500  0.69237500  1
  F  F12  1  0.42017700  0.90284100  0.10820500  1
  F  F13  1  0.03777300  0.65752200  0.36891400  1
  F  F14  1  0.70609900  0.53099800  0.74203900  1
  F  F15  1  0.29390100  0.46900200  0.25796100  1
  F  F16  1  0.45802800  0.09923400  0.35428800  1
  F  F17  1  0.79948700  0.72218000  0.47586300  1
  F  F18  1  0.77374400  0.98761400  0.74436700  1
  F  F19  1  0.95802800  0.90076600  0.14571200  1
  F  F20  1  0.46222700  0.65752200  0.86891400  1
  F  F21  1  0.20609900  0.46900200  0.75796100  1
  F  F22  1  0.07982300  0.90284100  0.60820500  1
  F  F23  1  0.57982300  0.09715900  0.89179500  1
  F  F24  1  0.27374400  0.01238600  0.75563300  1
  F  F25  1  0.96040100  0.61253700  0.88549700  1
  F  F26  1  0.54197200  0.90076600  0.64571200  1
  F  F27  1  0.04197200  0.09923400  0.85428800  1
  F  F28  1  0.22625600  0.01238600  0.25563300  1
  F  F29  1  0.92017700  0.09715900  0.39179500  1
  F  F30  1  0.46040100  0.38746300  0.61450300  1
  F  F31  1  0.96222700  0.34247800  0.63108600  1
  F  F32  1  0.03959900  0.38746300  0.11450300  1
  F  F33  1  0.72625600  0.98761400  0.24436700  1
  F  F34  1  0.53959900  0.61253700  0.38549700  1
  F  F35  1  0.29948700  0.27782000  0.02413700  1
  F  F36  1  0.20051300  0.27782000  0.52413700  1
  F  F37  1  0.70051300  0.72218000  0.97586300  1
  F  F38  1  0.53777300  0.34247800  0.13108600  1
  F  F39  1  0.79390100  0.53099800  0.24203900  1
