# generated using pymatgen
data_Y4(Cu2O5)3
_symmetry_space_group_name_H-M   'P 1'
_cell_length_a   6.28249900
_cell_length_b   11.56132600
_cell_length_c   21.75256800
_cell_angle_alpha   90.00000000
_cell_angle_beta   90.00000000
_cell_angle_gamma   90.00000000
_symmetry_Int_Tables_number   1
_chemical_formula_structural   Y4(Cu2O5)3
_chemical_formula_sum   'Y16 Cu24 O60'
_cell_volume   1579.97643814
_cell_formula_units_Z   4
loop_
 _symmetry_equiv_pos_site_id
 _symmetry_equiv_pos_as_xyz
  1  'x, y, z'
loop_
 _atom_site_type_symbol
 _atom_site_label
 _atom_site_symmetry_multiplicity
 _atom_site_fract_x
 _atom_site_fract_y
 _atom_site_fract_z
 _atom_site_occupancy
  Y  Y0  1  0.75113100  0.01577200  0.45602700  1
  Y  Y1  1  0.75684400  0.00838200  0.12216100  1
  Y  Y2  1  0.25113100  0.48422800  0.54397300  1
  Y  Y3  1  0.25684400  0.49161800  0.87783900  1
  Y  Y4  1  0.74315600  0.99161800  0.62216100  1
  Y  Y5  1  0.74886900  0.98422800  0.95602700  1
  Y  Y6  1  0.24315600  0.50838200  0.37783900  1
  Y  Y7  1  0.24886900  0.51577200  0.04397300  1
  Y  Y8  1  0.24548200  0.98741000  0.71119500  1
  Y  Y9  1  0.25023300  0.99069800  0.37739900  1
  Y  Y10  1  0.75023300  0.50930200  0.62260100  1
  Y  Y11  1  0.74548200  0.51259000  0.28880500  1
  Y  Y12  1  0.25451800  0.01259000  0.21119500  1
  Y  Y13  1  0.24976700  0.00930200  0.87739900  1
  Y  Y14  1  0.74976700  0.49069800  0.12260100  1
  Y  Y15  1  0.75451800  0.48741000  0.78880500  1
  Cu  Cu16  1  0.06893100  0.24827500  0.46848800  1
  Cu  Cu17  1  0.06203400  0.25466700  0.13894300  1
  Cu  Cu18  1  0.06114500  0.24686400  0.80585700  1
  Cu  Cu19  1  0.56893100  0.25172500  0.53151200  1
  Cu  Cu20  1  0.56114500  0.25313600  0.19414300  1
  Cu  Cu21  1  0.56203400  0.24533300  0.86105700  1
  Cu  Cu22  1  0.43796600  0.74533300  0.63894300  1
  Cu  Cu23  1  0.43885500  0.75313600  0.30585700  1
  Cu  Cu24  1  0.43106900  0.75172500  0.96848800  1
  Cu  Cu25  1  0.93885500  0.74686400  0.69414300  1
  Cu  Cu26  1  0.93796600  0.75466700  0.36105700  1
  Cu  Cu27  1  0.93106900  0.74827500  0.03151200  1
  Cu  Cu28  1  0.62459500  0.24304100  0.71504200  1
  Cu  Cu29  1  0.59877800  0.25930100  0.38808600  1
  Cu  Cu30  1  0.60224500  0.24963600  0.04835700  1
  Cu  Cu31  1  0.09877800  0.24069900  0.61191400  1
  Cu  Cu32  1  0.12459500  0.25695900  0.28495800  1
  Cu  Cu33  1  0.10224500  0.25036400  0.95164300  1
  Cu  Cu34  1  0.89775500  0.75036400  0.54835700  1
  Cu  Cu35  1  0.87540500  0.75695900  0.21504200  1
  Cu  Cu36  1  0.90122200  0.74069900  0.88808600  1
  Cu  Cu37  1  0.39775500  0.74963600  0.45164300  1
  Cu  Cu38  1  0.40122200  0.75930100  0.11191400  1
  Cu  Cu39  1  0.37540500  0.74304100  0.78495800  1
  O  O40  1  0.76070700  0.23863600  0.45874600  1
  O  O41  1  0.75828400  0.25471400  0.12328000  1
  O  O42  1  0.76099600  0.25896600  0.79074400  1
  O  O43  1  0.26070700  0.26136400  0.54125400  1
  O  O44  1  0.26099600  0.24103400  0.20925600  1
  O  O45  1  0.25828400  0.24528600  0.87672000  1
  O  O46  1  0.74171600  0.74528600  0.62328000  1
  O  O47  1  0.73900400  0.74103400  0.29074400  1
  O  O48  1  0.73929300  0.76136400  0.95874600  1
  O  O49  1  0.23900400  0.75896600  0.70925600  1
  O  O50  1  0.24171600  0.75471400  0.37672000  1
  O  O51  1  0.23929300  0.73863600  0.04125400  1
  O  O52  1  0.08274700  0.09517300  0.45113200  1
  O  O53  1  0.07299100  0.09883400  0.13303100  1
  O  O54  1  0.12855900  0.09839400  0.79008600  1
  O  O55  1  0.58274700  0.40482700  0.54886800  1
  O  O56  1  0.62855900  0.40160600  0.20991400  1
  O  O57  1  0.57299100  0.40116600  0.86696900  1
  O  O58  1  0.42700900  0.90116600  0.63303100  1
  O  O59  1  0.37144100  0.90160600  0.29008600  1
  O  O60  1  0.41725300  0.90482700  0.95113200  1
  O  O61  1  0.87144100  0.59839400  0.70991400  1
  O  O62  1  0.92700900  0.59883400  0.36696900  1
  O  O63  1  0.91725300  0.59517300  0.04886800  1
  O  O64  1  0.92381600  0.90256400  0.69872400  1
  O  O65  1  0.92072300  0.90525400  0.38273100  1
  O  O66  1  0.87595800  0.89985900  0.04398600  1
  O  O67  1  0.42072300  0.59474600  0.61726900  1
  O  O68  1  0.42381600  0.59743600  0.30127600  1
  O  O69  1  0.37595800  0.60014100  0.95601400  1
  O  O70  1  0.62404200  0.10014100  0.54398600  1
  O  O71  1  0.57618400  0.09743600  0.19872400  1
  O  O72  1  0.57927700  0.09474600  0.88273100  1
  O  O73  1  0.12404200  0.39985900  0.45601400  1
  O  O74  1  0.07927700  0.40525400  0.11726900  1
  O  O75  1  0.07618400  0.40256400  0.80127600  1
  O  O76  1  0.53957900  0.10596200  0.68865300  1
  O  O77  1  0.54236300  0.10762300  0.38371200  1
  O  O78  1  0.62744500  0.09936800  0.03425400  1
  O  O79  1  0.04236300  0.39237700  0.61628800  1
  O  O80  1  0.03957900  0.39403800  0.31134700  1
  O  O81  1  0.12744500  0.40063200  0.96574600  1
  O  O82  1  0.87255500  0.90063200  0.53425400  1
  O  O83  1  0.96042100  0.89403800  0.18865300  1
  O  O84  1  0.95763700  0.89237700  0.88371200  1
  O  O85  1  0.37255500  0.59936800  0.46574600  1
  O  O86  1  0.45763700  0.60762300  0.11628800  1
  O  O87  1  0.46042100  0.60596200  0.81134700  1
  O  O88  1  0.46133400  0.89893600  0.44948700  1
  O  O89  1  0.45754100  0.89453800  0.14565600  1
  O  O90  1  0.37489500  0.89632400  0.79850400  1
  O  O91  1  0.96133400  0.60106400  0.55051300  1
  O  O92  1  0.87489500  0.60367600  0.20149600  1
  O  O93  1  0.95754100  0.60546200  0.85434400  1
  O  O94  1  0.04245900  0.10546200  0.64565600  1
  O  O95  1  0.12510500  0.10367600  0.29850400  1
  O  O96  1  0.03866600  0.10106400  0.94948700  1
  O  O97  1  0.62510500  0.39632400  0.70149600  1
  O  O98  1  0.54245900  0.39453800  0.35434400  1
  O  O99  1  0.53866600  0.39893600  0.05051300  1
