# generated using pymatgen
data_Ca(CoO2)2
_symmetry_space_group_name_H-M   'P 1'
_cell_length_a   5.13315500
_cell_length_b   5.92738700
_cell_length_c   11.04727200
_cell_angle_alpha   90.00000000
_cell_angle_beta   90.00000000
_cell_angle_gamma   90.00000000
_symmetry_Int_Tables_number   1
_chemical_formula_structural   Ca(CoO2)2
_chemical_formula_sum   'Ca4 Co8 O16'
_cell_volume   336.12646552
_cell_formula_units_Z   4
loop_
 _symmetry_equiv_pos_site_id
 _symmetry_equiv_pos_as_xyz
  1  'x, y, z'
loop_
 _atom_site_type_symbol
 _atom_site_label
 _atom_site_symmetry_multiplicity
 _atom_site_fract_x
 _atom_site_fract_y
 _atom_site_fract_z
 _atom_site_occupancy
  Ca  Ca0  1  0.35278100  0.00000000  0.50000000  1
  Ca  Ca1  1  0.64721900  0.50000000  0.00000000  1
  Ca  Ca2  1  0.03024700  0.00000000  0.00000000  1
  Ca  Ca3  1  0.96975300  0.50000000  0.50000000  1
  Co  Co4  1  0.01041300  0.50000000  0.23792900  1
  Co  Co5  1  0.01041300  0.50000000  0.76207100  1
  Co  Co6  1  0.98958700  0.00000000  0.26207100  1
  Co  Co7  1  0.98958700  0.00000000  0.73792900  1
  Co  Co8  1  0.50000000  0.25000000  0.25000000  1
  Co  Co9  1  0.50000000  0.75000000  0.75000000  1
  Co  Co10  1  0.50000000  0.75000000  0.25000000  1
  Co  Co11  1  0.50000000  0.25000000  0.75000000  1
  O  O12  1  0.33362500  0.50000000  0.15233800  1
  O  O13  1  0.33362500  0.50000000  0.84766200  1
  O  O14  1  0.66637500  0.00000000  0.34766200  1
  O  O15  1  0.66637500  0.00000000  0.65233800  1
  O  O16  1  0.66990900  0.50000000  0.33928700  1
  O  O17  1  0.66990900  0.50000000  0.66071300  1
  O  O18  1  0.33009100  0.00000000  0.16071300  1
  O  O19  1  0.33009100  0.00000000  0.83928700  1
  O  O20  1  0.16376400  0.25175900  0.35442900  1
  O  O21  1  0.16376400  0.74824100  0.64557100  1
  O  O22  1  0.83623600  0.75175900  0.14557100  1
  O  O23  1  0.83623600  0.24824100  0.85442900  1
  O  O24  1  0.83623600  0.24824100  0.14557100  1
  O  O25  1  0.83623600  0.75175900  0.85442900  1
  O  O26  1  0.16376400  0.74824100  0.35442900  1
  O  O27  1  0.16376400  0.25175900  0.64557100  1
