# generated using pymatgen
data_CaV4O8
_symmetry_space_group_name_H-M   'P 1'
_cell_length_a   7.25362772
_cell_length_b   7.25362772
_cell_length_c   9.66399745
_cell_angle_alpha   48.97988056
_cell_angle_beta   48.97988056
_cell_angle_gamma   24.72116627
_symmetry_Int_Tables_number   1
_chemical_formula_structural   CaV4O8
_chemical_formula_sum   'Ca1 V4 O8'
_cell_volume   157.49365025
_cell_formula_units_Z   1
loop_
 _symmetry_equiv_pos_site_id
 _symmetry_equiv_pos_as_xyz
  1  'x, y, z'
loop_
 _atom_site_type_symbol
 _atom_site_label
 _atom_site_symmetry_multiplicity
 _atom_site_fract_x
 _atom_site_fract_y
 _atom_site_fract_z
 _atom_site_occupancy
  Ca  Ca0  1  0.61604700  0.61604700  0.89678300  1
  V  V1  1  0.36074200  0.36074200  0.82372800  1
  V  V2  1  0.85420600  0.85420600  0.48997700  1
  V  V3  1  0.15831600  0.15831600  0.50773800  1
  V  V4  1  0.65381900  0.65381900  0.19028100  1
  O  O5  1  0.15024400  0.15024400  0.31923200  1
  O  O6  1  0.53351800  0.53351800  0.66712900  1
  O  O7  1  0.46357100  0.46357100  0.35849400  1
  O  O8  1  0.84767700  0.84767700  0.69814200  1
  O  O9  1  0.84084600  0.84084600  0.96917200  1
  O  O10  1  0.21299300  0.21299300  0.65835800  1
  O  O11  1  0.16419900  0.16419900  0.01859200  1
  O  O12  1  0.78895700  0.78895700  0.37973000  1
