# generated using pymatgen
data_Zn3Bi2(PO6)2
_symmetry_space_group_name_H-M   'P 1'
_cell_length_a   5.25335400
_cell_length_b   7.93856100
_cell_length_c   12.04439100
_cell_angle_alpha   88.87129292
_cell_angle_beta   90.00000000
_cell_angle_gamma   90.00000000
_symmetry_Int_Tables_number   1
_chemical_formula_structural   Zn3Bi2(PO6)2
_chemical_formula_sum   'Zn6 Bi4 P4 O24'
_cell_volume   502.20267721
_cell_formula_units_Z   2
loop_
 _symmetry_equiv_pos_site_id
 _symmetry_equiv_pos_as_xyz
  1  'x, y, z'
loop_
 _atom_site_type_symbol
 _atom_site_label
 _atom_site_symmetry_multiplicity
 _atom_site_fract_x
 _atom_site_fract_y
 _atom_site_fract_z
 _atom_site_occupancy
  Zn  Zn0  1  0.00000000  0.30608200  0.08047400  1
  Zn  Zn1  1  0.50000000  0.18135200  0.40131700  1
  Zn  Zn2  1  0.50000000  0.68115900  0.91860600  1
  Zn  Zn3  1  0.00000000  0.20207200  0.58695500  1
  Zn  Zn4  1  0.00000000  0.81395300  0.59783300  1
  Zn  Zn5  1  0.00000000  0.69560500  0.10560000  1
  Bi  Bi6  1  0.50000000  0.01582400  0.10795100  1
  Bi  Bi7  1  0.50000000  0.46405500  0.61067200  1
  Bi  Bi8  1  0.00000000  0.54370600  0.39413100  1
  Bi  Bi9  1  0.00000000  0.99157200  0.89822200  1
  P  P10  1  0.50000000  0.03097900  0.69560500  1
  P  P11  1  0.00000000  0.98326600  0.30207200  1
  P  P12  1  0.50000000  0.46057600  0.19991600  1
  P  P13  1  0.00000000  0.53894300  0.79998100  1
  O  O14  1  0.23671100  0.66543500  0.51885000  1
  O  O15  1  0.25183500  0.00789700  0.62362100  1
  O  O16  1  0.75099900  0.81990100  0.00555200  1
  O  O17  1  0.00000000  0.40982800  0.70412500  1
  O  O18  1  0.23801700  0.00539700  0.37399300  1
  O  O19  1  0.25339300  0.49125900  0.12728500  1
  O  O20  1  0.24243100  0.51554600  0.87140400  1
  O  O21  1  0.00000000  0.72285900  0.75334200  1
  O  O22  1  0.50000000  0.57703300  0.29872700  1
  O  O23  1  0.76198300  0.00539700  0.37399300  1
  O  O24  1  0.24900100  0.81990100  0.00555200  1
  O  O25  1  0.24810300  0.16434300  0.99902900  1
  O  O26  1  0.75756900  0.51554600  0.87140400  1
  O  O27  1  0.74660700  0.49125900  0.12728500  1
  O  O28  1  0.00000000  0.79519500  0.25987000  1
  O  O29  1  0.76328900  0.66543500  0.51885000  1
  O  O30  1  0.75189700  0.16434300  0.99902900  1
  O  O31  1  0.74552000  0.32544800  0.49052600  1
  O  O32  1  0.25448000  0.32544800  0.49052600  1
  O  O33  1  0.50000000  0.90482800  0.79374200  1
  O  O34  1  0.50000000  0.21501100  0.73113000  1
  O  O35  1  0.74816500  0.00789700  0.62362100  1
  O  O36  1  0.00000000  0.09911600  0.19807200  1
  O  O37  1  0.50000000  0.27219600  0.23665800  1
