# generated using pymatgen
data_BiOF
_symmetry_space_group_name_H-M   'P 1'
_cell_length_a   4.01445800
_cell_length_b   4.00549000
_cell_length_c   5.83501704
_cell_angle_alpha   89.99333270
_cell_angle_beta   90.00000000
_cell_angle_gamma   90.00000000
_symmetry_Int_Tables_number   1
_chemical_formula_structural   BiOF
_chemical_formula_sum   'Bi2 O2 F2'
_cell_volume   93.82632283
_cell_formula_units_Z   2
loop_
 _symmetry_equiv_pos_site_id
 _symmetry_equiv_pos_as_xyz
  1  'x, y, z'
loop_
 _atom_site_type_symbol
 _atom_site_label
 _atom_site_symmetry_multiplicity
 _atom_site_fract_x
 _atom_site_fract_y
 _atom_site_fract_z
 _atom_site_occupancy
  Bi  Bi0  1  0.25594800  0.75209600  0.28292800  1
  Bi  Bi1  1  0.75594800  0.24790400  0.71707200  1
  O  O2  1  0.25309200  0.24875400  0.50126200  1
  O  O3  1  0.75309200  0.75124600  0.49873800  1
  F  F4  1  0.24702000  0.24197900  0.00162600  1
  F  F5  1  0.74702000  0.75802100  0.99837400  1
