# generated using pymatgen
data_Mg3V2O8
_symmetry_space_group_name_H-M   'P 1'
_cell_length_a   5.82673920
_cell_length_b   5.82673920
_cell_length_c   5.82674003
_cell_angle_alpha   63.02843954
_cell_angle_beta   63.02843954
_cell_angle_gamma   63.02844479
_symmetry_Int_Tables_number   1
_chemical_formula_structural   Mg3V2O8
_chemical_formula_sum   'Mg3 V2 O8'
_cell_volume   149.28460142
_cell_formula_units_Z   1
loop_
 _symmetry_equiv_pos_site_id
 _symmetry_equiv_pos_as_xyz
  1  'x, y, z'
loop_
 _atom_site_type_symbol
 _atom_site_label
 _atom_site_symmetry_multiplicity
 _atom_site_fract_x
 _atom_site_fract_y
 _atom_site_fract_z
 _atom_site_occupancy
  Mg  Mg0  1  0.50000000  0.50000000  0.00000000  1
  Mg  Mg1  1  0.00000000  0.50000000  0.50000000  1
  Mg  Mg2  1  0.50000000  0.00000000  0.50000000  1
  V  V3  1  0.87651900  0.87651900  0.87651900  1
  V  V4  1  0.12348100  0.12348100  0.12348100  1
  O  O5  1  0.23606700  0.77256400  0.23606700  1
  O  O6  1  0.74425900  0.74425900  0.74425900  1
  O  O7  1  0.76393300  0.76393300  0.22743600  1
  O  O8  1  0.22743600  0.76393300  0.76393300  1
  O  O9  1  0.23606700  0.23606700  0.77256400  1
  O  O10  1  0.77256400  0.23606700  0.23606700  1
  O  O11  1  0.76393300  0.22743600  0.76393300  1
  O  O12  1  0.25574100  0.25574100  0.25574100  1
