# generated using pymatgen
data_MgCo2O5
_symmetry_space_group_name_H-M   'P 1'
_cell_length_a   3.20246400
_cell_length_b   4.88992900
_cell_length_c   11.38238000
_cell_angle_alpha   90.00000000
_cell_angle_beta   90.00000000
_cell_angle_gamma   90.00000000
_symmetry_Int_Tables_number   1
_chemical_formula_structural   MgCo2O5
_chemical_formula_sum   'Mg2 Co4 O10'
_cell_volume   178.24604001
_cell_formula_units_Z   2
loop_
 _symmetry_equiv_pos_site_id
 _symmetry_equiv_pos_as_xyz
  1  'x, y, z'
loop_
 _atom_site_type_symbol
 _atom_site_label
 _atom_site_symmetry_multiplicity
 _atom_site_fract_x
 _atom_site_fract_y
 _atom_site_fract_z
 _atom_site_occupancy
  Mg  Mg0  1  0.00000000  0.61735400  0.50000000  1
  Mg  Mg1  1  0.50000000  0.38264600  0.00000000  1
  Co  Co2  1  0.50000000  0.08246300  0.64993800  1
  Co  Co3  1  0.00000000  0.91753700  0.85006200  1
  Co  Co4  1  0.00000000  0.91753700  0.14993800  1
  Co  Co5  1  0.50000000  0.08246300  0.35006200  1
  O  O6  1  0.00000000  0.08374700  0.00000000  1
  O  O7  1  0.50000000  0.91625300  0.50000000  1
  O  O8  1  0.00000000  0.87450300  0.68469100  1
  O  O9  1  0.50000000  0.12549700  0.81530900  1
  O  O10  1  0.00000000  0.87450300  0.31530900  1
  O  O11  1  0.50000000  0.12549700  0.18469100  1
  O  O12  1  0.50000000  0.41347900  0.39396700  1
  O  O13  1  0.00000000  0.58652100  0.10603300  1
  O  O14  1  0.00000000  0.58652100  0.89396700  1
  O  O15  1  0.50000000  0.41347900  0.60603300  1
