# generated using pymatgen
data_Nb2Ni2O9
_symmetry_space_group_name_H-M   'P 1'
_cell_length_a   4.84656886
_cell_length_b   4.84656886
_cell_length_c   14.21809000
_cell_angle_alpha   90.00000000
_cell_angle_beta   90.00000000
_cell_angle_gamma   120.00001171
_symmetry_Int_Tables_number   1
_chemical_formula_structural   Nb2Ni2O9
_chemical_formula_sum   'Nb4 Ni4 O18'
_cell_volume   289.22818630
_cell_formula_units_Z   2
loop_
 _symmetry_equiv_pos_site_id
 _symmetry_equiv_pos_as_xyz
  1  'x, y, z'
loop_
 _atom_site_type_symbol
 _atom_site_label
 _atom_site_symmetry_multiplicity
 _atom_site_fract_x
 _atom_site_fract_y
 _atom_site_fract_z
 _atom_site_occupancy
  Nb  Nb0  1  0.00000000  0.00000000  0.65879700  1
  Nb  Nb1  1  0.00000000  0.00000000  0.15879700  1
  Nb  Nb2  1  0.00000000  0.00000000  0.84120300  1
  Nb  Nb3  1  0.00000000  0.00000000  0.34120300  1
  Ni  Ni4  1  0.33333300  0.66666700  0.00000000  1
  Ni  Ni5  1  0.33333300  0.66666700  0.50000000  1
  Ni  Ni6  1  0.66666700  0.33333300  0.00000000  1
  Ni  Ni7  1  0.66666700  0.33333300  0.50000000  1
  O  O8  1  0.64490200  0.64490200  0.57455300  1
  O  O9  1  0.00000000  0.70002800  0.75000000  1
  O  O10  1  0.64490200  0.00000000  0.42544700  1
  O  O11  1  0.35509800  0.35509800  0.42544700  1
  O  O12  1  0.00000000  0.35509800  0.57455300  1
  O  O13  1  0.70002800  0.70002800  0.25000000  1
  O  O14  1  0.00000000  0.35509800  0.92544700  1
  O  O15  1  0.35509800  0.00000000  0.57455300  1
  O  O16  1  0.35509800  0.35509800  0.07455300  1
  O  O17  1  0.00000000  0.64490200  0.42544700  1
  O  O18  1  0.64490200  0.64490200  0.92544700  1
  O  O19  1  0.64490200  0.00000000  0.07455300  1
  O  O20  1  0.70002800  0.00000000  0.75000000  1
  O  O21  1  0.29997200  0.29997200  0.75000000  1
  O  O22  1  0.29997200  0.00000000  0.25000000  1
  O  O23  1  0.00000000  0.64490200  0.07455300  1
  O  O24  1  0.00000000  0.29997200  0.25000000  1
  O  O25  1  0.35509800  0.00000000  0.92544700  1
