# generated using pymatgen
data_CaTi2F10
_symmetry_space_group_name_H-M   'P 1'
_cell_length_a   5.63500390
_cell_length_b   5.63500390
_cell_length_c   7.79540745
_cell_angle_alpha   69.54640128
_cell_angle_beta   69.54640128
_cell_angle_gamma   72.01608328
_symmetry_Int_Tables_number   1
_chemical_formula_structural   CaTi2F10
_chemical_formula_sum   'Ca1 Ti2 F10'
_cell_volume   212.33519854
_cell_formula_units_Z   1
loop_
 _symmetry_equiv_pos_site_id
 _symmetry_equiv_pos_as_xyz
  1  'x, y, z'
loop_
 _atom_site_type_symbol
 _atom_site_label
 _atom_site_symmetry_multiplicity
 _atom_site_fract_x
 _atom_site_fract_y
 _atom_site_fract_z
 _atom_site_occupancy
  Ca  Ca0  1  0.54294400  0.45705600  0.00000000  1
  Ti  Ti1  1  0.00896200  0.00423900  0.74344800  1
  Ti  Ti2  1  0.99576100  0.99103800  0.25655200  1
  F  F3  1  0.79648100  0.75176700  0.86428400  1
  F  F4  1  0.24823300  0.20351900  0.13571600  1
  F  F5  1  0.20934700  0.23809300  0.63236000  1
  F  F6  1  0.76190700  0.79065300  0.36764000  1
  F  F7  1  0.93200700  0.06799300  0.00000000  1
  F  F8  1  0.05438400  0.94561600  0.50000000  1
  F  F9  1  0.73755900  0.29265100  0.25822600  1
  F  F10  1  0.70734900  0.26244100  0.74177400  1
  F  F11  1  0.26223500  0.71639400  0.19182700  1
  F  F12  1  0.28360600  0.73776500  0.80817300  1
