# generated using pymatgen
data_V2Zn3(P2O9)2
_symmetry_space_group_name_H-M   'P 1'
_cell_length_a   7.84327177
_cell_length_b   7.84327177
_cell_length_c   7.80441201
_cell_angle_alpha   68.85407240
_cell_angle_beta   68.85407240
_cell_angle_gamma   106.30393880
_symmetry_Int_Tables_number   1
_chemical_formula_structural   V2Zn3(P2O9)2
_chemical_formula_sum   'V2 Zn3 P4 O18'
_cell_volume   368.10142628
_cell_formula_units_Z   1
loop_
 _symmetry_equiv_pos_site_id
 _symmetry_equiv_pos_as_xyz
  1  'x, y, z'
loop_
 _atom_site_type_symbol
 _atom_site_label
 _atom_site_symmetry_multiplicity
 _atom_site_fract_x
 _atom_site_fract_y
 _atom_site_fract_z
 _atom_site_occupancy
  V  V0  1  0.60658300  0.10500800  0.00021200  1
  V  V1  1  0.10500800  0.60658300  0.00021200  1
  Zn  Zn2  1  0.38589900  0.38589900  0.28658700  1
  Zn  Zn3  1  0.64952500  0.88724900  0.50022400  1
  Zn  Zn4  1  0.88724900  0.64952500  0.50022400  1
  P  P5  1  0.30726800  0.92941600  0.50007100  1
  P  P6  1  0.81778100  0.81778100  0.10407000  1
  P  P7  1  0.42162900  0.42162900  0.88230700  1
  P  P8  1  0.92941600  0.30726800  0.50007100  1
  O  O9  1  0.93594800  0.43448100  0.00153000  1
  O  O10  1  0.12904600  0.34518300  0.49728000  1
  O  O11  1  0.01770900  0.81132100  0.96869200  1
  O  O12  1  0.81132100  0.01770900  0.96869200  1
  O  O13  1  0.78472100  0.32143600  0.69571500  1
  O  O14  1  0.43448100  0.93594800  0.00153000  1
  O  O15  1  0.48719300  0.28762300  0.03443200  1
  O  O16  1  0.62629500  0.62629500  0.18782100  1
  O  O17  1  0.63053900  0.63053900  0.71288100  1
  O  O18  1  0.28762300  0.48719300  0.03443200  1
  O  O19  1  0.81524400  0.11893700  0.50001100  1
  O  O20  1  0.32143600  0.78472100  0.69571500  1
  O  O21  1  0.51616700  0.97714700  0.30360600  1
  O  O22  1  0.34518300  0.12904600  0.49728000  1
  O  O23  1  0.97714700  0.51616700  0.30360600  1
  O  O24  1  0.84370800  0.84370800  0.28325700  1
  O  O25  1  0.31497500  0.31497500  0.80149200  1
  O  O26  1  0.11893700  0.81524400  0.50001100  1
