# generated using pymatgen
data_Mn2Nb2O9
_symmetry_space_group_name_H-M   'P 1'
_cell_length_a   4.96343989
_cell_length_b   4.96343989
_cell_length_c   14.34221200
_cell_angle_alpha   90.00000000
_cell_angle_beta   90.00000000
_cell_angle_gamma   119.99999850
_symmetry_Int_Tables_number   1
_chemical_formula_structural   Mn2Nb2O9
_chemical_formula_sum   'Mn4 Nb4 O18'
_cell_volume   305.99357594
_cell_formula_units_Z   2
loop_
 _symmetry_equiv_pos_site_id
 _symmetry_equiv_pos_as_xyz
  1  'x, y, z'
loop_
 _atom_site_type_symbol
 _atom_site_label
 _atom_site_symmetry_multiplicity
 _atom_site_fract_x
 _atom_site_fract_y
 _atom_site_fract_z
 _atom_site_occupancy
  Mn  Mn0  1  0.33333300  0.66666700  0.00000000  1
  Mn  Mn1  1  0.33333300  0.66666700  0.50000000  1
  Mn  Mn2  1  0.66666700  0.33333300  0.00000000  1
  Mn  Mn3  1  0.66666700  0.33333300  0.50000000  1
  Nb  Nb4  1  0.00000000  0.00000000  0.66020200  1
  Nb  Nb5  1  0.00000000  0.00000000  0.16020200  1
  Nb  Nb6  1  0.00000000  0.00000000  0.83979800  1
  Nb  Nb7  1  0.00000000  0.00000000  0.33979800  1
  O  O8  1  0.65121500  0.65121500  0.57578900  1
  O  O9  1  0.00000000  0.70656100  0.75000000  1
  O  O10  1  0.65121500  0.00000000  0.42421100  1
  O  O11  1  0.34878500  0.34878500  0.42421100  1
  O  O12  1  0.00000000  0.34878500  0.57578900  1
  O  O13  1  0.70656100  0.70656100  0.25000000  1
  O  O14  1  0.00000000  0.34878500  0.92421100  1
  O  O15  1  0.34878500  0.00000000  0.57578900  1
  O  O16  1  0.34878500  0.34878500  0.07578900  1
  O  O17  1  0.00000000  0.65121500  0.42421100  1
  O  O18  1  0.65121500  0.65121500  0.92421100  1
  O  O19  1  0.65121500  0.00000000  0.07578900  1
  O  O20  1  0.70656100  0.00000000  0.75000000  1
  O  O21  1  0.29343900  0.29343900  0.75000000  1
  O  O22  1  0.29343900  0.00000000  0.25000000  1
  O  O23  1  0.00000000  0.65121500  0.07578900  1
  O  O24  1  0.00000000  0.29343900  0.25000000  1
  O  O25  1  0.34878500  0.00000000  0.92421100  1
