# generated using pymatgen
data_VPO5
_symmetry_space_group_name_H-M   'P 1'
_cell_length_a   10.02580986
_cell_length_b   8.73521237
_cell_length_c   6.95391422
_cell_angle_alpha   78.53695211
_cell_angle_beta   58.63768474
_cell_angle_gamma   42.82536315
_symmetry_Int_Tables_number   1
_chemical_formula_structural   VPO5
_chemical_formula_sum   'V4 P4 O20'
_cell_volume   335.47347857
_cell_formula_units_Z   4
loop_
 _symmetry_equiv_pos_site_id
 _symmetry_equiv_pos_as_xyz
  1  'x, y, z'
loop_
 _atom_site_type_symbol
 _atom_site_label
 _atom_site_symmetry_multiplicity
 _atom_site_fract_x
 _atom_site_fract_y
 _atom_site_fract_z
 _atom_site_occupancy
  V  V0  1  0.87808700  0.38617500  0.40093500  1
  V  V1  1  0.33480300  0.40093500  0.38617500  1
  V  V2  1  0.86382500  0.37191300  0.91519700  1
  V  V3  1  0.84906500  0.91519700  0.37191300  1
  P  P4  1  0.02973700  0.54091600  0.96797900  1
  P  P5  1  0.70908400  0.22026300  0.78863200  1
  P  P6  1  0.46136800  0.96797900  0.54091600  1
  P  P7  1  0.28202100  0.78863200  0.22026300  1
  O  O8  1  0.60753700  0.71245300  0.43432500  1
  O  O9  1  0.66834000  0.17336500  0.33598900  1
  O  O10  1  0.31547400  0.63664000  0.39215600  1
  O  O11  1  0.81567500  0.00431400  0.64246300  1
  O  O12  1  0.21229200  0.10258200  0.75777700  1
  O  O13  1  0.42447800  0.11690800  0.36676600  1
  O  O14  1  0.07663500  0.58166000  0.42769500  1
  O  O15  1  0.82230500  0.33598900  0.17336500  1
  O  O16  1  0.91401100  0.42769500  0.58166000  1
  O  O17  1  0.14741800  0.03770800  0.32265200  1
  O  O18  1  0.24568600  0.43432500  0.71245300  1
  O  O19  1  0.49222300  0.32265200  0.03770800  1
  O  O20  1  0.92734800  0.75777700  0.10258200  1
  O  O21  1  0.13309200  0.82552200  0.15815200  1
  O  O22  1  0.09184800  0.36676600  0.11690800  1
  O  O23  1  0.88323400  0.15815200  0.82552200  1
  O  O24  1  0.85784400  0.59427000  0.93452600  1
  O  O25  1  0.65573000  0.39215600  0.63664000  1
  O  O26  1  0.53754700  0.64246300  0.00431400  1
  O  O27  1  0.61336000  0.93452600  0.59427000  1
