# generated using pymatgen
data_Ca5(VN3)2
_symmetry_space_group_name_H-M   'P 1'
_cell_length_a   4.96494500
_cell_length_b   6.55178100
_cell_length_c   7.11603686
_cell_angle_alpha   74.98834528
_cell_angle_beta   90.00000000
_cell_angle_gamma   90.00000000
_symmetry_Int_Tables_number   1
_chemical_formula_structural   Ca5(VN3)2
_chemical_formula_sum   'Ca5 V2 N6'
_cell_volume   223.57956174
_cell_formula_units_Z   1
loop_
 _symmetry_equiv_pos_site_id
 _symmetry_equiv_pos_as_xyz
  1  'x, y, z'
loop_
 _atom_site_type_symbol
 _atom_site_label
 _atom_site_symmetry_multiplicity
 _atom_site_fract_x
 _atom_site_fract_y
 _atom_site_fract_z
 _atom_site_occupancy
  Ca  Ca0  1  0.00000000  0.21773200  0.60760900  1
  Ca  Ca1  1  0.50000000  0.80445900  0.41278700  1
  Ca  Ca2  1  0.50000000  0.91691600  0.89046200  1
  Ca  Ca3  1  0.00000000  0.12774800  0.08449700  1
  Ca  Ca4  1  0.00000000  0.61526700  0.16231700  1
  V  V5  1  0.50000000  0.28876200  0.28895200  1
  V  V6  1  0.00000000  0.69837300  0.70863100  1
  N  N7  1  0.00000000  0.43420000  0.82988200  1
  N  N8  1  0.50000000  0.57351600  0.19798400  1
  N  N9  1  0.00000000  0.88915300  0.86654500  1
  N  N10  1  0.50000000  0.11017900  0.13593800  1
  N  N11  1  0.00000000  0.77264300  0.44605400  1
  N  N12  1  0.50000000  0.14893700  0.54036300  1
