# generated using pymatgen
data_CrO2
_symmetry_space_group_name_H-M   'P 1'
_cell_length_a   2.99884791
_cell_length_b   7.14697305
_cell_length_c   7.14864026
_cell_angle_alpha   87.73894632
_cell_angle_beta   77.88991976
_cell_angle_gamma   77.89865887
_symmetry_Int_Tables_number   1
_chemical_formula_structural   CrO2
_chemical_formula_sum   'Cr4 O8'
_cell_volume   146.47441223
_cell_formula_units_Z   4
loop_
 _symmetry_equiv_pos_site_id
 _symmetry_equiv_pos_as_xyz
  1  'x, y, z'
loop_
 _atom_site_type_symbol
 _atom_site_label
 _atom_site_symmetry_multiplicity
 _atom_site_fract_x
 _atom_site_fract_y
 _atom_site_fract_z
 _atom_site_occupancy
  Cr  Cr0  1  0.65551200  0.18209200  0.51247000  1
  Cr  Cr1  1  0.16754400  0.48719800  0.18255500  1
  Cr  Cr2  1  0.83622900  0.51315700  0.81952800  1
  Cr  Cr3  1  0.34832900  0.81826000  0.48971800  1
  O  O4  1  0.83895300  0.70067400  0.62621200  1
  O  O5  1  0.46403400  0.37722800  0.69994100  1
  O  O6  1  0.53975300  0.62317000  0.30217300  1
  O  O7  1  0.16485400  0.29968600  0.37593200  1
  O  O8  1  0.16052900  0.04832200  0.63585200  1
  O  O9  1  0.79659200  0.36471600  0.04693000  1
  O  O10  1  0.84329700  0.95204200  0.36635100  1
  O  O11  1  0.20722600  0.63563000  0.95515300  1
