# generated using pymatgen
data_Mn4(SiO3)5
_symmetry_space_group_name_H-M   'P 1'
_cell_length_a   6.58471000
_cell_length_b   7.56057774
_cell_length_c   12.16118891
_cell_angle_alpha   106.08107458
_cell_angle_beta   94.76656923
_cell_angle_gamma   93.45775516
_symmetry_Int_Tables_number   1
_chemical_formula_structural   Mn4(SiO3)5
_chemical_formula_sum   'Mn8 Si10 O30'
_cell_volume   577.53358769
_cell_formula_units_Z   2
loop_
 _symmetry_equiv_pos_site_id
 _symmetry_equiv_pos_as_xyz
  1  'x, y, z'
loop_
 _atom_site_type_symbol
 _atom_site_label
 _atom_site_symmetry_multiplicity
 _atom_site_fract_x
 _atom_site_fract_y
 _atom_site_fract_z
 _atom_site_occupancy
  Mn  Mn0  1  0.03888200  0.10769200  0.16681400  1
  Mn  Mn1  1  0.12163500  0.32066800  0.44807300  1
  Mn  Mn2  1  0.76218300  0.26937300  0.96965300  1
  Mn  Mn3  1  0.23781700  0.73062700  0.03034700  1
  Mn  Mn4  1  0.81278300  0.50419300  0.26824800  1
  Mn  Mn5  1  0.96111800  0.89230800  0.83318600  1
  Mn  Mn6  1  0.87836500  0.67933200  0.55192700  1
  Mn  Mn7  1  0.18721700  0.49580700  0.73175200  1
  Si  Si8  1  0.29287200  0.53887800  0.25445100  1
  Si  Si9  1  0.49155200  0.20713000  0.12059400  1
  Si  Si10  1  0.83431000  0.93687600  0.35128600  1
  Si  Si11  1  0.16569000  0.06312400  0.64871400  1
  Si  Si12  1  0.76674000  0.73234400  0.08964100  1
  Si  Si13  1  0.50844800  0.79287000  0.87940600  1
  Si  Si14  1  0.23326000  0.26765600  0.91035900  1
  Si  Si15  1  0.62458800  0.27246600  0.48309300  1
  Si  Si16  1  0.70712800  0.46112200  0.74554900  1
  Si  Si17  1  0.37541200  0.72753400  0.51690700  1
  O  O18  1  0.32104500  0.94043600  0.56836900  1
  O  O19  1  0.88782000  0.75831000  0.39427700  1
  O  O20  1  0.10008500  0.39827600  0.26398700  1
  O  O21  1  0.24653000  0.64427000  0.15890500  1
  O  O22  1  0.26261500  0.81796500  0.88929000  1
  O  O23  1  0.27800000  0.14520300  0.78222300  1
  O  O24  1  0.63213200  0.31406400  0.62231300  1
  O  O25  1  0.97336800  0.92095700  0.66077000  1
  O  O26  1  0.11218000  0.24169000  0.60572300  1
  O  O27  1  0.40420100  0.30713000  0.42844000  1
  O  O28  1  0.03916600  0.16914800  0.95402400  1
  O  O29  1  0.72200000  0.85479700  0.21777700  1
  O  O30  1  0.82055500  0.40512200  0.45232400  1
  O  O31  1  0.89991500  0.60172400  0.73601300  1
  O  O32  1  0.02663200  0.07904300  0.33923000  1
  O  O33  1  0.96083400  0.83085200  0.04597600  1
  O  O34  1  0.17944500  0.59487800  0.54767600  1
  O  O35  1  0.59579900  0.69287000  0.57156000  1
  O  O36  1  0.79672800  0.52457500  0.09325700  1
  O  O37  1  0.44122800  0.25952300  0.99598600  1
  O  O38  1  0.55877200  0.74047700  0.00401400  1
  O  O39  1  0.20327200  0.47542500  0.90674300  1
  O  O40  1  0.50982500  0.59272600  0.77754000  1
  O  O41  1  0.75347000  0.35573000  0.84109500  1
  O  O42  1  0.67895500  0.05956400  0.43163100  1
  O  O43  1  0.66387400  0.95234300  0.86622200  1
  O  O44  1  0.36786800  0.68593600  0.37768700  1
  O  O45  1  0.49017500  0.40727400  0.22246000  1
  O  O46  1  0.73738500  0.18203500  0.11071000  1
  O  O47  1  0.33612600  0.04765700  0.13377800  1
