# generated using pymatgen
data_MgV2O4
_symmetry_space_group_name_H-M   'P 1'
_cell_length_a   2.96438400
_cell_length_b   9.16955400
_cell_length_c   10.55983400
_cell_angle_alpha   90.00000000
_cell_angle_beta   90.00000000
_cell_angle_gamma   90.00000000
_symmetry_Int_Tables_number   1
_chemical_formula_structural   MgV2O4
_chemical_formula_sum   'Mg4 V8 O16'
_cell_volume   287.03824375
_cell_formula_units_Z   4
loop_
 _symmetry_equiv_pos_site_id
 _symmetry_equiv_pos_as_xyz
  1  'x, y, z'
loop_
 _atom_site_type_symbol
 _atom_site_label
 _atom_site_symmetry_multiplicity
 _atom_site_fract_x
 _atom_site_fract_y
 _atom_site_fract_z
 _atom_site_occupancy
  Mg  Mg0  1  0.75000000  0.74518400  0.34880200  1
  Mg  Mg1  1  0.25000000  0.25481600  0.65119800  1
  Mg  Mg2  1  0.75000000  0.24518400  0.15119800  1
  Mg  Mg3  1  0.25000000  0.75481600  0.84880200  1
  V  V4  1  0.25000000  0.91139900  0.10294800  1
  V  V5  1  0.75000000  0.58860100  0.60294800  1
  V  V6  1  0.25000000  0.41139900  0.39705200  1
  V  V7  1  0.75000000  0.08860100  0.89705200  1
  V  V8  1  0.75000000  0.06411600  0.38202600  1
  V  V9  1  0.25000000  0.93588400  0.61797400  1
  V  V10  1  0.75000000  0.56411600  0.11797400  1
  V  V11  1  0.25000000  0.43588400  0.88202600  1
  O  O12  1  0.25000000  0.40959600  0.07334300  1
  O  O13  1  0.75000000  0.59040400  0.92665700  1
  O  O14  1  0.25000000  0.90959600  0.42665700  1
  O  O15  1  0.75000000  0.09040400  0.57334300  1
  O  O16  1  0.25000000  0.53159500  0.71569700  1
  O  O17  1  0.75000000  0.46840500  0.28430300  1
  O  O18  1  0.25000000  0.03159500  0.78430300  1
  O  O19  1  0.75000000  0.96840500  0.21569700  1
  O  O20  1  0.25000000  0.12567100  0.03445800  1
  O  O21  1  0.75000000  0.87432900  0.96554200  1
  O  O22  1  0.25000000  0.62567100  0.46554200  1
  O  O23  1  0.75000000  0.37432900  0.53445800  1
  O  O24  1  0.75000000  0.29346200  0.81540100  1
  O  O25  1  0.25000000  0.70653800  0.18459900  1
  O  O26  1  0.25000000  0.20653800  0.31540100  1
  O  O27  1  0.75000000  0.79346200  0.68459900  1
