# generated using pymatgen
data_Ca(FeO2)4
_symmetry_space_group_name_H-M   'P 1'
_cell_length_a   7.09593885
_cell_length_b   7.09593885
_cell_length_c   9.40555690
_cell_angle_alpha   49.30436639
_cell_angle_beta   49.30436639
_cell_angle_gamma   25.19160884
_symmetry_Int_Tables_number   1
_chemical_formula_structural   Ca(FeO2)4
_chemical_formula_sum   'Ca1 Fe4 O8'
_cell_volume   149.98835190
_cell_formula_units_Z   1
loop_
 _symmetry_equiv_pos_site_id
 _symmetry_equiv_pos_as_xyz
  1  'x, y, z'
loop_
 _atom_site_type_symbol
 _atom_site_label
 _atom_site_symmetry_multiplicity
 _atom_site_fract_x
 _atom_site_fract_y
 _atom_site_fract_z
 _atom_site_occupancy
  Ca  Ca0  1  0.59162500  0.59162500  0.88824400  1
  Fe  Fe1  1  0.36577000  0.36577000  0.44247500  1
  Fe  Fe2  1  0.86382400  0.86382400  0.78300100  1
  Fe  Fe3  1  0.16807600  0.16807600  0.15378200  1
  Fe  Fe4  1  0.65881400  0.65881400  0.49012700  1
  O  O5  1  0.14725900  0.14725900  0.37466400  1
  O  O6  1  0.55009500  0.55009500  0.23024100  1
  O  O7  1  0.47315100  0.47315100  0.72352800  1
  O  O8  1  0.86221900  0.86221900  0.57936700  1
  O  O9  1  0.85093700  0.85093700  0.31568200  1
  O  O10  1  0.21070900  0.21070900  0.90623600  1
  O  O11  1  0.16942700  0.16942700  0.63819000  1
  O  O12  1  0.79356200  0.79356200  0.04381700  1
