# generated using pymatgen
data_Ti2ZnO4
_symmetry_space_group_name_H-M   'P 1'
_cell_length_a   2.95133200
_cell_length_b   9.47097000
_cell_length_c   10.82969800
_cell_angle_alpha   90.00000000
_cell_angle_beta   90.00000000
_cell_angle_gamma   90.00000000
_symmetry_Int_Tables_number   1
_chemical_formula_structural   Ti2ZnO4
_chemical_formula_sum   'Ti8 Zn4 O16'
_cell_volume   302.71146759
_cell_formula_units_Z   4
loop_
 _symmetry_equiv_pos_site_id
 _symmetry_equiv_pos_as_xyz
  1  'x, y, z'
loop_
 _atom_site_type_symbol
 _atom_site_label
 _atom_site_symmetry_multiplicity
 _atom_site_fract_x
 _atom_site_fract_y
 _atom_site_fract_z
 _atom_site_occupancy
  Ti  Ti0  1  0.75000000  0.41330500  0.59925900  1
  Ti  Ti1  1  0.25000000  0.08669500  0.09925900  1
  Ti  Ti2  1  0.75000000  0.91330500  0.90074100  1
  Ti  Ti3  1  0.25000000  0.58669500  0.40074100  1
  Ti  Ti4  1  0.25000000  0.56317000  0.87972000  1
  Ti  Ti5  1  0.75000000  0.43683000  0.12028000  1
  Ti  Ti6  1  0.25000000  0.06317000  0.62028000  1
  Ti  Ti7  1  0.75000000  0.93683000  0.37972000  1
  Zn  Zn8  1  0.25000000  0.25463000  0.86221100  1
  Zn  Zn9  1  0.75000000  0.74537000  0.13778900  1
  Zn  Zn10  1  0.25000000  0.75463000  0.63778900  1
  Zn  Zn11  1  0.75000000  0.24537000  0.36221100  1
  O  O12  1  0.75000000  0.91751600  0.57010200  1
  O  O13  1  0.25000000  0.08248400  0.42989800  1
  O  O14  1  0.75000000  0.41751600  0.92989800  1
  O  O15  1  0.25000000  0.58248400  0.07010200  1
  O  O16  1  0.75000000  0.03619900  0.21889200  1
  O  O17  1  0.25000000  0.96380100  0.78110800  1
  O  O18  1  0.75000000  0.53619900  0.28110800  1
  O  O19  1  0.25000000  0.46380100  0.71889200  1
  O  O20  1  0.75000000  0.61559300  0.53221900  1
  O  O21  1  0.25000000  0.38440700  0.46778100  1
  O  O22  1  0.75000000  0.11559300  0.96778100  1
  O  O23  1  0.25000000  0.88440700  0.03221900  1
  O  O24  1  0.25000000  0.79508400  0.36220300  1
  O  O25  1  0.75000000  0.20491600  0.63779700  1
  O  O26  1  0.75000000  0.70491600  0.86220300  1
  O  O27  1  0.25000000  0.29508400  0.13779700  1
