# generated using pymatgen
data_Zn(CoO2)2
_symmetry_space_group_name_H-M   'P 1'
_cell_length_a   7.47129852
_cell_length_b   7.47129852
_cell_length_c   9.12159631
_cell_angle_alpha   53.12172375
_cell_angle_beta   53.12172375
_cell_angle_gamma   23.30298529
_symmetry_Int_Tables_number   1
_chemical_formula_structural   Zn(CoO2)2
_chemical_formula_sum   'Zn2 Co4 O8'
_cell_volume   159.18209025
_cell_formula_units_Z   2
loop_
 _symmetry_equiv_pos_site_id
 _symmetry_equiv_pos_as_xyz
  1  'x, y, z'
loop_
 _atom_site_type_symbol
 _atom_site_label
 _atom_site_symmetry_multiplicity
 _atom_site_fract_x
 _atom_site_fract_y
 _atom_site_fract_z
 _atom_site_occupancy
  Zn  Zn0  1  0.67601400  0.67601400  0.31300300  1
  Zn  Zn1  1  0.32398600  0.32398600  0.68699700  1
  Co  Co2  1  0.36898000  0.36898000  0.95462800  1
  Co  Co3  1  0.86818700  0.86818700  0.30869300  1
  Co  Co4  1  0.13181300  0.13181300  0.69130700  1
  Co  Co5  1  0.63102000  0.63102000  0.04537200  1
  O  O6  1  0.14387400  0.14387400  0.89080600  1
  O  O7  1  0.52948600  0.52948600  0.76759200  1
  O  O8  1  0.47051400  0.47051400  0.23240800  1
  O  O9  1  0.85612600  0.85612600  0.10919400  1
  O  O10  1  0.83152700  0.83152700  0.83811100  1
  O  O11  1  0.19957500  0.19957500  0.43846600  1
  O  O12  1  0.16847300  0.16847300  0.16188900  1
  O  O13  1  0.80042500  0.80042500  0.56153400  1
