# generated using pymatgen
data_CaSb2S5
_symmetry_space_group_name_H-M   'P 1'
_cell_length_a   5.83017900
_cell_length_b   10.71222400
_cell_length_c   15.00813539
_cell_angle_alpha   69.53303368
_cell_angle_beta   90.00000000
_cell_angle_gamma   90.00000000
_symmetry_Int_Tables_number   1
_chemical_formula_structural   CaSb2S5
_chemical_formula_sum   'Ca4 Sb8 S20'
_cell_volume   878.15147273
_cell_formula_units_Z   4
loop_
 _symmetry_equiv_pos_site_id
 _symmetry_equiv_pos_as_xyz
  1  'x, y, z'
loop_
 _atom_site_type_symbol
 _atom_site_label
 _atom_site_symmetry_multiplicity
 _atom_site_fract_x
 _atom_site_fract_y
 _atom_site_fract_z
 _atom_site_occupancy
  Ca  Ca0  1  0.01145700  0.66648000  0.67109800  1
  Ca  Ca1  1  0.98854300  0.16648000  0.67109800  1
  Ca  Ca2  1  0.47315000  0.70332600  0.10119500  1
  Ca  Ca3  1  0.52685000  0.20332600  0.10119500  1
  Sb  Sb4  1  0.38985800  0.44010100  0.61759800  1
  Sb  Sb5  1  0.85137800  0.06248400  0.37697800  1
  Sb  Sb6  1  0.14862200  0.56248400  0.37697800  1
  Sb  Sb7  1  0.61014200  0.94010100  0.61759800  1
  Sb  Sb8  1  0.43751600  0.53807200  0.87985300  1
  Sb  Sb9  1  0.97611900  0.94204300  0.13360400  1
  Sb  Sb10  1  0.02388100  0.44204300  0.13360400  1
  Sb  Sb11  1  0.56248400  0.03807200  0.87985300  1
  S  S12  1  0.51003700  0.64007600  0.70568200  1
  S  S13  1  0.00064700  0.85687400  0.30347700  1
  S  S14  1  0.99935300  0.35687400  0.30347700  1
  S  S15  1  0.48996300  0.14007600  0.70568200  1
  S  S16  1  0.56135400  0.95655500  0.09186200  1
  S  S17  1  0.03706100  0.55805700  0.87992900  1
  S  S18  1  0.96293900  0.05805700  0.87992900  1
  S  S19  1  0.43864600  0.45655500  0.09186200  1
  S  S20  1  0.49878300  0.10280400  0.29795700  1
  S  S21  1  0.04313200  0.39765600  0.70862300  1
  S  S22  1  0.95686800  0.89765600  0.70862300  1
  S  S23  1  0.50121700  0.60280400  0.29795700  1
  S  S24  1  0.26986200  0.66295500  0.50214600  1
  S  S25  1  0.74915300  0.83702400  0.49927400  1
  S  S26  1  0.25084700  0.33702400  0.49927400  1
  S  S27  1  0.73013800  0.16295500  0.50214600  1
  S  S28  1  0.02374700  0.18550600  0.10356800  1
  S  S29  1  0.57248800  0.31604100  0.89985800  1
  S  S30  1  0.42751200  0.81604100  0.89985800  1
  S  S31  1  0.97625300  0.68550600  0.10356800  1
