# generated using pymatgen
data_CaMn2O4
_symmetry_space_group_name_H-M   'P 1'
_cell_length_a   3.14068100
_cell_length_b   9.22177600
_cell_length_c   10.70463800
_cell_angle_alpha   90.00000000
_cell_angle_beta   90.00000000
_cell_angle_gamma   90.00000000
_symmetry_Int_Tables_number   1
_chemical_formula_structural   CaMn2O4
_chemical_formula_sum   'Ca4 Mn8 O16'
_cell_volume   310.03475516
_cell_formula_units_Z   4
loop_
 _symmetry_equiv_pos_site_id
 _symmetry_equiv_pos_as_xyz
  1  'x, y, z'
loop_
 _atom_site_type_symbol
 _atom_site_label
 _atom_site_symmetry_multiplicity
 _atom_site_fract_x
 _atom_site_fract_y
 _atom_site_fract_z
 _atom_site_occupancy
  Ca  Ca0  1  0.25000000  0.74330100  0.84315600  1
  Ca  Ca1  1  0.75000000  0.25669900  0.15684400  1
  Ca  Ca2  1  0.25000000  0.24330100  0.65684400  1
  Ca  Ca3  1  0.75000000  0.75669900  0.34315600  1
  Mn  Mn4  1  0.75000000  0.91946000  0.60475000  1
  Mn  Mn5  1  0.25000000  0.58054000  0.10475000  1
  Mn  Mn6  1  0.75000000  0.41946000  0.89525000  1
  Mn  Mn7  1  0.25000000  0.08054000  0.39525000  1
  Mn  Mn8  1  0.25000000  0.06391000  0.88900400  1
  Mn  Mn9  1  0.75000000  0.93609000  0.11099600  1
  Mn  Mn10  1  0.25000000  0.56391000  0.61099600  1
  Mn  Mn11  1  0.75000000  0.43609000  0.38900400  1
  O  O12  1  0.75000000  0.41278000  0.57014600  1
  O  O13  1  0.25000000  0.58722000  0.42985400  1
  O  O14  1  0.75000000  0.91278000  0.92985400  1
  O  O15  1  0.25000000  0.08722000  0.07014600  1
  O  O16  1  0.75000000  0.51902200  0.22089700  1
  O  O17  1  0.25000000  0.48097800  0.77910300  1
  O  O18  1  0.75000000  0.01902200  0.27910300  1
  O  O19  1  0.25000000  0.98097800  0.72089700  1
  O  O20  1  0.75000000  0.11319400  0.52910200  1
  O  O21  1  0.25000000  0.88680600  0.47089800  1
  O  O22  1  0.75000000  0.61319400  0.97089800  1
  O  O23  1  0.25000000  0.38680600  0.02910200  1
  O  O24  1  0.25000000  0.28255500  0.33556800  1
  O  O25  1  0.75000000  0.71744500  0.66443200  1
  O  O26  1  0.75000000  0.21744500  0.83556800  1
  O  O27  1  0.25000000  0.78255500  0.16443200  1
