# generated using pymatgen
data_Zn(CoO2)2
_symmetry_space_group_name_H-M   'P 1'
_cell_length_a   5.01733600
_cell_length_b   5.86390700
_cell_length_c   10.31064600
_cell_angle_alpha   90.00000000
_cell_angle_beta   90.00000000
_cell_angle_gamma   90.00000000
_symmetry_Int_Tables_number   1
_chemical_formula_structural   Zn(CoO2)2
_chemical_formula_sum   'Zn4 Co8 O16'
_cell_volume   303.35149243
_cell_formula_units_Z   4
loop_
 _symmetry_equiv_pos_site_id
 _symmetry_equiv_pos_as_xyz
  1  'x, y, z'
loop_
 _atom_site_type_symbol
 _atom_site_label
 _atom_site_symmetry_multiplicity
 _atom_site_fract_x
 _atom_site_fract_y
 _atom_site_fract_z
 _atom_site_occupancy
  Zn  Zn0  1  0.34384200  0.00000000  0.50000000  1
  Zn  Zn1  1  0.65615800  0.50000000  0.00000000  1
  Zn  Zn2  1  0.01468700  0.00000000  0.00000000  1
  Zn  Zn3  1  0.98531300  0.50000000  0.50000000  1
  Co  Co4  1  0.01878100  0.50000000  0.23182600  1
  Co  Co5  1  0.01878100  0.50000000  0.76817400  1
  Co  Co6  1  0.98121900  0.00000000  0.26817400  1
  Co  Co7  1  0.98121900  0.00000000  0.73182600  1
  Co  Co8  1  0.50000000  0.25000000  0.25000000  1
  Co  Co9  1  0.50000000  0.75000000  0.75000000  1
  Co  Co10  1  0.50000000  0.75000000  0.25000000  1
  Co  Co11  1  0.50000000  0.25000000  0.75000000  1
  O  O12  1  0.34729900  0.50000000  0.14073100  1
  O  O13  1  0.34729900  0.50000000  0.85926900  1
  O  O14  1  0.65270100  0.00000000  0.35926900  1
  O  O15  1  0.65270100  0.00000000  0.64073100  1
  O  O16  1  0.68873700  0.50000000  0.34575900  1
  O  O17  1  0.68873700  0.50000000  0.65424100  1
  O  O18  1  0.31126300  0.00000000  0.15424100  1
  O  O19  1  0.31126300  0.00000000  0.84575900  1
  O  O20  1  0.16673500  0.25226400  0.36532400  1
  O  O21  1  0.16673500  0.74773600  0.63467600  1
  O  O22  1  0.83326500  0.75226400  0.13467600  1
  O  O23  1  0.83326500  0.24773600  0.86532400  1
  O  O24  1  0.83326500  0.24773600  0.13467600  1
  O  O25  1  0.83326500  0.75226400  0.86532400  1
  O  O26  1  0.16673500  0.74773600  0.36532400  1
  O  O27  1  0.16673500  0.25226400  0.63467600  1
