# generated using pymatgen
data_Zn(FeO2)2
_symmetry_space_group_name_H-M   'P 1'
_cell_length_a   5.76948500
_cell_length_b   4.97723200
_cell_length_c   10.21706100
_cell_angle_alpha   89.02971649
_cell_angle_beta   90.00000000
_cell_angle_gamma   90.00000000
_symmetry_Int_Tables_number   1
_chemical_formula_structural   Zn(FeO2)2
_chemical_formula_sum   'Zn4 Fe8 O16'
_cell_volume   293.35172248
_cell_formula_units_Z   4
loop_
 _symmetry_equiv_pos_site_id
 _symmetry_equiv_pos_as_xyz
  1  'x, y, z'
loop_
 _atom_site_type_symbol
 _atom_site_label
 _atom_site_symmetry_multiplicity
 _atom_site_fract_x
 _atom_site_fract_y
 _atom_site_fract_z
 _atom_site_occupancy
  Zn  Zn0  1  0.75224600  0.64855000  0.74758300  1
  Zn  Zn1  1  0.25224600  0.35145000  0.25241700  1
  Zn  Zn2  1  0.74901500  0.97493300  0.24863500  1
  Zn  Zn3  1  0.24901500  0.02506700  0.75136500  1
  Fe  Fe4  1  0.24927500  0.98850700  0.49010300  1
  Fe  Fe5  1  0.25141400  0.98801800  0.01617000  1
  Fe  Fe6  1  0.74927500  0.01149300  0.50989700  1
  Fe  Fe7  1  0.75141400  0.01198200  0.98383000  1
  Fe  Fe8  1  0.50022600  0.49993400  0.50000800  1
  Fe  Fe9  1  0.99918100  0.49916800  0.99870600  1
  Fe  Fe10  1  0.00022600  0.50006600  0.49999200  1
  Fe  Fe11  1  0.49918100  0.50083200  0.00129400  1
  O  O12  1  0.24749700  0.64771500  0.39602200  1
  O  O13  1  0.25161500  0.64202400  0.10216000  1
  O  O14  1  0.74749700  0.35228500  0.60397800  1
  O  O15  1  0.75161500  0.35797600  0.89784000  1
  O  O16  1  0.25171800  0.30538300  0.59685300  1
  O  O17  1  0.24685600  0.31174700  0.90667000  1
  O  O18  1  0.75171800  0.69461700  0.40314700  1
  O  O19  1  0.74685600  0.68825300  0.09333000  1
  O  O20  1  0.50300800  0.82935200  0.60850200  1
  O  O21  1  0.00303700  0.82262800  0.88036200  1
  O  O22  1  0.00300800  0.17064800  0.39149800  1
  O  O23  1  0.50303700  0.17737200  0.11963800  1
  O  O24  1  0.49740400  0.16862300  0.39233200  1
  O  O25  1  0.99587900  0.16535600  0.11065600  1
  O  O26  1  0.99740400  0.83137700  0.60766800  1
  O  O27  1  0.49587900  0.83464400  0.88934400  1
