# generated using pymatgen
data_CaTi2O5
_symmetry_space_group_name_H-M   'P 1'
_cell_length_a   3.62599000
_cell_length_b   5.06222500
_cell_length_c   11.67549800
_cell_angle_alpha   90.00000000
_cell_angle_beta   90.00000000
_cell_angle_gamma   90.00000000
_symmetry_Int_Tables_number   1
_chemical_formula_structural   CaTi2O5
_chemical_formula_sum   'Ca2 Ti4 O10'
_cell_volume   214.31050521
_cell_formula_units_Z   2
loop_
 _symmetry_equiv_pos_site_id
 _symmetry_equiv_pos_as_xyz
  1  'x, y, z'
loop_
 _atom_site_type_symbol
 _atom_site_label
 _atom_site_symmetry_multiplicity
 _atom_site_fract_x
 _atom_site_fract_y
 _atom_site_fract_z
 _atom_site_occupancy
  Ca  Ca0  1  0.50000000  0.13965500  0.00000000  1
  Ca  Ca1  1  0.00000000  0.86034500  0.50000000  1
  Ti  Ti2  1  0.00000000  0.60207100  0.84876000  1
  Ti  Ti3  1  0.50000000  0.39792900  0.65124000  1
  Ti  Ti4  1  0.50000000  0.39792900  0.34876000  1
  Ti  Ti5  1  0.00000000  0.60207100  0.15124000  1
  O  O6  1  0.50000000  0.54906400  0.50000000  1
  O  O7  1  0.00000000  0.45093600  0.00000000  1
  O  O8  1  0.50000000  0.46283100  0.82574100  1
  O  O9  1  0.00000000  0.53716900  0.67425900  1
  O  O10  1  0.50000000  0.46283100  0.17425900  1
  O  O11  1  0.00000000  0.53716900  0.32574100  1
  O  O12  1  0.00000000  0.93462300  0.12182700  1
  O  O13  1  0.50000000  0.06537700  0.37817300  1
  O  O14  1  0.50000000  0.06537700  0.62182700  1
  O  O15  1  0.00000000  0.93462300  0.87817300  1
