# generated using pymatgen
data_MgTi4O8
_symmetry_space_group_name_H-M   'P 1'
_cell_length_a   6.09884733
_cell_length_b   6.09884733
_cell_length_c   6.09884737
_cell_angle_alpha   58.18687397
_cell_angle_beta   58.18687397
_cell_angle_gamma   58.18687825
_symmetry_Int_Tables_number   1
_chemical_formula_structural   MgTi4O8
_chemical_formula_sum   'Mg1 Ti4 O8'
_cell_volume   153.74403945
_cell_formula_units_Z   1
loop_
 _symmetry_equiv_pos_site_id
 _symmetry_equiv_pos_as_xyz
  1  'x, y, z'
loop_
 _atom_site_type_symbol
 _atom_site_label
 _atom_site_symmetry_multiplicity
 _atom_site_fract_x
 _atom_site_fract_y
 _atom_site_fract_z
 _atom_site_occupancy
  Mg  Mg0  1  0.50000000  0.50000000  0.50000000  1
  Ti  Ti1  1  0.00000000  0.50000000  0.50000000  1
  Ti  Ti2  1  0.50000000  0.00000000  0.50000000  1
  Ti  Ti3  1  0.50000000  0.50000000  0.00000000  1
  Ti  Ti4  1  0.00000000  0.00000000  0.00000000  1
  O  O5  1  0.27432200  0.75338100  0.75338100  1
  O  O6  1  0.24661900  0.24661900  0.72567800  1
  O  O7  1  0.72567800  0.24661900  0.24661900  1
  O  O8  1  0.24661900  0.72567800  0.24661900  1
  O  O9  1  0.26810200  0.26810200  0.26810200  1
  O  O10  1  0.73189800  0.73189800  0.73189800  1
  O  O11  1  0.75338100  0.27432200  0.75338100  1
  O  O12  1  0.75338100  0.75338100  0.27432200  1
