# generated using pymatgen
data_AlSn3Se2ClO8
_symmetry_space_group_name_H-M   'P 1'
_cell_length_a   7.03115900
_cell_length_b   8.96106770
_cell_length_c   10.40217720
_cell_angle_alpha   89.98510916
_cell_angle_beta   97.57223650
_cell_angle_gamma   90.18096562
_symmetry_Int_Tables_number   1
_chemical_formula_structural   AlSn3Se2ClO8
_chemical_formula_sum   'Al2 Sn6 Se4 Cl2 O16'
_cell_volume   649.68805653
_cell_formula_units_Z   2
loop_
 _symmetry_equiv_pos_site_id
 _symmetry_equiv_pos_as_xyz
  1  'x, y, z'
loop_
 _atom_site_type_symbol
 _atom_site_label
 _atom_site_symmetry_multiplicity
 _atom_site_fract_x
 _atom_site_fract_y
 _atom_site_fract_z
 _atom_site_occupancy
  Al  Al0  1  0.73500500  0.25008800  0.25204100  1
  Al  Al1  1  0.26598800  0.74757100  0.74547800  1
  Sn  Sn2  1  0.02016200  0.46805400  0.91758100  1
  Sn  Sn3  1  0.93692500  0.50927300  0.50717400  1
  Sn  Sn4  1  0.98040700  0.96580100  0.08639300  1
  Sn  Sn5  1  0.86225800  0.84538300  0.77041600  1
  Sn  Sn6  1  0.14303500  0.34472500  0.23036300  1
  Sn  Sn7  1  0.06287500  0.01158600  0.49385200  1
  Se  Se8  1  0.56321700  0.75848900  0.01286900  1
  Se  Se9  1  0.43554100  0.25737600  0.98494300  1
  Se  Se10  1  0.52207900  0.69440900  0.50993800  1
  Se  Se11  1  0.47970100  0.19371200  0.48921400  1
  Cl  Cl12  1  0.91172000  0.29297500  0.70638300  1
  Cl  Cl13  1  0.07630600  0.79205700  0.30619000  1
  O  O14  1  0.93402800  0.15333400  0.19825300  1
  O  O15  1  0.59097100  0.33172600  0.11677000  1
  O  O16  1  0.41695400  0.65110700  0.64891000  1
  O  O17  1  0.73957400  0.67823500  0.93840000  1
  O  O18  1  0.27215300  0.28876400  0.43055400  1
  O  O19  1  0.37971800  0.02292100  0.51663800  1
  O  O20  1  0.06663600  0.65276100  0.80149200  1
  O  O21  1  0.66882500  0.92327800  0.07605100  1
  O  O22  1  0.72924000  0.78901600  0.57184800  1
  O  O23  1  0.26013200  0.17779200  0.06169700  1
  O  O24  1  0.88721600  0.38478500  0.33714400  1
  O  O25  1  0.11486300  0.88223600  0.66068600  1
  O  O26  1  0.33029800  0.42140000  0.92146700  1
  O  O27  1  0.62134200  0.52464900  0.47960000  1
  O  O28  1  0.41110000  0.83171200  0.87944000  1
  O  O29  1  0.58173200  0.15478500  0.34821500  1
