# generated using pymatgen
data_CaMn2O5
_symmetry_space_group_name_H-M   'P 1'
_cell_length_a   3.69099900
_cell_length_b   4.68096000
_cell_length_c   11.50517200
_cell_angle_alpha   90.00000000
_cell_angle_beta   90.00000000
_cell_angle_gamma   90.00000000
_symmetry_Int_Tables_number   1
_chemical_formula_structural   CaMn2O5
_chemical_formula_sum   'Ca2 Mn4 O10'
_cell_volume   198.77967362
_cell_formula_units_Z   2
loop_
 _symmetry_equiv_pos_site_id
 _symmetry_equiv_pos_as_xyz
  1  'x, y, z'
loop_
 _atom_site_type_symbol
 _atom_site_label
 _atom_site_symmetry_multiplicity
 _atom_site_fract_x
 _atom_site_fract_y
 _atom_site_fract_z
 _atom_site_occupancy
  Ca  Ca0  1  0.50000000  0.09528600  0.00000000  1
  Ca  Ca1  1  0.00000000  0.90471400  0.50000000  1
  Mn  Mn2  1  0.00000000  0.57253300  0.84630200  1
  Mn  Mn3  1  0.50000000  0.42746700  0.65369800  1
  Mn  Mn4  1  0.50000000  0.42746700  0.34630200  1
  Mn  Mn5  1  0.00000000  0.57253300  0.15369800  1
  O  O6  1  0.50000000  0.55559200  0.50000000  1
  O  O7  1  0.00000000  0.44440800  0.00000000  1
  O  O8  1  0.50000000  0.47460500  0.82602800  1
  O  O9  1  0.00000000  0.52539500  0.67397200  1
  O  O10  1  0.50000000  0.47460500  0.17397200  1
  O  O11  1  0.00000000  0.52539500  0.32602800  1
  O  O12  1  0.00000000  0.93813000  0.12487100  1
  O  O13  1  0.50000000  0.06187000  0.37512900  1
  O  O14  1  0.50000000  0.06187000  0.62487100  1
  O  O15  1  0.00000000  0.93813000  0.87512900  1
