# generated using pymatgen
data_CaV2(BiO5)2
_symmetry_space_group_name_H-M   'P 1'
_cell_length_a   5.76042900
_cell_length_b   11.36988000
_cell_length_c   16.10461200
_cell_angle_alpha   90.00000000
_cell_angle_beta   90.00000000
_cell_angle_gamma   90.00000000
_symmetry_Int_Tables_number   1
_chemical_formula_structural   CaV2(BiO5)2
_chemical_formula_sum   'Ca4 V8 Bi8 O40'
_cell_volume   1054.77778703
_cell_formula_units_Z   4
loop_
 _symmetry_equiv_pos_site_id
 _symmetry_equiv_pos_as_xyz
  1  'x, y, z'
loop_
 _atom_site_type_symbol
 _atom_site_label
 _atom_site_symmetry_multiplicity
 _atom_site_fract_x
 _atom_site_fract_y
 _atom_site_fract_z
 _atom_site_occupancy
  Ca  Ca0  1  0.25188000  0.36409900  0.45652300  1
  Ca  Ca1  1  0.74812000  0.36409900  0.95652300  1
  Ca  Ca2  1  0.74812000  0.86409900  0.54347700  1
  Ca  Ca3  1  0.25188000  0.86409900  0.04347700  1
  V  V4  1  0.73744700  0.39657400  0.60691600  1
  V  V5  1  0.26255300  0.89657400  0.39308400  1
  V  V6  1  0.77558000  0.59400100  0.39382000  1
  V  V7  1  0.22442000  0.09400100  0.60618000  1
  V  V8  1  0.77558000  0.09400100  0.10618000  1
  V  V9  1  0.73744700  0.89657400  0.89308400  1
  V  V10  1  0.26255300  0.39657400  0.10691600  1
  V  V11  1  0.22442000  0.59400100  0.89382000  1
  Bi  Bi12  1  0.68141200  0.84854700  0.22715600  1
  Bi  Bi13  1  0.82794200  0.17526500  0.77922000  1
  Bi  Bi14  1  0.31858800  0.34854700  0.77284400  1
  Bi  Bi15  1  0.82794200  0.67526500  0.72078000  1
  Bi  Bi16  1  0.17205800  0.17526500  0.27922000  1
  Bi  Bi17  1  0.17205800  0.67526500  0.22078000  1
  Bi  Bi18  1  0.31858800  0.84854700  0.72715600  1
  Bi  Bi19  1  0.68141200  0.34854700  0.27284400  1
  O  O20  1  0.65864600  0.28878200  0.68790600  1
  O  O21  1  0.02165400  0.02805400  0.07759600  1
  O  O22  1  0.97834600  0.52805400  0.92240400  1
  O  O23  1  0.99266900  0.80046400  0.15541400  1
  O  O24  1  0.00733100  0.30046400  0.84458600  1
  O  O25  1  0.65864600  0.78878200  0.81209400  1
  O  O26  1  0.00733100  0.80046400  0.65541400  1
  O  O27  1  0.34135400  0.78878200  0.31209400  1
  O  O28  1  0.02165400  0.52805400  0.42240400  1
  O  O29  1  0.85876300  0.67645700  0.29679500  1
  O  O30  1  0.34135400  0.28878200  0.18790600  1
  O  O31  1  0.32176300  0.18587000  0.53280300  1
  O  O32  1  0.51720200  0.93773000  0.43380600  1
  O  O33  1  0.52509700  0.72667500  0.65546000  1
  O  O34  1  0.90130800  0.01417400  0.84029500  1
  O  O35  1  0.51720200  0.43773000  0.06619400  1
  O  O36  1  0.85876300  0.17645700  0.20320500  1
  O  O37  1  0.47490300  0.22667500  0.34454000  1
  O  O38  1  0.91043200  0.83804700  0.96413400  1
  O  O39  1  0.97834600  0.02805400  0.57759600  1
  O  O40  1  0.08956800  0.83804700  0.46413400  1
  O  O41  1  0.56022200  0.98423000  0.13571800  1
  O  O42  1  0.52509700  0.22667500  0.84454000  1
  O  O43  1  0.43977800  0.98423000  0.63571800  1
  O  O44  1  0.08956800  0.33804700  0.03586600  1
  O  O45  1  0.91043200  0.33804700  0.53586600  1
  O  O46  1  0.48279800  0.43773000  0.56619400  1
  O  O47  1  0.48279800  0.93773000  0.93380600  1
  O  O48  1  0.43977800  0.48423000  0.86428200  1
  O  O49  1  0.67823700  0.68587000  0.46719700  1
  O  O50  1  0.67823700  0.18587000  0.03280300  1
  O  O51  1  0.32176300  0.68587000  0.96719700  1
  O  O52  1  0.56022200  0.48423000  0.36428200  1
  O  O53  1  0.47490300  0.72667500  0.15546000  1
  O  O54  1  0.99266900  0.30046400  0.34458600  1
  O  O55  1  0.90130800  0.51417400  0.65970500  1
  O  O56  1  0.09869200  0.51417400  0.15970500  1
  O  O57  1  0.14123700  0.17645700  0.70320500  1
  O  O58  1  0.09869200  0.01417400  0.34029500  1
  O  O59  1  0.14123700  0.67645700  0.79679500  1
