# generated using pymatgen
data_ZnFeO2
_symmetry_space_group_name_H-M   'P 1'
_cell_length_a   3.02330600
_cell_length_b   7.81627772
_cell_length_c   8.11367621
_cell_angle_alpha   100.20487934
_cell_angle_beta   100.47180483
_cell_angle_gamma   97.87291677
_symmetry_Int_Tables_number   1
_chemical_formula_structural   ZnFeO2
_chemical_formula_sum   'Zn4 Fe4 O8'
_cell_volume   182.70110358
_cell_formula_units_Z   4
loop_
 _symmetry_equiv_pos_site_id
 _symmetry_equiv_pos_as_xyz
  1  'x, y, z'
loop_
 _atom_site_type_symbol
 _atom_site_label
 _atom_site_symmetry_multiplicity
 _atom_site_fract_x
 _atom_site_fract_y
 _atom_site_fract_z
 _atom_site_occupancy
  Zn  Zn0  1  0.58431400  0.86133900  0.23124800  1
  Zn  Zn1  1  0.45537700  0.16416800  0.80063700  1
  Zn  Zn2  1  0.95358600  0.14282300  0.10744900  1
  Zn  Zn3  1  0.85750100  0.86996700  0.90037800  1
  Fe  Fe4  1  0.18881300  0.79999800  0.56387500  1
  Fe  Fe5  1  0.38202300  0.50042900  0.19237600  1
  Fe  Fe6  1  0.70088700  0.51201400  0.83866800  1
  Fe  Fe7  1  0.84859600  0.22339600  0.47145700  1
  O  O8  1  0.46148500  0.31940500  0.62961100  1
  O  O9  1  0.23677200  0.70035200  0.77159500  1
  O  O10  1  0.86067100  0.35835500  0.26152800  1
  O  O11  1  0.57495700  0.69677100  0.41123700  1
  O  O12  1  0.82114400  0.97819800  0.66849600  1
  O  O13  1  0.88502600  0.65696800  0.09962400  1
  O  O14  1  0.20623200  0.03469400  0.32447200  1
  O  O15  1  0.17500500  0.34178700  0.95296800  1
