# generated using pymatgen
data_CaTi2O4
_symmetry_space_group_name_H-M   'P 1'
_cell_length_a   6.31177629
_cell_length_b   6.31177629
_cell_length_c   6.31177629
_cell_angle_alpha   121.11639085
_cell_angle_beta   121.11639085
_cell_angle_gamma   88.07699159
_symmetry_Int_Tables_number   1
_chemical_formula_structural   CaTi2O4
_chemical_formula_sum   'Ca2 Ti4 O8'
_cell_volume   174.69616402
_cell_formula_units_Z   2
loop_
 _symmetry_equiv_pos_site_id
 _symmetry_equiv_pos_as_xyz
  1  'x, y, z'
loop_
 _atom_site_type_symbol
 _atom_site_label
 _atom_site_symmetry_multiplicity
 _atom_site_fract_x
 _atom_site_fract_y
 _atom_site_fract_z
 _atom_site_occupancy
  Ca  Ca0  1  0.50000000  0.50000000  0.00000000  1
  Ca  Ca1  1  0.25000000  0.75000000  0.50000000  1
  Ti  Ti2  1  0.87500000  0.12500000  0.25000000  1
  Ti  Ti3  1  0.37500000  0.12500000  0.25000000  1
  Ti  Ti4  1  0.87500000  0.62500000  0.75000000  1
  Ti  Ti5  1  0.87500000  0.12500000  0.75000000  1
  O  O6  1  0.67612400  0.89617600  0.77994800  1
  O  O7  1  0.10382400  0.88377200  0.77994800  1
  O  O8  1  0.10382400  0.32387600  0.22005200  1
  O  O9  1  0.07387600  0.35382400  0.72005200  1
  O  O10  1  0.63377200  0.35382400  0.27994800  1
  O  O11  1  0.64617600  0.36622800  0.72005200  1
  O  O12  1  0.11622800  0.89617600  0.22005200  1
  O  O13  1  0.64617600  0.92612400  0.27994800  1
