data_image0
_chemical_formula_structural       CrF6Nb
_chemical_formula_sum              "Cr1 F6 Nb1"
_cell_length_a       5.575
_cell_length_b       5.575
_cell_length_c       5.68046
_cell_angle_alpha    119.388
_cell_angle_beta     119.388
_cell_angle_gamma    90

_space_group_name_H-M_alt    "P 1"
_space_group_IT_number       1

loop_
  _space_group_symop_operation_xyz
  'x, y, z'

loop_
  _atom_site_type_symbol
  _atom_site_label
  _atom_site_symmetry_multiplicity
  _atom_site_fract_x
  _atom_site_fract_y
  _atom_site_fract_z
  _atom_site_occupancy
  Cr  Cr1       1.0  0.50000  0.50000  0.00000  1.0000
  F   F1        1.0  0.25600  0.25600  0.00000  1.0000
  F   F2        1.0  0.74400  0.25600  0.00000  1.0000
  F   F3        1.0  0.25600  0.74400  0.00000  1.0000
  F   F4        1.0  0.74400  0.74400  0.00000  1.0000
  F   F5        1.0  0.24000  0.24000  0.48000  1.0000
  F   F6        1.0  0.76000  0.76000  0.52000  1.0000
  Nb  Nb1       1.0  0.00000  0.00000  0.00000  1.0000
