# generated using pymatgen
data_Na3CaFe4(SiO3)8
_symmetry_space_group_name_H-M   'P 1'
_cell_length_a   7.57679582
_cell_length_b   7.57679582
_cell_length_c   9.84844057
_cell_angle_alpha   63.79151123
_cell_angle_beta   63.79151123
_cell_angle_gamma   72.26343904
_symmetry_Int_Tables_number   1
_chemical_formula_structural   Na3CaFe4(SiO3)8
_chemical_formula_sum   'Na3 Ca1 Fe4 Si8 O24'
_cell_volume   450.86574072
_cell_formula_units_Z   1
loop_
 _symmetry_equiv_pos_site_id
 _symmetry_equiv_pos_as_xyz
  1  'x, y, z'
loop_
 _atom_site_type_symbol
 _atom_site_label
 _atom_site_symmetry_multiplicity
 _atom_site_fract_x
 _atom_site_fract_y
 _atom_site_fract_z
 _atom_site_occupancy
  Na  Na0  1  0.92374800  0.07625200  0.00000000  1
  Na  Na1  1  0.07718800  0.42497900  0.24808300  1
  Na  Na2  1  0.57502100  0.92281200  0.75191700  1
  Ca  Ca3  1  0.42487300  0.57512700  0.50000000  1
  Fe  Fe4  1  0.02297400  0.97702600  0.50000000  1
  Fe  Fe5  1  0.52381800  0.47618200  0.00000000  1
  Fe  Fe6  1  0.47694400  0.03025400  0.24396700  1
  Fe  Fe7  1  0.96974600  0.52305600  0.75603300  1
  Si  Si8  1  0.72172400  0.29002100  0.70597800  1
  Si  Si9  1  0.22138000  0.79207700  0.20252100  1
  Si  Si10  1  0.70997900  0.27827600  0.29402200  1
  Si  Si11  1  0.20792300  0.77862000  0.79747900  1
  Si  Si12  1  0.77682200  0.70789300  0.04696500  1
  Si  Si13  1  0.27726400  0.20469200  0.54630500  1
  Si  Si14  1  0.79530800  0.72273600  0.45369500  1
  Si  Si15  1  0.29210700  0.22317800  0.95303500  1
  O  O16  1  0.75481500  0.34686200  0.83354500  1
  O  O17  1  0.25841600  0.84111400  0.33479600  1
  O  O18  1  0.65313800  0.24518500  0.16645500  1
  O  O19  1  0.15888600  0.74158400  0.66520400  1
  O  O20  1  0.73507400  0.64883100  0.92332200  1
  O  O21  1  0.23785800  0.14738200  0.42071600  1
  O  O22  1  0.85261800  0.76214200  0.57928400  1
  O  O23  1  0.35116900  0.26492600  0.07667800  1
  O  O24  1  0.75269700  0.48527300  0.53221500  1
  O  O25  1  0.25729300  0.98572600  0.03109700  1
  O  O26  1  0.51472700  0.24730300  0.46778500  1
  O  O27  1  0.01427400  0.74270700  0.96890300  1
  O  O28  1  0.74058600  0.51669900  0.22487600  1
  O  O29  1  0.24523700  0.01509000  0.72066300  1
  O  O30  1  0.98491000  0.75476300  0.27933700  1
  O  O31  1  0.48330100  0.25941400  0.77512400  1
  O  O32  1  0.85107400  0.09393200  0.66664800  1
  O  O33  1  0.35066800  0.59346200  0.16759100  1
  O  O34  1  0.90606800  0.14892600  0.33335200  1
  O  O35  1  0.40653800  0.64933200  0.83240900  1
  O  O36  1  0.64970800  0.90583200  0.08086200  1
  O  O37  1  0.15788400  0.40793000  0.57804700  1
  O  O38  1  0.59207000  0.84211600  0.42195300  1
  O  O39  1  0.09416800  0.35029200  0.91913800  1
