# generated using pymatgen
data_Mn2ZnO4
_symmetry_space_group_name_H-M   'P 1'
_cell_length_a   5.17625000
_cell_length_b   6.08793700
_cell_length_c   10.30830300
_cell_angle_alpha   90.00000000
_cell_angle_beta   90.00000000
_cell_angle_gamma   90.00000000
_symmetry_Int_Tables_number   1
_chemical_formula_structural   Mn2ZnO4
_chemical_formula_sum   'Mn8 Zn4 O16'
_cell_volume   324.84229395
_cell_formula_units_Z   4
loop_
 _symmetry_equiv_pos_site_id
 _symmetry_equiv_pos_as_xyz
  1  'x, y, z'
loop_
 _atom_site_type_symbol
 _atom_site_label
 _atom_site_symmetry_multiplicity
 _atom_site_fract_x
 _atom_site_fract_y
 _atom_site_fract_z
 _atom_site_occupancy
  Mn  Mn0  1  0.98694000  0.50000000  0.26417000  1
  Mn  Mn1  1  0.98694000  0.50000000  0.73583000  1
  Mn  Mn2  1  0.01306000  0.00000000  0.23583000  1
  Mn  Mn3  1  0.01306000  0.00000000  0.76417000  1
  Mn  Mn4  1  0.50000000  0.25000000  0.25000000  1
  Mn  Mn5  1  0.50000000  0.75000000  0.75000000  1
  Mn  Mn6  1  0.50000000  0.75000000  0.25000000  1
  Mn  Mn7  1  0.50000000  0.25000000  0.75000000  1
  Zn  Zn8  1  0.66427000  0.00000000  0.00000000  1
  Zn  Zn9  1  0.33573000  0.50000000  0.50000000  1
  Zn  Zn10  1  0.99423600  0.00000000  0.50000000  1
  Zn  Zn11  1  0.00576400  0.50000000  0.00000000  1
  O  O12  1  0.64237400  0.50000000  0.34819600  1
  O  O13  1  0.64237400  0.50000000  0.65180400  1
  O  O14  1  0.35762600  0.00000000  0.15180400  1
  O  O15  1  0.35762600  0.00000000  0.84819600  1
  O  O16  1  0.26484300  0.50000000  0.14779200  1
  O  O17  1  0.26484300  0.50000000  0.85220800  1
  O  O18  1  0.73515700  0.00000000  0.35220800  1
  O  O19  1  0.73515700  0.00000000  0.64779200  1
  O  O20  1  0.81196100  0.24852900  0.13719400  1
  O  O21  1  0.81196100  0.75147100  0.86280600  1
  O  O22  1  0.18803900  0.74852900  0.36280600  1
  O  O23  1  0.18803900  0.25147100  0.63719400  1
  O  O24  1  0.18803900  0.25147100  0.36280600  1
  O  O25  1  0.18803900  0.74852900  0.63719400  1
  O  O26  1  0.81196100  0.75147100  0.13719400  1
  O  O27  1  0.81196100  0.24852900  0.86280600  1
