# generated using pymatgen
data_Mg(FeO2)2
_symmetry_space_group_name_H-M   'P 1'
_cell_length_a   2.92711900
_cell_length_b   7.66377404
_cell_length_c   8.07589670
_cell_angle_alpha   70.99536836
_cell_angle_beta   79.86064063
_cell_angle_gamma   79.14914704
_symmetry_Int_Tables_number   1
_chemical_formula_structural   Mg(FeO2)2
_chemical_formula_sum   'Mg2 Fe4 O8'
_cell_volume   166.93816916
_cell_formula_units_Z   2
loop_
 _symmetry_equiv_pos_site_id
 _symmetry_equiv_pos_as_xyz
  1  'x, y, z'
loop_
 _atom_site_type_symbol
 _atom_site_label
 _atom_site_symmetry_multiplicity
 _atom_site_fract_x
 _atom_site_fract_y
 _atom_site_fract_z
 _atom_site_occupancy
  Mg  Mg0  1  0.80601800  0.21088000  0.67009100  1
  Mg  Mg1  1  0.19398200  0.78912000  0.32990900  1
  Fe  Fe2  1  0.09827200  0.59514100  0.70103100  1
  Fe  Fe3  1  0.65861100  0.18036200  0.02000300  1
  Fe  Fe4  1  0.34138900  0.81963800  0.97999700  1
  Fe  Fe5  1  0.90172800  0.40485900  0.29896900  1
  O  O6  1  0.35943800  0.58523000  0.20172000  1
  O  O7  1  0.93625100  0.76112800  0.84268200  1
  O  O8  1  0.06374900  0.23887200  0.15731800  1
  O  O9  1  0.64056200  0.41477000  0.79828000  1
  O  O10  1  0.64198800  0.70531600  0.51560600  1
  O  O11  1  0.27178300  0.09665000  0.85729600  1
  O  O12  1  0.35801200  0.29468400  0.48439400  1
  O  O13  1  0.72821700  0.90335000  0.14270400  1
