# generated using pymatgen
data_Ba2YV3O7
_symmetry_space_group_name_H-M   'P 1'
_cell_length_a   3.90041300
_cell_length_b   4.14935500
_cell_length_c   11.63264800
_cell_angle_alpha   90.00000000
_cell_angle_beta   90.00000000
_cell_angle_gamma   90.00000000
_symmetry_Int_Tables_number   1
_chemical_formula_structural   Ba2YV3O7
_chemical_formula_sum   'Ba2 Y1 V3 O7'
_cell_volume   188.26508063
_cell_formula_units_Z   1
loop_
 _symmetry_equiv_pos_site_id
 _symmetry_equiv_pos_as_xyz
  1  'x, y, z'
loop_
 _atom_site_type_symbol
 _atom_site_label
 _atom_site_symmetry_multiplicity
 _atom_site_fract_x
 _atom_site_fract_y
 _atom_site_fract_z
 _atom_site_occupancy
  Ba  Ba0  1  0.50000000  0.50000000  0.32227500  1
  Ba  Ba1  1  0.50000000  0.50000000  0.67772500  1
  Y  Y2  1  0.50000000  0.50000000  0.00000000  1
  V  V3  1  0.00000000  0.00000000  0.15283900  1
  V  V4  1  0.00000000  0.00000000  0.84716100  1
  V  V5  1  0.00000000  0.00000000  0.50000000  1
  O  O6  1  0.00000000  0.50000000  0.50000000  1
  O  O7  1  0.50000000  0.00000000  0.11861900  1
  O  O8  1  0.50000000  0.00000000  0.88138100  1
  O  O9  1  0.00000000  0.50000000  0.12610900  1
  O  O10  1  0.00000000  0.50000000  0.87389100  1
  O  O11  1  0.00000000  0.00000000  0.32521900  1
  O  O12  1  0.00000000  0.00000000  0.67478100  1
