# generated using pymatgen
data_Ca5Nb4(CoO9)2
_symmetry_space_group_name_H-M   'P 1'
_cell_length_a   5.47246600
_cell_length_b   9.62281700
_cell_length_c   16.71016040
_cell_angle_alpha   55.36311880
_cell_angle_beta   90.00000000
_cell_angle_gamma   90.00000000
_symmetry_Int_Tables_number   1
_chemical_formula_structural   Ca5Nb4(CoO9)2
_chemical_formula_sum   'Ca10 Nb8 Co4 O36'
_cell_volume   724.01026434
_cell_formula_units_Z   2
loop_
 _symmetry_equiv_pos_site_id
 _symmetry_equiv_pos_as_xyz
  1  'x, y, z'
loop_
 _atom_site_type_symbol
 _atom_site_label
 _atom_site_symmetry_multiplicity
 _atom_site_fract_x
 _atom_site_fract_y
 _atom_site_fract_z
 _atom_site_occupancy
  Ca  Ca0  1  0.73761500  0.45285100  0.40213500  1
  Ca  Ca1  1  0.26238500  0.45285100  0.90213500  1
  Ca  Ca2  1  0.22652200  0.87876200  0.43380800  1
  Ca  Ca3  1  0.75704100  0.55831700  0.59356600  1
  Ca  Ca4  1  0.74493900  0.78393900  0.73025300  1
  Ca  Ca5  1  0.24295900  0.55831700  0.09356600  1
  Ca  Ca6  1  0.73261800  0.12154200  0.06577400  1
  Ca  Ca7  1  0.77347800  0.87876200  0.93380800  1
  Ca  Ca8  1  0.26738200  0.12154200  0.56577400  1
  Ca  Ca9  1  0.25506100  0.78393900  0.23025300  1
  Nb  Nb10  1  0.26082900  0.84462500  0.83474800  1
  Nb  Nb11  1  0.25210900  0.67200000  0.66262200  1
  Nb  Nb12  1  0.23525600  0.17667700  0.16115200  1
  Nb  Nb13  1  0.73917100  0.84462500  0.33474800  1
  Nb  Nb14  1  0.23752600  0.32161900  0.33465600  1
  Nb  Nb15  1  0.76247400  0.32161900  0.83465600  1
  Nb  Nb16  1  0.76474400  0.17667700  0.66115200  1
  Nb  Nb17  1  0.74789100  0.67200000  0.16262200  1
  Co  Co18  1  0.74181500  0.01541700  0.49409900  1
  Co  Co19  1  0.25818500  0.01541700  0.99409900  1
  Co  Co20  1  0.75306600  0.50179000  0.99659000  1
  Co  Co21  1  0.24693400  0.50179000  0.49659000  1
  O  O22  1  0.06421500  0.11539900  0.42354100  1
  O  O23  1  0.96123300  0.32544200  0.10459600  1
  O  O24  1  0.54830100  0.20673100  0.42493300  1
  O  O25  1  0.04992700  0.78875700  0.08408500  1
  O  O26  1  0.05029600  0.65523400  0.94474300  1
  O  O27  1  0.83621900  0.73065600  0.25938600  1
  O  O28  1  0.95007300  0.78875700  0.58408500  1
  O  O29  1  0.16378100  0.73065600  0.75938600  1
  O  O30  1  0.15605300  0.06794000  0.09260000  1
  O  O31  1  0.83212300  0.40153100  0.92249600  1
  O  O32  1  0.45169900  0.20673100  0.92493300  1
  O  O33  1  0.45349300  0.67920300  0.38644800  1
  O  O34  1  0.53963000  0.00364000  0.21890300  1
  O  O35  1  0.34146800  0.92127300  0.91436800  1
  O  O36  1  0.45194600  0.87564100  0.58761700  1
  O  O37  1  0.46554000  0.53940700  0.25289600  1
  O  O38  1  0.54650700  0.67920300  0.88644800  1
  O  O39  1  0.33278000  0.60391300  0.57366100  1
  O  O40  1  0.05561300  0.97361100  0.28003700  1
  O  O41  1  0.54487300  0.34232600  0.55569500  1
  O  O42  1  0.94970400  0.65523400  0.44474300  1
  O  O43  1  0.03876700  0.32544200  0.60459600  1
  O  O44  1  0.32482100  0.26477200  0.24173400  1
  O  O45  1  0.97280100  0.46399500  0.25014000  1
  O  O46  1  0.02719900  0.46399500  0.75014000  1
  O  O47  1  0.54805400  0.87564100  0.08761700  1
  O  O48  1  0.65853200  0.92127300  0.41436800  1
  O  O49  1  0.45512700  0.34232600  0.05569500  1
  O  O50  1  0.94438700  0.97361100  0.78003700  1
  O  O51  1  0.84394700  0.06794000  0.59260000  1
  O  O52  1  0.16787700  0.40153100  0.42249600  1
  O  O53  1  0.46037000  0.00364000  0.71890300  1
  O  O54  1  0.53446000  0.53940700  0.75289600  1
  O  O55  1  0.67517900  0.26477200  0.74173400  1
  O  O56  1  0.66722000  0.60391300  0.07366100  1
  O  O57  1  0.93578500  0.11539900  0.92354100  1
