# generated using pymatgen
data_AlSb3Se2ClO8
_symmetry_space_group_name_H-M   'P 1'
_cell_length_a   6.94301700
_cell_length_b   8.00499700
_cell_length_c   9.40238100
_cell_angle_alpha   90.00000000
_cell_angle_beta   90.00000000
_cell_angle_gamma   90.00000000
_symmetry_Int_Tables_number   1
_chemical_formula_structural   AlSb3Se2ClO8
_chemical_formula_sum   'Al2 Sb6 Se4 Cl2 O16'
_cell_volume   522.57333760
_cell_formula_units_Z   2
loop_
 _symmetry_equiv_pos_site_id
 _symmetry_equiv_pos_as_xyz
  1  'x, y, z'
loop_
 _atom_site_type_symbol
 _atom_site_label
 _atom_site_symmetry_multiplicity
 _atom_site_fract_x
 _atom_site_fract_y
 _atom_site_fract_z
 _atom_site_occupancy
  Al  Al0  1  0.66757000  0.50000000  0.50000000  1
  Al  Al1  1  0.33153600  0.00000000  0.00000000  1
  Sb  Sb2  1  0.00203400  0.24290200  0.75466500  1
  Sb  Sb3  1  0.00203400  0.24290200  0.24533500  1
  Sb  Sb4  1  0.00203400  0.75709800  0.75466500  1
  Sb  Sb5  1  0.86586200  0.00000000  0.00000000  1
  Sb  Sb6  1  0.10941800  0.50000000  0.50000000  1
  Sb  Sb7  1  0.00203400  0.75709800  0.24533500  1
  Se  Se8  1  0.55455900  0.00000000  0.68771300  1
  Se  Se9  1  0.44606500  0.50000000  0.81203200  1
  Se  Se10  1  0.55455900  0.00000000  0.31228700  1
  Se  Se11  1  0.44606500  0.50000000  0.18796800  1
  Cl  Cl12  1  0.91385100  0.50000000  0.00000000  1
  Cl  Cl13  1  0.08674200  0.00000000  0.50000000  1
  O  O14  1  0.86058700  0.50000000  0.63765600  1
  O  O15  1  0.46759000  0.50000000  0.62615000  1
  O  O16  1  0.53445900  0.00000000  0.12473600  1
  O  O17  1  0.70330800  0.16972000  0.66794500  1
  O  O18  1  0.29750000  0.32962000  0.16804200  1
  O  O19  1  0.29750000  0.67038000  0.16804200  1
  O  O20  1  0.14401500  0.00000000  0.85960100  1
  O  O21  1  0.70330800  0.83028000  0.66794500  1
  O  O22  1  0.70330800  0.83028000  0.33205500  1
  O  O23  1  0.29750000  0.67038000  0.83195800  1
  O  O24  1  0.86058700  0.50000000  0.36234400  1
  O  O25  1  0.14401500  0.00000000  0.14039900  1
  O  O26  1  0.29750000  0.32962000  0.83195800  1
  O  O27  1  0.70330800  0.16972000  0.33205500  1
  O  O28  1  0.53445900  0.00000000  0.87526400  1
  O  O29  1  0.46759000  0.50000000  0.37385000  1
