# generated using pymatgen
data_MnZnP2O7
_symmetry_space_group_name_H-M   'P 1'
_cell_length_a   8.57307300
_cell_length_b   7.12649900
_cell_length_c   9.23810141
_cell_angle_alpha   67.38450182
_cell_angle_beta   90.00000000
_cell_angle_gamma   90.00000000
_symmetry_Int_Tables_number   1
_chemical_formula_structural   MnZnP2O7
_chemical_formula_sum   'Mn4 Zn4 P8 O28'
_cell_volume   521.01132017
_cell_formula_units_Z   4
loop_
 _symmetry_equiv_pos_site_id
 _symmetry_equiv_pos_as_xyz
  1  'x, y, z'
loop_
 _atom_site_type_symbol
 _atom_site_label
 _atom_site_symmetry_multiplicity
 _atom_site_fract_x
 _atom_site_fract_y
 _atom_site_fract_z
 _atom_site_occupancy
  Mn  Mn0  1  0.06947600  0.76344000  0.60879600  1
  Mn  Mn1  1  0.93052400  0.23656000  0.39120400  1
  Mn  Mn2  1  0.56947600  0.23656000  0.89120400  1
  Mn  Mn3  1  0.43052400  0.76344000  0.10879600  1
  Zn  Zn4  1  0.94123000  0.30106300  0.81679400  1
  Zn  Zn5  1  0.44123000  0.69893700  0.68320600  1
  Zn  Zn6  1  0.55877000  0.30106300  0.31679400  1
  Zn  Zn7  1  0.05877000  0.69893700  0.18320600  1
  P  P8  1  0.73501300  0.93754200  0.24283700  1
  P  P9  1  0.22328800  0.46696300  0.96958800  1
  P  P10  1  0.76498700  0.93754200  0.74283700  1
  P  P11  1  0.27671200  0.46696300  0.46958800  1
  P  P12  1  0.23501300  0.06245800  0.25716300  1
  P  P13  1  0.72328800  0.53303700  0.53041200  1
  P  P14  1  0.77671200  0.53303700  0.03041200  1
  P  P15  1  0.26498700  0.06245800  0.75716300  1
  O  O16  1  0.17821900  0.25115800  0.10094600  1
  O  O17  1  0.60915300  0.88833800  0.69016200  1
  O  O18  1  0.89084700  0.88833800  0.19016200  1
  O  O19  1  0.38388100  0.45429300  0.89772900  1
  O  O20  1  0.82178100  0.74884200  0.89905400  1
  O  O21  1  0.10295000  0.02991300  0.37720000  1
  O  O22  1  0.61611900  0.54570700  0.10227100  1
  O  O23  1  0.09035200  0.50811800  0.84974700  1
  O  O24  1  0.27127500  0.62273500  0.54804900  1
  O  O25  1  0.89705000  0.97008700  0.62280000  1
  O  O26  1  0.39705000  0.02991300  0.87720000  1
  O  O27  1  0.76026900  0.11751400  0.79679200  1
  O  O28  1  0.26026900  0.88248600  0.70320800  1
  O  O29  1  0.32178100  0.25115800  0.60094600  1
  O  O30  1  0.60295000  0.97008700  0.12280000  1
  O  O31  1  0.10915300  0.11166200  0.80983800  1
  O  O32  1  0.23973100  0.88248600  0.20320800  1
  O  O33  1  0.90964800  0.49188200  0.15025300  1
  O  O34  1  0.22872500  0.62273500  0.04804900  1
  O  O35  1  0.77127500  0.37726500  0.95195100  1
  O  O36  1  0.88388100  0.54570700  0.60227100  1
  O  O37  1  0.40964800  0.50811800  0.34974700  1
  O  O38  1  0.59035200  0.49188200  0.65025300  1
  O  O39  1  0.39084700  0.11166200  0.30983800  1
  O  O40  1  0.73973100  0.11751400  0.29679200  1
  O  O41  1  0.11611900  0.45429300  0.39772900  1
  O  O42  1  0.72872500  0.37726500  0.45195100  1
  O  O43  1  0.67821900  0.74884200  0.39905400  1
