# generated using pymatgen
data_Zr3Sc4N8
_symmetry_space_group_name_H-M   'P 1'
_cell_length_a   17.84225551
_cell_length_b   17.84225551
_cell_length_c   17.84225559
_cell_angle_alpha   11.35988182
_cell_angle_beta   11.35988182
_cell_angle_gamma   11.35988436
_symmetry_Int_Tables_number   1
_chemical_formula_structural   Zr3Sc4N8
_chemical_formula_sum   'Zr3 Sc4 N8'
_cell_volume   191.47164115
_cell_formula_units_Z   1
loop_
 _symmetry_equiv_pos_site_id
 _symmetry_equiv_pos_as_xyz
  1  'x, y, z'
loop_
 _atom_site_type_symbol
 _atom_site_label
 _atom_site_symmetry_multiplicity
 _atom_site_fract_x
 _atom_site_fract_y
 _atom_site_fract_z
 _atom_site_occupancy
  Zr  Zr0  1  0.11487800  0.11487800  0.11487800  1
  Zr  Zr1  1  0.50000000  0.50000000  0.50000000  1
  Zr  Zr2  1  0.88512200  0.88512200  0.88512200  1
  Sc  Sc3  1  0.35460700  0.35460700  0.35460700  1
  Sc  Sc4  1  0.73322900  0.73322900  0.73322900  1
  Sc  Sc5  1  0.26677100  0.26677100  0.26677100  1
  Sc  Sc6  1  0.64539300  0.64539300  0.64539300  1
  N  N7  1  0.68716500  0.68716500  0.68716500  1
  N  N8  1  0.06372000  0.06372000  0.06372000  1
  N  N9  1  0.43718200  0.43718200  0.43718200  1
  N  N10  1  0.81220900  0.81220900  0.81220900  1
  N  N11  1  0.18779100  0.18779100  0.18779100  1
  N  N12  1  0.56281800  0.56281800  0.56281800  1
  N  N13  1  0.93628000  0.93628000  0.93628000  1
  N  N14  1  0.31283500  0.31283500  0.31283500  1
