# generated using pymatgen
data_Y2Ti3O9
_symmetry_space_group_name_H-M   'P 1'
_cell_length_a   5.30592900
_cell_length_b   7.67988500
_cell_length_c   16.55254400
_cell_angle_alpha   90.00000000
_cell_angle_beta   90.00000000
_cell_angle_gamma   90.00000000
_symmetry_Int_Tables_number   1
_chemical_formula_structural   Y2Ti3O9
_chemical_formula_sum   'Y8 Ti12 O36'
_cell_volume   674.49836637
_cell_formula_units_Z   4
loop_
 _symmetry_equiv_pos_site_id
 _symmetry_equiv_pos_as_xyz
  1  'x, y, z'
loop_
 _atom_site_type_symbol
 _atom_site_label
 _atom_site_symmetry_multiplicity
 _atom_site_fract_x
 _atom_site_fract_y
 _atom_site_fract_z
 _atom_site_occupancy
  Y  Y0  1  0.98978200  0.25000000  0.98171700  1
  Y  Y1  1  0.97864100  0.25000000  0.31488600  1
  Y  Y2  1  0.47864100  0.75000000  0.18511400  1
  Y  Y3  1  0.48978200  0.75000000  0.51828300  1
  Y  Y4  1  0.52135900  0.25000000  0.81488600  1
  Y  Y5  1  0.51021800  0.25000000  0.48171700  1
  Y  Y6  1  0.02135900  0.75000000  0.68511400  1
  Y  Y7  1  0.01021800  0.75000000  0.01828300  1
  Ti  Ti8  1  0.00836500  0.50901600  0.83332400  1
  Ti  Ti9  1  0.99163500  0.49098400  0.16667600  1
  Ti  Ti10  1  0.00000000  0.50000000  0.50000000  1
  Ti  Ti11  1  0.50836500  0.49098400  0.66667600  1
  Ti  Ti12  1  0.50000000  0.50000000  0.00000000  1
  Ti  Ti13  1  0.49163500  0.50901600  0.33332400  1
  Ti  Ti14  1  0.50836500  0.00901600  0.66667600  1
  Ti  Ti15  1  0.50000000  0.00000000  0.00000000  1
  Ti  Ti16  1  0.49163500  0.99098400  0.33332400  1
  Ti  Ti17  1  0.00836500  0.99098400  0.83332400  1
  Ti  Ti18  1  0.99163500  0.00901600  0.16667600  1
  Ti  Ti19  1  0.00000000  0.00000000  0.50000000  1
  O  O20  1  0.27362700  0.53651800  0.75767300  1
  O  O21  1  0.29031400  0.56467600  0.09564700  1
  O  O22  1  0.31290400  0.53371900  0.43762400  1
  O  O23  1  0.77362700  0.46348200  0.74232700  1
  O  O24  1  0.81290400  0.46628100  0.06237600  1
  O  O25  1  0.79031400  0.43532400  0.40435300  1
  O  O26  1  0.18709600  0.96628100  0.93762400  1
  O  O27  1  0.22637300  0.96348200  0.25767300  1
  O  O28  1  0.20968600  0.93532400  0.59564700  1
  O  O29  1  0.70968600  0.06467600  0.90435300  1
  O  O30  1  0.72637300  0.03651800  0.24232700  1
  O  O31  1  0.68709600  0.03371900  0.56237600  1
  O  O32  1  0.70968600  0.43532400  0.90435300  1
  O  O33  1  0.72637300  0.46348200  0.24232700  1
  O  O34  1  0.68709600  0.46628100  0.56237600  1
  O  O35  1  0.18709600  0.53371900  0.93762400  1
  O  O36  1  0.22637300  0.53651800  0.25767300  1
  O  O37  1  0.20968600  0.56467600  0.59564700  1
  O  O38  1  0.77362700  0.03651800  0.74232700  1
  O  O39  1  0.81290400  0.03371900  0.06237600  1
  O  O40  1  0.79031400  0.06467600  0.40435300  1
  O  O41  1  0.27362700  0.96348200  0.75767300  1
  O  O42  1  0.29031400  0.93532400  0.09564700  1
  O  O43  1  0.31290400  0.96628100  0.43762400  1
  O  O44  1  0.93629200  0.75000000  0.82769300  1
  O  O45  1  0.89321500  0.75000000  0.15483200  1
  O  O46  1  0.91147300  0.75000000  0.49365400  1
  O  O47  1  0.43629200  0.25000000  0.67230700  1
  O  O48  1  0.41147300  0.25000000  0.00634600  1
  O  O49  1  0.39321500  0.25000000  0.34516800  1
  O  O50  1  0.58852700  0.75000000  0.99365400  1
  O  O51  1  0.56370800  0.75000000  0.32769300  1
  O  O52  1  0.60678500  0.75000000  0.65483200  1
  O  O53  1  0.10678500  0.25000000  0.84516800  1
  O  O54  1  0.06370800  0.25000000  0.17230700  1
  O  O55  1  0.08852700  0.25000000  0.50634600  1
