# generated using pymatgen
data_Sr2Y2Ni2O7
_symmetry_space_group_name_H-M   'P 1'
_cell_length_a   12.62709505
_cell_length_b   12.62709505
_cell_length_c   12.62709505
_cell_angle_alpha   154.79970656
_cell_angle_beta   154.69546336
_cell_angle_gamma   36.01397724
_symmetry_Int_Tables_number   1
_chemical_formula_structural   Sr2Y2Ni2O7
_chemical_formula_sum   'Sr4 Y4 Ni4 O14'
_cell_volume   365.94566034
_cell_formula_units_Z   2
loop_
 _symmetry_equiv_pos_site_id
 _symmetry_equiv_pos_as_xyz
  1  'x, y, z'
loop_
 _atom_site_type_symbol
 _atom_site_label
 _atom_site_symmetry_multiplicity
 _atom_site_fract_x
 _atom_site_fract_y
 _atom_site_fract_z
 _atom_site_occupancy
  Sr  Sr0  1  0.85227900  0.83550100  0.96510300  1
  Sr  Sr1  1  0.14772100  0.11282300  0.98322200  1
  Sr  Sr2  1  0.62960200  0.61282300  0.96510300  1
  Sr  Sr3  1  0.37039800  0.33550100  0.98322200  1
  Y  Y4  1  0.50000000  0.47194200  0.97194200  1
  Y  Y5  1  0.00000000  0.97194200  0.97194200  1
  Y  Y6  1  0.20433200  0.76764500  0.47197700  1
  Y  Y7  1  0.79566800  0.26764500  0.56331300  1
  Ni  Ni8  1  0.92288300  0.39276400  0.46990500  1
  Ni  Ni9  1  0.07711700  0.54702200  0.46988100  1
  Ni  Ni10  1  0.57714100  0.04702200  0.46990500  1
  Ni  Ni11  1  0.42285900  0.89276400  0.46988100  1
  O  O12  1  0.81956000  0.66862200  0.98818200  1
  O  O13  1  0.18044000  0.16862200  0.84906200  1
  O  O14  1  0.70217000  0.67117800  0.49240000  1
  O  O15  1  0.29783000  0.79023000  0.96900800  1
  O  O16  1  0.32122200  0.29023000  0.49240000  1
  O  O17  1  0.67877800  0.17117800  0.96900800  1
  O  O18  1  0.17738700  0.14643600  0.44767200  1
  O  O19  1  0.82261300  0.27028500  0.96904900  1
  O  O20  1  0.80123600  0.77028500  0.44767200  1
  O  O21  1  0.19876400  0.64643600  0.96904900  1
  O  O22  1  0.36143500  0.78984000  0.47715000  1
  O  O23  1  0.63856500  0.11571500  0.42840500  1
  O  O24  1  0.18731000  0.61571500  0.47715000  1
  O  O25  1  0.81269000  0.28984000  0.42840500  1
