# generated using pymatgen
data_Ca2CuN2
_symmetry_space_group_name_H-M   'P 1'
_cell_length_a   5.97141081
_cell_length_b   5.97141081
_cell_length_c   6.84571889
_cell_angle_alpha   62.29060541
_cell_angle_beta   62.29060541
_cell_angle_gamma   49.27293870
_symmetry_Int_Tables_number   1
_chemical_formula_structural   Ca2CuN2
_chemical_formula_sum   'Ca4 Cu2 N4'
_cell_volume   158.95086414
_cell_formula_units_Z   2
loop_
 _symmetry_equiv_pos_site_id
 _symmetry_equiv_pos_as_xyz
  1  'x, y, z'
loop_
 _atom_site_type_symbol
 _atom_site_label
 _atom_site_symmetry_multiplicity
 _atom_site_fract_x
 _atom_site_fract_y
 _atom_site_fract_z
 _atom_site_occupancy
  Ca  Ca0  1  0.32401900  0.32401900  0.58063200  1
  Ca  Ca1  1  0.67598100  0.67598100  0.41936800  1
  Ca  Ca2  1  0.95983800  0.95983800  0.76230300  1
  Ca  Ca3  1  0.04016200  0.04016200  0.23769700  1
  Cu  Cu4  1  0.63628700  0.63628700  0.88392300  1
  Cu  Cu5  1  0.36371300  0.36371300  0.11607700  1
  N  N6  1  0.81679700  0.81679700  0.59928800  1
  N  N7  1  0.18320300  0.18320300  0.40071200  1
  N  N8  1  0.52406800  0.52406800  0.20166500  1
  N  N9  1  0.47593200  0.47593200  0.79833500  1
