# generated using pymatgen
data_CaLa2TiO6
_symmetry_space_group_name_H-M   'P 1'
_cell_length_a   5.73592217
_cell_length_b   5.73592217
_cell_length_c   5.73592265
_cell_angle_alpha   61.68932570
_cell_angle_beta   61.68932570
_cell_angle_gamma   61.68933185
_symmetry_Int_Tables_number   1
_chemical_formula_structural   CaLa2TiO6
_chemical_formula_sum   'Ca1 La2 Ti1 O6'
_cell_volume   138.49622714
_cell_formula_units_Z   1
loop_
 _symmetry_equiv_pos_site_id
 _symmetry_equiv_pos_as_xyz
  1  'x, y, z'
loop_
 _atom_site_type_symbol
 _atom_site_label
 _atom_site_symmetry_multiplicity
 _atom_site_fract_x
 _atom_site_fract_y
 _atom_site_fract_z
 _atom_site_occupancy
  Ca  Ca0  1  0.50000000  0.50000000  0.50000000  1
  La  La1  1  0.75923000  0.75923000  0.75923000  1
  La  La2  1  0.24077000  0.24077000  0.24077000  1
  Ti  Ti3  1  0.00000000  0.00000000  0.00000000  1
  O  O4  1  0.78633400  0.33169400  0.12962000  1
  O  O5  1  0.12962000  0.78633400  0.33169400  1
  O  O6  1  0.33169400  0.12962000  0.78633400  1
  O  O7  1  0.21366600  0.66830600  0.87038000  1
  O  O8  1  0.66830600  0.87038000  0.21366600  1
  O  O9  1  0.87038000  0.21366600  0.66830600  1
