# generated using pymatgen
data_MoF5
_symmetry_space_group_name_H-M   'P 1'
_cell_length_a   5.53945543
_cell_length_b   5.53945543
_cell_length_c   7.99113847
_cell_angle_alpha   69.26617246
_cell_angle_beta   69.26617246
_cell_angle_gamma   70.12451907
_symmetry_Int_Tables_number   1
_chemical_formula_structural   MoF5
_chemical_formula_sum   'Mo2 F10'
_cell_volume   207.92054260
_cell_formula_units_Z   2
loop_
 _symmetry_equiv_pos_site_id
 _symmetry_equiv_pos_as_xyz
  1  'x, y, z'
loop_
 _atom_site_type_symbol
 _atom_site_label
 _atom_site_symmetry_multiplicity
 _atom_site_fract_x
 _atom_site_fract_y
 _atom_site_fract_z
 _atom_site_occupancy
  Mo  Mo0  1  0.00000000  0.00000000  0.50000000  1
  Mo  Mo1  1  0.00000000  0.00000000  0.00000000  1
  F  F2  1  0.07339100  0.92660900  0.75000000  1
  F  F3  1  0.92660900  0.07339100  0.25000000  1
  F  F4  1  0.20281700  0.26185600  0.88225300  1
  F  F5  1  0.73814400  0.79718300  0.61774700  1
  F  F6  1  0.71332400  0.29513900  0.55377400  1
  F  F7  1  0.70486100  0.28667600  0.94622600  1
  F  F8  1  0.28667600  0.70486100  0.44622600  1
  F  F9  1  0.29513900  0.71332400  0.05377400  1
  F  F10  1  0.26185600  0.20281700  0.38225300  1
  F  F11  1  0.79718300  0.73814400  0.11774700  1
