# generated using pymatgen
data_SbF5
_symmetry_space_group_name_H-M   'P 1'
_cell_length_a   5.47028905
_cell_length_b   5.47028905
_cell_length_c   5.47028905
_cell_angle_alpha   140.37551588
_cell_angle_beta   130.46661492
_cell_angle_gamma   65.21302875
_symmetry_Int_Tables_number   1
_chemical_formula_structural   SbF5
_chemical_formula_sum   'Sb1 F5'
_cell_volume   78.31800718
_cell_formula_units_Z   1
loop_
 _symmetry_equiv_pos_site_id
 _symmetry_equiv_pos_as_xyz
  1  'x, y, z'
loop_
 _atom_site_type_symbol
 _atom_site_label
 _atom_site_symmetry_multiplicity
 _atom_site_fract_x
 _atom_site_fract_y
 _atom_site_fract_z
 _atom_site_occupancy
  Sb  Sb0  1  0.00000000  0.00000000  0.00000000  1
  F  F1  1  0.76596700  0.50000000  0.26596700  1
  F  F2  1  0.23403300  0.50000000  0.73403300  1
  F  F3  1  0.20391100  0.20391100  0.00000000  1
  F  F4  1  0.79608900  0.79608900  0.00000000  1
  F  F5  1  0.50000000  0.00000000  0.50000000  1
