# generated using pymatgen
data_CaNiP2O7
_symmetry_space_group_name_H-M   'P 1'
_cell_length_a   8.76314100
_cell_length_b   7.29802900
_cell_length_c   9.12933897
_cell_angle_alpha   63.37406555
_cell_angle_beta   90.00000000
_cell_angle_gamma   90.00000000
_symmetry_Int_Tables_number   1
_chemical_formula_structural   CaNiP2O7
_chemical_formula_sum   'Ca4 Ni4 P8 O28'
_cell_volume   521.93769137
_cell_formula_units_Z   4
loop_
 _symmetry_equiv_pos_site_id
 _symmetry_equiv_pos_as_xyz
  1  'x, y, z'
loop_
 _atom_site_type_symbol
 _atom_site_label
 _atom_site_symmetry_multiplicity
 _atom_site_fract_x
 _atom_site_fract_y
 _atom_site_fract_z
 _atom_site_occupancy
  Ca  Ca0  1  0.95424500  0.72892300  0.11862600  1
  Ca  Ca1  1  0.45424500  0.27107700  0.38137400  1
  Ca  Ca2  1  0.54575500  0.72892300  0.61862600  1
  Ca  Ca3  1  0.04575500  0.27107700  0.88137400  1
  Ni  Ni4  1  0.07528500  0.22417300  0.38525200  1
  Ni  Ni5  1  0.92471500  0.77582700  0.61474800  1
  Ni  Ni6  1  0.57528500  0.77582700  0.11474800  1
  Ni  Ni7  1  0.42471500  0.22417300  0.88525200  1
  P  P8  1  0.72286800  0.04831100  0.76398900  1
  P  P9  1  0.24988300  0.52364900  0.03635200  1
  P  P10  1  0.77713200  0.04831100  0.26398900  1
  P  P11  1  0.25011700  0.52364900  0.53635200  1
  P  P12  1  0.22286800  0.95168900  0.73601100  1
  P  P13  1  0.74988300  0.47635100  0.46364800  1
  P  P14  1  0.75011700  0.47635100  0.96364800  1
  P  P15  1  0.27713200  0.95168900  0.23601100  1
  O  O16  1  0.18299200  0.73850200  0.89547600  1
  O  O17  1  0.63217800  0.06440400  0.34860800  1
  O  O18  1  0.86782200  0.06440400  0.84860800  1
  O  O19  1  0.39402800  0.56117700  0.11215700  1
  O  O20  1  0.81700800  0.26149800  0.10452400  1
  O  O21  1  0.07885700  0.98521400  0.62795500  1
  O  O22  1  0.60597200  0.43882300  0.88784300  1
  O  O23  1  0.10845300  0.45836600  0.14981000  1
  O  O24  1  0.23017500  0.38364500  0.45370400  1
  O  O25  1  0.92114300  0.01478600  0.37204500  1
  O  O26  1  0.42114300  0.98521400  0.12795500  1
  O  O27  1  0.76646200  0.89383100  0.19348200  1
  O  O28  1  0.26646200  0.10616900  0.30651800  1
  O  O29  1  0.31700800  0.73850200  0.39547600  1
  O  O30  1  0.57885700  0.01478600  0.87204500  1
  O  O31  1  0.13217800  0.93559600  0.15139200  1
  O  O32  1  0.23353800  0.10616900  0.80651800  1
  O  O33  1  0.89154700  0.54163400  0.85019000  1
  O  O34  1  0.26982500  0.38364500  0.95370400  1
  O  O35  1  0.73017500  0.61635500  0.04629600  1
  O  O36  1  0.89402800  0.43882300  0.38784300  1
  O  O37  1  0.39154700  0.45836600  0.64981000  1
  O  O38  1  0.60845300  0.54163400  0.35019000  1
  O  O39  1  0.36782200  0.93559600  0.65139200  1
  O  O40  1  0.73353800  0.89383100  0.69348200  1
  O  O41  1  0.10597200  0.56117700  0.61215700  1
  O  O42  1  0.76982500  0.61635500  0.54629600  1
  O  O43  1  0.68299200  0.26149800  0.60452400  1
