# generated using pymatgen
data_Zn2Mo3O8
_symmetry_space_group_name_H-M   'P 1'
_cell_length_a   6.08989377
_cell_length_b   6.08989377
_cell_length_c   5.45800928
_cell_angle_alpha   71.26412467
_cell_angle_beta   71.26412467
_cell_angle_gamma   62.07043195
_symmetry_Int_Tables_number   1
_chemical_formula_structural   Zn2Mo3O8
_chemical_formula_sum   'Zn2 Mo3 O8'
_cell_volume   165.80148040
_cell_formula_units_Z   1
loop_
 _symmetry_equiv_pos_site_id
 _symmetry_equiv_pos_as_xyz
  1  'x, y, z'
loop_
 _atom_site_type_symbol
 _atom_site_label
 _atom_site_symmetry_multiplicity
 _atom_site_fract_x
 _atom_site_fract_y
 _atom_site_fract_z
 _atom_site_occupancy
  Zn  Zn0  1  0.32316100  0.32316100  0.63434600  1
  Zn  Zn1  1  0.67683900  0.67683900  0.36565400  1
  Mo  Mo2  1  0.00000000  0.00000000  0.50000000  1
  Mo  Mo3  1  0.26065400  0.73934600  0.00000000  1
  Mo  Mo4  1  0.73934600  0.26065400  0.00000000  1
  O  O5  1  0.61279600  0.61279600  0.76199500  1
  O  O6  1  0.38720400  0.38720400  0.23800500  1
  O  O7  1  0.11530600  0.11530600  0.75597300  1
  O  O8  1  0.88469400  0.88469400  0.24402700  1
  O  O9  1  0.65595400  0.13302500  0.75281100  1
  O  O10  1  0.13302500  0.65595400  0.75281100  1
  O  O11  1  0.86697500  0.34404600  0.24718900  1
  O  O12  1  0.34404600  0.86697500  0.24718900  1
