# generated using pymatgen
data_CrO3
_symmetry_space_group_name_H-M   'P 1'
_cell_length_a   5.70298312
_cell_length_b   5.70298312
_cell_length_c   11.07015500
_cell_angle_alpha   90.00000000
_cell_angle_beta   90.00000000
_cell_angle_gamma   119.99998974
_symmetry_Int_Tables_number   1
_chemical_formula_structural   CrO3
_chemical_formula_sum   'Cr6 O18'
_cell_volume   311.80893072
_cell_formula_units_Z   6
loop_
 _symmetry_equiv_pos_site_id
 _symmetry_equiv_pos_as_xyz
  1  'x, y, z'
loop_
 _atom_site_type_symbol
 _atom_site_label
 _atom_site_symmetry_multiplicity
 _atom_site_fract_x
 _atom_site_fract_y
 _atom_site_fract_z
 _atom_site_occupancy
  Cr  Cr0  1  0.65611300  0.00000000  0.50236600  1
  Cr  Cr1  1  0.65611300  0.65611300  0.00236600  1
  Cr  Cr2  1  0.00000000  0.34388700  0.00236600  1
  Cr  Cr3  1  0.00000000  0.65611300  0.50236600  1
  Cr  Cr4  1  0.34388700  0.34388700  0.50236600  1
  Cr  Cr5  1  0.34388700  0.00000000  0.00236600  1
  O  O6  1  0.66666700  0.33333300  0.03312600  1
  O  O7  1  0.33333300  0.66666700  0.53312600  1
  O  O8  1  0.66666700  0.33333300  0.53312600  1
  O  O9  1  0.33333300  0.66666700  0.03312600  1
  O  O10  1  0.00000000  0.00000000  0.95395100  1
  O  O11  1  0.00000000  0.00000000  0.45395100  1
  O  O12  1  0.37098600  0.00000000  0.85646400  1
  O  O13  1  0.37098600  0.37098600  0.35646400  1
  O  O14  1  0.00000000  0.62901400  0.35646400  1
  O  O15  1  0.00000000  0.37098600  0.85646400  1
  O  O16  1  0.62901400  0.62901400  0.85646400  1
  O  O17  1  0.62901400  0.00000000  0.35646400  1
  O  O18  1  0.21872900  0.00000000  0.14541300  1
  O  O19  1  0.21872900  0.21872900  0.64541300  1
  O  O20  1  0.00000000  0.78127100  0.64541300  1
  O  O21  1  0.00000000  0.21872900  0.14541300  1
  O  O22  1  0.78127100  0.78127100  0.14541300  1
  O  O23  1  0.78127100  0.00000000  0.64541300  1
