# generated using pymatgen
data_BaFe4O7
_symmetry_space_group_name_H-M   'P 1'
_cell_length_a   6.48889756
_cell_length_b   6.48889756
_cell_length_c   10.56814600
_cell_angle_alpha   90.00000000
_cell_angle_beta   90.00000000
_cell_angle_gamma   119.99999549
_symmetry_Int_Tables_number   1
_chemical_formula_structural   BaFe4O7
_chemical_formula_sum   'Ba2 Fe8 O14'
_cell_volume   385.36413348
_cell_formula_units_Z   2
loop_
 _symmetry_equiv_pos_site_id
 _symmetry_equiv_pos_as_xyz
  1  'x, y, z'
loop_
 _atom_site_type_symbol
 _atom_site_label
 _atom_site_symmetry_multiplicity
 _atom_site_fract_x
 _atom_site_fract_y
 _atom_site_fract_z
 _atom_site_occupancy
  Ba  Ba0  1  0.66666700  0.33333300  0.49162700  1
  Ba  Ba1  1  0.33333300  0.66666700  0.99162700  1
  Fe  Fe2  1  0.82959500  0.17040500  0.19050500  1
  Fe  Fe3  1  0.65919100  0.82959500  0.69050500  1
  Fe  Fe4  1  0.17040500  0.34080900  0.69050500  1
  Fe  Fe5  1  0.82959500  0.65919100  0.19050500  1
  Fe  Fe6  1  0.34080900  0.17040500  0.19050500  1
  Fe  Fe7  1  0.17040500  0.82959500  0.69050500  1
  Fe  Fe8  1  0.00000000  0.00000000  0.44930900  1
  Fe  Fe9  1  0.00000000  0.00000000  0.94930900  1
  O  O10  1  0.84615000  0.15385000  0.01460100  1
  O  O11  1  0.69230000  0.84615000  0.51460100  1
  O  O12  1  0.15385000  0.30770000  0.51460100  1
  O  O13  1  0.84615000  0.69230000  0.01460100  1
  O  O14  1  0.30770000  0.15385000  0.01460100  1
  O  O15  1  0.15385000  0.84615000  0.51460100  1
  O  O16  1  0.00000000  0.00000000  0.75914800  1
  O  O17  1  0.00000000  0.00000000  0.25914800  1
  O  O18  1  0.51354400  0.48645600  0.24621600  1
  O  O19  1  0.02708900  0.51354400  0.74621600  1
  O  O20  1  0.48645600  0.97291100  0.74621600  1
  O  O21  1  0.51354400  0.02708900  0.24621600  1
  O  O22  1  0.48645600  0.51354400  0.74621600  1
  O  O23  1  0.97291100  0.48645600  0.24621600  1
