# generated using pymatgen
data_YbV4O8
_symmetry_space_group_name_H-M   'P 1'
_cell_length_a   5.68523821
_cell_length_b   9.05171382
_cell_length_c   9.66350900
_cell_angle_alpha   90.00000000
_cell_angle_beta   90.00000000
_cell_angle_gamma   101.28731738
_symmetry_Int_Tables_number   1
_chemical_formula_structural   YbV4O8
_chemical_formula_sum   'Yb2 V8 O16'
_cell_volume   487.67659750
_cell_formula_units_Z   2
loop_
 _symmetry_equiv_pos_site_id
 _symmetry_equiv_pos_as_xyz
  1  'x, y, z'
loop_
 _atom_site_type_symbol
 _atom_site_label
 _atom_site_symmetry_multiplicity
 _atom_site_fract_x
 _atom_site_fract_y
 _atom_site_fract_z
 _atom_site_occupancy
  Yb  Yb0  1  0.44404700  0.15697000  0.86545000  1
  Yb  Yb1  1  0.94404700  0.65697000  0.63455000  1
  V  V2  1  0.18875600  0.40346400  0.73327500  1
  V  V3  1  0.27364400  0.46037900  0.07696900  1
  V  V4  1  0.26983500  0.04776600  0.56392600  1
  V  V5  1  0.23445700  0.10817800  0.20757000  1
  V  V6  1  0.68875600  0.90346400  0.76672500  1
  V  V7  1  0.77364400  0.96037900  0.42303100  1
  V  V8  1  0.76983500  0.54776600  0.93607400  1
  V  V9  1  0.73445700  0.60817800  0.29243000  1
  O  O10  1  0.08046800  0.58376600  0.04497900  1
  O  O11  1  0.28103200  0.56306200  0.64136700  1
  O  O12  1  0.38222900  0.40715800  0.89800700  1
  O  O13  1  0.23525700  0.21814400  0.67232600  1
  O  O14  1  0.18298000  0.30658700  0.19049700  1
  O  O15  1  0.10842000  0.02250300  0.38166300  1
  O  O16  1  0.30687600  0.03505600  0.05353400  1
  O  O17  1  0.38574800  0.93776700  0.70987400  1
  O  O18  1  0.58046800  0.08376600  0.45502100  1
  O  O19  1  0.78103200  0.06306200  0.85863300  1
  O  O20  1  0.88222900  0.90715800  0.60199300  1
  O  O21  1  0.73525700  0.71814400  0.82767400  1
  O  O22  1  0.68298000  0.80658700  0.30950300  1
  O  O23  1  0.60842000  0.52250300  0.11833700  1
  O  O24  1  0.80687600  0.53505600  0.44646600  1
  O  O25  1  0.88574800  0.43776700  0.79012600  1
