# generated using pymatgen
data_CaLa2SnO6
_symmetry_space_group_name_H-M   'P 1'
_cell_length_a   5.89743223
_cell_length_b   5.89743223
_cell_length_c   5.89743157
_cell_angle_alpha   61.15391288
_cell_angle_beta   61.15391288
_cell_angle_gamma   61.15390285
_symmetry_Int_Tables_number   1
_chemical_formula_structural   CaLa2SnO6
_chemical_formula_sum   'Ca1 La2 Sn1 O6'
_cell_volume   148.80110162
_cell_formula_units_Z   1
loop_
 _symmetry_equiv_pos_site_id
 _symmetry_equiv_pos_as_xyz
  1  'x, y, z'
loop_
 _atom_site_type_symbol
 _atom_site_label
 _atom_site_symmetry_multiplicity
 _atom_site_fract_x
 _atom_site_fract_y
 _atom_site_fract_z
 _atom_site_occupancy
  Ca  Ca0  1  0.50000000  0.50000000  0.50000000  1
  La  La1  1  0.76367800  0.76367800  0.76367800  1
  La  La2  1  0.23632200  0.23632200  0.23632200  1
  Sn  Sn3  1  0.00000000  0.00000000  0.00000000  1
  O  O4  1  0.78296000  0.34538300  0.12810000  1
  O  O5  1  0.12810000  0.78296000  0.34538300  1
  O  O6  1  0.34538300  0.12810000  0.78296000  1
  O  O7  1  0.21704000  0.65461700  0.87190000  1
  O  O8  1  0.65461700  0.87190000  0.21704000  1
  O  O9  1  0.87190000  0.21704000  0.65461700  1
