# generated using pymatgen
data_Ba2V3O7
_symmetry_space_group_name_H-M   'P 1'
_cell_length_a   3.89435800
_cell_length_b   3.90073100
_cell_length_c   12.50106050
_cell_angle_alpha   88.57272643
_cell_angle_beta   90.00000000
_cell_angle_gamma   90.00000000
_symmetry_Int_Tables_number   1
_chemical_formula_structural   Ba2V3O7
_chemical_formula_sum   'Ba2 V3 O7'
_cell_volume   189.84272940
_cell_formula_units_Z   1
loop_
 _symmetry_equiv_pos_site_id
 _symmetry_equiv_pos_as_xyz
  1  'x, y, z'
loop_
 _atom_site_type_symbol
 _atom_site_label
 _atom_site_symmetry_multiplicity
 _atom_site_fract_x
 _atom_site_fract_y
 _atom_site_fract_z
 _atom_site_occupancy
  Ba  Ba0  1  0.50000000  0.49228300  0.80916000  1
  Ba  Ba1  1  0.50000000  0.51355800  0.20087200  1
  V  V2  1  0.00000000  0.00379200  0.66246100  1
  V  V3  1  0.00000000  0.00047000  0.37318400  1
  V  V4  1  0.00000000  0.98553900  0.98711900  1
  O  O5  1  0.50000000  0.96018300  0.97822100  1
  O  O6  1  0.00000000  0.50290800  0.65801300  1
  O  O7  1  0.00000000  0.50197600  0.35102300  1
  O  O8  1  0.50000000  0.00226800  0.65567400  1
  O  O9  1  0.50000000  0.00061200  0.35656400  1
  O  O10  1  0.00000000  0.99155700  0.82656700  1
  O  O11  1  0.00000000  0.02580900  0.13048000  1
