# generated using pymatgen
data_La2MgSbO6
_symmetry_space_group_name_H-M   'P 1'
_cell_length_a   5.76830866
_cell_length_b   5.76830866
_cell_length_c   5.76830867
_cell_angle_alpha   60.83870107
_cell_angle_beta   60.83870107
_cell_angle_gamma   60.83869950
_symmetry_Int_Tables_number   1
_chemical_formula_structural   La2MgSbO6
_chemical_formula_sum   'La2 Mg1 Sb1 O6'
_cell_volume   138.28249752
_cell_formula_units_Z   1
loop_
 _symmetry_equiv_pos_site_id
 _symmetry_equiv_pos_as_xyz
  1  'x, y, z'
loop_
 _atom_site_type_symbol
 _atom_site_label
 _atom_site_symmetry_multiplicity
 _atom_site_fract_x
 _atom_site_fract_y
 _atom_site_fract_z
 _atom_site_occupancy
  La  La0  1  0.75062800  0.75062800  0.75062800  1
  La  La1  1  0.24937200  0.24937200  0.24937200  1
  Mg  Mg2  1  0.50000000  0.50000000  0.50000000  1
  Sb  Sb3  1  0.00000000  0.00000000  0.00000000  1
  O  O4  1  0.74922600  0.34564700  0.15849700  1
  O  O5  1  0.15849700  0.74922600  0.34564700  1
  O  O6  1  0.34564700  0.15849700  0.74922600  1
  O  O7  1  0.25077400  0.65435300  0.84150300  1
  O  O8  1  0.65435300  0.84150300  0.25077400  1
  O  O9  1  0.84150300  0.25077400  0.65435300  1
