# generated using pymatgen
data_CaCrO2
_symmetry_space_group_name_H-M   'P 1'
_cell_length_a   3.10891700
_cell_length_b   8.96532448
_cell_length_c   9.33476586
_cell_angle_alpha   85.60064009
_cell_angle_beta   80.52424959
_cell_angle_gamma   80.38103387
_symmetry_Int_Tables_number   1
_chemical_formula_structural   CaCrO2
_chemical_formula_sum   'Ca4 Cr4 O8'
_cell_volume   252.70063002
_cell_formula_units_Z   4
loop_
 _symmetry_equiv_pos_site_id
 _symmetry_equiv_pos_as_xyz
  1  'x, y, z'
loop_
 _atom_site_type_symbol
 _atom_site_label
 _atom_site_symmetry_multiplicity
 _atom_site_fract_x
 _atom_site_fract_y
 _atom_site_fract_z
 _atom_site_occupancy
  Ca  Ca0  1  0.84030700  0.23912600  0.56929300  1
  Ca  Ca1  1  0.15969300  0.76087400  0.43070700  1
  Ca  Ca2  1  0.58907700  0.12712400  0.19134100  1
  Ca  Ca3  1  0.41092300  0.87287600  0.80865900  1
  Cr  Cr4  1  0.12519900  0.55458800  0.69970800  1
  Cr  Cr5  1  0.71183400  0.19435800  0.87676300  1
  Cr  Cr6  1  0.28816600  0.80564200  0.12323700  1
  Cr  Cr7  1  0.87480100  0.44541200  0.30029200  1
  O  O8  1  0.32470700  0.58542700  0.26527900  1
  O  O9  1  0.86075900  0.80918300  0.97245200  1
  O  O10  1  0.13924100  0.19081700  0.02754800  1
  O  O11  1  0.67529300  0.41457300  0.73472100  1
  O  O12  1  0.58879600  0.71038700  0.62289700  1
  O  O13  1  0.31989300  0.12050400  0.72706700  1
  O  O14  1  0.41120400  0.28961300  0.37710300  1
  O  O15  1  0.68010700  0.87949600  0.27293300  1
