# generated using pymatgen
data_YV3O9
_symmetry_space_group_name_H-M   'P 1'
_cell_length_a   5.13746500
_cell_length_b   8.16321900
_cell_length_c   15.65654782
_cell_angle_alpha   89.80918752
_cell_angle_beta   90.00000000
_cell_angle_gamma   90.00000000
_symmetry_Int_Tables_number   1
_chemical_formula_structural   YV3O9
_chemical_formula_sum   'Y4 V12 O36'
_cell_volume   656.60460528
_cell_formula_units_Z   4
loop_
 _symmetry_equiv_pos_site_id
 _symmetry_equiv_pos_as_xyz
  1  'x, y, z'
loop_
 _atom_site_type_symbol
 _atom_site_label
 _atom_site_symmetry_multiplicity
 _atom_site_fract_x
 _atom_site_fract_y
 _atom_site_fract_z
 _atom_site_occupancy
  Y  Y0  1  0.75731600  0.75798100  0.16135700  1
  Y  Y1  1  0.25703300  0.24071000  0.33649900  1
  Y  Y2  1  0.74296700  0.24071000  0.83649900  1
  Y  Y3  1  0.24268400  0.75798100  0.66135700  1
  V  V4  1  0.24381900  0.48517900  0.83780100  1
  V  V5  1  0.23547700  0.46031000  0.50163200  1
  V  V6  1  0.25572900  0.51775100  0.16312700  1
  V  V7  1  0.76452300  0.46031000  0.00163200  1
  V  V8  1  0.74427100  0.51775100  0.66312700  1
  V  V9  1  0.75618100  0.48517900  0.33780100  1
  V  V10  1  0.27975400  0.95291100  0.83666700  1
  V  V11  1  0.25034100  0.96355100  0.49422800  1
  V  V12  1  0.23433000  0.05150300  0.15924400  1
  V  V13  1  0.74965900  0.96355100  0.99422800  1
  V  V14  1  0.76567000  0.05150300  0.65924400  1
  V  V15  1  0.72024600  0.95291100  0.33666700  1
  O  O16  1  0.52947000  0.46193700  0.91561100  1
  O  O17  1  0.51116100  0.46799600  0.58543700  1
  O  O18  1  0.41998400  0.45111700  0.25777700  1
  O  O19  1  0.01277900  0.53304700  0.91484400  1
  O  O20  1  0.03103200  0.55010300  0.58434700  1
  O  O21  1  0.91971700  0.55297200  0.24249500  1
  O  O22  1  0.08028300  0.55297200  0.74249500  1
  O  O23  1  0.98722100  0.53304700  0.41484400  1
  O  O24  1  0.96896800  0.55010300  0.08434700  1
  O  O25  1  0.58001600  0.45111700  0.75777700  1
  O  O26  1  0.47053000  0.46193700  0.41561100  1
  O  O27  1  0.48883900  0.46799600  0.08543700  1
  O  O28  1  0.07594400  0.96543600  0.74497500  1
  O  O29  1  0.99265500  0.96718500  0.41315800  1
  O  O30  1  0.97712600  0.95818500  0.08572000  1
  O  O31  1  0.57627100  0.03431900  0.75867600  1
  O  O32  1  0.48573200  0.05413100  0.41760500  1
  O  O33  1  0.48681700  0.03493300  0.08760000  1
  O  O34  1  0.51426800  0.05413100  0.91760500  1
  O  O35  1  0.51318300  0.03493300  0.58760000  1
  O  O36  1  0.42372900  0.03431900  0.25867600  1
  O  O37  1  0.00734500  0.96718500  0.91315800  1
  O  O38  1  0.02287400  0.95818500  0.58572000  1
  O  O39  1  0.92405600  0.96543600  0.24497500  1
  O  O40  1  0.36342200  0.75584200  0.83177300  1
  O  O41  1  0.34357200  0.76862900  0.50498600  1
  O  O42  1  0.31394300  0.72734400  0.16975400  1
  O  O43  1  0.84738300  0.26183600  0.99332300  1
  O  O44  1  0.85560500  0.25041900  0.66934000  1
  O  O45  1  0.81479800  0.27612100  0.33154200  1
  O  O46  1  0.18520200  0.27612100  0.83154200  1
  O  O47  1  0.15261700  0.26183600  0.49332300  1
  O  O48  1  0.14439500  0.25041900  0.16934000  1
  O  O49  1  0.68605700  0.72734400  0.66975400  1
  O  O50  1  0.63657800  0.75584200  0.33177300  1
  O  O51  1  0.65642800  0.76862900  0.00498600  1
