# generated using pymatgen
data_Ca3Mn2(FeO5)2
_symmetry_space_group_name_H-M   'P 1'
_cell_length_a   5.41662700
_cell_length_b   5.62016600
_cell_length_c   15.34794323
_cell_angle_alpha   69.87775092
_cell_angle_beta   90.00000000
_cell_angle_gamma   90.00000000
_symmetry_Int_Tables_number   1
_chemical_formula_structural   Ca3Mn2(FeO5)2
_chemical_formula_sum   'Ca6 Mn4 Fe4 O20'
_cell_volume   438.70813484
_cell_formula_units_Z   2
loop_
 _symmetry_equiv_pos_site_id
 _symmetry_equiv_pos_as_xyz
  1  'x, y, z'
loop_
 _atom_site_type_symbol
 _atom_site_label
 _atom_site_symmetry_multiplicity
 _atom_site_fract_x
 _atom_site_fract_y
 _atom_site_fract_z
 _atom_site_occupancy
  Ca  Ca0  1  0.26566200  0.57320900  0.88891700  1
  Ca  Ca1  1  0.76410000  0.42507700  0.60947200  1
  Ca  Ca2  1  0.23972600  0.12277200  0.40407300  1
  Ca  Ca3  1  0.23590000  0.42507700  0.10947200  1
  Ca  Ca4  1  0.73433800  0.57320900  0.38891700  1
  Ca  Ca5  1  0.76027400  0.12277200  0.90407300  1
  Mn  Mn6  1  0.25542500  0.99237600  0.00581200  1
  Mn  Mn7  1  0.74457500  0.99237600  0.50581200  1
  Mn  Mn8  1  0.75303800  0.50072900  0.00608200  1
  Mn  Mn9  1  0.24696200  0.50072900  0.50608200  1
  Fe  Fe10  1  0.30469000  0.16680900  0.74722600  1
  Fe  Fe11  1  0.80845800  0.82368400  0.74856800  1
  Fe  Fe12  1  0.69531000  0.16680900  0.24722600  1
  Fe  Fe13  1  0.19154200  0.82368400  0.24856800  1
  O  O14  1  0.01130500  0.25990800  0.00771900  1
  O  O15  1  0.50282000  0.76899400  0.48017300  1
  O  O16  1  0.01250000  0.76042700  0.97983000  1
  O  O17  1  0.51083100  0.25804800  0.51152200  1
  O  O18  1  0.49718000  0.76899400  0.98017300  1
  O  O19  1  0.98869500  0.25990800  0.50771900  1
  O  O20  1  0.48916900  0.25804800  0.01152200  1
  O  O21  1  0.98750000  0.76042700  0.47983000  1
  O  O22  1  0.23462300  0.18987800  0.86471800  1
  O  O23  1  0.73312200  0.80179300  0.63373900  1
  O  O24  1  0.77626300  0.42309500  0.13574800  1
  O  O25  1  0.27153300  0.57092500  0.36249700  1
  O  O26  1  0.26687800  0.80179300  0.13373900  1
  O  O27  1  0.76537700  0.18987800  0.36471800  1
  O  O28  1  0.72846700  0.57092500  0.86249700  1
  O  O29  1  0.22373700  0.42309500  0.63574800  1
  O  O30  1  0.15337600  0.86293800  0.75337400  1
  O  O31  1  0.66289500  0.13463000  0.75198100  1
  O  O32  1  0.84662400  0.86293800  0.25337400  1
  O  O33  1  0.33710500  0.13463000  0.25198100  1
