# generated using pymatgen
data_Ba2W3O7
_symmetry_space_group_name_H-M   'P 1'
_cell_length_a   4.03719600
_cell_length_b   4.03830000
_cell_length_c   12.13381600
_cell_angle_alpha   90.00000000
_cell_angle_beta   90.00000000
_cell_angle_gamma   90.00000000
_symmetry_Int_Tables_number   1
_chemical_formula_structural   Ba2W3O7
_chemical_formula_sum   'Ba2 W3 O7'
_cell_volume   197.82256021
_cell_formula_units_Z   1
loop_
 _symmetry_equiv_pos_site_id
 _symmetry_equiv_pos_as_xyz
  1  'x, y, z'
loop_
 _atom_site_type_symbol
 _atom_site_label
 _atom_site_symmetry_multiplicity
 _atom_site_fract_x
 _atom_site_fract_y
 _atom_site_fract_z
 _atom_site_occupancy
  Ba  Ba0  1  0.00000000  0.50000000  0.80060700  1
  Ba  Ba1  1  0.00000000  0.50000000  0.19939300  1
  W  W2  1  0.50000000  0.00000000  0.61828100  1
  W  W3  1  0.50000000  0.00000000  0.38171900  1
  W  W4  1  0.50000000  0.00000000  0.00000000  1
  O  O5  1  0.00000000  0.00000000  0.00000000  1
  O  O6  1  0.50000000  0.50000000  0.64529600  1
  O  O7  1  0.50000000  0.50000000  0.35470400  1
  O  O8  1  0.00000000  0.00000000  0.63479500  1
  O  O9  1  0.00000000  0.00000000  0.36520500  1
  O  O10  1  0.50000000  0.00000000  0.84163900  1
  O  O11  1  0.50000000  0.00000000  0.15836100  1
