# generated using pymatgen
data_Ta2O5
_symmetry_space_group_name_H-M   'P 1'
_cell_length_a   3.68188300
_cell_length_b   5.99826500
_cell_length_c   10.40700300
_cell_angle_alpha   90.00000000
_cell_angle_beta   90.00000000
_cell_angle_gamma   90.00000000
_symmetry_Int_Tables_number   1
_chemical_formula_structural   Ta2O5
_chemical_formula_sum   'Ta4 O10'
_cell_volume   229.83772393
_cell_formula_units_Z   2
loop_
 _symmetry_equiv_pos_site_id
 _symmetry_equiv_pos_as_xyz
  1  'x, y, z'
loop_
 _atom_site_type_symbol
 _atom_site_label
 _atom_site_symmetry_multiplicity
 _atom_site_fract_x
 _atom_site_fract_y
 _atom_site_fract_z
 _atom_site_occupancy
  Ta  Ta0  1  0.50000000  0.21269000  0.86166100  1
  Ta  Ta1  1  0.50000000  0.78731000  0.13833900  1
  Ta  Ta2  1  0.50000000  0.71269000  0.63833900  1
  Ta  Ta3  1  0.50000000  0.28731000  0.36166100  1
  O  O4  1  0.00000000  0.28651900  0.90157700  1
  O  O5  1  0.00000000  0.71348100  0.09842300  1
  O  O6  1  0.00000000  0.78651900  0.59842300  1
  O  O7  1  0.00000000  0.21348100  0.40157700  1
  O  O8  1  0.50000000  0.52714300  0.77834000  1
  O  O9  1  0.50000000  0.47285700  0.22166000  1
  O  O10  1  0.50000000  0.02714300  0.72166000  1
  O  O11  1  0.50000000  0.97285700  0.27834000  1
  O  O12  1  0.50000000  0.00000000  0.00000000  1
  O  O13  1  0.50000000  0.50000000  0.50000000  1
