# generated using pymatgen
data_Ba2Ca3Tl2V4O12
_symmetry_space_group_name_H-M   'P 1'
_cell_length_a   22.85322930
_cell_length_b   22.85322930
_cell_length_c   22.85322930
_cell_angle_alpha   170.11326244
_cell_angle_beta   170.11326244
_cell_angle_gamma   13.99941567
_symmetry_Int_Tables_number   1
_chemical_formula_structural   Ba2Ca3Tl2V4O12
_chemical_formula_sum   'Ba2 Ca3 Tl2 V4 O12'
_cell_volume   351.86541203
_cell_formula_units_Z   1
loop_
 _symmetry_equiv_pos_site_id
 _symmetry_equiv_pos_as_xyz
  1  'x, y, z'
loop_
 _atom_site_type_symbol
 _atom_site_label
 _atom_site_symmetry_multiplicity
 _atom_site_fract_x
 _atom_site_fract_y
 _atom_site_fract_z
 _atom_site_occupancy
  Ba  Ba0  1  0.16431000  0.16431000  0.00000000  1
  Ba  Ba1  1  0.83569000  0.83569000  0.00000000  1
  Ca  Ca2  1  0.07704800  0.07704800  0.00000000  1
  Ca  Ca3  1  0.92295200  0.92295200  0.00000000  1
  Ca  Ca4  1  0.00000000  0.00000000  0.00000000  1
  Tl  Tl5  1  0.72549300  0.72549300  0.00000000  1
  Tl  Tl6  1  0.27450700  0.27450700  0.00000000  1
  V  V7  1  0.53722900  0.53722900  0.00000000  1
  V  V8  1  0.38629100  0.38629100  0.00000000  1
  V  V9  1  0.61370900  0.61370900  0.00000000  1
  V  V10  1  0.46277100  0.46277100  0.00000000  1
  O  O11  1  0.89412000  0.39412000  0.50000000  1
  O  O12  1  0.03506800  0.53506800  0.50000000  1
  O  O13  1  0.22141500  0.22141500  0.00000000  1
  O  O14  1  0.46493200  0.96493200  0.50000000  1
  O  O15  1  0.77858500  0.77858500  0.00000000  1
  O  O16  1  0.60588000  0.10588000  0.50000000  1
  O  O17  1  0.10588000  0.60588000  0.50000000  1
  O  O18  1  0.34400800  0.34400800  0.00000000  1
  O  O19  1  0.39412000  0.89412000  0.50000000  1
  O  O20  1  0.53506800  0.03506800  0.50000000  1
  O  O21  1  0.96493200  0.46493200  0.50000000  1
  O  O22  1  0.65599200  0.65599200  0.00000000  1
