# generated using pymatgen
data_Ca3Ni2(WO6)2
_symmetry_space_group_name_H-M   'P 1'
_cell_length_a   9.80541600
_cell_length_b   5.19222600
_cell_length_c   5.62764271
_cell_angle_alpha   89.83367059
_cell_angle_beta   90.00000000
_cell_angle_gamma   90.00000000
_symmetry_Int_Tables_number   1
_chemical_formula_structural   Ca3Ni2(WO6)2
_chemical_formula_sum   'Ca3 Ni2 W2 O12'
_cell_volume   286.51297778
_cell_formula_units_Z   1
loop_
 _symmetry_equiv_pos_site_id
 _symmetry_equiv_pos_as_xyz
  1  'x, y, z'
loop_
 _atom_site_type_symbol
 _atom_site_label
 _atom_site_symmetry_multiplicity
 _atom_site_fract_x
 _atom_site_fract_y
 _atom_site_fract_z
 _atom_site_occupancy
  Ca  Ca0  1  0.68295400  0.00000000  0.00000000  1
  Ca  Ca1  1  0.16797700  0.50000000  0.50000000  1
  Ca  Ca2  1  0.31614000  0.00000000  0.00000000  1
  Ni  Ni3  1  0.00697100  0.00000000  0.00000000  1
  Ni  Ni4  1  0.49840000  0.50000000  0.50000000  1
  W  W5  1  0.98718800  0.50000000  0.00000000  1
  W  W6  1  0.50660100  0.00000000  0.50000000  1
  O  O7  1  0.49951800  0.19938300  0.21168200  1
  O  O8  1  0.86889700  0.23608400  0.12107300  1
  O  O9  1  0.86889700  0.76391600  0.87892700  1
  O  O10  1  0.36460200  0.74777000  0.37888800  1
  O  O11  1  0.01423800  0.29231400  0.72866100  1
  O  O12  1  0.13481700  0.25001900  0.13114700  1
  O  O13  1  0.49951800  0.80061700  0.78831800  1
  O  O14  1  0.36460200  0.25223000  0.62111200  1
  O  O15  1  0.01423800  0.70768600  0.27133900  1
  O  O16  1  0.62798000  0.75403900  0.36813100  1
  O  O17  1  0.13481700  0.74998100  0.86885300  1
  O  O18  1  0.62798000  0.24596100  0.63186900  1
