# generated using pymatgen
data_MoO3
_symmetry_space_group_name_H-M   'P 1'
_cell_length_a   5.40001800
_cell_length_b   5.44034024
_cell_length_c   7.79665768
_cell_angle_alpha   89.52433034
_cell_angle_beta   89.10702316
_cell_angle_gamma   87.86537190
_symmetry_Int_Tables_number   1
_chemical_formula_structural   MoO3
_chemical_formula_sum   'Mo4 O12'
_cell_volume   228.85612626
_cell_formula_units_Z   4
loop_
 _symmetry_equiv_pos_site_id
 _symmetry_equiv_pos_as_xyz
  1  'x, y, z'
loop_
 _atom_site_type_symbol
 _atom_site_label
 _atom_site_symmetry_multiplicity
 _atom_site_fract_x
 _atom_site_fract_y
 _atom_site_fract_z
 _atom_site_occupancy
  Mo  Mo0  1  0.47727200  0.98955800  0.97529000  1
  Mo  Mo1  1  0.96782000  0.48131000  0.98504300  1
  Mo  Mo2  1  0.97867500  0.48677900  0.47495100  1
  Mo  Mo3  1  0.46175600  0.99663300  0.48530800  1
  O  O4  1  0.28804200  0.28684300  0.53918900  1
  O  O5  1  0.78872500  0.22691000  0.47339900  1
  O  O6  1  0.23256500  0.78156400  0.97453800  1
  O  O7  1  0.73531300  0.73018800  0.03787200  1
  O  O8  1  0.73615100  0.73144400  0.48224900  1
  O  O9  1  0.22850900  0.78270900  0.53242100  1
  O  O10  1  0.78637500  0.22246900  0.03367600  1
  O  O11  1  0.29011000  0.28201400  0.98143800  1
  O  O12  1  0.94877700  0.49332900  0.75832800  1
  O  O13  1  0.44772100  0.00903000  0.25838800  1
  O  O14  1  0.06655200  0.50684000  0.25392900  1
  O  O15  1  0.56564100  0.99237700  0.75397700  1
