# generated using pymatgen
data_Y4(Cu2O5)3
_symmetry_space_group_name_H-M   'P 1'
_cell_length_a   12.70424400
_cell_length_b   10.54882100
_cell_length_c   10.74428679
_cell_angle_alpha   89.86737094
_cell_angle_beta   90.00000000
_cell_angle_gamma   90.00000000
_symmetry_Int_Tables_number   1
_chemical_formula_structural   Y4(Cu2O5)3
_chemical_formula_sum   'Y16 Cu24 O60'
_cell_volume   1439.88954293
_cell_formula_units_Z   4
loop_
 _symmetry_equiv_pos_site_id
 _symmetry_equiv_pos_as_xyz
  1  'x, y, z'
loop_
 _atom_site_type_symbol
 _atom_site_label
 _atom_site_symmetry_multiplicity
 _atom_site_fract_x
 _atom_site_fract_y
 _atom_site_fract_z
 _atom_site_occupancy
  Y  Y0  1  0.17163400  0.45465600  0.10356800  1
  Y  Y1  1  0.16244800  0.45315100  0.76772400  1
  Y  Y2  1  0.66244800  0.54684900  0.23227600  1
  Y  Y3  1  0.67163400  0.54534400  0.89643200  1
  Y  Y4  1  0.17015400  0.95504500  0.06776900  1
  Y  Y5  1  0.16544800  0.95407500  0.72997400  1
  Y  Y6  1  0.66544800  0.04592500  0.27002600  1
  Y  Y7  1  0.67015400  0.04495500  0.93223100  1
  Y  Y8  1  0.50279300  0.30076300  0.43420300  1
  Y  Y9  1  0.50327800  0.29124900  0.77199000  1
  Y  Y10  1  0.00327800  0.70875100  0.22801000  1
  Y  Y11  1  0.00279300  0.69923700  0.56579700  1
  Y  Y12  1  0.49712700  0.79127600  0.39429600  1
  Y  Y13  1  0.51039500  0.80160400  0.73107000  1
  Y  Y14  1  0.01039500  0.19839600  0.26893000  1
  Y  Y15  1  0.99712700  0.20872400  0.60570400  1
  Cu  Cu16  1  0.28919300  0.23781100  0.27830300  1
  Cu  Cu17  1  0.28646600  0.23305600  0.62546600  1
  Cu  Cu18  1  0.29048700  0.24388300  0.94972900  1
  Cu  Cu19  1  0.79048700  0.75611700  0.05027100  1
  Cu  Cu20  1  0.78646600  0.76694400  0.37453400  1
  Cu  Cu21  1  0.78919300  0.76218900  0.72169700  1
  Cu  Cu22  1  0.29077500  0.73661300  0.20721900  1
  Cu  Cu23  1  0.28663200  0.73639700  0.56236300  1
  Cu  Cu24  1  0.28906300  0.74061500  0.87758100  1
  Cu  Cu25  1  0.78906300  0.25938500  0.12241900  1
  Cu  Cu26  1  0.78663200  0.26360300  0.43763700  1
  Cu  Cu27  1  0.79077500  0.26338700  0.79278100  1
  Cu  Cu28  1  0.38486300  0.01399800  0.22352000  1
  Cu  Cu29  1  0.38065000  0.00648200  0.55030900  1
  Cu  Cu30  1  0.38567700  0.01653100  0.87684500  1
  Cu  Cu31  1  0.88567700  0.98346900  0.12315500  1
  Cu  Cu32  1  0.88065000  0.99351800  0.44969100  1
  Cu  Cu33  1  0.88486300  0.98600200  0.77648000  1
  Cu  Cu34  1  0.38203000  0.51301200  0.28828000  1
  Cu  Cu35  1  0.38426300  0.51022600  0.62270200  1
  Cu  Cu36  1  0.38585500  0.51471300  0.93637400  1
  Cu  Cu37  1  0.88585500  0.48528700  0.06362600  1
  Cu  Cu38  1  0.88426300  0.48977400  0.37729800  1
  Cu  Cu39  1  0.88203000  0.48698800  0.71172000  1
  O  O40  1  0.02203600  0.03844300  0.13558200  1
  O  O41  1  0.00791900  0.07690400  0.43914500  1
  O  O42  1  0.01500400  0.05109000  0.73763000  1
  O  O43  1  0.51500400  0.94891000  0.26237000  1
  O  O44  1  0.50791900  0.92309600  0.56085500  1
  O  O45  1  0.52203600  0.96155700  0.86441800  1
  O  O46  1  0.01807900  0.54876500  0.09583100  1
  O  O47  1  0.00801200  0.57876100  0.39707900  1
  O  O48  1  0.01875800  0.53925300  0.69753400  1
  O  O49  1  0.51875800  0.46074700  0.30246600  1
  O  O50  1  0.50801200  0.42123900  0.60292100  1
  O  O51  1  0.51807900  0.45123500  0.90416900  1
  O  O52  1  0.25831300  0.09229900  0.19277300  1
  O  O53  1  0.24714400  0.07588800  0.57383600  1
  O  O54  1  0.24849000  0.07944300  0.89530500  1
  O  O55  1  0.74849000  0.92055700  0.10469500  1
  O  O56  1  0.74714400  0.92411200  0.42616400  1
  O  O57  1  0.75831300  0.90770100  0.80722700  1
  O  O58  1  0.24948600  0.57631400  0.25586400  1
  O  O59  1  0.25514500  0.58797200  0.64050600  1
  O  O60  1  0.24828600  0.57992700  0.93772400  1
  O  O61  1  0.74828600  0.42007300  0.06227600  1
  O  O62  1  0.75514500  0.41202800  0.35949400  1
  O  O63  1  0.74948600  0.42368600  0.74413600  1
  O  O64  1  0.34224000  0.38168800  0.03334900  1
  O  O65  1  0.33519000  0.37123700  0.37134500  1
  O  O66  1  0.33215800  0.37481600  0.71307200  1
  O  O67  1  0.83215800  0.62518400  0.28692800  1
  O  O68  1  0.83519000  0.62876300  0.62865500  1
  O  O69  1  0.84224000  0.61831200  0.96665100  1
  O  O70  1  0.33730800  0.88153800  0.12897900  1
  O  O71  1  0.32831100  0.86986900  0.46551500  1
  O  O72  1  0.33934700  0.87676700  0.78717800  1
  O  O73  1  0.83934700  0.12323300  0.21282200  1
  O  O74  1  0.82831100  0.13013100  0.53448500  1
  O  O75  1  0.83730800  0.11846200  0.87102100  1
  O  O76  1  0.41609500  0.15925300  0.31035200  1
  O  O77  1  0.42328600  0.17007800  0.60619300  1
  O  O78  1  0.42401900  0.17325700  0.93093800  1
  O  O79  1  0.92401900  0.82674300  0.06906200  1
  O  O80  1  0.92328600  0.82992200  0.39380700  1
  O  O81  1  0.91609500  0.84074700  0.68964800  1
  O  O82  1  0.42298300  0.67237700  0.23799800  1
  O  O83  1  0.42466600  0.67079100  0.56152300  1
  O  O84  1  0.41844900  0.66289700  0.85738400  1
  O  O85  1  0.91844900  0.33710300  0.14261600  1
  O  O86  1  0.92466600  0.32920900  0.43847700  1
  O  O87  1  0.92298300  0.32762300  0.76200200  1
  O  O88  1  0.66510800  0.17125200  0.09953400  1
  O  O89  1  0.65366400  0.20198200  0.40561400  1
  O  O90  1  0.65496300  0.20977500  0.80542100  1
  O  O91  1  0.15496300  0.79022500  0.19457900  1
  O  O92  1  0.15366400  0.79801800  0.59438600  1
  O  O93  1  0.16510800  0.82874800  0.90046600  1
  O  O94  1  0.66354100  0.67312100  0.06387500  1
  O  O95  1  0.65154000  0.71021400  0.36261000  1
  O  O96  1  0.65763500  0.69942900  0.76036300  1
  O  O97  1  0.15763500  0.30057100  0.23963700  1
  O  O98  1  0.15154000  0.28978600  0.63739000  1
  O  O99  1  0.16354100  0.32687900  0.93612500  1
