# generated using pymatgen
data_YCu3(WO4)6
_symmetry_space_group_name_H-M   'P 1'
_cell_length_a   14.76014320
_cell_length_b   6.30486402
_cell_length_c   6.13584237
_cell_angle_alpha   110.99178661
_cell_angle_beta   116.70577374
_cell_angle_gamma   92.85566948
_symmetry_Int_Tables_number   1
_chemical_formula_structural   YCu3(WO4)6
_chemical_formula_sum   'Y1 Cu3 W6 O24'
_cell_volume   460.77593634
_cell_formula_units_Z   1
loop_
 _symmetry_equiv_pos_site_id
 _symmetry_equiv_pos_as_xyz
  1  'x, y, z'
loop_
 _atom_site_type_symbol
 _atom_site_label
 _atom_site_symmetry_multiplicity
 _atom_site_fract_x
 _atom_site_fract_y
 _atom_site_fract_z
 _atom_site_occupancy
  Y  Y0  1  0.87478600  0.72311000  0.09872000  1
  Cu  Cu1  1  0.04324000  0.22423600  0.10385800  1
  Cu  Cu2  1  0.37485600  0.22300700  0.09975400  1
  Cu  Cu3  1  0.70682400  0.22293000  0.09581300  1
  W  W4  1  0.29178400  0.40510800  0.60446000  1
  W  W5  1  0.61260800  0.38072300  0.57707700  1
  W  W6  1  0.96158500  0.40562700  0.60436200  1
  W  W7  1  0.13728500  0.06600900  0.62180500  1
  W  W8  1  0.45835500  0.04149700  0.59564500  1
  W  W9  1  0.78785300  0.03962000  0.59456700  1
  O  O10  1  0.04206300  0.68856400  0.80737800  1
  O  O11  1  0.37319600  0.68978200  0.79808500  1
  O  O12  1  0.71219000  0.66240300  0.79000800  1
  O  O13  1  0.17583500  0.44212600  0.32313900  1
  O  O14  1  0.50691500  0.43475500  0.30740000  1
  O  O15  1  0.84944200  0.44523400  0.31154400  1
  O  O16  1  0.05156900  0.21744100  0.80261600  1
  O  O17  1  0.38389300  0.20858200  0.79552600  1
  O  O18  1  0.71931000  0.20805800  0.79865000  1
  O  O19  1  0.18340300  0.04355600  0.38515300  1
  O  O20  1  0.51875300  0.04032000  0.38099200  1
  O  O21  1  0.85361300  0.03446000  0.38604000  1
  O  O22  1  0.24268500  0.01141900  0.89157500  1
  O  O23  1  0.57453500  0.00553000  0.87725900  1
  O  O24  1  0.89956400  0.99952000  0.88775900  1
  O  O25  1  0.03727500  0.78498100  0.40853300  1
  O  O26  1  0.37737500  0.75689400  0.40339200  1
  O  O27  1  0.70627800  0.75789100  0.38918600  1
  O  O28  1  0.03055700  0.23918600  0.40068700  1
  O  O29  1  0.36603000  0.23761200  0.40431000  1
  O  O30  1  0.69861000  0.22963000  0.39723800  1
  O  O31  1  0.23126100  0.40613100  0.81873500  1
  O  O32  1  0.56648100  0.40337600  0.81380500  1
  O  O33  1  0.89642700  0.41044200  0.81425500  1
