# generated using pymatgen
data_Zn(FeO2)2
_symmetry_space_group_name_H-M   'P 1'
_cell_length_a   5.05723727
_cell_length_b   5.89671445
_cell_length_c   10.23256167
_cell_angle_alpha   89.84607909
_cell_angle_beta   89.60405054
_cell_angle_gamma   89.91552470
_symmetry_Int_Tables_number   1
_chemical_formula_structural   Zn(FeO2)2
_chemical_formula_sum   'Zn4 Fe8 O16'
_cell_volume   305.13737058
_cell_formula_units_Z   4
loop_
 _symmetry_equiv_pos_site_id
 _symmetry_equiv_pos_as_xyz
  1  'x, y, z'
loop_
 _atom_site_type_symbol
 _atom_site_label
 _atom_site_symmetry_multiplicity
 _atom_site_fract_x
 _atom_site_fract_y
 _atom_site_fract_z
 _atom_site_occupancy
  Zn  Zn0  1  0.85558200  0.25011600  0.75093200  1
  Zn  Zn1  1  0.14899900  0.75032800  0.25013700  1
  Zn  Zn2  1  0.53789300  0.25039500  0.24993100  1
  Zn  Zn3  1  0.47073700  0.74969900  0.74997300  1
  Fe  Fe4  1  0.50922000  0.75006500  0.48656800  1
  Fe  Fe5  1  0.50973000  0.74990100  0.01161000  1
  Fe  Fe6  1  0.49056800  0.25033300  0.51530800  1
  Fe  Fe7  1  0.48949000  0.24994700  0.98718000  1
  Fe  Fe8  1  0.99957200  0.50256700  0.49982000  1
  Fe  Fe9  1  0.99937800  0.99949600  0.00059200  1
  Fe  Fe10  1  0.99979900  0.99727900  0.49957900  1
  Fe  Fe11  1  0.00057100  0.50065800  0.00070500  1
  O  O12  1  0.84535800  0.75041300  0.39333200  1
  O  O13  1  0.84584100  0.74961800  0.10736200  1
  O  O14  1  0.14947900  0.24937900  0.60665900  1
  O  O15  1  0.15064100  0.25035200  0.89355400  1
  O  O16  1  0.19967700  0.74957200  0.59697500  1
  O  O17  1  0.20191000  0.75014700  0.90212000  1
  O  O18  1  0.79862800  0.25012400  0.40308000  1
  O  O19  1  0.79922900  0.24981000  0.09741300  1
  O  O20  1  0.66392300  0.50959600  0.61205600  1
  O  O21  1  0.66128200  0.99983900  0.89015000  1
  O  O22  1  0.33547200  0.99447800  0.38658800  1
  O  O23  1  0.33863000  0.49856800  0.10973300  1
  O  O24  1  0.33639400  0.50508600  0.38729900  1
  O  O25  1  0.33910800  0.00000100  0.10936800  1
  O  O26  1  0.66257100  0.99070300  0.61137600  1
  O  O27  1  0.66031600  0.50153200  0.89059700  1
