data_image0
_chemical_formula_structural       F48Fe8Li12Na12
_chemical_formula_sum              "F48 Fe8 Li12 Na12"
_cell_length_a       10.0592
_cell_length_b       10.0592
_cell_length_c       10.0592
_cell_angle_alpha    109.471
_cell_angle_beta     109.471
_cell_angle_gamma    109.471

_space_group_name_H-M_alt    "P 1"
_space_group_IT_number       1

loop_
  _space_group_symop_operation_xyz
  'x, y, z'

loop_
  _atom_site_type_symbol
  _atom_site_label
  _atom_site_symmetry_multiplicity
  _atom_site_fract_x
  _atom_site_fract_y
  _atom_site_fract_z
  _atom_site_occupancy
  F   F1        1.0  0.21000  0.11700  0.02800  1.0000
  F   F2        1.0  0.58800  0.18200  0.47200  1.0000
  F   F3        1.0  0.29000  0.31800  0.90600  1.0000
  F   F4        1.0  0.91200  0.38300  0.59400  1.0000
  F   F5        1.0  0.02800  0.21000  0.11700  1.0000
  F   F6        1.0  0.11700  0.02800  0.21000  1.0000
  F   F7        1.0  0.59400  0.91200  0.38300  1.0000
  F   F8        1.0  0.18200  0.47200  0.58800  1.0000
  F   F9        1.0  0.47200  0.58800  0.18200  1.0000
  F   F10       1.0  0.31800  0.90600  0.29000  1.0000
  F   F11       1.0  0.90600  0.29000  0.31800  1.0000
  F   F12       1.0  0.38300  0.59400  0.91200  1.0000
  F   F13       1.0  0.38300  0.29000  0.47200  1.0000
  F   F14       1.0  0.31800  0.91200  0.02800  1.0000
  F   F15       1.0  0.18200  0.21000  0.59400  1.0000
  F   F16       1.0  0.11700  0.58800  0.90600  1.0000
  F   F17       1.0  0.29000  0.47200  0.38300  1.0000
  F   F18       1.0  0.47200  0.38300  0.29000  1.0000
  F   F19       1.0  0.58800  0.90600  0.11700  1.0000
  F   F20       1.0  0.02800  0.31800  0.91200  1.0000
  F   F21       1.0  0.91200  0.02800  0.31800  1.0000
  F   F22       1.0  0.59400  0.18200  0.21000  1.0000
  F   F23       1.0  0.21000  0.59400  0.18200  1.0000
  F   F24       1.0  0.90600  0.11700  0.58800  1.0000
  F   F25       1.0  0.79000  0.88300  0.97200  1.0000
  F   F26       1.0  0.41200  0.81800  0.52800  1.0000
  F   F27       1.0  0.71000  0.68200  0.09370  1.0000
  F   F28       1.0  0.08850  0.61700  0.40600  1.0000
  F   F29       1.0  0.97200  0.79000  0.88300  1.0000
  F   F30       1.0  0.88300  0.97200  0.79000  1.0000
  F   F31       1.0  0.40600  0.08850  0.61700  1.0000
  F   F32       1.0  0.81800  0.52800  0.41200  1.0000
  F   F33       1.0  0.52800  0.41200  0.81800  1.0000
  F   F34       1.0  0.68200  0.09370  0.71000  1.0000
  F   F35       1.0  0.09370  0.71000  0.68200  1.0000
  F   F36       1.0  0.61700  0.40600  0.08850  1.0000
  F   F37       1.0  0.61700  0.71000  0.52800  1.0000
  F   F38       1.0  0.68200  0.08850  0.97200  1.0000
  F   F39       1.0  0.81800  0.79000  0.40600  1.0000
  F   F40       1.0  0.88300  0.41200  0.09370  1.0000
  F   F41       1.0  0.71000  0.52800  0.61700  1.0000
  F   F42       1.0  0.52800  0.61700  0.71000  1.0000
  F   F43       1.0  0.41200  0.09370  0.88300  1.0000
  F   F44       1.0  0.97200  0.68200  0.08850  1.0000
  F   F45       1.0  0.08850  0.97200  0.68200  1.0000
  F   F46       1.0  0.40600  0.81800  0.79000  1.0000
  F   F47       1.0  0.79000  0.40600  0.81800  1.0000
  F   F48       1.0  0.09370  0.88300  0.41200  1.0000
  Fe  Fe1       1.0  0.00000  0.00000  0.00000  1.0000
  Fe  Fe2       1.0  0.50000  0.00000  0.50000  1.0000
  Fe  Fe3       1.0  0.50000  0.50000  0.00000  1.0000
  Fe  Fe4       1.0  0.00000  0.50000  0.50000  1.0000
  Fe  Fe5       1.0  0.50000  0.50000  0.50000  1.0000
  Fe  Fe6       1.0  0.50000  0.00000  0.00000  1.0000
  Fe  Fe7       1.0  0.00000  0.00000  0.50000  1.0000
  Fe  Fe8       1.0  0.00000  0.50000  0.00000  1.0000
  Li  Li1       1.0  0.25000  0.62500  0.37500  1.0000
  Li  Li2       1.0  0.75000  0.87500  0.12500  1.0000
  Li  Li3       1.0  0.37500  0.25000  0.62500  1.0000
  Li  Li4       1.0  0.62500  0.37500  0.25000  1.0000
  Li  Li5       1.0  0.12500  0.75000  0.87500  1.0000
  Li  Li6       1.0  0.87500  0.12500  0.75000  1.0000
  Li  Li7       1.0  0.87500  0.25000  0.12500  1.0000
  Li  Li8       1.0  0.62500  0.75000  0.37500  1.0000
  Li  Li9       1.0  0.25000  0.12500  0.87500  1.0000
  Li  Li10      1.0  0.12500  0.87500  0.25000  1.0000
  Li  Li11      1.0  0.75000  0.37500  0.62500  1.0000
  Li  Li12      1.0  0.37500  0.62500  0.75000  1.0000
  Na  Na1       1.0  0.25000  0.37500  0.12500  1.0000
  Na  Na2       1.0  0.75000  0.12500  0.37500  1.0000
  Na  Na3       1.0  0.12500  0.25000  0.37500  1.0000
  Na  Na4       1.0  0.37500  0.12500  0.25000  1.0000
  Na  Na5       1.0  0.37500  0.75000  0.12500  1.0000
  Na  Na6       1.0  0.12500  0.37500  0.75000  1.0000
  Na  Na7       1.0  0.75000  0.62500  0.87500  1.0000
  Na  Na8       1.0  0.25000  0.87500  0.62500  1.0000
  Na  Na9       1.0  0.87500  0.75000  0.62500  1.0000
  Na  Na10      1.0  0.62500  0.87500  0.75000  1.0000
  Na  Na11      1.0  0.62500  0.25000  0.87500  1.0000
  Na  Na12      1.0  0.87500  0.62500  0.25000  1.0000
