# generated using pymatgen
data_Sr6Y2Co3(Cu2O7)3
_symmetry_space_group_name_H-M   'P 1'
_cell_length_a   16.18830161
_cell_length_b   5.44261802
_cell_length_c   12.24022760
_cell_angle_alpha   102.81140623
_cell_angle_beta   102.66257447
_cell_angle_gamma   90.15329711
_symmetry_Int_Tables_number   1
_chemical_formula_structural   Sr6Y2Co3(Cu2O7)3
_chemical_formula_sum   'Sr12 Y4 Co6 Cu12 O42'
_cell_volume   1024.53014146
_cell_formula_units_Z   2
loop_
 _symmetry_equiv_pos_site_id
 _symmetry_equiv_pos_as_xyz
  1  'x, y, z'
loop_
 _atom_site_type_symbol
 _atom_site_label
 _atom_site_symmetry_multiplicity
 _atom_site_fract_x
 _atom_site_fract_y
 _atom_site_fract_z
 _atom_site_occupancy
  Sr  Sr0  1  0.11184900  0.34093800  0.69636300  1
  Sr  Sr1  1  0.44672300  0.35380600  0.71594100  1
  Sr  Sr2  1  0.77614600  0.33870500  0.69872900  1
  Sr  Sr3  1  0.21350000  0.65763000  0.30208200  1
  Sr  Sr4  1  0.54207600  0.64464400  0.28389400  1
  Sr  Sr5  1  0.87657200  0.66062100  0.30297900  1
  Sr  Sr6  1  0.27637200  0.85859900  0.69851700  1
  Sr  Sr7  1  0.61204100  0.85434300  0.69626400  1
  Sr  Sr8  1  0.94702200  0.86098800  0.71610200  1
  Sr  Sr9  1  0.04151900  0.13840600  0.28405600  1
  Sr  Sr10  1  0.37680100  0.14160100  0.30306400  1
  Sr  Sr11  1  0.71326900  0.14287900  0.30180100  1
  Y  Y12  1  0.33108300  0.00042300  0.00028400  1
  Y  Y13  1  0.65964100  0.99994300  0.99988900  1
  Y  Y14  1  0.15955800  0.49989200  0.99964000  1
  Y  Y15  1  0.83110300  0.50024700  0.00017800  1
  Co  Co16  1  0.08862500  0.68401300  0.49939500  1
  Co  Co17  1  0.42270900  0.68530200  0.49952600  1
  Co  Co18  1  0.75659500  0.68640000  0.50116500  1
  Co  Co19  1  0.25754500  0.31454000  0.50121400  1
  Co  Co20  1  0.58982500  0.31489500  0.49950000  1
  Co  Co21  1  0.92380900  0.31388000  0.49920600  1
  Cu  Cu22  1  0.31024200  0.43495000  0.86771500  1
  Cu  Cu23  1  0.63554000  0.43459500  0.86775500  1
  Cu  Cu24  1  0.97289400  0.43337500  0.86700200  1
  Cu  Cu25  1  0.01755200  0.56699300  0.13368300  1
  Cu  Cu26  1  0.35436200  0.56535800  0.13271400  1
  Cu  Cu27  1  0.67979600  0.56617300  0.13300200  1
  Cu  Cu28  1  0.13539500  0.93291900  0.86701400  1
  Cu  Cu29  1  0.47296200  0.93336700  0.86672500  1
  Cu  Cu30  1  0.81006400  0.93226600  0.86702600  1
  Cu  Cu31  1  0.17989100  0.06698900  0.13240400  1
  Cu  Cu32  1  0.51712900  0.06662000  0.13286300  1
  Cu  Cu33  1  0.85436800  0.06731800  0.13221300  1
  O  O34  1  0.04038100  0.35750800  0.49445300  1
  O  O35  1  0.37606800  0.36424400  0.50623300  1
  O  O36  1  0.70743300  0.35971500  0.49930700  1
  O  O37  1  0.20738800  0.63008700  0.49933400  1
  O  O38  1  0.54053900  0.62754500  0.49452300  1
  O  O39  1  0.87630100  0.63430300  0.50610500  1
  O  O40  1  0.06146400  0.20188100  0.86162400  1
  O  O41  1  0.38436500  0.16619600  0.86321700  1
  O  O42  1  0.72538700  0.19221300  0.87837200  1
  O  O43  1  0.10767900  0.79851200  0.13813700  1
  O  O44  1  0.43021100  0.83530800  0.13789700  1
  O  O45  1  0.76639500  0.80946000  0.12179700  1
  O  O46  1  0.22558200  0.18685500  0.87792700  1
  O  O47  1  0.56172600  0.15987100  0.86146600  1
  O  O48  1  0.88445200  0.19738500  0.86289100  1
  O  O49  1  0.26602400  0.81371600  0.12157100  1
  O  O50  1  0.60717100  0.84025900  0.13778700  1
  O  O51  1  0.92982300  0.80349800  0.13770000  1
  O  O52  1  0.22384300  0.68617700  0.87543000  1
  O  O53  1  0.56017600  0.69775300  0.85743200  1
  O  O54  1  0.88164800  0.65643600  0.85760000  1
  O  O55  1  0.26513600  0.31322000  0.12407200  1
  O  O56  1  0.60718100  0.30169200  0.14205400  1
  O  O57  1  0.92890100  0.34307100  0.14258900  1
  O  O58  1  0.05998400  0.65952500  0.85772000  1
  O  O59  1  0.38164500  0.70096500  0.85794700  1
  O  O60  1  0.72364900  0.68877700  0.87570700  1
  O  O61  1  0.10754900  0.34002300  0.14215900  1
  O  O62  1  0.42916200  0.29917100  0.14283600  1
  O  O63  1  0.76552800  0.31026500  0.12448900  1
  O  O64  1  0.10041300  0.84259100  0.64697000  1
  O  O65  1  0.43185100  0.85497500  0.64503700  1
  O  O66  1  0.76222800  0.85100800  0.64799200  1
  O  O67  1  0.22065200  0.15708700  0.35383200  1
  O  O68  1  0.55041800  0.15303900  0.35513200  1
  O  O69  1  0.88136100  0.15896500  0.35388700  1
  O  O70  1  0.26352800  0.30222200  0.64703100  1
  O  O71  1  0.60118900  0.30784300  0.64560900  1
  O  O72  1  0.93317800  0.29545700  0.64442500  1
  O  O73  1  0.04897700  0.70574300  0.35388000  1
  O  O74  1  0.38011600  0.69975300  0.35303600  1
  O  O75  1  0.71901900  0.70218800  0.35285000  1
