# generated using pymatgen
data_MgCoO2
_symmetry_space_group_name_H-M   'P 1'
_cell_length_a   3.01138200
_cell_length_b   7.39423500
_cell_length_c   7.40976244
_cell_angle_alpha   71.05451135
_cell_angle_beta   90.00000000
_cell_angle_gamma   90.00000000
_symmetry_Int_Tables_number   1
_chemical_formula_structural   MgCoO2
_chemical_formula_sum   'Mg4 Co4 O8'
_cell_volume   156.05421428
_cell_formula_units_Z   4
loop_
 _symmetry_equiv_pos_site_id
 _symmetry_equiv_pos_as_xyz
  1  'x, y, z'
loop_
 _atom_site_type_symbol
 _atom_site_label
 _atom_site_symmetry_multiplicity
 _atom_site_fract_x
 _atom_site_fract_y
 _atom_site_fract_z
 _atom_site_occupancy
  Mg  Mg0  1  0.75000000  0.68859000  0.93643300  1
  Mg  Mg1  1  0.25000000  0.31141000  0.06356700  1
  Mg  Mg2  1  0.25000000  0.56110000  0.31229400  1
  Mg  Mg3  1  0.75000000  0.43890000  0.68770600  1
  Co  Co4  1  0.25000000  0.06465600  0.81254900  1
  Co  Co5  1  0.25000000  0.81159000  0.56163400  1
  Co  Co6  1  0.75000000  0.18841000  0.43836600  1
  Co  Co7  1  0.75000000  0.93534400  0.18745100  1
  O  O8  1  0.25000000  0.06373400  0.30806900  1
  O  O9  1  0.25000000  0.31796200  0.56078400  1
  O  O10  1  0.75000000  0.68203800  0.43921600  1
  O  O11  1  0.75000000  0.93626600  0.69193100  1
  O  O12  1  0.75000000  0.19318700  0.93406100  1
  O  O13  1  0.25000000  0.56082500  0.81602400  1
  O  O14  1  0.25000000  0.80681300  0.06593900  1
  O  O15  1  0.75000000  0.43917500  0.18397600  1
