# generated using pymatgen
data_MgMn2O4
_symmetry_space_group_name_H-M   'P 1'
_cell_length_a   10.31650400
_cell_length_b   5.15442500
_cell_length_c   6.02597521
_cell_angle_alpha   88.12766734
_cell_angle_beta   90.00000000
_cell_angle_gamma   90.00000000
_symmetry_Int_Tables_number   1
_chemical_formula_structural   MgMn2O4
_chemical_formula_sum   'Mg4 Mn8 O16'
_cell_volume   320.26404814
_cell_formula_units_Z   4
loop_
 _symmetry_equiv_pos_site_id
 _symmetry_equiv_pos_as_xyz
  1  'x, y, z'
loop_
 _atom_site_type_symbol
 _atom_site_label
 _atom_site_symmetry_multiplicity
 _atom_site_fract_x
 _atom_site_fract_y
 _atom_site_fract_z
 _atom_site_occupancy
  Mg  Mg0  1  0.75000000  0.14411200  0.24686200  1
  Mg  Mg1  1  0.25000000  0.85588800  0.75313800  1
  Mg  Mg2  1  0.25000000  0.51399700  0.25948100  1
  Mg  Mg3  1  0.75000000  0.48600300  0.74051900  1
  Mn  Mn4  1  0.48431300  0.48844800  0.75229800  1
  Mn  Mn5  1  0.01568700  0.48844800  0.75229800  1
  Mn  Mn6  1  0.51568700  0.51155200  0.24770200  1
  Mn  Mn7  1  0.98431300  0.51155200  0.24770200  1
  Mn  Mn8  1  0.50000000  0.00000000  0.50000000  1
  Mn  Mn9  1  0.00000000  0.00000000  0.00000000  1
  Mn  Mn10  1  0.50000000  0.00000000  0.00000000  1
  Mn  Mn11  1  0.00000000  0.00000000  0.50000000  1
  O  O12  1  0.39892600  0.14263300  0.74636300  1
  O  O13  1  0.10107400  0.14263300  0.74636300  1
  O  O14  1  0.60107400  0.85736700  0.25363700  1
  O  O15  1  0.89892600  0.85736700  0.25363700  1
  O  O16  1  0.60380900  0.76426900  0.74890300  1
  O  O17  1  0.89619100  0.76426900  0.74890300  1
  O  O18  1  0.39619100  0.23573100  0.25109700  1
  O  O19  1  0.10380900  0.23573100  0.25109700  1
  O  O20  1  0.61713000  0.31451400  0.47864300  1
  O  O21  1  0.88668800  0.30915400  0.97873800  1
  O  O22  1  0.38668800  0.69084600  0.02126200  1
  O  O23  1  0.11713000  0.68548600  0.52135700  1
  O  O24  1  0.38287000  0.68548600  0.52135700  1
  O  O25  1  0.11331200  0.69084600  0.02126200  1
  O  O26  1  0.61331200  0.30915400  0.97873800  1
  O  O27  1  0.88287000  0.31451400  0.47864300  1
