# generated using pymatgen
data_Al5(FeO4)3
_symmetry_space_group_name_H-M   'P 1'
_cell_length_a   5.76317678
_cell_length_b   5.76317678
_cell_length_c   13.88021101
_cell_angle_alpha   89.84828331
_cell_angle_beta   89.84828331
_cell_angle_gamma   60.20045889
_symmetry_Int_Tables_number   1
_chemical_formula_structural   Al5(FeO4)3
_chemical_formula_sum   'Al10 Fe6 O24'
_cell_volume   400.05736015
_cell_formula_units_Z   2
loop_
 _symmetry_equiv_pos_site_id
 _symmetry_equiv_pos_as_xyz
  1  'x, y, z'
loop_
 _atom_site_type_symbol
 _atom_site_label
 _atom_site_symmetry_multiplicity
 _atom_site_fract_x
 _atom_site_fract_y
 _atom_site_fract_z
 _atom_site_occupancy
  Al  Al0  1  0.00420400  0.00420400  0.62044300  1
  Al  Al1  1  0.67274500  0.67274500  0.29496900  1
  Al  Al2  1  0.32968200  0.32968200  0.95304100  1
  Al  Al3  1  0.65866400  0.65866400  0.65736800  1
  Al  Al4  1  0.34133600  0.34133600  0.34263200  1
  Al  Al5  1  0.16788600  0.16788600  0.16413700  1
  Al  Al6  1  0.83211400  0.83211400  0.83586300  1
  Al  Al7  1  0.99579600  0.99579600  0.37955700  1
  Al  Al8  1  0.67031800  0.67031800  0.04695900  1
  Al  Al9  1  0.32725500  0.32725500  0.70503100  1
  Fe  Fe10  1  0.00000000  0.50000000  0.50000000  1
  Fe  Fe11  1  0.67645400  0.16845800  0.16121400  1
  Fe  Fe12  1  0.32354600  0.83154200  0.83878600  1
  Fe  Fe13  1  0.50000000  0.00000000  0.50000000  1
  Fe  Fe14  1  0.16845800  0.67645400  0.16121400  1
  Fe  Fe15  1  0.83154200  0.32354600  0.83878600  1
  O  O16  1  0.82707000  0.82707000  0.58407100  1
  O  O17  1  0.49480900  0.49480900  0.25549500  1
  O  O18  1  0.16437500  0.16437500  0.90988400  1
  O  O19  1  0.67790400  0.67790400  0.42199300  1
  O  O20  1  0.32965200  0.32965200  0.08446600  1
  O  O21  1  0.99014900  0.99014900  0.75380500  1
  O  O22  1  0.84671000  0.34776500  0.58849500  1
  O  O23  1  0.48116600  0.02596400  0.24965400  1
  O  O24  1  0.15423400  0.65869800  0.90593600  1
  O  O25  1  0.34776500  0.84671000  0.58849500  1
  O  O26  1  0.02596400  0.48116600  0.24965400  1
  O  O27  1  0.65869800  0.15423400  0.90593600  1
  O  O28  1  0.65223500  0.15329000  0.41150500  1
  O  O29  1  0.34130200  0.84576600  0.09406400  1
  O  O30  1  0.97403600  0.51883400  0.75034600  1
  O  O31  1  0.15329000  0.65223500  0.41150500  1
  O  O32  1  0.84576600  0.34130200  0.09406400  1
  O  O33  1  0.51883400  0.97403600  0.75034600  1
  O  O34  1  0.32209600  0.32209600  0.57800700  1
  O  O35  1  0.00985100  0.00985100  0.24619500  1
  O  O36  1  0.67034800  0.67034800  0.91553400  1
  O  O37  1  0.17293000  0.17293000  0.41592900  1
  O  O38  1  0.83562500  0.83562500  0.09011600  1
  O  O39  1  0.50519100  0.50519100  0.74450500  1
