# generated using pymatgen
data_Y4V6O21
_symmetry_space_group_name_H-M   'P 1'
_cell_length_a   8.03343372
_cell_length_b   8.03343372
_cell_length_c   16.49099009
_cell_angle_alpha   84.12027035
_cell_angle_beta   84.12027035
_cell_angle_gamma   55.86582819
_symmetry_Int_Tables_number   1
_chemical_formula_structural   Y4V6O21
_chemical_formula_sum   'Y8 V12 O42'
_cell_volume   874.97670550
_cell_formula_units_Z   2
loop_
 _symmetry_equiv_pos_site_id
 _symmetry_equiv_pos_as_xyz
  1  'x, y, z'
loop_
 _atom_site_type_symbol
 _atom_site_label
 _atom_site_symmetry_multiplicity
 _atom_site_fract_x
 _atom_site_fract_y
 _atom_site_fract_z
 _atom_site_occupancy
  Y  Y0  1  0.63695100  0.16618100  0.82807400  1
  Y  Y1  1  0.36304900  0.83381900  0.17192600  1
  Y  Y2  1  0.00000000  0.50000000  0.50000000  1
  Y  Y3  1  0.50000000  0.50000000  0.50000000  1
  Y  Y4  1  0.00000000  0.00000000  0.00000000  1
  Y  Y5  1  0.16618100  0.63695100  0.82807400  1
  Y  Y6  1  0.83381900  0.36304900  0.17192600  1
  Y  Y7  1  0.50000000  0.00000000  0.50000000  1
  V  V8  1  0.50000000  0.50000000  0.00000000  1
  V  V9  1  0.18900100  0.18900100  0.33764100  1
  V  V10  1  0.81099900  0.81099900  0.66235900  1
  V  V11  1  0.72255700  0.72255700  0.86826400  1
  V  V12  1  0.27744300  0.27744300  0.13173600  1
  V  V13  1  0.00000000  0.00000000  0.50000000  1
  V  V14  1  0.50000000  0.00000000  0.00000000  1
  V  V15  1  0.15787400  0.67317500  0.35254500  1
  V  V16  1  0.84212600  0.32682500  0.64745500  1
  V  V17  1  0.00000000  0.50000000  0.00000000  1
  V  V18  1  0.67317500  0.15787400  0.35254500  1
  V  V19  1  0.32682500  0.84212600  0.64745500  1
  O  O20  1  0.74221200  0.74221200  0.00180800  1
  O  O21  1  0.46785900  0.46785900  0.36998800  1
  O  O22  1  0.11708500  0.11708500  0.63466800  1
  O  O23  1  0.32047300  0.89405000  0.01999500  1
  O  O24  1  0.10722300  0.49465600  0.35928200  1
  O  O25  1  0.65894400  0.04038900  0.70581400  1
  O  O26  1  0.49570700  0.99090100  0.88708600  1
  O  O27  1  0.19761000  0.73067300  0.25213900  1
  O  O28  1  0.84607000  0.31733700  0.52498100  1
  O  O29  1  0.44044300  0.44044300  0.90089000  1
  O  O30  1  0.13538200  0.13538200  0.14592900  1
  O  O31  1  0.79309900  0.79309900  0.54756200  1
  O  O32  1  0.60376600  0.60376600  0.92398000  1
  O  O33  1  0.29454300  0.29454300  0.22879800  1
  O  O34  1  0.94594100  0.94594100  0.60055900  1
  O  O35  1  0.50429300  0.00909900  0.11291400  1
  O  O36  1  0.15393000  0.68266300  0.47501900  1
  O  O37  1  0.80239000  0.26932700  0.74786100  1
  O  O38  1  0.67952700  0.10595000  0.98000500  1
  O  O39  1  0.34105600  0.95961100  0.29418600  1
  O  O40  1  0.89277700  0.50534400  0.64071800  1
  O  O41  1  0.10595000  0.67952700  0.98000500  1
  O  O42  1  0.95961100  0.34105600  0.29418600  1
  O  O43  1  0.50534400  0.89277700  0.64071800  1
  O  O44  1  0.39623400  0.39623400  0.07602000  1
  O  O45  1  0.05405900  0.05405900  0.39944100  1
  O  O46  1  0.70545700  0.70545700  0.77120200  1
  O  O47  1  0.00909900  0.50429300  0.11291400  1
  O  O48  1  0.68266300  0.15393000  0.47501900  1
  O  O49  1  0.26932700  0.80239000  0.74786100  1
  O  O50  1  0.99090100  0.49570700  0.88708600  1
  O  O51  1  0.73067300  0.19761000  0.25213900  1
  O  O52  1  0.31733700  0.84607000  0.52498100  1
  O  O53  1  0.89405000  0.32047300  0.01999500  1
  O  O54  1  0.49465600  0.10722300  0.35928200  1
  O  O55  1  0.04038900  0.65894400  0.70581400  1
  O  O56  1  0.25778800  0.25778800  0.99819200  1
  O  O57  1  0.88291500  0.88291500  0.36533200  1
  O  O58  1  0.53214100  0.53214100  0.63001200  1
  O  O59  1  0.55955700  0.55955700  0.09911000  1
  O  O60  1  0.20690100  0.20690100  0.45243800  1
  O  O61  1  0.86461800  0.86461800  0.85407100  1
