# generated using pymatgen
data_Y8Cu3(GeSe7)3
_symmetry_space_group_name_H-M   'P 1'
_cell_length_a   18.55353300
_cell_length_b   10.28276700
_cell_length_c   10.29121255
_cell_angle_alpha   60.17551198
_cell_angle_beta   90.00000000
_cell_angle_gamma   90.00000000
_symmetry_Int_Tables_number   1
_chemical_formula_structural   Y8Cu3(GeSe7)3
_chemical_formula_sum   'Y16 Cu6 Ge6 Se42'
_cell_volume   1703.33144694
_cell_formula_units_Z   2
loop_
 _symmetry_equiv_pos_site_id
 _symmetry_equiv_pos_as_xyz
  1  'x, y, z'
loop_
 _atom_site_type_symbol
 _atom_site_label
 _atom_site_symmetry_multiplicity
 _atom_site_fract_x
 _atom_site_fract_y
 _atom_site_fract_z
 _atom_site_occupancy
  Y  Y0  1  0.91447100  0.77567000  0.36521800  1
  Y  Y1  1  0.57890300  0.77424500  0.35932700  1
  Y  Y2  1  0.25113300  0.77562300  0.35257300  1
  Y  Y3  1  0.75110400  0.63851000  0.13895400  1
  Y  Y4  1  0.08602600  0.64392300  0.13350900  1
  Y  Y5  1  0.75080200  0.13844900  0.21868300  1
  Y  Y6  1  0.41593500  0.13489600  0.22871600  1
  Y  Y7  1  0.07847100  0.14049800  0.21873800  1
  Y  Y8  1  0.91593500  0.86510400  0.77128400  1
  Y  Y9  1  0.57847100  0.85950200  0.78126200  1
  Y  Y10  1  0.25080200  0.86155100  0.78131700  1
  Y  Y11  1  0.58602600  0.35607700  0.86649100  1
  Y  Y12  1  0.25110400  0.36149000  0.86104600  1
  Y  Y13  1  0.75113300  0.22437700  0.64742700  1
  Y  Y14  1  0.41447100  0.22433000  0.63478200  1
  Y  Y15  1  0.07890300  0.22575500  0.64067300  1
  Cu  Cu16  1  0.76750500  0.00130200  0.99997800  1
  Cu  Cu17  1  0.43597900  0.99393500  0.00257700  1
  Cu  Cu18  1  0.10576800  0.99763500  0.99955400  1
  Cu  Cu19  1  0.93597900  0.00606500  0.99742300  1
  Cu  Cu20  1  0.60576800  0.00236500  0.00044600  1
  Cu  Cu21  1  0.26750500  0.99869800  0.00002200  1
  Ge  Ge22  1  0.72487800  0.67227400  0.66239900  1
  Ge  Ge23  1  0.38731400  0.66236900  0.66877000  1
  Ge  Ge24  1  0.05480000  0.66101200  0.67228300  1
  Ge  Ge25  1  0.88731400  0.33763100  0.33123000  1
  Ge  Ge26  1  0.55480000  0.33898800  0.32771700  1
  Ge  Ge27  1  0.22487800  0.32772600  0.33760100  1
  Se  Se28  1  0.00226500  0.90774700  0.51504600  1
  Se  Se29  1  0.66450400  0.90876100  0.51572500  1
  Se  Se30  1  0.33427700  0.90596000  0.51652300  1
  Se  Se31  1  0.83697300  0.42784100  0.08942000  1
  Se  Se32  1  0.49956200  0.42036000  0.08890500  1
  Se  Se33  1  0.16872700  0.42132400  0.09500800  1
  Se  Se34  1  0.00485300  0.52071600  0.56499200  1
  Se  Se35  1  0.66749200  0.51769600  0.57604100  1
  Se  Se36  1  0.33505500  0.51510900  0.57079500  1
  Se  Se37  1  0.83505500  0.48489100  0.42920500  1
  Se  Se38  1  0.50485300  0.47928400  0.43500800  1
  Se  Se39  1  0.16749200  0.48230400  0.42395900  1
  Se  Se40  1  0.99956200  0.57964000  0.91109500  1
  Se  Se41  1  0.66872700  0.57867600  0.90499200  1
  Se  Se42  1  0.33697300  0.57215900  0.91058000  1
  Se  Se43  1  0.83427700  0.09404000  0.48347700  1
  Se  Se44  1  0.50226500  0.09225300  0.48495400  1
  Se  Se45  1  0.16450400  0.09123900  0.48427500  1
  Se  Se46  1  0.68362000  0.33224000  0.33375200  1
  Se  Se47  1  0.35113800  0.33495700  0.33127200  1
  Se  Se48  1  0.01553200  0.33579100  0.33314700  1
  Se  Se49  1  0.85113800  0.66504300  0.66872800  1
  Se  Se50  1  0.51553200  0.66420900  0.66685300  1
  Se  Se51  1  0.18362000  0.66776000  0.66624800  1
  Se  Se52  1  0.75317600  0.26158500  0.90268300  1
  Se  Se53  1  0.43055400  0.25826400  0.89998600  1
  Se  Se54  1  0.10126000  0.26030900  0.89759600  1
  Se  Se55  1  0.92550500  0.09728400  0.16392900  1
  Se  Se56  1  0.59412300  0.09988500  0.16485800  1
  Se  Se57  1  0.26383200  0.10232800  0.16026600  1
  Se  Se58  1  0.92796300  0.15911500  0.73754500  1
  Se  Se59  1  0.59603200  0.15746300  0.73752400  1
  Se  Se60  1  0.26322300  0.16056700  0.73636600  1
  Se  Se61  1  0.76322300  0.83943300  0.26363400  1
  Se  Se62  1  0.42796300  0.84088500  0.26245500  1
  Se  Se63  1  0.09603200  0.84253700  0.26247600  1
  Se  Se64  1  0.76383200  0.89767200  0.83973400  1
  Se  Se65  1  0.42550500  0.90271600  0.83607100  1
  Se  Se66  1  0.09412300  0.90011500  0.83514200  1
  Se  Se67  1  0.93055400  0.74173600  0.10001400  1
  Se  Se68  1  0.60126000  0.73969100  0.10240400  1
  Se  Se69  1  0.25317600  0.73841500  0.09731700  1
