# generated using pymatgen
data_ZnSnO2
_symmetry_space_group_name_H-M   'P 1'
_cell_length_a   3.37422200
_cell_length_b   8.38188423
_cell_length_c   9.27315471
_cell_angle_alpha   87.62671406
_cell_angle_beta   80.85119639
_cell_angle_gamma   85.08881525
_symmetry_Int_Tables_number   1
_chemical_formula_structural   ZnSnO2
_chemical_formula_sum   'Zn4 Sn4 O8'
_cell_volume   257.87646698
_cell_formula_units_Z   4
loop_
 _symmetry_equiv_pos_site_id
 _symmetry_equiv_pos_as_xyz
  1  'x, y, z'
loop_
 _atom_site_type_symbol
 _atom_site_label
 _atom_site_symmetry_multiplicity
 _atom_site_fract_x
 _atom_site_fract_y
 _atom_site_fract_z
 _atom_site_occupancy
  Zn  Zn0  1  0.11528700  0.52819500  0.28924200  1
  Zn  Zn1  1  0.88471300  0.47180500  0.71075800  1
  Zn  Zn2  1  0.70766500  0.26180600  0.09304500  1
  Zn  Zn3  1  0.29233500  0.73819400  0.90695500  1
  Sn  Sn4  1  0.35127500  0.78731000  0.54971300  1
  Sn  Sn5  1  0.64152200  0.87303200  0.16438100  1
  Sn  Sn6  1  0.35847800  0.12696800  0.83561900  1
  Sn  Sn7  1  0.64872500  0.21269000  0.45028700  1
  O  O8  1  0.08188400  0.33451900  0.53775900  1
  O  O9  1  0.75720600  0.86683200  0.93130000  1
  O  O10  1  0.24279400  0.13316800  0.06870000  1
  O  O11  1  0.91811600  0.66548100  0.46224100  1
  O  O12  1  0.34889600  0.60529300  0.73277600  1
  O  O13  1  0.20881700  0.69990900  0.13014300  1
  O  O14  1  0.65110400  0.39470700  0.26722400  1
  O  O15  1  0.79118300  0.30009100  0.86985700  1
