# generated using pymatgen
data_MgCoF4
_symmetry_space_group_name_H-M   'P 1'
_cell_length_a   6.15544446
_cell_length_b   6.15544446
_cell_length_c   6.15544446
_cell_angle_alpha   131.88038995
_cell_angle_beta   131.77563769
_cell_angle_gamma   70.50083023
_symmetry_Int_Tables_number   1
_chemical_formula_structural   MgCoF4
_chemical_formula_sum   'Mg2 Co2 F8'
_cell_volume   126.88656970
_cell_formula_units_Z   2
loop_
 _symmetry_equiv_pos_site_id
 _symmetry_equiv_pos_as_xyz
  1  'x, y, z'
loop_
 _atom_site_type_symbol
 _atom_site_label
 _atom_site_symmetry_multiplicity
 _atom_site_fract_x
 _atom_site_fract_y
 _atom_site_fract_z
 _atom_site_occupancy
  Mg  Mg0  1  0.00000000  0.50000000  0.50000000  1
  Mg  Mg1  1  0.50000000  0.00000000  0.50000000  1
  Co  Co2  1  0.25136300  0.25136300  0.00000000  1
  Co  Co3  1  0.74863700  0.74863700  0.00000000  1
  F  F4  1  0.14554500  0.13656500  0.51720900  1
  F  F5  1  0.89708300  0.87634400  0.51488300  1
  F  F6  1  0.36146100  0.38220100  0.48511700  1
  F  F7  1  0.85445500  0.37166400  0.99102000  1
  F  F8  1  0.61935600  0.62833600  0.48279100  1
  F  F9  1  0.10291700  0.61779900  0.97926000  1
  F  F10  1  0.63853900  0.12365600  0.02074000  1
  F  F11  1  0.38064400  0.86343500  0.00898000  1
