# generated using pymatgen
data_Y3B3O7
_symmetry_space_group_name_H-M   'P 1'
_cell_length_a   4.02373971
_cell_length_b   4.02373915
_cell_length_c   25.14118200
_cell_angle_alpha   90.00000000
_cell_angle_beta   90.00000000
_cell_angle_gamma   123.87360997
_symmetry_Int_Tables_number   1
_chemical_formula_structural   Y3B3O7
_chemical_formula_sum   'Y6 B6 O14'
_cell_volume   337.95918932
_cell_formula_units_Z   2
loop_
 _symmetry_equiv_pos_site_id
 _symmetry_equiv_pos_as_xyz
  1  'x, y, z'
loop_
 _atom_site_type_symbol
 _atom_site_label
 _atom_site_symmetry_multiplicity
 _atom_site_fract_x
 _atom_site_fract_y
 _atom_site_fract_z
 _atom_site_occupancy
  Y  Y0  1  0.00495900  0.99504100  0.00482400  1
  Y  Y1  1  0.99938100  0.00061900  0.16814800  1
  Y  Y2  1  0.99938100  0.00061900  0.33185200  1
  Y  Y3  1  0.00495900  0.99504100  0.49517600  1
  Y  Y4  1  0.01207000  0.98793000  0.66822500  1
  Y  Y5  1  0.01207000  0.98793000  0.83177500  1
  B  B6  1  0.24387600  0.75612400  0.08629900  1
  B  B7  1  0.24387600  0.75612400  0.41370100  1
  B  B8  1  0.25486000  0.74514000  0.75000000  1
  B  B9  1  0.75777500  0.24222500  0.25000000  1
  B  B10  1  0.64526200  0.35473800  0.58158200  1
  B  B11  1  0.64526200  0.35473800  0.91841800  1
  O  O12  1  0.34544800  0.65455200  0.03885000  1
  O  O13  1  0.33751100  0.66248900  0.36526500  1
  O  O14  1  0.35299400  0.64700600  0.70197800  1
  O  O15  1  0.34544800  0.65455200  0.46115000  1
  O  O16  1  0.33751100  0.66248900  0.13473500  1
  O  O17  1  0.35299400  0.64700600  0.79802200  1
  O  O18  1  0.66133700  0.33866300  0.29802400  1
  O  O19  1  0.68330700  0.31669300  0.63354900  1
  O  O20  1  0.67952600  0.32047400  0.97074300  1
  O  O21  1  0.67952600  0.32047400  0.52925700  1
  O  O22  1  0.66133700  0.33866300  0.20197600  1
  O  O23  1  0.68330700  0.31669300  0.86645100  1
  O  O24  1  0.02801100  0.97198900  0.58170900  1
  O  O25  1  0.02801100  0.97198900  0.91829100  1
