# generated using pymatgen
data_CaCoF4
_symmetry_space_group_name_H-M   'P 1'
_cell_length_a   6.52068816
_cell_length_b   6.52068816
_cell_length_c   5.44627181
_cell_angle_alpha   66.13318335
_cell_angle_beta   66.13318335
_cell_angle_gamma   49.34536351
_symmetry_Int_Tables_number   1
_chemical_formula_structural   CaCoF4
_chemical_formula_sum   'Ca2 Co2 F8'
_cell_volume   157.30601440
_cell_formula_units_Z   2
loop_
 _symmetry_equiv_pos_site_id
 _symmetry_equiv_pos_as_xyz
  1  'x, y, z'
loop_
 _atom_site_type_symbol
 _atom_site_label
 _atom_site_symmetry_multiplicity
 _atom_site_fract_x
 _atom_site_fract_y
 _atom_site_fract_z
 _atom_site_occupancy
  Ca  Ca0  1  0.74512800  0.25487200  0.75000000  1
  Ca  Ca1  1  0.25487200  0.74512800  0.25000000  1
  Co  Co2  1  0.00000000  0.50000000  0.00000000  1
  Co  Co3  1  0.50000000  0.00000000  0.50000000  1
  F  F4  1  0.68019300  0.57247800  0.32172700  1
  F  F5  1  0.93577400  0.82244200  0.05503100  1
  F  F6  1  0.31980700  0.42752200  0.67827300  1
  F  F7  1  0.42752200  0.31980700  0.17827300  1
  F  F8  1  0.06422600  0.17755800  0.94496900  1
  F  F9  1  0.17755800  0.06422600  0.44496900  1
  F  F10  1  0.57247800  0.68019300  0.82172700  1
  F  F11  1  0.82244200  0.93577400  0.55503100  1
