# generated using pymatgen
data_Yb2MgS4
_symmetry_space_group_name_H-M   'P 1'
_cell_length_a   7.27923029
_cell_length_b   7.27923029
_cell_length_c   7.27923029
_cell_angle_alpha   113.80599326
_cell_angle_beta   113.80599326
_cell_angle_gamma   101.11144614
_symmetry_Int_Tables_number   1
_chemical_formula_structural   Yb2MgS4
_chemical_formula_sum   'Yb4 Mg2 S8'
_cell_volume   292.27507935
_cell_formula_units_Z   2
loop_
 _symmetry_equiv_pos_site_id
 _symmetry_equiv_pos_as_xyz
  1  'x, y, z'
loop_
 _atom_site_type_symbol
 _atom_site_label
 _atom_site_symmetry_multiplicity
 _atom_site_fract_x
 _atom_site_fract_y
 _atom_site_fract_z
 _atom_site_occupancy
  Yb  Yb0  1  0.25540400  0.62500000  0.13040400  1
  Yb  Yb1  1  0.37500000  0.50540400  0.63040400  1
  Yb  Yb2  1  0.49459600  0.12500000  0.86959600  1
  Yb  Yb3  1  0.87500000  0.74459600  0.36959600  1
  Mg  Mg4  1  0.75000000  0.25000000  0.50000000  1
  Mg  Mg5  1  0.00000000  0.00000000  0.00000000  1
  S  S6  1  0.15699900  0.77136000  0.79656300  1
  S  S7  1  0.11043500  0.22479700  0.70343700  1
  S  S8  1  0.59300100  0.88956500  0.11436100  1
  S  S9  1  0.22864000  0.02520300  0.38563900  1
  S  S10  1  0.52136000  0.40699900  0.29656300  1
  S  S11  1  0.77520300  0.47864000  0.88563900  1
  S  S12  1  0.63956500  0.84300100  0.61436100  1
  S  S13  1  0.97479700  0.36043500  0.20343700  1
