# generated using pymatgen
data_Ti2ZnO5
_symmetry_space_group_name_H-M   'P 1'
_cell_length_a   3.38743900
_cell_length_b   4.82811800
_cell_length_c   12.12426900
_cell_angle_alpha   90.00000000
_cell_angle_beta   90.00000000
_cell_angle_gamma   90.00000000
_symmetry_Int_Tables_number   1
_chemical_formula_structural   Ti2ZnO5
_chemical_formula_sum   'Ti4 Zn2 O10'
_cell_volume   198.29187645
_cell_formula_units_Z   2
loop_
 _symmetry_equiv_pos_site_id
 _symmetry_equiv_pos_as_xyz
  1  'x, y, z'
loop_
 _atom_site_type_symbol
 _atom_site_label
 _atom_site_symmetry_multiplicity
 _atom_site_fract_x
 _atom_site_fract_y
 _atom_site_fract_z
 _atom_site_occupancy
  Ti  Ti0  1  0.00000000  0.59118900  0.85429000  1
  Ti  Ti1  1  0.50000000  0.40881100  0.64571000  1
  Ti  Ti2  1  0.50000000  0.40881100  0.35429000  1
  Ti  Ti3  1  0.00000000  0.59118900  0.14571000  1
  Zn  Zn4  1  0.50000000  0.10255100  0.00000000  1
  Zn  Zn5  1  0.00000000  0.89744900  0.50000000  1
  O  O6  1  0.50000000  0.56615200  0.50000000  1
  O  O7  1  0.00000000  0.43384800  0.00000000  1
  O  O8  1  0.50000000  0.43852200  0.82081000  1
  O  O9  1  0.00000000  0.56147800  0.67919000  1
  O  O10  1  0.50000000  0.43852200  0.17919000  1
  O  O11  1  0.00000000  0.56147800  0.32081000  1
  O  O12  1  0.00000000  0.94364800  0.10896000  1
  O  O13  1  0.50000000  0.05635200  0.39104000  1
  O  O14  1  0.50000000  0.05635200  0.60896000  1
  O  O15  1  0.00000000  0.94364800  0.89104000  1
