# generated using pymatgen
data_MgWF5
_symmetry_space_group_name_H-M   'P 1'
_cell_length_a   5.53232387
_cell_length_b   5.53232387
_cell_length_c   7.75664282
_cell_angle_alpha   69.54239516
_cell_angle_beta   69.54239516
_cell_angle_gamma   72.91166191
_symmetry_Int_Tables_number   1
_chemical_formula_structural   MgWF5
_chemical_formula_sum   'Mg2 W2 F10'
_cell_volume   204.37851787
_cell_formula_units_Z   2
loop_
 _symmetry_equiv_pos_site_id
 _symmetry_equiv_pos_as_xyz
  1  'x, y, z'
loop_
 _atom_site_type_symbol
 _atom_site_label
 _atom_site_symmetry_multiplicity
 _atom_site_fract_x
 _atom_site_fract_y
 _atom_site_fract_z
 _atom_site_occupancy
  Mg  Mg0  1  0.51493200  0.48506800  0.25000000  1
  Mg  Mg1  1  0.48506800  0.51493200  0.75000000  1
  W  W2  1  0.00000000  0.00000000  0.00000000  1
  W  W3  1  0.00000000  0.00000000  0.50000000  1
  F  F4  1  0.14406100  0.85593900  0.75000000  1
  F  F5  1  0.85593900  0.14406100  0.25000000  1
  F  F6  1  0.70815600  0.77161600  0.63513400  1
  F  F7  1  0.22838400  0.29184400  0.86486600  1
  F  F8  1  0.67938100  0.30363100  0.94451000  1
  F  F9  1  0.69636900  0.32061900  0.55549000  1
  F  F10  1  0.32061900  0.69636900  0.05549000  1
  F  F11  1  0.30363100  0.67938100  0.44451000  1
  F  F12  1  0.77161600  0.70815600  0.13513400  1
  F  F13  1  0.29184400  0.22838400  0.36486600  1
