# generated using pymatgen
data_CaTiF6
_symmetry_space_group_name_H-M   'P 1'
_cell_length_a   5.79684219
_cell_length_b   5.79684219
_cell_length_c   5.79684298
_cell_angle_alpha   58.00181431
_cell_angle_beta   58.00181431
_cell_angle_gamma   58.00181125
_symmetry_Int_Tables_number   1
_chemical_formula_structural   CaTiF6
_chemical_formula_sum   'Ca1 Ti1 F6'
_cell_volume   131.42641787
_cell_formula_units_Z   1
loop_
 _symmetry_equiv_pos_site_id
 _symmetry_equiv_pos_as_xyz
  1  'x, y, z'
loop_
 _atom_site_type_symbol
 _atom_site_label
 _atom_site_symmetry_multiplicity
 _atom_site_fract_x
 _atom_site_fract_y
 _atom_site_fract_z
 _atom_site_occupancy
  Ca  Ca0  1  0.50000000  0.50000000  0.50000000  1
  Ti  Ti1  1  0.00000000  0.00000000  0.00000000  1
  F  F2  1  0.68174500  0.86582600  0.22443300  1
  F  F3  1  0.86582600  0.22443300  0.68174500  1
  F  F4  1  0.77556700  0.31825500  0.13417400  1
  F  F5  1  0.13417400  0.77556700  0.31825500  1
  F  F6  1  0.31825500  0.13417400  0.77556700  1
  F  F7  1  0.22443300  0.68174500  0.86582600  1
