# generated using pymatgen
data_CaWF4
_symmetry_space_group_name_H-M   'P 1'
_cell_length_a   6.97271196
_cell_length_b   6.97271196
_cell_length_c   6.97271196
_cell_angle_alpha   132.54776741
_cell_angle_beta   132.54776741
_cell_angle_gamma   69.36525158
_symmetry_Int_Tables_number   1
_chemical_formula_structural   CaWF4
_chemical_formula_sum   'Ca2 W2 F8'
_cell_volume   180.52812232
_cell_formula_units_Z   2
loop_
 _symmetry_equiv_pos_site_id
 _symmetry_equiv_pos_as_xyz
  1  'x, y, z'
loop_
 _atom_site_type_symbol
 _atom_site_label
 _atom_site_symmetry_multiplicity
 _atom_site_fract_x
 _atom_site_fract_y
 _atom_site_fract_z
 _atom_site_occupancy
  Ca  Ca0  1  0.75000000  0.75000000  0.00000000  1
  Ca  Ca1  1  0.25000000  0.25000000  0.00000000  1
  W  W2  1  0.00000000  0.50000000  0.50000000  1
  W  W3  1  0.50000000  0.00000000  0.50000000  1
  F  F4  1  0.96055300  0.46055300  0.13861000  1
  F  F5  1  0.67805800  0.17805800  0.13861000  1
  F  F6  1  0.03944700  0.53944700  0.86139000  1
  F  F7  1  0.53944700  0.67805800  0.50000000  1
  F  F8  1  0.32194200  0.82194200  0.86139000  1
  F  F9  1  0.82194200  0.96055300  0.50000000  1
  F  F10  1  0.46055300  0.32194200  0.50000000  1
  F  F11  1  0.17805800  0.03944700  0.50000000  1
