# generated using pymatgen
data_VAgO3
_symmetry_space_group_name_H-M   'P 1'
_cell_length_a   5.32709932
_cell_length_b   14.88377276
_cell_length_c   9.37683501
_cell_angle_alpha   55.47088678
_cell_angle_beta   91.97840402
_cell_angle_gamma   86.88864761
_symmetry_Int_Tables_number   1
_chemical_formula_structural   VAgO3
_chemical_formula_sum   'V8 Ag8 O24'
_cell_volume   609.66223950
_cell_formula_units_Z   8
loop_
 _symmetry_equiv_pos_site_id
 _symmetry_equiv_pos_as_xyz
  1  'x, y, z'
loop_
 _atom_site_type_symbol
 _atom_site_label
 _atom_site_symmetry_multiplicity
 _atom_site_fract_x
 _atom_site_fract_y
 _atom_site_fract_z
 _atom_site_occupancy
  V  V0  1  0.13866100  0.47620200  0.24985400  1
  V  V1  1  0.04926600  0.93565000  0.25628800  1
  V  V2  1  0.19762700  0.41066000  0.64070600  1
  V  V3  1  0.48742600  0.95778000  0.67579500  1
  V  V4  1  0.51257400  0.04222000  0.32420500  1
  V  V5  1  0.80237300  0.58934000  0.35929400  1
  V  V6  1  0.95073400  0.06435000  0.74371200  1
  V  V7  1  0.86133900  0.52379800  0.75014600  1
  Ag  Ag8  1  0.96901600  0.22586800  0.03304600  1
  Ag  Ag9  1  0.03098400  0.77413200  0.96695400  1
  Ag  Ag10  1  0.32434400  0.68390300  0.56557500  1
  Ag  Ag11  1  0.45071200  0.11930600  0.89828000  1
  Ag  Ag12  1  0.53636500  0.64431100  0.90885900  1
  Ag  Ag13  1  0.46363500  0.35568900  0.09114100  1
  Ag  Ag14  1  0.54928800  0.88069400  0.10172000  1
  Ag  Ag15  1  0.67565600  0.31609700  0.43442500  1
  O  O16  1  0.22792700  0.05644100  0.17699500  1
  O  O17  1  0.23741700  0.59716900  0.08342900  1
  O  O18  1  0.14932800  0.38384300  0.19935700  1
  O  O19  1  0.12389200  0.88166900  0.14295600  1
  O  O20  1  0.29549600  0.04834100  0.46695300  1
  O  O21  1  0.11580300  0.59236400  0.38535500  1
  O  O22  1  0.32910200  0.40529400  0.46282600  1
  O  O23  1  0.16829500  0.84617600  0.46440500  1
  O  O24  1  0.28898300  0.03259900  0.76033500  1
  O  O25  1  0.19233200  0.50052600  0.72678000  1
  O  O26  1  0.30039000  0.28935600  0.82580300  1
  O  O27  1  0.37618000  0.83414300  0.79306800  1
  O  O28  1  0.62382000  0.16585700  0.20693200  1
  O  O29  1  0.69961000  0.71064400  0.17419700  1
  O  O30  1  0.80766800  0.49947400  0.27322000  1
  O  O31  1  0.71101700  0.96740100  0.23966500  1
  O  O32  1  0.83170500  0.15382400  0.53559500  1
  O  O33  1  0.67089800  0.59470600  0.53717400  1
  O  O34  1  0.88419700  0.40763600  0.61464500  1
  O  O35  1  0.70450400  0.95165900  0.53304700  1
  O  O36  1  0.87610800  0.11833100  0.85704400  1
  O  O37  1  0.85067200  0.61615700  0.80064300  1
  O  O38  1  0.76258300  0.40283100  0.91657100  1
  O  O39  1  0.77207300  0.94355900  0.82300500  1
