# generated using pymatgen
data_Sr3CaCr2S2O5
_symmetry_space_group_name_H-M   'P 1'
_cell_length_a   14.40742028
_cell_length_b   14.40742028
_cell_length_c   14.40742028
_cell_angle_alpha   164.10663430
_cell_angle_beta   164.10663430
_cell_angle_gamma   22.54987697
_symmetry_Int_Tables_number   1
_chemical_formula_structural   Sr3CaCr2S2O5
_chemical_formula_sum   'Sr3 Ca1 Cr2 S2 O5'
_cell_volume   224.23061106
_cell_formula_units_Z   1
loop_
 _symmetry_equiv_pos_site_id
 _symmetry_equiv_pos_as_xyz
  1  'x, y, z'
loop_
 _atom_site_type_symbol
 _atom_site_label
 _atom_site_symmetry_multiplicity
 _atom_site_fract_x
 _atom_site_fract_y
 _atom_site_fract_z
 _atom_site_occupancy
  Sr  Sr0  1  0.50000000  0.50000000  0.00000000  1
  Sr  Sr1  1  0.63056600  0.63056600  0.00000000  1
  Sr  Sr2  1  0.36943400  0.36943400  0.00000000  1
  Ca  Ca3  1  0.75000000  0.25000000  0.50000000  1
  Cr  Cr4  1  0.06760000  0.06760000  0.00000000  1
  Cr  Cr5  1  0.93240000  0.93240000  0.00000000  1
  S  S6  1  0.18405600  0.18405600  0.00000000  1
  S  S7  1  0.81594400  0.81594400  0.00000000  1
  O  O8  1  0.07555400  0.57555400  0.50000000  1
  O  O9  1  0.57576100  0.07576100  0.50000000  1
  O  O10  1  0.92423900  0.42423900  0.50000000  1
  O  O11  1  0.42444600  0.92444600  0.50000000  1
  O  O12  1  0.00000000  0.00000000  0.00000000  1
