# generated using pymatgen
data_KMnO2
_symmetry_space_group_name_H-M   'P 1'
_cell_length_a   5.81367900
_cell_length_b   7.28767235
_cell_length_c   6.53987800
_cell_angle_alpha   90.00860185
_cell_angle_beta   89.99992336
_cell_angle_gamma   113.51199998
_symmetry_Int_Tables_number   1
_chemical_formula_structural   KMnO2
_chemical_formula_sum   'K4 Mn4 O8'
_cell_volume   254.07840462
_cell_formula_units_Z   4
loop_
 _symmetry_equiv_pos_site_id
 _symmetry_equiv_pos_as_xyz
  1  'x, y, z'
loop_
 _atom_site_type_symbol
 _atom_site_label
 _atom_site_symmetry_multiplicity
 _atom_site_fract_x
 _atom_site_fract_y
 _atom_site_fract_z
 _atom_site_occupancy
  K  K0  1  0.49999500  0.49998500  0.00011300  1
  K  K1  1  0.99999500  0.49998500  0.00011300  1
  K  K2  1  0.99998500  0.99997500  0.49988100  1
  K  K3  1  0.49998500  0.99997500  0.49988100  1
  Mn  Mn4  1  0.49999500  0.49998500  0.50014100  1
  Mn  Mn5  1  0.49999500  0.00000200  0.99986900  1
  Mn  Mn6  1  0.99999700  0.49998700  0.50014200  1
  Mn  Mn7  1  0.99999300  0.99999800  0.99986900  1
  O  O8  1  0.19386900  0.38774600  0.34196300  1
  O  O9  1  0.69387800  0.38774600  0.34196300  1
  O  O10  1  0.69388000  0.88775300  0.15800400  1
  O  O11  1  0.19387100  0.88775200  0.15800500  1
  O  O12  1  0.80615700  0.61230400  0.65826100  1
  O  O13  1  0.30614800  0.61230300  0.65826100  1
  O  O14  1  0.30614600  0.11229900  0.84176600  1
  O  O15  1  0.80615400  0.11230000  0.84176600  1
