# generated using pymatgen
data_Ca2TiN2
_symmetry_space_group_name_H-M   'P 1'
_cell_length_a   6.00565278
_cell_length_b   6.00565278
_cell_length_c   6.77315546
_cell_angle_alpha   67.56507170
_cell_angle_beta   67.56507170
_cell_angle_gamma   50.19499702
_symmetry_Int_Tables_number   1
_chemical_formula_structural   Ca2TiN2
_chemical_formula_sum   'Ca4 Ti2 N4'
_cell_volume   170.19390446
_cell_formula_units_Z   2
loop_
 _symmetry_equiv_pos_site_id
 _symmetry_equiv_pos_as_xyz
  1  'x, y, z'
loop_
 _atom_site_type_symbol
 _atom_site_label
 _atom_site_symmetry_multiplicity
 _atom_site_fract_x
 _atom_site_fract_y
 _atom_site_fract_z
 _atom_site_occupancy
  Ca  Ca0  1  0.32516200  0.32516200  0.59978100  1
  Ca  Ca1  1  0.67483800  0.67483800  0.40021900  1
  Ca  Ca2  1  0.98158300  0.98158300  0.75180600  1
  Ca  Ca3  1  0.01841700  0.01841700  0.24819400  1
  Ti  Ti4  1  0.64244300  0.64244300  0.88257200  1
  Ti  Ti5  1  0.35755700  0.35755700  0.11742800  1
  N  N6  1  0.80980100  0.80980100  0.62472000  1
  N  N7  1  0.19019900  0.19019900  0.37528000  1
  N  N8  1  0.50165500  0.50165500  0.21141900  1
  N  N9  1  0.49834500  0.49834500  0.78858100  1
