# generated using pymatgen
data_CaSbF5
_symmetry_space_group_name_H-M   'P 1'
_cell_length_a   5.96985513
_cell_length_b   5.99815503
_cell_length_c   8.38870726
_cell_angle_alpha   97.37902962
_cell_angle_beta   111.81849915
_cell_angle_gamma   107.68907842
_symmetry_Int_Tables_number   1
_chemical_formula_structural   CaSbF5
_chemical_formula_sum   'Ca2 Sb2 F10'
_cell_volume   255.59719814
_cell_formula_units_Z   2
loop_
 _symmetry_equiv_pos_site_id
 _symmetry_equiv_pos_as_xyz
  1  'x, y, z'
loop_
 _atom_site_type_symbol
 _atom_site_label
 _atom_site_symmetry_multiplicity
 _atom_site_fract_x
 _atom_site_fract_y
 _atom_site_fract_z
 _atom_site_occupancy
  Ca  Ca0  1  0.28224000  0.52963200  0.74957600  1
  Ca  Ca1  1  0.72134200  0.46918800  0.24876400  1
  Sb  Sb2  1  0.00817800  0.00149900  0.00179600  1
  Sb  Sb3  1  0.49845500  0.99507800  0.49980600  1
  F  F4  1  0.37818200  0.13241100  0.24515200  1
  F  F5  1  0.62272900  0.87545300  0.74253500  1
  F  F6  1  0.60231800  0.73199900  0.37614700  1
  F  F7  1  0.86693100  0.22374100  0.13076100  1
  F  F8  1  0.74307600  0.68029700  0.04014400  1
  F  F9  1  0.14117700  0.69067800  0.46251500  1
  F  F10  1  0.25799100  0.31669000  0.95804700  1
  F  F11  1  0.85848500  0.29208100  0.54630600  1
  F  F12  1  0.14770100  0.77809700  0.87510900  1
  F  F13  1  0.41149800  0.26662500  0.63153700  1
