# generated using pymatgen
data_Sr4MgFe2(SO3)2
_symmetry_space_group_name_H-M   'P 1'
_cell_length_a   3.95504900
_cell_length_b   3.95504900
_cell_length_c   16.14581600
_cell_angle_alpha   90.00000000
_cell_angle_beta   90.00000000
_cell_angle_gamma   90.00000000
_symmetry_Int_Tables_number   1
_chemical_formula_structural   Sr4MgFe2(SO3)2
_chemical_formula_sum   'Sr4 Mg1 Fe2 S2 O6'
_cell_volume   252.55951551
_cell_formula_units_Z   1
loop_
 _symmetry_equiv_pos_site_id
 _symmetry_equiv_pos_as_xyz
  1  'x, y, z'
loop_
 _atom_site_type_symbol
 _atom_site_label
 _atom_site_symmetry_multiplicity
 _atom_site_fract_x
 _atom_site_fract_y
 _atom_site_fract_z
 _atom_site_occupancy
  Sr  Sr0  1  0.50000000  0.00000000  0.69035300  1
  Sr  Sr1  1  0.00000000  0.50000000  0.30964700  1
  Sr  Sr2  1  0.50000000  0.00000000  0.91401900  1
  Sr  Sr3  1  0.00000000  0.50000000  0.08598100  1
  Mg  Mg4  1  0.00000000  0.00000000  0.50000000  1
  Fe  Fe5  1  0.00000000  0.50000000  0.81286800  1
  Fe  Fe6  1  0.50000000  0.00000000  0.18713200  1
  S  S7  1  0.00000000  0.50000000  0.59567900  1
  S  S8  1  0.50000000  0.00000000  0.40432100  1
  O  O9  1  0.50000000  0.50000000  0.79234900  1
  O  O10  1  0.00000000  0.00000000  0.79111400  1
  O  O11  1  0.00000000  0.00000000  0.20888600  1
  O  O12  1  0.50000000  0.50000000  0.20765100  1
  O  O13  1  0.00000000  0.50000000  0.93221400  1
  O  O14  1  0.50000000  0.00000000  0.06778600  1
