# generated using pymatgen
data_MgV2O6
_symmetry_space_group_name_H-M   'P 1'
_cell_length_a   5.48190821
_cell_length_b   5.48190821
_cell_length_c   5.64473800
_cell_angle_alpha   90.00000000
_cell_angle_beta   90.00000000
_cell_angle_gamma   123.43316492
_symmetry_Int_Tables_number   1
_chemical_formula_structural   MgV2O6
_chemical_formula_sum   'Mg1 V2 O6'
_cell_volume   141.56268277
_cell_formula_units_Z   1
loop_
 _symmetry_equiv_pos_site_id
 _symmetry_equiv_pos_as_xyz
  1  'x, y, z'
loop_
 _atom_site_type_symbol
 _atom_site_label
 _atom_site_symmetry_multiplicity
 _atom_site_fract_x
 _atom_site_fract_y
 _atom_site_fract_z
 _atom_site_occupancy
  Mg  Mg0  1  0.80991900  0.19008100  0.50000000  1
  V  V1  1  0.68664100  0.31335900  0.00000000  1
  V  V2  1  0.31549000  0.68451000  0.00000000  1
  O  O3  1  0.51335500  0.01106000  0.21443200  1
  O  O4  1  0.98894000  0.48664500  0.78556800  1
  O  O5  1  0.49944600  0.50055400  0.00000000  1
  O  O6  1  0.98894000  0.48664500  0.21443200  1
  O  O7  1  0.51335500  0.01106000  0.78556800  1
  O  O8  1  0.01084900  0.98915100  0.50000000  1
