# generated using pymatgen
data_Mg2Ni3O8
_symmetry_space_group_name_H-M   'P 1'
_cell_length_a   5.77033137
_cell_length_b   5.77033137
_cell_length_c   4.78613400
_cell_angle_alpha   73.04296177
_cell_angle_beta   73.04296177
_cell_angle_gamma   58.81740814
_symmetry_Int_Tables_number   1
_chemical_formula_structural   Mg2Ni3O8
_chemical_formula_sum   'Mg2 Ni3 O8'
_cell_volume   128.47011161
_cell_formula_units_Z   1
loop_
 _symmetry_equiv_pos_site_id
 _symmetry_equiv_pos_as_xyz
  1  'x, y, z'
loop_
 _atom_site_type_symbol
 _atom_site_label
 _atom_site_symmetry_multiplicity
 _atom_site_fract_x
 _atom_site_fract_y
 _atom_site_fract_z
 _atom_site_occupancy
  Mg  Mg0  1  0.71980200  0.71980200  0.35062800  1
  Mg  Mg1  1  0.28019800  0.28019800  0.64937200  1
  Ni  Ni2  1  0.00000000  0.00000000  0.50000000  1
  Ni  Ni3  1  0.74516700  0.25483300  0.00000000  1
  Ni  Ni4  1  0.25483300  0.74516700  0.00000000  1
  O  O5  1  0.39025200  0.39025200  0.94558100  1
  O  O6  1  0.60974800  0.60974800  0.05441900  1
  O  O7  1  0.89689700  0.89689700  0.90944300  1
  O  O8  1  0.10310300  0.10310300  0.09055700  1
  O  O9  1  0.33774100  0.88785100  0.60278400  1
  O  O10  1  0.88785100  0.33774100  0.60278400  1
  O  O11  1  0.11214900  0.66225900  0.39721600  1
  O  O12  1  0.66225900  0.11214900  0.39721600  1
