# generated using pymatgen
data_MgFeO2
_symmetry_space_group_name_H-M   'P 1'
_cell_length_a   2.97602622
_cell_length_b   8.42931165
_cell_length_c   8.53026064
_cell_angle_alpha   85.38826829
_cell_angle_beta   79.75006312
_cell_angle_gamma   79.84282155
_symmetry_Int_Tables_number   1
_chemical_formula_structural   MgFeO2
_chemical_formula_sum   'Mg4 Fe4 O8'
_cell_volume   207.00797397
_cell_formula_units_Z   4
loop_
 _symmetry_equiv_pos_site_id
 _symmetry_equiv_pos_as_xyz
  1  'x, y, z'
loop_
 _atom_site_type_symbol
 _atom_site_label
 _atom_site_symmetry_multiplicity
 _atom_site_fract_x
 _atom_site_fract_y
 _atom_site_fract_z
 _atom_site_occupancy
  Mg  Mg0  1  0.35765600  0.06333400  0.23076800  1
  Mg  Mg1  1  0.63795300  0.91674400  0.79699700  1
  Mg  Mg2  1  0.07995800  0.70685900  0.13498100  1
  Mg  Mg3  1  0.91641900  0.27395900  0.89290500  1
  Fe  Fe4  1  0.62285400  0.18413900  0.56770900  1
  Fe  Fe5  1  0.20290700  0.37795200  0.21580900  1
  Fe  Fe6  1  0.79370300  0.60252300  0.81122900  1
  Fe  Fe7  1  0.37535700  0.79286700  0.45869300  1
  O  O8  1  0.81484600  0.75593000  0.61295800  1
  O  O9  1  0.36528500  0.42386700  0.84666500  1
  O  O10  1  0.62786200  0.55815600  0.18648600  1
  O  O11  1  0.18217700  0.22232500  0.41462800  1
  O  O12  1  0.07944300  0.09606000  0.73757400  1
  O  O13  1  0.84722900  0.19815900  0.11727900  1
  O  O14  1  0.91664400  0.88410900  0.29014700  1
  O  O15  1  0.14798300  0.78235500  0.91078600  1
