# generated using pymatgen
data_VMoO5
_symmetry_space_group_name_H-M   'P 1'
_cell_length_a   18.97880735
_cell_length_b   6.15856561
_cell_length_c   6.16320521
_cell_angle_alpha   100.42219054
_cell_angle_beta   107.93672776
_cell_angle_gamma   50.79590184
_symmetry_Int_Tables_number   1
_chemical_formula_structural   VMoO5
_chemical_formula_sum   'V5 Mo5 O25'
_cell_volume   530.99027985
_cell_formula_units_Z   5
loop_
 _symmetry_equiv_pos_site_id
 _symmetry_equiv_pos_as_xyz
  1  'x, y, z'
loop_
 _atom_site_type_symbol
 _atom_site_label
 _atom_site_symmetry_multiplicity
 _atom_site_fract_x
 _atom_site_fract_y
 _atom_site_fract_z
 _atom_site_occupancy
  V  V0  1  0.02022600  0.19607900  0.59912400  1
  V  V1  1  0.21769300  0.19211600  0.59853700  1
  V  V2  1  0.40663900  0.95182300  0.98771000  1
  V  V3  1  0.60596000  0.95387000  0.99060200  1
  V  V4  1  0.80559500  0.94833700  0.99027700  1
  Mo  Mo5  1  0.00507700  0.96555300  0.00116100  1
  Mo  Mo6  1  0.20624700  0.96608800  0.99691000  1
  Mo  Mo7  1  0.41602400  0.18457700  0.59399800  1
  Mo  Mo8  1  0.61779600  0.18687500  0.59499900  1
  Mo  Mo9  1  0.81894900  0.18731300  0.59174700  1
  O  O10  1  0.01323400  0.08051600  0.31446300  1
  O  O11  1  0.07341300  0.08571000  0.93341200  1
  O  O12  1  0.14270100  0.10168100  0.66152800  1
  O  O13  1  0.08169700  0.60840900  0.01706500  1
  O  O14  1  0.21309600  0.08187600  0.31104700  1
  O  O15  1  0.14802600  0.53085800  0.58572700  1
  O  O16  1  0.27567400  0.07587800  0.92807100  1
  O  O17  1  0.34271100  0.09372900  0.65513700  1
  O  O18  1  0.27965500  0.60881700  0.00904200  1
  O  O19  1  0.41333800  0.07549400  0.30144700  1
  O  O20  1  0.34167500  0.54252100  0.57625200  1
  O  O21  1  0.47809100  0.05954700  0.92511200  1
  O  O22  1  0.54409600  0.09224400  0.65614500  1
  O  O23  1  0.47527200  0.61114500  0.99850700  1
  O  O24  1  0.61303400  0.07534600  0.30262600  1
  O  O25  1  0.54394200  0.54489100  0.57849300  1
  O  O26  1  0.67798500  0.06057500  0.92630500  1
  O  O27  1  0.74582400  0.08890300  0.65731800  1
  O  O28  1  0.67745600  0.61353200  0.00369000  1
  O  O29  1  0.81242600  0.07582300  0.30147900  1
  O  O30  1  0.74275000  0.54477200  0.57218400  1
  O  O31  1  0.87629900  0.06683600  0.93164500  1
  O  O32  1  0.94440400  0.09621500  0.66147900  1
  O  O33  1  0.87704700  0.60713500  0.00369900  1
  O  O34  1  0.94794700  0.53491700  0.58306300  1
