# generated using pymatgen
data_Ca7(TiS2)8
_symmetry_space_group_name_H-M   'P 1'
_cell_length_a   7.22967817
_cell_length_b   7.22967817
_cell_length_c   13.22446300
_cell_angle_alpha   90.00000000
_cell_angle_beta   90.00000000
_cell_angle_gamma   120.00000151
_symmetry_Int_Tables_number   1
_chemical_formula_structural   Ca7(TiS2)8
_chemical_formula_sum   'Ca7 Ti8 S16'
_cell_volume   598.61362901
_cell_formula_units_Z   1
loop_
 _symmetry_equiv_pos_site_id
 _symmetry_equiv_pos_as_xyz
  1  'x, y, z'
loop_
 _atom_site_type_symbol
 _atom_site_label
 _atom_site_symmetry_multiplicity
 _atom_site_fract_x
 _atom_site_fract_y
 _atom_site_fract_z
 _atom_site_occupancy
  Ca  Ca0  1  0.00000000  0.00000000  0.00000000  1
  Ca  Ca1  1  0.00000000  0.50000000  0.00000000  1
  Ca  Ca2  1  0.00000000  0.50000000  0.50000000  1
  Ca  Ca3  1  0.50000000  0.00000000  0.00000000  1
  Ca  Ca4  1  0.50000000  0.00000000  0.50000000  1
  Ca  Ca5  1  0.50000000  0.50000000  0.00000000  1
  Ca  Ca6  1  0.50000000  0.50000000  0.50000000  1
  Ti  Ti7  1  0.00000000  0.00000000  0.74703800  1
  Ti  Ti8  1  0.00000000  0.00000000  0.25296200  1
  Ti  Ti9  1  0.96357400  0.48178700  0.75063500  1
  Ti  Ti10  1  0.03642600  0.51821300  0.24936500  1
  Ti  Ti11  1  0.51821300  0.03642600  0.75063500  1
  Ti  Ti12  1  0.48178700  0.96357400  0.24936500  1
  Ti  Ti13  1  0.51821300  0.48178700  0.75063500  1
  Ti  Ti14  1  0.48178700  0.51821300  0.24936500  1
  S  S15  1  0.33307700  0.16653900  0.14231400  1
  S  S16  1  0.33496700  0.16748300  0.63971500  1
  S  S17  1  0.33333300  0.66666700  0.13109600  1
  S  S18  1  0.33333300  0.66666700  0.64718100  1
  S  S19  1  0.83346100  0.16653900  0.14231400  1
  S  S20  1  0.83251700  0.16748300  0.63971500  1
  S  S21  1  0.83346100  0.66692300  0.14231400  1
  S  S22  1  0.83251700  0.66503300  0.63971500  1
  S  S23  1  0.16653900  0.33307700  0.85768600  1
  S  S24  1  0.16748300  0.33496700  0.36028500  1
  S  S25  1  0.16653900  0.83346100  0.85768600  1
  S  S26  1  0.16748300  0.83251700  0.36028500  1
  S  S27  1  0.66666700  0.33333300  0.86890400  1
  S  S28  1  0.66666700  0.33333300  0.35281900  1
  S  S29  1  0.66692300  0.83346100  0.85768600  1
  S  S30  1  0.66503300  0.83251700  0.36028500  1
