# generated using pymatgen
data_Sr4MgCo2(SO3)2
_symmetry_space_group_name_H-M   'P 1'
_cell_length_a   3.88225800
_cell_length_b   3.88225800
_cell_length_c   16.30138400
_cell_angle_alpha   90.00000000
_cell_angle_beta   90.00000000
_cell_angle_gamma   90.00000000
_symmetry_Int_Tables_number   1
_chemical_formula_structural   Sr4MgCo2(SO3)2
_chemical_formula_sum   'Sr4 Mg1 Co2 S2 O6'
_cell_volume   245.69327256
_cell_formula_units_Z   1
loop_
 _symmetry_equiv_pos_site_id
 _symmetry_equiv_pos_as_xyz
  1  'x, y, z'
loop_
 _atom_site_type_symbol
 _atom_site_label
 _atom_site_symmetry_multiplicity
 _atom_site_fract_x
 _atom_site_fract_y
 _atom_site_fract_z
 _atom_site_occupancy
  Sr  Sr0  1  0.00000000  0.50000000  0.19156500  1
  Sr  Sr1  1  0.50000000  0.00000000  0.80843500  1
  Sr  Sr2  1  0.00000000  0.50000000  0.41495500  1
  Sr  Sr3  1  0.50000000  0.00000000  0.58504500  1
  Mg  Mg4  1  0.50000000  0.50000000  0.00000000  1
  Co  Co5  1  0.50000000  0.00000000  0.31295900  1
  Co  Co6  1  0.00000000  0.50000000  0.68704100  1
  S  S7  1  0.50000000  0.00000000  0.09571000  1
  S  S8  1  0.00000000  0.50000000  0.90429000  1
  O  O9  1  0.00000000  0.00000000  0.29334400  1
  O  O10  1  0.50000000  0.50000000  0.29294600  1
  O  O11  1  0.50000000  0.50000000  0.70705400  1
  O  O12  1  0.00000000  0.00000000  0.70665600  1
  O  O13  1  0.50000000  0.00000000  0.43199600  1
  O  O14  1  0.00000000  0.50000000  0.56800400  1
