# generated using pymatgen
data_Ba3Al2(Sb2O7)3
_symmetry_space_group_name_H-M   'P 1'
_cell_length_a   7.77970152
_cell_length_b   7.77970152
_cell_length_c   14.33733459
_cell_angle_alpha   80.83296045
_cell_angle_beta   80.83296045
_cell_angle_gamma   39.08333190
_symmetry_Int_Tables_number   1
_chemical_formula_structural   Ba3Al2(Sb2O7)3
_chemical_formula_sum   'Ba3 Al2 Sb6 O21'
_cell_volume   539.19874743
_cell_formula_units_Z   1
loop_
 _symmetry_equiv_pos_site_id
 _symmetry_equiv_pos_as_xyz
  1  'x, y, z'
loop_
 _atom_site_type_symbol
 _atom_site_label
 _atom_site_symmetry_multiplicity
 _atom_site_fract_x
 _atom_site_fract_y
 _atom_site_fract_z
 _atom_site_occupancy
  Ba  Ba0  1  0.58371000  0.08159400  0.84297600  1
  Ba  Ba1  1  0.91840600  0.41629000  0.15702400  1
  Ba  Ba2  1  0.46699000  0.53301000  0.50000000  1
  Al  Al3  1  0.68826400  0.87164700  0.33809800  1
  Al  Al4  1  0.12835300  0.31173600  0.66190200  1
  Sb  Sb5  1  0.91734900  0.28216200  0.90685100  1
  Sb  Sb6  1  0.20142600  0.63238600  0.23085900  1
  Sb  Sb7  1  0.71701900  0.87724700  0.57901200  1
  Sb  Sb8  1  0.36761400  0.79857400  0.76914100  1
  Sb  Sb9  1  0.71783800  0.08265100  0.09314900  1
  Sb  Sb10  1  0.12275300  0.28298100  0.42098800  1
  O  O11  1  0.51326500  0.46966900  0.75065000  1
  O  O12  1  0.81851000  0.82440100  0.20921500  1
  O  O13  1  0.11493000  0.04733900  0.45232000  1
  O  O14  1  0.74214700  0.88879400  0.01696100  1
  O  O15  1  0.34114600  0.16292900  0.29978600  1
  O  O16  1  0.31611300  0.96052200  0.64075900  1
  O  O17  1  0.04074200  0.96941900  0.85698200  1
  O  O18  1  0.32892800  0.39199800  0.13415700  1
  O  O19  1  0.77282900  0.58093600  0.36188400  1
  O  O20  1  0.60800200  0.67107200  0.86584300  1
  O  O21  1  0.03058100  0.95925800  0.14301800  1
  O  O22  1  0.41906400  0.22717100  0.63811600  1
  O  O23  1  0.83707100  0.65885400  0.70021400  1
  O  O24  1  0.11120600  0.25785300  0.98303900  1
  O  O25  1  0.03947800  0.68388700  0.35924100  1
  O  O26  1  0.96105200  0.47613000  0.54365400  1
  O  O27  1  0.65942700  0.34057300  0.00000000  1
  O  O28  1  0.52387000  0.03894800  0.45634600  1
  O  O29  1  0.17559900  0.18149000  0.79078500  1
  O  O30  1  0.53033100  0.48673500  0.24935000  1
  O  O31  1  0.95266100  0.88507000  0.54768000  1
