# generated using pymatgen
data_ReSbO6
_symmetry_space_group_name_H-M   'P 1'
_cell_length_a   7.38235000
_cell_length_b   5.21642900
_cell_length_c   5.36350923
_cell_angle_alpha   89.98314299
_cell_angle_beta   90.00000000
_cell_angle_gamma   90.00000000
_symmetry_Int_Tables_number   1
_chemical_formula_structural   ReSbO6
_chemical_formula_sum   'Re2 Sb2 O12'
_cell_volume   206.54607466
_cell_formula_units_Z   2
loop_
 _symmetry_equiv_pos_site_id
 _symmetry_equiv_pos_as_xyz
  1  'x, y, z'
loop_
 _atom_site_type_symbol
 _atom_site_label
 _atom_site_symmetry_multiplicity
 _atom_site_fract_x
 _atom_site_fract_y
 _atom_site_fract_z
 _atom_site_occupancy
  Re  Re0  1  0.50000000  0.50000000  0.00000000  1
  Re  Re1  1  0.00000000  0.50000000  0.00000000  1
  Sb  Sb2  1  0.50000000  0.00000000  0.50000000  1
  Sb  Sb3  1  0.00000000  0.00000000  0.50000000  1
  O  O4  1  0.54979400  0.68928200  0.28757300  1
  O  O5  1  0.95044800  0.79274300  0.80905800  1
  O  O6  1  0.04979400  0.31071800  0.71242700  1
  O  O7  1  0.45044800  0.20725700  0.19094200  1
  O  O8  1  0.54955200  0.79274300  0.80905800  1
  O  O9  1  0.04955200  0.20725700  0.19094200  1
  O  O10  1  0.75000000  0.11999200  0.47702300  1
  O  O11  1  0.95020600  0.68928200  0.28757300  1
  O  O12  1  0.25000000  0.58526400  0.01628800  1
  O  O13  1  0.45020600  0.31071800  0.71242700  1
  O  O14  1  0.25000000  0.88000800  0.52297700  1
  O  O15  1  0.75000000  0.41473600  0.98371200  1
