# generated using pymatgen
data_YbV4O8
_symmetry_space_group_name_H-M   'P 1'
_cell_length_a   6.62718454
_cell_length_b   8.64300715
_cell_length_c   9.21960010
_cell_angle_alpha   74.72088137
_cell_angle_beta   120.94318313
_cell_angle_gamma   106.01924089
_symmetry_Int_Tables_number   1
_chemical_formula_structural   YbV4O8
_chemical_formula_sum   'Yb2 V8 O16'
_cell_volume   430.57712606
_cell_formula_units_Z   2
loop_
 _symmetry_equiv_pos_site_id
 _symmetry_equiv_pos_as_xyz
  1  'x, y, z'
loop_
 _atom_site_type_symbol
 _atom_site_label
 _atom_site_symmetry_multiplicity
 _atom_site_fract_x
 _atom_site_fract_y
 _atom_site_fract_z
 _atom_site_occupancy
  Yb  Yb0  1  0.26952500  0.75497300  0.14812600  1
  Yb  Yb1  1  0.73047500  0.24502700  0.85187400  1
  V  V2  1  0.18275200  0.50808200  0.85407100  1
  V  V3  1  0.21670200  0.04106200  0.64903800  1
  V  V4  1  0.18238000  0.42917500  0.49293700  1
  V  V5  1  0.35734100  0.16051700  0.02394900  1
  V  V6  1  0.64265900  0.83948300  0.97605100  1
  V  V7  1  0.81762000  0.57082500  0.50706300  1
  V  V8  1  0.78329800  0.95893800  0.35096200  1
  V  V9  1  0.81724800  0.49191800  0.14592900  1
  O  O10  1  0.14372200  0.28795600  0.97137500  1
  O  O11  1  0.21499000  0.02992500  0.85839000  1
  O  O12  1  0.38578900  0.68223600  0.98513600  1
  O  O13  1  0.35881300  0.25796500  0.61262400  1
  O  O14  1  0.17511700  0.55180400  0.63805200  1
  O  O15  1  0.10654000  0.89596400  0.51179200  1
  O  O16  1  0.44876100  0.01445400  0.21339400  1
  O  O17  1  0.16172100  0.50681300  0.27275200  1
  O  O18  1  0.83827900  0.49318700  0.72724800  1
  O  O19  1  0.55123900  0.98554600  0.78660600  1
  O  O20  1  0.89346000  0.10403600  0.48820800  1
  O  O21  1  0.82488300  0.44819600  0.36194800  1
  O  O22  1  0.64118700  0.74203500  0.38737600  1
  O  O23  1  0.61421100  0.31776400  0.01486400  1
  O  O24  1  0.78501000  0.97007500  0.14161000  1
  O  O25  1  0.85627800  0.71204400  0.02862500  1
