# generated using pymatgen
data_Sr4MgCr2(SO3)2
_symmetry_space_group_name_H-M   'P 1'
_cell_length_a   3.94686200
_cell_length_b   3.94686200
_cell_length_c   15.91827800
_cell_angle_alpha   90.00000000
_cell_angle_beta   90.00000000
_cell_angle_gamma   90.00000000
_symmetry_Int_Tables_number   1
_chemical_formula_structural   Sr4MgCr2(SO3)2
_chemical_formula_sum   'Sr4 Mg1 Cr2 S2 O6'
_cell_volume   247.97047195
_cell_formula_units_Z   1
loop_
 _symmetry_equiv_pos_site_id
 _symmetry_equiv_pos_as_xyz
  1  'x, y, z'
loop_
 _atom_site_type_symbol
 _atom_site_label
 _atom_site_symmetry_multiplicity
 _atom_site_fract_x
 _atom_site_fract_y
 _atom_site_fract_z
 _atom_site_occupancy
  Sr  Sr0  1  0.50000000  0.00000000  0.19128200  1
  Sr  Sr1  1  0.00000000  0.50000000  0.80871800  1
  Sr  Sr2  1  0.50000000  0.00000000  0.41436200  1
  Sr  Sr3  1  0.00000000  0.50000000  0.58563800  1
  Mg  Mg4  1  0.00000000  0.00000000  0.00000000  1
  Cr  Cr5  1  0.00000000  0.50000000  0.31051000  1
  Cr  Cr6  1  0.50000000  0.00000000  0.68949000  1
  S  S7  1  0.00000000  0.50000000  0.09666700  1
  S  S8  1  0.50000000  0.00000000  0.90333300  1
  O  O9  1  0.50000000  0.50000000  0.29257800  1
  O  O10  1  0.00000000  0.00000000  0.29169800  1
  O  O11  1  0.00000000  0.00000000  0.70830200  1
  O  O12  1  0.50000000  0.50000000  0.70742200  1
  O  O13  1  0.00000000  0.50000000  0.43138100  1
  O  O14  1  0.50000000  0.00000000  0.56861900  1
