# generated using pymatgen
data_Y(CoO2)2
_symmetry_space_group_name_H-M   'P 1'
_cell_length_a   6.14903746
_cell_length_b   6.14903746
_cell_length_c   6.14903729
_cell_angle_alpha   59.66934191
_cell_angle_beta   59.66934191
_cell_angle_gamma   59.66934562
_symmetry_Int_Tables_number   1
_chemical_formula_structural   Y(CoO2)2
_chemical_formula_sum   'Y2 Co4 O8'
_cell_volume   163.16671113
_cell_formula_units_Z   2
loop_
 _symmetry_equiv_pos_site_id
 _symmetry_equiv_pos_as_xyz
  1  'x, y, z'
loop_
 _atom_site_type_symbol
 _atom_site_label
 _atom_site_symmetry_multiplicity
 _atom_site_fract_x
 _atom_site_fract_y
 _atom_site_fract_z
 _atom_site_occupancy
  Y  Y0  1  0.62090100  0.62090100  0.62090100  1
  Y  Y1  1  0.37909900  0.37909900  0.37909900  1
  Co  Co2  1  0.50000000  0.00000000  0.00000000  1
  Co  Co3  1  0.00000000  0.00000000  0.00000000  1
  Co  Co4  1  0.00000000  0.50000000  0.00000000  1
  Co  Co5  1  0.00000000  0.00000000  0.50000000  1
  O  O6  1  0.75797300  0.19538600  0.75797300  1
  O  O7  1  0.24202700  0.24202700  0.80461400  1
  O  O8  1  0.80461400  0.24202700  0.24202700  1
  O  O9  1  0.23449700  0.23449700  0.23449700  1
  O  O10  1  0.75797300  0.75797300  0.19538600  1
  O  O11  1  0.24202700  0.80461400  0.24202700  1
  O  O12  1  0.19538600  0.75797300  0.75797300  1
  O  O13  1  0.76550300  0.76550300  0.76550300  1
