# generated using pymatgen
data_Y2Cr3O9
_symmetry_space_group_name_H-M   'P 1'
_cell_length_a   5.25416487
_cell_length_b   16.32470503
_cell_length_c   7.55172796
_cell_angle_alpha   89.88536860
_cell_angle_beta   89.89322552
_cell_angle_gamma   90.16524700
_symmetry_Int_Tables_number   1
_chemical_formula_structural   Y2Cr3O9
_chemical_formula_sum   'Y8 Cr12 O36'
_cell_volume   647.72691213
_cell_formula_units_Z   4
loop_
 _symmetry_equiv_pos_site_id
 _symmetry_equiv_pos_as_xyz
  1  'x, y, z'
loop_
 _atom_site_type_symbol
 _atom_site_label
 _atom_site_symmetry_multiplicity
 _atom_site_fract_x
 _atom_site_fract_y
 _atom_site_fract_z
 _atom_site_occupancy
  Y  Y0  1  0.01175000  0.64983800  0.75231600  1
  Y  Y1  1  0.01911900  0.97875200  0.75482800  1
  Y  Y2  1  0.51077600  0.18398900  0.25050900  1
  Y  Y3  1  0.51707500  0.85359600  0.24492000  1
  Y  Y4  1  0.48887600  0.14946600  0.74979300  1
  Y  Y5  1  0.48302800  0.47987200  0.75142400  1
  Y  Y6  1  0.97995700  0.35454800  0.24788100  1
  Y  Y7  1  0.98830000  0.68340900  0.24747900  1
  Cr  Cr8  1  0.00047700  0.16636300  0.49991500  1
  Cr  Cr9  1  0.99052200  0.50162800  0.49615900  1
  Cr  Cr10  1  0.01167400  0.83080200  0.50374600  1
  Cr  Cr11  1  0.51156900  0.00079300  0.49477900  1
  Cr  Cr12  1  0.49236200  0.33285200  0.50868900  1
  Cr  Cr13  1  0.50042100  0.66656900  0.49981500  1
  Cr  Cr14  1  0.50533000  0.00076200  0.00955300  1
  Cr  Cr15  1  0.49034800  0.33275200  0.99413300  1
  Cr  Cr16  1  0.49955300  0.66665100  0.99977500  1
  Cr  Cr17  1  0.99919900  0.16672300  0.99982200  1
  Cr  Cr18  1  0.99436200  0.50163200  0.00951700  1
  Cr  Cr19  1  0.00394300  0.83204400  0.98985900  1
  O  O20  1  0.69201100  0.10328200  0.46600800  1
  O  O21  1  0.72322500  0.42907200  0.45906100  1
  O  O22  1  0.71449400  0.76468900  0.43514600  1
  O  O23  1  0.21637000  0.06913500  0.56345600  1
  O  O24  1  0.21989500  0.40637000  0.53502100  1
  O  O25  1  0.18326400  0.73157400  0.53383300  1
  O  O26  1  0.78284300  0.26382400  0.06255200  1
  O  O27  1  0.81153800  0.60425700  0.03326300  1
  O  O28  1  0.78472600  0.93058500  0.03489300  1
  O  O29  1  0.30616700  0.22931600  0.96686900  1
  O  O30  1  0.28407400  0.56887100  0.93849000  1
  O  O31  1  0.28676700  0.90287000  0.96439900  1
  O  O32  1  0.30624600  0.22833100  0.53362000  1
  O  O33  1  0.28616100  0.56936800  0.56467800  1
  O  O34  1  0.27477400  0.90584700  0.54074700  1
  O  O35  1  0.78244800  0.26413800  0.43775600  1
  O  O36  1  0.81888200  0.60206800  0.46681000  1
  O  O37  1  0.77450500  0.92697800  0.46370100  1
  O  O38  1  0.21736500  0.06962600  0.93805300  1
  O  O39  1  0.22098900  0.40357000  0.96426000  1
  O  O40  1  0.18877600  0.72881500  0.96708500  1
  O  O41  1  0.69564100  0.10528100  0.03349200  1
  O  O42  1  0.71400200  0.42902000  0.03590500  1
  O  O43  1  0.71645400  0.76410100  0.06133600  1
  O  O44  1  0.08273900  0.15894300  0.25090900  1
  O  O45  1  0.07836500  0.49306500  0.24353100  1
  O  O46  1  0.10279200  0.82184000  0.24806100  1
  O  O47  1  0.60286700  0.01211600  0.75097500  1
  O  O48  1  0.57224000  0.33807000  0.74631500  1
  O  O49  1  0.58331900  0.67337400  0.75562000  1
  O  O50  1  0.39687100  0.32136200  0.25114900  1
  O  O51  1  0.41711600  0.65987400  0.24445400  1
  O  O52  1  0.42694400  0.99495700  0.24660700  1
  O  O53  1  0.91661800  0.17442200  0.74908500  1
  O  O54  1  0.89751900  0.51136900  0.75249000  1
  O  O55  1  0.92235300  0.83991100  0.75545700  1
