# generated using pymatgen
data_Mo3Se2ClO8
_symmetry_space_group_name_H-M   'P 1'
_cell_length_a   7.19088300
_cell_length_b   8.16955486
_cell_length_c   10.31618213
_cell_angle_alpha   89.77716516
_cell_angle_beta   89.96401026
_cell_angle_gamma   87.58517793
_symmetry_Int_Tables_number   1
_chemical_formula_structural   Mo3Se2ClO8
_chemical_formula_sum   'Mo6 Se4 Cl2 O16'
_cell_volume   605.49483821
_cell_formula_units_Z   2
loop_
 _symmetry_equiv_pos_site_id
 _symmetry_equiv_pos_as_xyz
  1  'x, y, z'
loop_
 _atom_site_type_symbol
 _atom_site_label
 _atom_site_symmetry_multiplicity
 _atom_site_fract_x
 _atom_site_fract_y
 _atom_site_fract_z
 _atom_site_occupancy
  Mo  Mo0  1  0.49777200  0.99911300  0.00050100  1
  Mo  Mo1  1  0.50243700  0.00075600  0.50052600  1
  Mo  Mo2  1  0.99752200  0.99962100  0.99924500  1
  Mo  Mo3  1  0.28099100  0.80292000  0.75068400  1
  Mo  Mo4  1  0.71881800  0.19712100  0.24888600  1
  Mo  Mo5  1  0.00270200  0.00055800  0.49913900  1
  Se  Se6  1  0.25415600  0.64140200  0.05247400  1
  Se  Se7  1  0.73901800  0.35753200  0.94668300  1
  Se  Se8  1  0.26090000  0.64230500  0.44948100  1
  Se  Se9  1  0.74580200  0.35888800  0.54967500  1
  Cl  Cl10  1  0.61240400  0.88503200  0.75551000  1
  Cl  Cl11  1  0.38754100  0.11447100  0.25019000  1
  O  O12  1  0.75464200  0.02304000  0.09648500  1
  O  O13  1  0.73630400  0.38712900  0.11341900  1
  O  O14  1  0.26196500  0.61298300  0.61612200  1
  O  O15  1  0.43749800  0.76706800  0.07827300  1
  O  O16  1  0.56225000  0.23273300  0.57597500  1
  O  O17  1  0.94679800  0.23552600  0.57087700  1
  O  O18  1  0.24120200  0.97606000  0.90332200  1
  O  O19  1  0.05286300  0.76441900  0.07249000  1
  O  O20  1  0.06079100  0.76643100  0.42640700  1
  O  O21  1  0.94000900  0.23414400  0.92537700  1
  O  O22  1  0.75840500  0.02417800  0.40338800  1
  O  O23  1  0.24601400  0.97681800  0.59633300  1
  O  O24  1  0.55500400  0.23218700  0.92348200  1
  O  O25  1  0.44573600  0.76753100  0.42626100  1
  O  O26  1  0.26027100  0.61268000  0.88572700  1
  O  O27  1  0.74019100  0.38735200  0.38306700  1
