# generated using pymatgen
data_AlV2O4
_symmetry_space_group_name_H-M   'P 1'
_cell_length_a   5.93445948
_cell_length_b   5.93445948
_cell_length_c   5.93445948
_cell_angle_alpha   120.31384030
_cell_angle_beta   118.69854356
_cell_angle_gamma   90.86305775
_symmetry_Int_Tables_number   1
_chemical_formula_structural   AlV2O4
_chemical_formula_sum   'Al2 V4 O8'
_cell_volume   148.83283528
_cell_formula_units_Z   2
loop_
 _symmetry_equiv_pos_site_id
 _symmetry_equiv_pos_as_xyz
  1  'x, y, z'
loop_
 _atom_site_type_symbol
 _atom_site_label
 _atom_site_symmetry_multiplicity
 _atom_site_fract_x
 _atom_site_fract_y
 _atom_site_fract_z
 _atom_site_occupancy
  Al  Al0  1  0.00000000  0.00000000  0.50000000  1
  Al  Al1  1  0.00000000  0.50000000  0.00000000  1
  V  V2  1  0.50000000  0.50000000  0.00000000  1
  V  V3  1  0.50000000  0.00000000  0.00000000  1
  V  V4  1  0.00000000  0.50000000  0.50000000  1
  V  V5  1  0.50000000  0.50000000  0.50000000  1
  O  O6  1  0.23282700  0.25819400  0.52536700  1
  O  O7  1  0.77446400  0.74648600  0.02797800  1
  O  O8  1  0.23282700  0.70745900  0.97463300  1
  O  O9  1  0.78149200  0.25351400  0.52797800  1
  O  O10  1  0.76717300  0.29254100  0.02536700  1
  O  O11  1  0.22553600  0.25351400  0.97202200  1
  O  O12  1  0.21850800  0.74648600  0.47202200  1
  O  O13  1  0.76717300  0.74180600  0.47463300  1
