# generated using pymatgen
data_Ca(SnO2)2
_symmetry_space_group_name_H-M   'P 1'
_cell_length_a   6.90943178
_cell_length_b   6.90943178
_cell_length_c   6.90943178
_cell_angle_alpha   122.54641815
_cell_angle_beta   121.47167803
_cell_angle_gamma   86.55675842
_symmetry_Int_Tables_number   1
_chemical_formula_structural   Ca(SnO2)2
_chemical_formula_sum   'Ca2 Sn4 O8'
_cell_volume   225.69151706
_cell_formula_units_Z   2
loop_
 _symmetry_equiv_pos_site_id
 _symmetry_equiv_pos_as_xyz
  1  'x, y, z'
loop_
 _atom_site_type_symbol
 _atom_site_label
 _atom_site_symmetry_multiplicity
 _atom_site_fract_x
 _atom_site_fract_y
 _atom_site_fract_z
 _atom_site_occupancy
  Ca  Ca0  1  0.35905200  0.60905200  0.75000000  1
  Ca  Ca1  1  0.64094800  0.39094800  0.25000000  1
  Sn  Sn2  1  0.00000000  0.50000000  0.00000000  1
  Sn  Sn3  1  0.00000000  0.00000000  0.50000000  1
  Sn  Sn4  1  0.50000000  0.00000000  0.50000000  1
  Sn  Sn5  1  0.00000000  0.00000000  0.00000000  1
  O  O6  1  0.79452100  0.30124000  0.00671900  1
  O  O7  1  0.21176700  0.24884800  0.96291900  1
  O  O8  1  0.78593000  0.24884800  0.53708100  1
  O  O9  1  0.20547900  0.21219800  0.50671900  1
  O  O10  1  0.21407000  0.75115200  0.46291900  1
  O  O11  1  0.78823300  0.75115200  0.03708100  1
  O  O12  1  0.79452100  0.78780200  0.49328100  1
  O  O13  1  0.20547900  0.69876000  0.99328100  1
