# generated using pymatgen
data_BaCaBiF7
_symmetry_space_group_name_H-M   'P 1'
_cell_length_a   10.81071700
_cell_length_b   5.99757100
_cell_length_c   10.00127832
_cell_angle_alpha   87.34517385
_cell_angle_beta   90.00000000
_cell_angle_gamma   90.00000000
_symmetry_Int_Tables_number   1
_chemical_formula_structural   BaCaBiF7
_chemical_formula_sum   'Ba4 Ca4 Bi4 F28'
_cell_volume   647.76731915
_cell_formula_units_Z   4
loop_
 _symmetry_equiv_pos_site_id
 _symmetry_equiv_pos_as_xyz
  1  'x, y, z'
loop_
 _atom_site_type_symbol
 _atom_site_label
 _atom_site_symmetry_multiplicity
 _atom_site_fract_x
 _atom_site_fract_y
 _atom_site_fract_z
 _atom_site_occupancy
  Ba  Ba0  1  0.31163700  0.75244200  0.49880300  1
  Ba  Ba1  1  0.81163700  0.24755800  0.00119700  1
  Ba  Ba2  1  0.68836300  0.24755800  0.50119700  1
  Ba  Ba3  1  0.18836300  0.75244200  0.99880300  1
  Ca  Ca4  1  0.40464600  0.28453900  0.79518300  1
  Ca  Ca5  1  0.90464600  0.71546100  0.70481700  1
  Ca  Ca6  1  0.09535400  0.28453900  0.29518300  1
  Ca  Ca7  1  0.59535400  0.71546100  0.20481700  1
  Bi  Bi8  1  0.59242100  0.78237800  0.80654700  1
  Bi  Bi9  1  0.40757900  0.21762200  0.19345300  1
  Bi  Bi10  1  0.90757900  0.78237800  0.30654700  1
  Bi  Bi11  1  0.09242100  0.21762200  0.69345300  1
  F  F12  1  0.43049000  0.87981400  0.10279600  1
  F  F13  1  0.07916600  0.61588100  0.40086400  1
  F  F14  1  0.73864600  0.50118300  0.77824200  1
  F  F15  1  0.26135400  0.49881700  0.22175800  1
  F  F16  1  0.50571200  0.97715900  0.35648100  1
  F  F17  1  0.78877500  0.76182800  0.49987700  1
  F  F18  1  0.76129400  0.99536000  0.73087300  1
  F  F19  1  0.00571200  0.02284100  0.14351900  1
  F  F20  1  0.42083400  0.61588100  0.90086400  1
  F  F21  1  0.23864600  0.49881700  0.72175800  1
  F  F22  1  0.06951000  0.87981400  0.60279600  1
  F  F23  1  0.56951000  0.12018600  0.89720400  1
  F  F24  1  0.26129400  0.00464000  0.76912700  1
  F  F25  1  0.00755900  0.47655800  0.85686500  1
  F  F26  1  0.49428800  0.02284100  0.64351900  1
  F  F27  1  0.99428800  0.97715900  0.85648100  1
  F  F28  1  0.23870600  0.00464000  0.26912700  1
  F  F29  1  0.93049000  0.12018600  0.39720400  1
  F  F30  1  0.50755900  0.52344200  0.64313500  1
  F  F31  1  0.92083400  0.38411900  0.59913600  1
  F  F32  1  0.99244100  0.52344200  0.14313500  1
  F  F33  1  0.73870600  0.99536000  0.23087300  1
  F  F34  1  0.49244100  0.47655800  0.35686500  1
  F  F35  1  0.28877500  0.23817200  0.00012300  1
  F  F36  1  0.21122500  0.23817200  0.50012300  1
  F  F37  1  0.71122500  0.76182800  0.99987700  1
  F  F38  1  0.57916600  0.38411900  0.09913600  1
  F  F39  1  0.76135400  0.50118300  0.27824200  1
