# generated using pymatgen
data_Ba2Ca3Tl2(SnO3)4
_symmetry_space_group_name_H-M   'P 1'
_cell_length_a   23.59239985
_cell_length_b   23.59239985
_cell_length_c   23.59239985
_cell_angle_alpha   169.78834425
_cell_angle_beta   169.78834425
_cell_angle_gamma   14.46070591
_symmetry_Int_Tables_number   1
_chemical_formula_structural   Ba2Ca3Tl2(SnO3)4
_chemical_formula_sum   'Ba2 Ca3 Tl2 Sn4 O12'
_cell_volume   412.71121637
_cell_formula_units_Z   1
loop_
 _symmetry_equiv_pos_site_id
 _symmetry_equiv_pos_as_xyz
  1  'x, y, z'
loop_
 _atom_site_type_symbol
 _atom_site_label
 _atom_site_symmetry_multiplicity
 _atom_site_fract_x
 _atom_site_fract_y
 _atom_site_fract_z
 _atom_site_occupancy
  Ba  Ba0  1  0.17244200  0.17244200  0.00000000  1
  Ba  Ba1  1  0.82755800  0.82755800  0.00000000  1
  Ca  Ca2  1  0.07821600  0.07821600  0.00000000  1
  Ca  Ca3  1  0.92178400  0.92178400  0.00000000  1
  Ca  Ca4  1  0.00000000  0.00000000  0.00000000  1
  Tl  Tl5  1  0.72748200  0.72748200  0.00000000  1
  Tl  Tl6  1  0.27251800  0.27251800  0.00000000  1
  Sn  Sn7  1  0.53187400  0.53187400  0.00000000  1
  Sn  Sn8  1  0.38475500  0.38475500  0.00000000  1
  Sn  Sn9  1  0.61524500  0.61524500  0.00000000  1
  Sn  Sn10  1  0.46812600  0.46812600  0.00000000  1
  O  O11  1  0.89709500  0.39709500  0.50000000  1
  O  O12  1  0.03587800  0.53587800  0.50000000  1
  O  O13  1  0.22270700  0.22270700  0.00000000  1
  O  O14  1  0.46412200  0.96412200  0.50000000  1
  O  O15  1  0.77729300  0.77729300  0.00000000  1
  O  O16  1  0.60290500  0.10290500  0.50000000  1
  O  O17  1  0.10290500  0.60290500  0.50000000  1
  O  O18  1  0.34218500  0.34218500  0.00000000  1
  O  O19  1  0.39709500  0.89709500  0.50000000  1
  O  O20  1  0.53587800  0.03587800  0.50000000  1
  O  O21  1  0.96412200  0.46412200  0.50000000  1
  O  O22  1  0.65781500  0.65781500  0.00000000  1
