# generated using pymatgen
data_YV3O6
_symmetry_space_group_name_H-M   'P 1'
_cell_length_a   6.29544139
_cell_length_b   6.29544139
_cell_length_c   15.14286700
_cell_angle_alpha   90.00000000
_cell_angle_beta   90.00000000
_cell_angle_gamma   119.99999363
_symmetry_Int_Tables_number   1
_chemical_formula_structural   YV3O6
_chemical_formula_sum   'Y4 V12 O24'
_cell_volume   519.74597903
_cell_formula_units_Z   4
loop_
 _symmetry_equiv_pos_site_id
 _symmetry_equiv_pos_as_xyz
  1  'x, y, z'
loop_
 _atom_site_type_symbol
 _atom_site_label
 _atom_site_symmetry_multiplicity
 _atom_site_fract_x
 _atom_site_fract_y
 _atom_site_fract_z
 _atom_site_occupancy
  Y  Y0  1  0.33333300  0.66666700  0.05531500  1
  Y  Y1  1  0.00000000  0.00000000  0.37045500  1
  Y  Y2  1  0.66666700  0.33333300  0.94468500  1
  Y  Y3  1  0.00000000  0.00000000  0.62954500  1
  V  V4  1  0.17000600  0.34001100  0.83213300  1
  V  V5  1  0.82999400  0.65998900  0.16786700  1
  V  V6  1  0.50000000  0.00000000  0.50000000  1
  V  V7  1  0.17000600  0.82999400  0.83213300  1
  V  V8  1  0.82999400  0.17000600  0.16786700  1
  V  V9  1  0.50000000  0.50000000  0.50000000  1
  V  V10  1  0.00000000  0.00000000  0.00000000  1
  V  V11  1  0.66666700  0.33333300  0.32714800  1
  V  V12  1  0.33333300  0.66666700  0.67285200  1
  V  V13  1  0.65998900  0.82999400  0.83213300  1
  V  V14  1  0.34001100  0.17000600  0.16786700  1
  V  V15  1  0.00000000  0.50000000  0.50000000  1
  O  O16  1  0.33333300  0.66666700  0.91325700  1
  O  O17  1  0.00000000  0.00000000  0.23217800  1
  O  O18  1  0.66666700  0.33333300  0.55853300  1
  O  O19  1  0.28417400  0.14208700  0.91326700  1
  O  O20  1  0.95157900  0.47578900  0.23680900  1
  O  O21  1  0.62581400  0.81290700  0.58200000  1
  O  O22  1  0.85791300  0.71582600  0.91326700  1
  O  O23  1  0.52421100  0.04842100  0.23680900  1
  O  O24  1  0.18709300  0.37418600  0.58200000  1
  O  O25  1  0.85791300  0.14208700  0.91326700  1
  O  O26  1  0.52421100  0.47578900  0.23680900  1
  O  O27  1  0.18709300  0.81290700  0.58200000  1
  O  O28  1  0.71582600  0.85791300  0.08673300  1
  O  O29  1  0.37418600  0.18709300  0.41800000  1
  O  O30  1  0.04842100  0.52421100  0.76319100  1
  O  O31  1  0.66666700  0.33333300  0.08674300  1
  O  O32  1  0.33333300  0.66666700  0.44146700  1
  O  O33  1  0.00000000  0.00000000  0.76782200  1
  O  O34  1  0.14208700  0.28417400  0.08673300  1
  O  O35  1  0.81290700  0.62581400  0.41800000  1
  O  O36  1  0.47578900  0.95157900  0.76319100  1
  O  O37  1  0.14208700  0.85791300  0.08673300  1
  O  O38  1  0.81290700  0.18709300  0.41800000  1
  O  O39  1  0.47578900  0.52421100  0.76319100  1
