# generated using pymatgen
data_AlNi3Se2ClO8
_symmetry_space_group_name_H-M   'P 1'
_cell_length_a   5.58955600
_cell_length_b   8.02417100
_cell_length_c   9.64081300
_cell_angle_alpha   90.00000000
_cell_angle_beta   90.00000000
_cell_angle_gamma   90.00000000
_symmetry_Int_Tables_number   1
_chemical_formula_structural   AlNi3Se2ClO8
_chemical_formula_sum   'Al2 Ni6 Se4 Cl2 O16'
_cell_volume   432.40543676
_cell_formula_units_Z   2
loop_
 _symmetry_equiv_pos_site_id
 _symmetry_equiv_pos_as_xyz
  1  'x, y, z'
loop_
 _atom_site_type_symbol
 _atom_site_label
 _atom_site_symmetry_multiplicity
 _atom_site_fract_x
 _atom_site_fract_y
 _atom_site_fract_z
 _atom_site_occupancy
  Al  Al0  1  0.50000000  0.64777200  0.00000000  1
  Al  Al1  1  0.00000000  0.35222800  0.50000000  1
  Ni  Ni2  1  0.25000000  0.50000000  0.75000000  1
  Ni  Ni3  1  0.25000000  0.50000000  0.25000000  1
  Ni  Ni4  1  0.75000000  0.50000000  0.75000000  1
  Ni  Ni5  1  0.00000000  0.73072100  0.50000000  1
  Ni  Ni6  1  0.50000000  0.26927900  0.00000000  1
  Ni  Ni7  1  0.75000000  0.50000000  0.25000000  1
  Se  Se8  1  0.00000000  0.86181800  0.83129300  1
  Se  Se9  1  0.50000000  0.13818200  0.66870700  1
  Se  Se10  1  0.00000000  0.86181800  0.16870700  1
  Se  Se11  1  0.50000000  0.13818200  0.33129300  1
  Cl  Cl12  1  0.50000000  0.68035400  0.50000000  1
  Cl  Cl13  1  0.00000000  0.31964600  0.00000000  1
  O  O14  1  0.50000000  0.46606600  0.87794000  1
  O  O15  1  0.50000000  0.10143900  0.84151400  1
  O  O16  1  0.00000000  0.89856100  0.34151400  1
  O  O17  1  0.24940700  0.72122300  0.85834100  1
  O  O18  1  0.25059300  0.27877700  0.35834100  1
  O  O19  1  0.74940700  0.27877700  0.35834100  1
  O  O20  1  0.00000000  0.53393400  0.62206000  1
  O  O21  1  0.75059300  0.72122300  0.85834100  1
  O  O22  1  0.75059300  0.72122300  0.14165900  1
  O  O23  1  0.74940700  0.27877700  0.64165900  1
  O  O24  1  0.50000000  0.46606600  0.12206000  1
  O  O25  1  0.00000000  0.53393400  0.37794000  1
  O  O26  1  0.25059300  0.27877700  0.64165900  1
  O  O27  1  0.24940700  0.72122300  0.14165900  1
  O  O28  1  0.00000000  0.89856100  0.65848600  1
  O  O29  1  0.50000000  0.10143900  0.15848600  1
