# generated using pymatgen
data_Ba2ZnCuSb2F14
_symmetry_space_group_name_H-M   'P 1'
_cell_length_a   7.70643283
_cell_length_b   7.70643283
_cell_length_c   16.27210661
_cell_angle_alpha   89.87279084
_cell_angle_beta   89.87279084
_cell_angle_gamma   40.64716556
_symmetry_Int_Tables_number   1
_chemical_formula_structural   Ba2ZnCuSb2F14
_chemical_formula_sum   'Ba4 Zn2 Cu2 Sb4 F28'
_cell_volume   629.50105441
_cell_formula_units_Z   2
loop_
 _symmetry_equiv_pos_site_id
 _symmetry_equiv_pos_as_xyz
  1  'x, y, z'
loop_
 _atom_site_type_symbol
 _atom_site_label
 _atom_site_symmetry_multiplicity
 _atom_site_fract_x
 _atom_site_fract_y
 _atom_site_fract_z
 _atom_site_occupancy
  Ba  Ba0  1  0.73658500  0.90975100  0.12832700  1
  Ba  Ba1  1  0.90975100  0.73658500  0.62832700  1
  Ba  Ba2  1  0.26341500  0.09024900  0.87167300  1
  Ba  Ba3  1  0.09024900  0.26341500  0.37167300  1
  Zn  Zn4  1  0.44981400  0.55018600  0.25000000  1
  Zn  Zn5  1  0.55018600  0.44981400  0.75000000  1
  Cu  Cu6  1  0.50000000  0.50000000  0.50000000  1
  Cu  Cu7  1  0.50000000  0.50000000  0.00000000  1
  Sb  Sb8  1  0.84597800  0.92921900  0.37810000  1
  Sb  Sb9  1  0.15402200  0.07078100  0.62190000  1
  Sb  Sb10  1  0.92921900  0.84597800  0.87810000  1
  Sb  Sb11  1  0.07078100  0.15402200  0.12190000  1
  F  F12  1  0.85187600  0.17891000  0.82999600  1
  F  F13  1  0.58722900  0.11259800  0.95183200  1
  F  F14  1  0.41277100  0.88740200  0.04816800  1
  F  F15  1  0.12351000  0.38240000  0.10346500  1
  F  F16  1  0.59278400  0.34671000  0.10925200  1
  F  F17  1  0.65329000  0.40721600  0.39074800  1
  F  F18  1  0.11259800  0.58722900  0.45183200  1
  F  F19  1  0.82109000  0.14812400  0.67000400  1
  F  F20  1  0.98458200  0.66135200  0.28563200  1
  F  F21  1  0.87649000  0.61760000  0.89653500  1
  F  F22  1  0.55337000  0.22605800  0.26530500  1
  F  F23  1  0.61760000  0.87649000  0.39653500  1
  F  F24  1  0.22605800  0.55337000  0.76530500  1
  F  F25  1  0.44663000  0.77394200  0.73469500  1
  F  F26  1  0.34671000  0.59278400  0.60925200  1
  F  F27  1  0.01541800  0.33864800  0.71436800  1
  F  F28  1  0.29108400  0.86879400  0.48957800  1
  F  F29  1  0.14812400  0.82109000  0.17000400  1
  F  F30  1  0.70891600  0.13120600  0.51042200  1
  F  F31  1  0.86879400  0.29108400  0.98957800  1
  F  F32  1  0.88740200  0.41277100  0.54816800  1
  F  F33  1  0.77394200  0.44663000  0.23469500  1
  F  F34  1  0.66135200  0.98458200  0.78563200  1
  F  F35  1  0.13120600  0.70891600  0.01042200  1
  F  F36  1  0.40721600  0.65329000  0.89074800  1
  F  F37  1  0.17891000  0.85187600  0.32999600  1
  F  F38  1  0.33864800  0.01541800  0.21436800  1
  F  F39  1  0.38240000  0.12351000  0.60346500  1
