# generated using pymatgen
data_CaSnO2
_symmetry_space_group_name_H-M   'P 1'
_cell_length_a   3.48851000
_cell_length_b   8.95816680
_cell_length_c   10.20061131
_cell_angle_alpha   86.66502734
_cell_angle_beta   81.82958969
_cell_angle_gamma   78.86883573
_symmetry_Int_Tables_number   1
_chemical_formula_structural   CaSnO2
_chemical_formula_sum   'Ca4 Sn4 O8'
_cell_volume   309.44904386
_cell_formula_units_Z   4
loop_
 _symmetry_equiv_pos_site_id
 _symmetry_equiv_pos_as_xyz
  1  'x, y, z'
loop_
 _atom_site_type_symbol
 _atom_site_label
 _atom_site_symmetry_multiplicity
 _atom_site_fract_x
 _atom_site_fract_y
 _atom_site_fract_z
 _atom_site_occupancy
  Ca  Ca0  1  0.33157300  0.24983300  0.07095800  1
  Ca  Ca1  1  0.64462900  0.77703600  0.90921100  1
  Ca  Ca2  1  0.03926800  0.14842400  0.74318100  1
  Ca  Ca3  1  0.95133200  0.87950800  0.23668500  1
  Sn  Sn4  1  0.63564000  0.54817700  0.19883500  1
  Sn  Sn5  1  0.23245800  0.21429300  0.39792500  1
  Sn  Sn6  1  0.78919700  0.81294500  0.58190200  1
  Sn  Sn7  1  0.36455200  0.47874100  0.78160500  1
  O  O8  1  0.84099500  0.60517700  0.69195800  1
  O  O9  1  0.49212700  0.73804100  0.30645300  1
  O  O10  1  0.49855800  0.28951000  0.67263600  1
  O  O11  1  0.16393800  0.42255100  0.28828700  1
  O  O12  1  0.07725300  0.81405800  0.03161800  1
  O  O13  1  0.80265100  0.14542400  0.26794100  1
  O  O14  1  0.89761200  0.22119500  0.94636900  1
  O  O15  1  0.21353600  0.88311400  0.71052700  1
