# generated using pymatgen
data_UPH10C4(NO4)2
_symmetry_space_group_name_H-M   'P 1'
_cell_length_a   7.14181480
_cell_length_b   8.71795769
_cell_length_c   12.13109353
_cell_angle_alpha   103.30207943
_cell_angle_beta   102.69407001
_cell_angle_gamma   96.53598108
_symmetry_Int_Tables_number   1
_chemical_formula_structural   UPH10C4(NO4)2
_chemical_formula_sum   'U2 P2 H20 C8 N4 O16'
_cell_volume   706.24442951
_cell_formula_units_Z   2
loop_
 _symmetry_equiv_pos_site_id
 _symmetry_equiv_pos_as_xyz
  1  'x, y, z'
loop_
 _atom_site_type_symbol
 _atom_site_label
 _atom_site_symmetry_multiplicity
 _atom_site_fract_x
 _atom_site_fract_y
 _atom_site_fract_z
 _atom_site_occupancy
  U  U0  1  0.15640500  0.33615600  0.30666600  1
  U  U1  1  0.84418100  0.66545300  0.69310900  1
  P  P2  1  0.30419800  0.62474000  0.59197800  1
  P  P3  1  0.69614900  0.37642800  0.40797400  1
  H  H4  1  0.98834200  0.22839600  0.67927700  1
  H  H5  1  0.13644100  0.12931200  0.59285900  1
  H  H6  1  0.19532300  0.33742700  0.65889200  1
  H  H7  1  0.19800300  0.20743100  0.85772500  1
  H  H8  1  0.45406800  0.12677300  0.96048100  1
  H  H9  1  0.29771500  0.73844300  0.52494800  1
  H  H10  1  0.32779200  0.87302800  0.27808900  1
  H  H11  1  0.66080000  0.07454000  0.88955800  1
  H  H12  1  0.44915100  0.00733400  0.62642200  1
  H  H13  1  0.49320500  0.22085000  0.64652600  1
  H  H14  1  0.50514500  0.77705400  0.35247600  1
  H  H15  1  0.55010400  0.99080000  0.37359500  1
  H  H16  1  0.33871700  0.92463500  0.11050300  1
  H  H17  1  0.67143400  0.12586200  0.72139900  1
  H  H18  1  0.70154300  0.26238800  0.47472300  1
  H  H19  1  0.80135300  0.79147600  0.14213700  1
  H  H20  1  0.54637800  0.87418900  0.03984100  1
  H  H21  1  0.80526000  0.66325700  0.34231600  1
  H  H22  1  0.86323800  0.87166200  0.40704200  1
  H  H23  1  0.01174400  0.77190700  0.32119100  1
  C  C24  1  0.13728700  0.22175500  0.67193700  1
  C  C25  1  0.52000800  0.11150200  0.88678200  1
  C  C26  1  0.25201400  0.19357900  0.77918100  1
  C  C27  1  0.51571000  0.12365000  0.68852600  1
  C  C28  1  0.48332700  0.87487000  0.31105400  1
  C  C29  1  0.74761900  0.80556700  0.22083100  1
  C  C30  1  0.47988500  0.88831000  0.11336600  1
  C  C31  1  0.86272400  0.77848300  0.32842900  1
  N  N32  1  0.02845400  0.19694900  0.04475100  1
  N  N33  1  0.42538200  0.14486700  0.78853800  1
  N  N34  1  0.57409700  0.85427500  0.21123700  1
  N  N35  1  0.97112400  0.80241300  0.95503300  1
  O  O36  1  0.09382900  0.77594900  0.89332300  1
  O  O37  1  0.15057300  0.64956200  0.66169200  1
  O  O38  1  0.02330800  0.85300600  0.06352500  1
  O  O39  1  0.17143500  0.53013600  0.27460500  1
  O  O40  1  0.13914900  0.13778300  0.33159100  1
  O  O41  1  0.25486600  0.45833800  0.50288000  1
  O  O42  1  0.20908600  0.22643600  0.10035400  1
  O  O43  1  0.51087300  0.65599300  0.67116700  1
  O  O44  1  0.48971500  0.34609400  0.32856800  1
  O  O45  1  0.79067300  0.77408900  0.89913700  1
  O  O46  1  0.74587800  0.54277800  0.49709800  1
  O  O47  1  0.86232600  0.86414000  0.66827200  1
  O  O48  1  0.82841600  0.47156300  0.72495300  1
  O  O49  1  0.97580600  0.14473400  0.93634300  1
  O  O50  1  0.85011100  0.35127300  0.33851800  1
  O  O51  1  0.90603500  0.22396700  0.10658500  1
