# generated using pymatgen
data_Ba2CaCuBi2F14
_symmetry_space_group_name_H-M   'P 1'
_cell_length_a   7.73391491
_cell_length_b   7.73391491
_cell_length_c   16.36709965
_cell_angle_alpha   89.82597920
_cell_angle_beta   89.82597920
_cell_angle_gamma   42.05415279
_symmetry_Int_Tables_number   1
_chemical_formula_structural   Ba2CaCuBi2F14
_chemical_formula_sum   'Ba4 Ca2 Cu2 Bi4 F28'
_cell_volume   655.74432858
_cell_formula_units_Z   2
loop_
 _symmetry_equiv_pos_site_id
 _symmetry_equiv_pos_as_xyz
  1  'x, y, z'
loop_
 _atom_site_type_symbol
 _atom_site_label
 _atom_site_symmetry_multiplicity
 _atom_site_fract_x
 _atom_site_fract_y
 _atom_site_fract_z
 _atom_site_occupancy
  Ba  Ba0  1  0.28427400  0.08764500  0.12583000  1
  Ba  Ba1  1  0.08764500  0.28427400  0.62583000  1
  Ba  Ba2  1  0.71572600  0.91235500  0.87417000  1
  Ba  Ba3  1  0.91235500  0.71572600  0.37417000  1
  Ca  Ca4  1  0.57105500  0.42894500  0.25000000  1
  Ca  Ca5  1  0.42894500  0.57105500  0.75000000  1
  Cu  Cu6  1  0.50000000  0.50000000  0.50000000  1
  Cu  Cu7  1  0.50000000  0.50000000  0.00000000  1
  Bi  Bi8  1  0.17253500  0.05005800  0.37918900  1
  Bi  Bi9  1  0.82746500  0.94994200  0.62081100  1
  Bi  Bi10  1  0.05005800  0.17253500  0.87918900  1
  Bi  Bi11  1  0.94994200  0.82746500  0.12081100  1
  F  F12  1  0.09244800  0.86269900  0.83200300  1
  F  F13  1  0.41619500  0.88418600  0.96107900  1
  F  F14  1  0.58380500  0.11581400  0.03892100  1
  F  F15  1  0.88148500  0.60033000  0.10501000  1
  F  F16  1  0.41361800  0.62903800  0.11219800  1
  F  F17  1  0.37096200  0.58638200  0.38780200  1
  F  F18  1  0.88418600  0.41619500  0.46107900  1
  F  F19  1  0.13730100  0.90755200  0.66799700  1
  F  F20  1  0.97302500  0.36314300  0.28713900  1
  F  F21  1  0.11851500  0.39967000  0.89499000  1
  F  F22  1  0.43300000  0.81046600  0.26530000  1
  F  F23  1  0.39967000  0.11851500  0.39499000  1
  F  F24  1  0.81046600  0.43300000  0.76530000  1
  F  F25  1  0.56700000  0.18953400  0.73470000  1
  F  F26  1  0.62903800  0.41361800  0.61219800  1
  F  F27  1  0.02697500  0.63685700  0.71286100  1
  F  F28  1  0.71584300  0.13866400  0.48697700  1
  F  F29  1  0.90755200  0.13730100  0.16799700  1
  F  F30  1  0.28415700  0.86133600  0.51302300  1
  F  F31  1  0.13866400  0.71584300  0.98697700  1
  F  F32  1  0.11581400  0.58380500  0.53892100  1
  F  F33  1  0.18953400  0.56700000  0.23470000  1
  F  F34  1  0.36314300  0.97302500  0.78713900  1
  F  F35  1  0.86133600  0.28415700  0.01302300  1
  F  F36  1  0.58638200  0.37096200  0.88780200  1
  F  F37  1  0.86269900  0.09244800  0.33200300  1
  F  F38  1  0.63685700  0.02697500  0.21286100  1
  F  F39  1  0.60033000  0.88148500  0.60501000  1
