# generated using pymatgen
data_CaBi2P2O9
_symmetry_space_group_name_H-M   'P 1'
_cell_length_a   7.14482700
_cell_length_b   7.24521800
_cell_length_c   16.02804300
_cell_angle_alpha   90.00000000
_cell_angle_beta   90.00000000
_cell_angle_gamma   90.00000000
_symmetry_Int_Tables_number   1
_chemical_formula_structural   CaBi2P2O9
_chemical_formula_sum   'Ca4 Bi8 P8 O36'
_cell_volume   829.70493614
_cell_formula_units_Z   4
loop_
 _symmetry_equiv_pos_site_id
 _symmetry_equiv_pos_as_xyz
  1  'x, y, z'
loop_
 _atom_site_type_symbol
 _atom_site_label
 _atom_site_symmetry_multiplicity
 _atom_site_fract_x
 _atom_site_fract_y
 _atom_site_fract_z
 _atom_site_occupancy
  Ca  Ca0  1  0.75000000  0.91029200  0.77706400  1
  Ca  Ca1  1  0.75000000  0.58970800  0.27706400  1
  Ca  Ca2  1  0.25000000  0.41029200  0.72293600  1
  Ca  Ca3  1  0.25000000  0.08970800  0.22293600  1
  Bi  Bi4  1  0.75000000  0.39712800  0.88177700  1
  Bi  Bi5  1  0.25000000  0.60287200  0.11822300  1
  Bi  Bi6  1  0.25000000  0.89712800  0.61822300  1
  Bi  Bi7  1  0.75000000  0.10287200  0.38177700  1
  Bi  Bi8  1  0.50000000  0.00000000  0.00000000  1
  Bi  Bi9  1  0.50000000  0.50000000  0.50000000  1
  Bi  Bi10  1  0.00000000  0.50000000  0.50000000  1
  Bi  Bi11  1  0.00000000  0.00000000  0.00000000  1
  P  P12  1  0.25000000  0.39537100  0.91696400  1
  P  P13  1  0.75000000  0.60462900  0.08303600  1
  P  P14  1  0.75000000  0.89537100  0.58303600  1
  P  P15  1  0.25000000  0.10462900  0.41696400  1
  P  P16  1  0.75000000  0.40047900  0.69212500  1
  P  P17  1  0.75000000  0.09952100  0.19212500  1
  P  P18  1  0.25000000  0.90047900  0.80787500  1
  P  P19  1  0.25000000  0.59952100  0.30787500  1
  O  O20  1  0.06683400  0.60897900  0.36084100  1
  O  O21  1  0.56683400  0.39102100  0.63915900  1
  O  O22  1  0.93316600  0.10897900  0.13915900  1
  O  O23  1  0.43316600  0.89102100  0.86084100  1
  O  O24  1  0.93316600  0.39102100  0.63915900  1
  O  O25  1  0.43316600  0.60897900  0.36084100  1
  O  O26  1  0.06683400  0.89102100  0.86084100  1
  O  O27  1  0.56683400  0.10897900  0.13915900  1
  O  O28  1  0.25000000  0.27842500  0.47796800  1
  O  O29  1  0.75000000  0.72157500  0.52203200  1
  O  O30  1  0.75000000  0.77842500  0.02203200  1
  O  O31  1  0.25000000  0.22157500  0.97796800  1
  O  O32  1  0.75000000  0.10879000  0.92043800  1
  O  O33  1  0.25000000  0.89121000  0.07956200  1
  O  O34  1  0.25000000  0.60879000  0.57956200  1
  O  O35  1  0.75000000  0.39121000  0.42043800  1
  O  O36  1  0.75000000  0.23290200  0.75461200  1
  O  O37  1  0.25000000  0.76709800  0.24538800  1
  O  O38  1  0.25000000  0.73290200  0.74538800  1
  O  O39  1  0.75000000  0.26709800  0.25461200  1
  O  O40  1  0.42182000  0.11619500  0.35776800  1
  O  O41  1  0.92182000  0.88380500  0.64223200  1
  O  O42  1  0.57818000  0.61619500  0.14223200  1
  O  O43  1  0.07818000  0.38380500  0.85776800  1
  O  O44  1  0.57818000  0.88380500  0.64223200  1
  O  O45  1  0.07818000  0.11619500  0.35776800  1
  O  O46  1  0.42182000  0.38380500  0.85776800  1
  O  O47  1  0.92182000  0.61619500  0.14223200  1
  O  O48  1  0.75000000  0.43096200  0.02917200  1
  O  O49  1  0.25000000  0.07603300  0.75187400  1
  O  O50  1  0.25000000  0.42396700  0.25187400  1
  O  O51  1  0.75000000  0.57603300  0.74812600  1
  O  O52  1  0.75000000  0.06903800  0.52917200  1
  O  O53  1  0.25000000  0.93096200  0.47082800  1
  O  O54  1  0.25000000  0.56903800  0.97082800  1
  O  O55  1  0.75000000  0.92396700  0.24812600  1
