# generated using pymatgen
data_Y(VS2)2
_symmetry_space_group_name_H-M   'P 1'
_cell_length_a   7.58487801
_cell_length_b   7.58487801
_cell_length_c   7.58487801
_cell_angle_alpha   121.98420825
_cell_angle_beta   121.98420825
_cell_angle_gamma   86.59628987
_symmetry_Int_Tables_number   1
_chemical_formula_structural   Y(VS2)2
_chemical_formula_sum   'Y2 V4 S8'
_cell_volume   298.72612339
_cell_formula_units_Z   2
loop_
 _symmetry_equiv_pos_site_id
 _symmetry_equiv_pos_as_xyz
  1  'x, y, z'
loop_
 _atom_site_type_symbol
 _atom_site_label
 _atom_site_symmetry_multiplicity
 _atom_site_fract_x
 _atom_site_fract_y
 _atom_site_fract_z
 _atom_site_occupancy
  Y  Y0  1  0.50000000  0.50000000  0.00000000  1
  Y  Y1  1  0.25000000  0.75000000  0.50000000  1
  V  V2  1  0.37500000  0.12500000  0.25000000  1
  V  V3  1  0.87500000  0.12500000  0.25000000  1
  V  V4  1  0.87500000  0.62500000  0.75000000  1
  V  V5  1  0.87500000  0.12500000  0.75000000  1
  S  S6  1  0.67203700  0.89841200  0.77362500  1
  S  S7  1  0.10158800  0.87521400  0.77362500  1
  S  S8  1  0.10158800  0.32796300  0.22637500  1
  S  S9  1  0.07796300  0.35158800  0.72637500  1
  S  S10  1  0.62521400  0.35158800  0.27362500  1
  S  S11  1  0.64841200  0.37478600  0.72637500  1
  S  S12  1  0.12478600  0.89841200  0.22637500  1
  S  S13  1  0.64841200  0.92203700  0.27362500  1
