# generated using pymatgen
data_CaFeO2
_symmetry_space_group_name_H-M   'P 1'
_cell_length_a   3.32690400
_cell_length_b   8.25864807
_cell_length_c   8.79981185
_cell_angle_alpha   85.37843994
_cell_angle_beta   89.36299394
_cell_angle_gamma   84.19789678
_symmetry_Int_Tables_number   1
_chemical_formula_structural   CaFeO2
_chemical_formula_sum   'Ca4 Fe4 O8'
_cell_volume   239.75943231
_cell_formula_units_Z   4
loop_
 _symmetry_equiv_pos_site_id
 _symmetry_equiv_pos_as_xyz
  1  'x, y, z'
loop_
 _atom_site_type_symbol
 _atom_site_label
 _atom_site_symmetry_multiplicity
 _atom_site_fract_x
 _atom_site_fract_y
 _atom_site_fract_z
 _atom_site_occupancy
  Ca  Ca0  1  0.18575000  0.19772000  0.96112700  1
  Ca  Ca1  1  0.81425000  0.80228000  0.03887300  1
  Ca  Ca2  1  0.12937200  0.39988400  0.27152600  1
  Ca  Ca3  1  0.87062800  0.60011600  0.72847400  1
  Fe  Fe4  1  0.31662400  0.91492900  0.73103100  1
  Fe  Fe5  1  0.65501200  0.23999600  0.63866800  1
  Fe  Fe6  1  0.34498800  0.76000400  0.36133200  1
  Fe  Fe7  1  0.68337600  0.08507100  0.26896900  1
  O  O8  1  0.24839900  0.96562700  0.17830800  1
  O  O9  1  0.31987000  0.75080000  0.58144200  1
  O  O10  1  0.68013000  0.24920000  0.41855800  1
  O  O11  1  0.75160100  0.03437300  0.82169200  1
  O  O12  1  0.33907100  0.70555700  0.89311600  1
  O  O13  1  0.15340300  0.34061200  0.72463000  1
  O  O14  1  0.66092900  0.29444300  0.10688400  1
  O  O15  1  0.84659700  0.65938800  0.27537000  1
