# generated using pymatgen
data_ZnSn5O7
_symmetry_space_group_name_H-M   'P 1'
_cell_length_a   5.51707323
_cell_length_b   5.51707323
_cell_length_c   23.11626400
_cell_angle_alpha   90.00000000
_cell_angle_beta   90.00000000
_cell_angle_gamma   146.01496664
_symmetry_Int_Tables_number   1
_chemical_formula_structural   ZnSn5O7
_chemical_formula_sum   'Zn2 Sn10 O14'
_cell_volume   393.30417557
_cell_formula_units_Z   2
loop_
 _symmetry_equiv_pos_site_id
 _symmetry_equiv_pos_as_xyz
  1  'x, y, z'
loop_
 _atom_site_type_symbol
 _atom_site_label
 _atom_site_symmetry_multiplicity
 _atom_site_fract_x
 _atom_site_fract_y
 _atom_site_fract_z
 _atom_site_occupancy
  Zn  Zn0  1  0.14786600  0.85213400  0.75000000  1
  Zn  Zn1  1  0.85213400  0.14786600  0.25000000  1
  Sn  Sn2  1  0.71803700  0.28196300  0.58697000  1
  Sn  Sn3  1  0.55779200  0.44220800  0.16701800  1
  Sn  Sn4  1  0.00000000  0.00000000  0.50000000  1
  Sn  Sn5  1  0.00000000  0.00000000  0.00000000  1
  Sn  Sn6  1  0.44220800  0.55779200  0.83298200  1
  Sn  Sn7  1  0.28196300  0.71803700  0.41303000  1
  Sn  Sn8  1  0.28196300  0.71803700  0.08697000  1
  Sn  Sn9  1  0.71803700  0.28196300  0.91303000  1
  Sn  Sn10  1  0.44220800  0.55779200  0.66701800  1
  Sn  Sn11  1  0.55779200  0.44220800  0.33298200  1
  O  O12  1  0.37120300  0.62879700  0.91834600  1
  O  O13  1  0.62879700  0.37120300  0.08165400  1
  O  O14  1  0.62879700  0.37120300  0.41834600  1
  O  O15  1  0.37120300  0.62879700  0.58165400  1
  O  O16  1  0.81044300  0.18955700  0.81934500  1
  O  O17  1  0.18955700  0.81044300  0.18065500  1
  O  O18  1  0.18955700  0.81044300  0.31934500  1
  O  O19  1  0.81044300  0.18955700  0.68065500  1
  O  O20  1  0.07207900  0.92792100  0.84536700  1
  O  O21  1  0.92792100  0.07207900  0.15463300  1
  O  O22  1  0.92792100  0.07207900  0.34536700  1
  O  O23  1  0.07207900  0.92792100  0.65463300  1
  O  O24  1  0.52828300  0.47171700  0.75000000  1
  O  O25  1  0.47171700  0.52828300  0.25000000  1
