# generated using pymatgen
data_Ca2Ta2SnO8
_symmetry_space_group_name_H-M   'P 1'
_cell_length_a   10.71463209
_cell_length_b   10.71463209
_cell_length_c   5.50178513
_cell_angle_alpha   89.79762177
_cell_angle_beta   89.79762177
_cell_angle_gamma   36.84687628
_symmetry_Int_Tables_number   1
_chemical_formula_structural   Ca2Ta2SnO8
_chemical_formula_sum   'Ca4 Ta4 Sn2 O16'
_cell_volume   378.76830383
_cell_formula_units_Z   2
loop_
 _symmetry_equiv_pos_site_id
 _symmetry_equiv_pos_as_xyz
  1  'x, y, z'
loop_
 _atom_site_type_symbol
 _atom_site_label
 _atom_site_symmetry_multiplicity
 _atom_site_fract_x
 _atom_site_fract_y
 _atom_site_fract_z
 _atom_site_occupancy
  Ca  Ca0  1  0.56854900  0.86322400  0.24985300  1
  Ca  Ca1  1  0.13677600  0.43145100  0.25014700  1
  Ca  Ca2  1  0.43145100  0.13677600  0.75014700  1
  Ca  Ca3  1  0.86322400  0.56854900  0.74985300  1
  Ta  Ta4  1  0.73424000  0.01956400  0.25394700  1
  Ta  Ta5  1  0.98043600  0.26576000  0.24605300  1
  Ta  Ta6  1  0.26576000  0.98043600  0.74605300  1
  Ta  Ta7  1  0.01956400  0.73424000  0.75394700  1
  Sn  Sn8  1  0.31396000  0.68604000  0.25000000  1
  Sn  Sn9  1  0.68604000  0.31396000  0.75000000  1
  O  O10  1  0.82514200  0.01823200  0.93163600  1
  O  O11  1  0.98176800  0.17485800  0.56836400  1
  O  O12  1  0.17485800  0.98176800  0.06836400  1
  O  O13  1  0.01823200  0.82514200  0.43163600  1
  O  O14  1  0.60197800  0.25885600  0.39316900  1
  O  O15  1  0.74114400  0.39802200  0.10683100  1
  O  O16  1  0.39802200  0.74114400  0.60683100  1
  O  O17  1  0.25885600  0.60197800  0.89316900  1
  O  O18  1  0.73472300  0.89054400  0.52663100  1
  O  O19  1  0.10945600  0.26527700  0.97336900  1
  O  O20  1  0.14186300  0.47849900  0.64511100  1
  O  O21  1  0.52150100  0.85813700  0.85488900  1
  O  O22  1  0.85813700  0.52150100  0.35488900  1
  O  O23  1  0.47849900  0.14186300  0.14511100  1
  O  O24  1  0.89054400  0.73472300  0.02663100  1
  O  O25  1  0.26527700  0.10945600  0.47336900  1
