# generated using pymatgen
data_Ca4Cu5(TeO6)3
_symmetry_space_group_name_H-M   'P 1'
_cell_length_a   9.29326992
_cell_length_b   9.29326992
_cell_length_c   10.60372968
_cell_angle_alpha   81.55831914
_cell_angle_beta   81.55831914
_cell_angle_gamma   60.08194375
_symmetry_Int_Tables_number   1
_chemical_formula_structural   Ca4Cu5(TeO6)3
_chemical_formula_sum   'Ca8 Cu10 Te6 O36'
_cell_volume   782.25441541
_cell_formula_units_Z   2
loop_
 _symmetry_equiv_pos_site_id
 _symmetry_equiv_pos_as_xyz
  1  'x, y, z'
loop_
 _atom_site_type_symbol
 _atom_site_label
 _atom_site_symmetry_multiplicity
 _atom_site_fract_x
 _atom_site_fract_y
 _atom_site_fract_z
 _atom_site_occupancy
  Ca  Ca0  1  0.93482600  0.68426800  0.39161400  1
  Ca  Ca1  1  0.33023600  0.65514200  0.52959600  1
  Ca  Ca2  1  0.31573200  0.06517400  0.10838600  1
  Ca  Ca3  1  0.34485800  0.66976400  0.97040400  1
  Ca  Ca4  1  0.65514200  0.33023600  0.02959600  1
  Ca  Ca5  1  0.68426800  0.93482600  0.89161400  1
  Ca  Ca6  1  0.06517400  0.31573200  0.60838600  1
  Ca  Ca7  1  0.66976400  0.34485800  0.47040400  1
  Cu  Cu8  1  0.02869400  0.65444700  0.75948200  1
  Cu  Cu9  1  0.65444700  0.02869400  0.25948200  1
  Cu  Cu10  1  0.45873200  0.88011200  0.43620500  1
  Cu  Cu11  1  0.88011200  0.45873200  0.93620500  1
  Cu  Cu12  1  0.11988800  0.54126800  0.06379500  1
  Cu  Cu13  1  0.84479300  0.15520700  0.75000000  1
  Cu  Cu14  1  0.15520700  0.84479300  0.25000000  1
  Cu  Cu15  1  0.54126800  0.11988800  0.56379500  1
  Cu  Cu16  1  0.97130600  0.34555300  0.24051800  1
  Cu  Cu17  1  0.34555300  0.97130600  0.74051800  1
  Te  Te18  1  0.35739600  0.32336300  0.80455600  1
  Te  Te19  1  0.00000000  0.00000000  0.50000000  1
  Te  Te20  1  0.00000000  0.00000000  0.00000000  1
  Te  Te21  1  0.32336300  0.35739600  0.30455600  1
  Te  Te22  1  0.64260400  0.67663700  0.19544400  1
  Te  Te23  1  0.67663700  0.64260400  0.69544400  1
  O  O24  1  0.40948700  0.12552500  0.91392900  1
  O  O25  1  0.06004000  0.77182100  0.95971700  1
  O  O26  1  0.22045700  0.57660300  0.20021700  1
  O  O27  1  0.03598700  0.10895300  0.33259800  1
  O  O28  1  0.22817900  0.93996000  0.54028300  1
  O  O29  1  0.89104700  0.96401300  0.16740200  1
  O  O30  1  0.41336300  0.43361100  0.41124000  1
  O  O31  1  0.79110600  0.09588200  0.91959500  1
  O  O32  1  0.20889400  0.90411800  0.08040500  1
  O  O33  1  0.68380200  0.80183800  0.32056400  1
  O  O34  1  0.25359800  0.52442200  0.68932000  1
  O  O35  1  0.31619800  0.19816200  0.67943600  1
  O  O36  1  0.93996000  0.22817900  0.04028300  1
  O  O37  1  0.12125100  0.45035100  0.89071400  1
  O  O38  1  0.47557800  0.74640200  0.81068000  1
  O  O39  1  0.58663700  0.56638900  0.58876000  1
  O  O40  1  0.74640200  0.47557800  0.31068000  1
  O  O41  1  0.54964900  0.87874900  0.60928600  1
  O  O42  1  0.42339700  0.77954300  0.29978300  1
  O  O43  1  0.52442200  0.25359800  0.18932000  1
  O  O44  1  0.12552500  0.40948700  0.41392900  1
  O  O45  1  0.87874900  0.54964900  0.10928600  1
  O  O46  1  0.90411800  0.20889400  0.58040500  1
  O  O47  1  0.43361100  0.41336300  0.91124000  1
  O  O48  1  0.77954300  0.42339700  0.79978300  1
  O  O49  1  0.10895300  0.03598700  0.83259800  1
  O  O50  1  0.80183800  0.68380200  0.82056400  1
  O  O51  1  0.56638900  0.58663700  0.08876000  1
  O  O52  1  0.77182100  0.06004000  0.45971700  1
  O  O53  1  0.45035100  0.12125100  0.39071400  1
  O  O54  1  0.59051300  0.87447500  0.08607100  1
  O  O55  1  0.96401300  0.89104700  0.66740200  1
  O  O56  1  0.09588200  0.79110600  0.41959500  1
  O  O57  1  0.19816200  0.31619800  0.17943600  1
  O  O58  1  0.57660300  0.22045700  0.70021700  1
  O  O59  1  0.87447500  0.59051300  0.58607100  1
