# generated using pymatgen
data_SrMgCu(PO4)2
_symmetry_space_group_name_H-M   'P 1'
_cell_length_a   5.65254025
_cell_length_b   6.75173698
_cell_length_c   9.22978960
_cell_angle_alpha   109.18844740
_cell_angle_beta   102.23291559
_cell_angle_gamma   99.40555887
_symmetry_Int_Tables_number   1
_chemical_formula_structural   SrMgCu(PO4)2
_chemical_formula_sum   'Sr2 Mg2 Cu2 P4 O16'
_cell_volume   314.59049043
_cell_formula_units_Z   2
loop_
 _symmetry_equiv_pos_site_id
 _symmetry_equiv_pos_as_xyz
  1  'x, y, z'
loop_
 _atom_site_type_symbol
 _atom_site_label
 _atom_site_symmetry_multiplicity
 _atom_site_fract_x
 _atom_site_fract_y
 _atom_site_fract_z
 _atom_site_occupancy
  Sr  Sr0  1  0.26034100  0.80406500  0.05967700  1
  Sr  Sr1  1  0.73965900  0.19593500  0.94032300  1
  Mg  Mg2  1  0.98955400  0.40204700  0.64801400  1
  Mg  Mg3  1  0.01044600  0.59795300  0.35198600  1
  Cu  Cu4  1  0.64336300  0.84993800  0.54682900  1
  Cu  Cu5  1  0.35663700  0.15006200  0.45317100  1
  P  P6  1  0.39637900  0.42760100  0.24242100  1
  P  P7  1  0.60362100  0.57239900  0.75757900  1
  P  P8  1  0.84176600  0.02741900  0.30112100  1
  P  P9  1  0.15823400  0.97258100  0.69887900  1
  O  O10  1  0.82712300  0.55392600  0.88020100  1
  O  O11  1  0.65117500  0.47782400  0.20870400  1
  O  O12  1  0.65733100  0.80069100  0.75036700  1
  O  O13  1  0.94786800  0.10147300  0.68053600  1
  O  O14  1  0.34882500  0.52217600  0.79129600  1
  O  O15  1  0.03706400  0.73047700  0.58834200  1
  O  O16  1  0.96293600  0.26952300  0.41165800  1
  O  O17  1  0.26017600  0.00671500  0.87458400  1
  O  O18  1  0.34266900  0.19930900  0.24963300  1
  O  O19  1  0.73982400  0.99328500  0.12541600  1
  O  O20  1  0.17287700  0.44607400  0.11979900  1
  O  O21  1  0.38160400  0.59446800  0.40422400  1
  O  O22  1  0.61839600  0.40553200  0.59577600  1
  O  O23  1  0.62308600  0.92933600  0.35565200  1
  O  O24  1  0.05213200  0.89852700  0.31946400  1
  O  O25  1  0.37691400  0.07066400  0.64434800  1
