data_image0
_chemical_formula_structural       Be2F5Rb
_chemical_formula_sum              "Be2 F5 Rb1"
_cell_length_a       4.50364
_cell_length_b       4.48627
_cell_length_c       5.73465
_cell_angle_alpha    91.1728
_cell_angle_beta     92.5247
_cell_angle_gamma    60.0015

_space_group_name_H-M_alt    "P 1"
_space_group_IT_number       1

loop_
  _space_group_symop_operation_xyz
  'x, y, z'

loop_
  _atom_site_type_symbol
  _atom_site_label
  _atom_site_symmetry_multiplicity
  _atom_site_fract_x
  _atom_site_fract_y
  _atom_site_fract_z
  _atom_site_occupancy
  Be  Be1       1.0  0.64900  0.72900  0.41300  1.0000
  Be  Be2       1.0  0.30900  0.39500  0.60900  1.0000
  F   F1        1.0  0.68400  0.65400  0.15900  1.0000
  F   F2        1.0  0.32800  0.09630  0.45100  1.0000
  F   F3        1.0  0.97000  0.73400  0.53100  1.0000
  F   F4        1.0  0.61200  0.45500  0.55200  1.0000
  F   F5        1.0  0.32300  0.32100  0.86200  1.0000
  Rb  Rb1       1.0  0.99800  0.00107  0.01140  1.0000
