# generated using pymatgen
data_Sr2YGaNi2O7
_symmetry_space_group_name_H-M   'P 1'
_cell_length_a   11.88688017
_cell_length_b   11.88688017
_cell_length_c   11.88688017
_cell_angle_alpha   153.09566213
_cell_angle_beta   152.60541428
_cell_angle_gamma   38.77400792
_symmetry_Int_Tables_number   1
_chemical_formula_structural   Sr2YGaNi2O7
_chemical_formula_sum   'Sr4 Y2 Ga2 Ni4 O14'
_cell_volume   349.10200544
_cell_formula_units_Z   2
loop_
 _symmetry_equiv_pos_site_id
 _symmetry_equiv_pos_as_xyz
  1  'x, y, z'
loop_
 _atom_site_type_symbol
 _atom_site_label
 _atom_site_symmetry_multiplicity
 _atom_site_fract_x
 _atom_site_fract_y
 _atom_site_fract_z
 _atom_site_occupancy
  Sr  Sr0  1  0.83205400  0.85486300  0.98394200  1
  Sr  Sr1  1  0.16794600  0.15188700  0.02280800  1
  Sr  Sr2  1  0.37092100  0.35486300  0.02280800  1
  Sr  Sr3  1  0.62907900  0.65188700  0.98394200  1
  Y  Y4  1  0.50000000  0.49706900  0.99706900  1
  Y  Y5  1  0.00000000  0.99706900  0.99706900  1
  Ga  Ga6  1  0.17368300  0.79210700  0.46579000  1
  Ga  Ga7  1  0.82631700  0.29210700  0.61842400  1
  Ni  Ni8  1  0.08069300  0.58043800  0.49660900  1
  Ni  Ni9  1  0.41617100  0.91591600  0.49660900  1
  Ni  Ni10  1  0.58382900  0.08043800  0.49974500  1
  Ni  Ni11  1  0.91930700  0.41591600  0.49974500  1
  O  O12  1  0.68644000  0.18451300  0.99802200  1
  O  O13  1  0.12736400  0.13483800  0.76220200  1
  O  O14  1  0.68649100  0.68451300  0.49807300  1
  O  O15  1  0.62901300  0.15054100  0.43001000  1
  O  O16  1  0.81491300  0.31534300  0.99782400  1
  O  O17  1  0.81751900  0.81534300  0.50043000  1
  O  O18  1  0.87263600  0.63483800  0.00747400  1
  O  O19  1  0.31350900  0.81158200  0.99802200  1
  O  O20  1  0.31356000  0.31158200  0.49807300  1
  O  O21  1  0.22053100  0.65054100  0.52152900  1
  O  O22  1  0.37098700  0.80099800  0.52152900  1
  O  O23  1  0.77946900  0.30099800  0.43001000  1
  O  O24  1  0.18508700  0.18291100  0.50043000  1
  O  O25  1  0.18248100  0.68291100  0.99782400  1
