# generated using pymatgen
data_MgSnO2
_symmetry_space_group_name_H-M   'P 1'
_cell_length_a   3.33226800
_cell_length_b   8.43684969
_cell_length_c   9.73756584
_cell_angle_alpha   71.67965246
_cell_angle_beta   85.98318511
_cell_angle_gamma   87.71444205
_symmetry_Int_Tables_number   1
_chemical_formula_structural   MgSnO2
_chemical_formula_sum   'Mg4 Sn4 O8'
_cell_volume   259.20004950
_cell_formula_units_Z   4
loop_
 _symmetry_equiv_pos_site_id
 _symmetry_equiv_pos_as_xyz
  1  'x, y, z'
loop_
 _atom_site_type_symbol
 _atom_site_label
 _atom_site_symmetry_multiplicity
 _atom_site_fract_x
 _atom_site_fract_y
 _atom_site_fract_z
 _atom_site_occupancy
  Mg  Mg0  1  0.76856900  0.33606800  0.51655000  1
  Mg  Mg1  1  0.23143100  0.66393200  0.48345000  1
  Mg  Mg2  1  0.23727700  0.12590200  0.28453900  1
  Mg  Mg3  1  0.76272300  0.87409800  0.71546100  1
  Sn  Sn4  1  0.48836700  0.54754600  0.79628600  1
  Sn  Sn5  1  0.22267400  0.17494400  0.81575900  1
  Sn  Sn6  1  0.77732600  0.82505600  0.18424100  1
  Sn  Sn7  1  0.51163300  0.45245400  0.20371400  1
  O  O8  1  0.74871100  0.58667600  0.35963600  1
  O  O9  1  0.24426400  0.77535800  0.81474300  1
  O  O10  1  0.75573600  0.22464200  0.18525700  1
  O  O11  1  0.25128900  0.41332400  0.64036400  1
  O  O12  1  0.71521900  0.71786600  0.59473900  1
  O  O13  1  0.75637500  0.11587700  0.69349500  1
  O  O14  1  0.28478100  0.28213400  0.40526100  1
  O  O15  1  0.24362500  0.88412300  0.30650500  1
