# generated using pymatgen
data_SrTi(PO4)2
_symmetry_space_group_name_H-M   'P 1'
_cell_length_a   5.49568100
_cell_length_b   7.23009343
_cell_length_c   9.22316803
_cell_angle_alpha   108.47883826
_cell_angle_beta   101.72808427
_cell_angle_gamma   98.52265358
_symmetry_Int_Tables_number   1
_chemical_formula_structural   SrTi(PO4)2
_chemical_formula_sum   'Sr2 Ti2 P4 O16'
_cell_volume   331.28355104
_cell_formula_units_Z   2
loop_
 _symmetry_equiv_pos_site_id
 _symmetry_equiv_pos_as_xyz
  1  'x, y, z'
loop_
 _atom_site_type_symbol
 _atom_site_label
 _atom_site_symmetry_multiplicity
 _atom_site_fract_x
 _atom_site_fract_y
 _atom_site_fract_z
 _atom_site_occupancy
  Sr  Sr0  1  0.23880600  0.76943400  0.04277200  1
  Sr  Sr1  1  0.76119400  0.23056600  0.95722800  1
  Ti  Ti2  1  0.66027900  0.83675800  0.55944800  1
  Ti  Ti3  1  0.33972100  0.16324200  0.44055200  1
  P  P4  1  0.41947300  0.43643800  0.23031200  1
  P  P5  1  0.58052700  0.56356200  0.76968800  1
  P  P6  1  0.84398800  0.03401000  0.30475300  1
  P  P7  1  0.15601200  0.96599000  0.69524700  1
  O  O8  1  0.82524500  0.55335800  0.87551000  1
  O  O9  1  0.64911100  0.46145700  0.16834100  1
  O  O10  1  0.62019600  0.76614900  0.73389200  1
  O  O11  1  0.94445900  0.09089000  0.69446400  1
  O  O12  1  0.35088900  0.53854300  0.83165900  1
  O  O13  1  0.98358300  0.75842500  0.57308400  1
  O  O14  1  0.01641700  0.24157500  0.42691600  1
  O  O15  1  0.27906000  0.98349800  0.86327800  1
  O  O16  1  0.37980400  0.23385100  0.26610800  1
  O  O17  1  0.72094000  0.01650200  0.13672200  1
  O  O18  1  0.17475500  0.44664200  0.12449000  1
  O  O19  1  0.47213800  0.60903500  0.39939200  1
  O  O20  1  0.52786200  0.39096500  0.60060800  1
  O  O21  1  0.62275600  0.97557800  0.38197800  1
  O  O22  1  0.05554100  0.90911000  0.30553600  1
  O  O23  1  0.37724400  0.02442200  0.61802200  1
