# generated using pymatgen
data_Ba2MgCo2CuF14
_symmetry_space_group_name_H-M   'P 1'
_cell_length_a   7.45331796
_cell_length_b   7.45331796
_cell_length_c   14.58894942
_cell_angle_alpha   87.56822482
_cell_angle_beta   87.56822482
_cell_angle_gamma   41.90554769
_symmetry_Int_Tables_number   1
_chemical_formula_structural   Ba2MgCo2CuF14
_chemical_formula_sum   'Ba4 Mg2 Co4 Cu2 F28'
_cell_volume   540.74069405
_cell_formula_units_Z   2
loop_
 _symmetry_equiv_pos_site_id
 _symmetry_equiv_pos_as_xyz
  1  'x, y, z'
loop_
 _atom_site_type_symbol
 _atom_site_label
 _atom_site_symmetry_multiplicity
 _atom_site_fract_x
 _atom_site_fract_y
 _atom_site_fract_z
 _atom_site_occupancy
  Ba  Ba0  1  0.73429500  0.88830100  0.12477800  1
  Ba  Ba1  1  0.88830100  0.73429500  0.62477800  1
  Ba  Ba2  1  0.26570500  0.11169900  0.87522200  1
  Ba  Ba3  1  0.11169900  0.26570500  0.37522200  1
  Mg  Mg4  1  0.44048800  0.55951200  0.25000000  1
  Mg  Mg5  1  0.55951200  0.44048800  0.75000000  1
  Co  Co6  1  0.86218400  0.90140200  0.37287900  1
  Co  Co7  1  0.13781600  0.09859800  0.62712100  1
  Co  Co8  1  0.90140200  0.86218400  0.87287900  1
  Co  Co9  1  0.09859800  0.13781600  0.12712100  1
  Cu  Cu10  1  0.50000000  0.50000000  0.50000000  1
  Cu  Cu11  1  0.50000000  0.50000000  0.00000000  1
  F  F12  1  0.90299400  0.10423200  0.83859500  1
  F  F13  1  0.59194400  0.12829100  0.95664600  1
  F  F14  1  0.40805600  0.87170900  0.04335400  1
  F  F15  1  0.14805800  0.34375700  0.09845900  1
  F  F16  1  0.49989600  0.39977200  0.12312700  1
  F  F17  1  0.60022800  0.50010400  0.37687300  1
  F  F18  1  0.12829100  0.59194400  0.45664600  1
  F  F19  1  0.89576800  0.09700600  0.66140500  1
  F  F20  1  0.04037000  0.63780600  0.27400700  1
  F  F21  1  0.85194200  0.65624300  0.90154100  1
  F  F22  1  0.58299400  0.19718500  0.28860300  1
  F  F23  1  0.65624300  0.85194200  0.40154100  1
  F  F24  1  0.19718500  0.58299400  0.78860300  1
  F  F25  1  0.41700600  0.80281500  0.71139700  1
  F  F26  1  0.39977200  0.49989600  0.62312700  1
  F  F27  1  0.95963000  0.36219400  0.72599300  1
  F  F28  1  0.28534800  0.87662500  0.51690500  1
  F  F29  1  0.09700600  0.89576800  0.16140500  1
  F  F30  1  0.71465200  0.12337500  0.48309500  1
  F  F31  1  0.87662500  0.28534800  0.01690500  1
  F  F32  1  0.87170900  0.40805600  0.54335400  1
  F  F33  1  0.80281500  0.41700600  0.21139700  1
  F  F34  1  0.63780600  0.04037000  0.77400700  1
  F  F35  1  0.12337500  0.71465200  0.98309500  1
  F  F36  1  0.50010400  0.60022800  0.87687300  1
  F  F37  1  0.10423200  0.90299400  0.33859500  1
  F  F38  1  0.36219400  0.95963000  0.22599300  1
  F  F39  1  0.34375700  0.14805800  0.59845900  1
