# generated using pymatgen
data_ZnCrO2
_symmetry_space_group_name_H-M   'P 1'
_cell_length_a   3.07013200
_cell_length_b   8.03506960
_cell_length_c   8.58323211
_cell_angle_alpha   89.97240425
_cell_angle_beta   93.89725659
_cell_angle_gamma   93.74540730
_symmetry_Int_Tables_number   1
_chemical_formula_structural   ZnCrO2
_chemical_formula_sum   'Zn4 Cr4 O8'
_cell_volume   210.79489428
_cell_formula_units_Z   4
loop_
 _symmetry_equiv_pos_site_id
 _symmetry_equiv_pos_as_xyz
  1  'x, y, z'
loop_
 _atom_site_type_symbol
 _atom_site_label
 _atom_site_symmetry_multiplicity
 _atom_site_fract_x
 _atom_site_fract_y
 _atom_site_fract_z
 _atom_site_occupancy
  Zn  Zn0  1  0.84341700  0.08265000  0.73576400  1
  Zn  Zn1  1  0.15658300  0.91735000  0.26423600  1
  Zn  Zn2  1  0.24924700  0.74840600  0.89694500  1
  Zn  Zn3  1  0.75075300  0.25159400  0.10305500  1
  Cr  Cr4  1  0.49303300  0.24892900  0.42739400  1
  Cr  Cr5  1  0.23255100  0.42343900  0.80012400  1
  Cr  Cr6  1  0.76744900  0.57656100  0.19987600  1
  Cr  Cr7  1  0.50696700  0.75107100  0.57260600  1
  O  O8  1  0.98053800  0.74842900  0.42001300  1
  O  O9  1  0.24724000  0.39299600  0.22906600  1
  O  O10  1  0.75276000  0.60700400  0.77093400  1
  O  O11  1  0.01946200  0.25157100  0.57998700  1
  O  O12  1  0.68216800  0.07649500  0.25462000  1
  O  O13  1  0.72333000  0.27135100  0.88277100  1
  O  O14  1  0.31783200  0.92350500  0.74538000  1
  O  O15  1  0.27667000  0.72864900  0.11722900  1
