# generated using pymatgen
data_Sn5(TeO6)3
_symmetry_space_group_name_H-M   'P 1'
_cell_length_a   9.01324907
_cell_length_b   9.01324907
_cell_length_c   11.10986697
_cell_angle_alpha   84.00186001
_cell_angle_beta   84.00186001
_cell_angle_gamma   60.29186439
_symmetry_Int_Tables_number   1
_chemical_formula_structural   Sn5(TeO6)3
_chemical_formula_sum   'Sn10 Te6 O36'
_cell_volume   778.17591115
_cell_formula_units_Z   2
loop_
 _symmetry_equiv_pos_site_id
 _symmetry_equiv_pos_as_xyz
  1  'x, y, z'
loop_
 _atom_site_type_symbol
 _atom_site_label
 _atom_site_symmetry_multiplicity
 _atom_site_fract_x
 _atom_site_fract_y
 _atom_site_fract_z
 _atom_site_occupancy
  Sn  Sn0  1  0.30706600  0.00345400  0.73028300  1
  Sn  Sn1  1  0.00345400  0.30706600  0.23028300  1
  Sn  Sn2  1  0.17236600  0.51758300  0.03478300  1
  Sn  Sn3  1  0.51758300  0.17236600  0.53478300  1
  Sn  Sn4  1  0.48241700  0.82763400  0.46521700  1
  Sn  Sn5  1  0.81959300  0.18040700  0.75000000  1
  Sn  Sn6  1  0.18040700  0.81959300  0.25000000  1
  Sn  Sn7  1  0.82763400  0.48241700  0.96521700  1
  Sn  Sn8  1  0.69293400  0.99654600  0.26971700  1
  Sn  Sn9  1  0.99654600  0.69293400  0.76971700  1
  Te  Te10  1  0.67875800  0.65903200  0.70721300  1
  Te  Te11  1  0.00000000  0.00000000  0.00000000  1
  Te  Te12  1  0.00000000  0.00000000  0.50000000  1
  Te  Te13  1  0.65903200  0.67875800  0.20721300  1
  Te  Te14  1  0.32124200  0.34096800  0.29278700  1
  Te  Te15  1  0.34096800  0.32124200  0.79278700  1
  O  O16  1  0.89799000  0.61514000  0.63980100  1
  O  O17  1  0.25422500  0.93691400  0.56622900  1
  O  O18  1  0.43634400  0.75153800  0.30553300  1
  O  O19  1  0.92456600  0.92426800  0.18196100  1
  O  O20  1  0.06308600  0.74577500  0.93377100  1
  O  O21  1  0.07573200  0.07543400  0.31803900  1
  O  O22  1  0.60349700  0.60732200  0.07095900  1
  O  O23  1  0.88497100  0.23017500  0.58284700  1
  O  O24  1  0.11502900  0.76982500  0.41715300  1
  O  O25  1  0.23689300  0.28764400  0.14520200  1
  O  O26  1  0.45868200  0.75612800  0.79327100  1
  O  O27  1  0.76310700  0.71235600  0.85479800  1
  O  O28  1  0.74577500  0.06308600  0.43377100  1
  O  O29  1  0.55956100  0.91666100  0.61246400  1
  O  O30  1  0.24387200  0.54131800  0.70672900  1
  O  O31  1  0.39650300  0.39267800  0.92904100  1
  O  O32  1  0.54131800  0.24387200  0.20672900  1
  O  O33  1  0.08333900  0.44043900  0.88753600  1
  O  O34  1  0.24846200  0.56365600  0.19446700  1
  O  O35  1  0.75612800  0.45868200  0.29327100  1
  O  O36  1  0.61514000  0.89799000  0.13980100  1
  O  O37  1  0.44043900  0.08333900  0.38753600  1
  O  O38  1  0.76982500  0.11502900  0.91715300  1
  O  O39  1  0.60732200  0.60349700  0.57095900  1
  O  O40  1  0.56365600  0.24846200  0.69446700  1
  O  O41  1  0.92426800  0.92456600  0.68196100  1
  O  O42  1  0.28764400  0.23689300  0.64520200  1
  O  O43  1  0.39267800  0.39650300  0.42904100  1
  O  O44  1  0.93691400  0.25422500  0.06622900  1
  O  O45  1  0.91666100  0.55956100  0.11246400  1
  O  O46  1  0.10201000  0.38486000  0.36019900  1
  O  O47  1  0.07543400  0.07573200  0.81803900  1
  O  O48  1  0.23017500  0.88497100  0.08284700  1
  O  O49  1  0.71235600  0.76310700  0.35479800  1
  O  O50  1  0.75153800  0.43634400  0.80553300  1
  O  O51  1  0.38486000  0.10201000  0.86019900  1
