# generated using pymatgen
data_Cr5O7
_symmetry_space_group_name_H-M   'P 1'
_cell_length_a   5.30239030
_cell_length_b   5.30239030
_cell_length_c   18.23946800
_cell_angle_alpha   90.00000000
_cell_angle_beta   90.00000000
_cell_angle_gamma   146.91788466
_symmetry_Int_Tables_number   1
_chemical_formula_structural   Cr5O7
_chemical_formula_sum   'Cr10 O14'
_cell_volume   279.91183612
_cell_formula_units_Z   2
loop_
 _symmetry_equiv_pos_site_id
 _symmetry_equiv_pos_as_xyz
  1  'x, y, z'
loop_
 _atom_site_type_symbol
 _atom_site_label
 _atom_site_symmetry_multiplicity
 _atom_site_fract_x
 _atom_site_fract_y
 _atom_site_fract_z
 _atom_site_occupancy
  Cr  Cr0  1  0.73278100  0.26721900  0.57483900  1
  Cr  Cr1  1  0.00000000  0.00000000  0.50000000  1
  Cr  Cr2  1  0.00000000  0.00000000  0.00000000  1
  Cr  Cr3  1  0.26721900  0.73278100  0.42516100  1
  Cr  Cr4  1  0.26721900  0.73278100  0.07483900  1
  Cr  Cr5  1  0.73278100  0.26721900  0.92516100  1
  Cr  Cr6  1  0.53526400  0.46473600  0.15965800  1
  Cr  Cr7  1  0.46473600  0.53526400  0.84034200  1
  Cr  Cr8  1  0.46473600  0.53526400  0.65965800  1
  Cr  Cr9  1  0.53526400  0.46473600  0.34034200  1
  O  O10  1  0.35069100  0.64930900  0.96790400  1
  O  O11  1  0.64930900  0.35069100  0.03209600  1
  O  O12  1  0.64930900  0.35069100  0.46790400  1
  O  O13  1  0.35069100  0.64930900  0.53209600  1
  O  O14  1  0.84584600  0.15415400  0.83949600  1
  O  O15  1  0.15415400  0.84584600  0.16050400  1
  O  O16  1  0.15415400  0.84584600  0.33949600  1
  O  O17  1  0.84584600  0.15415400  0.66050400  1
  O  O18  1  0.10071500  0.89928500  0.90103500  1
  O  O19  1  0.89928500  0.10071500  0.09896500  1
  O  O20  1  0.89928500  0.10071500  0.40103500  1
  O  O21  1  0.10071500  0.89928500  0.59896500  1
  O  O22  1  0.54093400  0.45906600  0.75000000  1
  O  O23  1  0.45906600  0.54093400  0.25000000  1
