# generated using pymatgen
data_Ca2Cr9O13
_symmetry_space_group_name_H-M   'P 1'
_cell_length_a   3.12156900
_cell_length_b   5.37201436
_cell_length_c   16.62701267
_cell_angle_alpha   81.38765892
_cell_angle_beta   85.24933304
_cell_angle_gamma   75.74084460
_symmetry_Int_Tables_number   1
_chemical_formula_structural   Ca2Cr9O13
_chemical_formula_sum   'Ca2 Cr9 O13'
_cell_volume   266.87601544
_cell_formula_units_Z   1
loop_
 _symmetry_equiv_pos_site_id
 _symmetry_equiv_pos_as_xyz
  1  'x, y, z'
loop_
 _atom_site_type_symbol
 _atom_site_label
 _atom_site_symmetry_multiplicity
 _atom_site_fract_x
 _atom_site_fract_y
 _atom_site_fract_z
 _atom_site_occupancy
  Ca  Ca0  1  0.75157100  0.23362600  0.23032400  1
  Ca  Ca1  1  0.24842900  0.76637400  0.76967600  1
  Cr  Cr2  1  0.50000000  0.50000000  0.50000000  1
  Cr  Cr3  1  0.35255700  0.25777300  0.03955300  1
  Cr  Cr4  1  0.64744300  0.74222700  0.96044700  1
  Cr  Cr5  1  0.24733300  0.09492900  0.42076500  1
  Cr  Cr6  1  0.75266700  0.90507100  0.57923500  1
  Cr  Cr7  1  0.04581600  0.77180700  0.12223800  1
  Cr  Cr8  1  0.95418400  0.22819300  0.87776200  1
  Cr  Cr9  1  0.99426100  0.67663800  0.33808200  1
  Cr  Cr10  1  0.00573900  0.32336200  0.66191800  1
  O  O11  1  0.00000000  0.00000000  0.00000000  1
  O  O12  1  0.10232800  0.55690800  0.22990900  1
  O  O13  1  0.89767200  0.44309200  0.77009100  1
  O  O14  1  0.66060700  0.54676800  0.07936000  1
  O  O15  1  0.33939300  0.45323200  0.92064000  1
  O  O16  1  0.42023500  0.01392000  0.14446700  1
  O  O17  1  0.57976500  0.98608000  0.85553300  1
  O  O18  1  0.38423500  0.93572000  0.31637000  1
  O  O19  1  0.61576500  0.06428000  0.68363000  1
  O  O20  1  0.56365200  0.41467800  0.37931700  1
  O  O21  1  0.43634800  0.58532200  0.62068300  1
  O  O22  1  0.94881200  0.79076100  0.46065400  1
  O  O23  1  0.05118800  0.20923900  0.53934600  1
