# generated using pymatgen
data_CaSn5O7
_symmetry_space_group_name_H-M   'P 1'
_cell_length_a   5.61305406
_cell_length_b   5.61305406
_cell_length_c   23.04869100
_cell_angle_alpha   90.00000000
_cell_angle_beta   90.00000000
_cell_angle_gamma   146.55048679
_symmetry_Int_Tables_number   1
_chemical_formula_structural   CaSn5O7
_chemical_formula_sum   'Ca2 Sn10 O14'
_cell_volume   400.27225423
_cell_formula_units_Z   2
loop_
 _symmetry_equiv_pos_site_id
 _symmetry_equiv_pos_as_xyz
  1  'x, y, z'
loop_
 _atom_site_type_symbol
 _atom_site_label
 _atom_site_symmetry_multiplicity
 _atom_site_fract_x
 _atom_site_fract_y
 _atom_site_fract_z
 _atom_site_occupancy
  Ca  Ca0  1  0.18594300  0.81405700  0.75000000  1
  Ca  Ca1  1  0.81405700  0.18594300  0.25000000  1
  Sn  Sn2  1  0.72553000  0.27447100  0.58435000  1
  Sn  Sn3  1  0.54895000  0.45105000  0.16680000  1
  Sn  Sn4  1  0.00000000  0.00000000  0.50000000  1
  Sn  Sn5  1  0.00000000  0.00000000  0.00000000  1
  Sn  Sn6  1  0.45105000  0.54895000  0.83320100  1
  Sn  Sn7  1  0.27447000  0.72552900  0.41565000  1
  Sn  Sn8  1  0.27447000  0.72552900  0.08435000  1
  Sn  Sn9  1  0.72553000  0.27447100  0.91565000  1
  Sn  Sn10  1  0.45105000  0.54895000  0.66679900  1
  Sn  Sn11  1  0.54895000  0.45105000  0.33320100  1
  O  O12  1  0.37331300  0.62668700  0.91668900  1
  O  O13  1  0.62668700  0.37331300  0.08331100  1
  O  O14  1  0.62668700  0.37331300  0.41668900  1
  O  O15  1  0.37331300  0.62668700  0.58331100  1
  O  O16  1  0.81627700  0.18372300  0.81661700  1
  O  O17  1  0.18372300  0.81627700  0.18338300  1
  O  O18  1  0.18372300  0.81627700  0.31661700  1
  O  O19  1  0.81627700  0.18372300  0.68338300  1
  O  O20  1  0.07213400  0.92786600  0.84974500  1
  O  O21  1  0.92786600  0.07213400  0.15025500  1
  O  O22  1  0.92786600  0.07213400  0.34974500  1
  O  O23  1  0.07213400  0.92786600  0.65025500  1
  O  O24  1  0.52779100  0.47220900  0.75000000  1
  O  O25  1  0.47220900  0.52779100  0.25000000  1
