# generated using pymatgen
data_V4Bi23O44
_symmetry_space_group_name_H-M   'P 1'
_cell_length_a   11.80104000
_cell_length_b   11.87732305
_cell_length_c   11.97456832
_cell_angle_alpha   60.78361986
_cell_angle_beta   60.65885567
_cell_angle_gamma   61.71188732
_symmetry_Int_Tables_number   1
_chemical_formula_structural   V4Bi23O44
_chemical_formula_sum   'V4 Bi23 O44'
_cell_volume   1214.67659773
_cell_formula_units_Z   1
loop_
 _symmetry_equiv_pos_site_id
 _symmetry_equiv_pos_as_xyz
  1  'x, y, z'
loop_
 _atom_site_type_symbol
 _atom_site_label
 _atom_site_symmetry_multiplicity
 _atom_site_fract_x
 _atom_site_fract_y
 _atom_site_fract_z
 _atom_site_occupancy
  V  V0  1  0.67548900  0.83802400  0.80215900  1
  V  V1  1  0.31392400  0.19939000  0.16748200  1
  V  V2  1  0.04203500  0.84864100  0.14947300  1
  V  V3  1  0.02340700  0.14144800  0.84220300  1
  Bi  Bi4  1  0.28992600  0.52813600  0.85206100  1
  Bi  Bi5  1  0.30635900  0.18534700  0.80791900  1
  Bi  Bi6  1  0.67131400  0.46940100  0.54763800  1
  Bi  Bi7  1  0.66770000  0.17028500  0.48228900  1
  Bi  Bi8  1  0.96986700  0.51727800  0.20231100  1
  Bi  Bi9  1  0.33230200  0.85157100  0.82288100  1
  Bi  Bi10  1  0.70884200  0.15427200  0.82313300  1
  Bi  Bi11  1  0.99364400  0.18454800  0.17984300  1
  Bi  Bi12  1  0.66894200  0.83022700  0.47706700  1
  Bi  Bi13  1  0.33062100  0.51473200  0.13721200  1
  Bi  Bi14  1  0.00257800  0.16137700  0.50387000  1
  Bi  Bi15  1  0.00842700  0.83729900  0.49899900  1
  Bi  Bi16  1  0.65888300  0.50382600  0.84212600  1
  Bi  Bi17  1  0.34016500  0.16240700  0.48587300  1
  Bi  Bi18  1  0.99623800  0.83825600  0.83813600  1
  Bi  Bi19  1  0.01228800  0.48907900  0.51187900  1
  Bi  Bi20  1  0.33110500  0.82382800  0.17979100  1
  Bi  Bi21  1  0.65399200  0.16183400  0.17388200  1
  Bi  Bi22  1  0.01363000  0.49105700  0.82602400  1
  Bi  Bi23  1  0.33514200  0.83325200  0.52519700  1
  Bi  Bi24  1  0.37604900  0.50053200  0.47921300  1
  Bi  Bi25  1  0.62705600  0.84913500  0.15351600  1
  Bi  Bi26  1  0.68611300  0.46305000  0.15827800  1
  O  O27  1  0.22479300  0.79231000  0.75884900  1
  O  O28  1  0.45738200  0.86481700  0.61043800  1
  O  O29  1  0.56870700  0.82122200  0.36844800  1
  O  O30  1  0.43747600  0.60715100  0.91685000  1
  O  O31  1  0.77780300  0.65994900  0.15824600  1
  O  O32  1  0.69818700  0.61244100  0.61030300  1
  O  O33  1  0.60014500  0.39616100  0.38806700  1
  O  O34  1  0.17335200  0.56858800  0.05070800  1
  O  O35  1  0.62724300  0.37720800  0.77029100  1
  O  O36  1  0.74287200  0.88559600  0.62378300  1
  O  O37  1  0.91379100  0.41443800  0.44376000  1
  O  O38  1  0.91659800  0.39950200  0.14746400  1
  O  O39  1  0.74062100  0.22516900  0.60474100  1
  O  O40  1  0.49802700  0.90723300  0.85111100  1
  O  O41  1  0.95054100  0.09261500  0.39419100  1
  O  O42  1  0.92762000  0.13070300  0.75330700  1
  O  O43  1  0.74505400  0.89519500  0.85858800  1
  O  O44  1  0.13801000  0.26637500  0.25135200  1
  O  O45  1  0.71805900  0.66185400  0.86875700  1
  O  O46  1  0.04634400  0.96117600  0.98099700  1
  O  O47  1  0.33445500  0.06328000  0.13473500  1
  O  O48  1  0.00798100  0.93820600  0.24530700  1
  O  O49  1  0.02408900  0.91028100  0.62530000  1
  O  O50  1  0.36908000  0.32279100  0.01667400  1
  O  O51  1  0.21891300  0.74482200  0.13437900  1
  O  O52  1  0.72048100  0.99898600  0.06535600  1
  O  O53  1  0.42081000  0.16179100  0.25494100  1
  O  O54  1  0.23276300  0.80040200  0.39030600  1
  O  O55  1  0.06680500  0.63022700  0.85759300  1
  O  O56  1  0.06217000  0.60121000  0.60581200  1
  O  O57  1  0.22666900  0.05231300  0.49352800  1
  O  O58  1  0.83283400  0.24026000  0.95913900  1
  O  O59  1  0.44676000  0.61711500  0.24037200  1
  O  O60  1  0.83311500  0.36717400  0.95562700  1
  O  O61  1  0.42910400  0.57141800  0.57782400  1
  O  O62  1  0.22012700  0.38791100  0.41097000  1
  O  O63  1  0.23118500  0.39388400  0.81512000  1
  O  O64  1  0.09130500  0.26782300  0.82864000  1
  O  O65  1  0.93702300  0.75279100  0.23337200  1
  O  O66  1  0.23774700  0.07665900  0.73283200  1
  O  O67  1  0.55909100  0.38523000  0.12012300  1
  O  O68  1  0.42528700  0.25691800  0.59837300  1
  O  O69  1  0.58572800  0.08089200  0.40817400  1
  O  O70  1  0.77451200  0.22498100  0.24129700  1
