# generated using pymatgen
data_Mg4Ti5(TeO6)3
_symmetry_space_group_name_H-M   'P 1'
_cell_length_a   8.75749130
_cell_length_b   8.75749130
_cell_length_c   11.08158727
_cell_angle_alpha   87.51437706
_cell_angle_beta   87.51437706
_cell_angle_gamma   65.43606416
_symmetry_Int_Tables_number   1
_chemical_formula_structural   Mg4Ti5(TeO6)3
_chemical_formula_sum   'Mg8 Ti10 Te6 O36'
_cell_volume   771.94324983
_cell_formula_units_Z   2
loop_
 _symmetry_equiv_pos_site_id
 _symmetry_equiv_pos_as_xyz
  1  'x, y, z'
loop_
 _atom_site_type_symbol
 _atom_site_label
 _atom_site_symmetry_multiplicity
 _atom_site_fract_x
 _atom_site_fract_y
 _atom_site_fract_z
 _atom_site_occupancy
  Mg  Mg0  1  0.93325200  0.65966400  0.42202300  1
  Mg  Mg1  1  0.31037000  0.63213300  0.54262600  1
  Mg  Mg2  1  0.34033600  0.06674800  0.07797700  1
  Mg  Mg3  1  0.36786700  0.68963000  0.95737400  1
  Mg  Mg4  1  0.63213300  0.31037000  0.04262600  1
  Mg  Mg5  1  0.65966400  0.93325200  0.92202300  1
  Mg  Mg6  1  0.06674800  0.34033600  0.57797700  1
  Mg  Mg7  1  0.68963000  0.36786700  0.45737400  1
  Ti  Ti8  1  0.01864600  0.68509900  0.79284200  1
  Ti  Ti9  1  0.68509900  0.01864600  0.29284200  1
  Ti  Ti10  1  0.47252800  0.86007900  0.44191100  1
  Ti  Ti11  1  0.86007900  0.47252800  0.94191100  1
  Ti  Ti12  1  0.13992100  0.52747200  0.05808900  1
  Ti  Ti13  1  0.85424600  0.14575400  0.75000000  1
  Ti  Ti14  1  0.14575400  0.85424600  0.25000000  1
  Ti  Ti15  1  0.52747200  0.13992100  0.55808900  1
  Ti  Ti16  1  0.98135400  0.31490100  0.20715800  1
  Ti  Ti17  1  0.31490100  0.98135400  0.70715800  1
  Te  Te18  1  0.37033300  0.32121600  0.81888800  1
  Te  Te19  1  0.00000000  0.00000000  0.50000000  1
  Te  Te20  1  0.00000000  0.00000000  0.00000000  1
  Te  Te21  1  0.32121600  0.37033300  0.31888800  1
  Te  Te22  1  0.62966700  0.67878400  0.18111200  1
  Te  Te23  1  0.67878400  0.62966700  0.68111200  1
  O  O24  1  0.41119900  0.09554000  0.89482800  1
  O  O25  1  0.10371800  0.73072300  0.94096100  1
  O  O26  1  0.18879500  0.64112500  0.17561600  1
  O  O27  1  0.09185700  0.09733200  0.24150800  1
  O  O28  1  0.26927700  0.89628200  0.55903900  1
  O  O29  1  0.90266800  0.90814300  0.25849200  1
  O  O30  1  0.43759400  0.38323700  0.47282700  1
  O  O31  1  0.74089200  0.11480800  0.92442800  1
  O  O32  1  0.25910800  0.88519200  0.07557200  1
  O  O33  1  0.69271700  0.78665800  0.36242900  1
  O  O34  1  0.20806500  0.59139700  0.69937200  1
  O  O35  1  0.30728300  0.21334200  0.63757100  1
  O  O36  1  0.89628200  0.26927700  0.05903900  1
  O  O37  1  0.08175000  0.45075700  0.89752900  1
  O  O38  1  0.40860300  0.79193500  0.80062800  1
  O  O39  1  0.56240600  0.61676300  0.52717300  1
  O  O40  1  0.79193500  0.40860300  0.30062800  1
  O  O41  1  0.54924300  0.91825000  0.60247100  1
  O  O42  1  0.35887500  0.81120500  0.32438400  1
  O  O43  1  0.59139700  0.20806500  0.19937200  1
  O  O44  1  0.09554000  0.41119900  0.39482800  1
  O  O45  1  0.91825000  0.54924300  0.10247100  1
  O  O46  1  0.88519200  0.25910800  0.57557200  1
  O  O47  1  0.38323700  0.43759400  0.97282700  1
  O  O48  1  0.81120500  0.35887500  0.82438400  1
  O  O49  1  0.09733200  0.09185700  0.74150800  1
  O  O50  1  0.78665800  0.69271700  0.86242900  1
  O  O51  1  0.61676300  0.56240600  0.02717300  1
  O  O52  1  0.73072300  0.10371800  0.44096100  1
  O  O53  1  0.45075700  0.08175000  0.39752900  1
  O  O54  1  0.58880100  0.90446000  0.10517200  1
  O  O55  1  0.90814300  0.90266800  0.75849200  1
  O  O56  1  0.11480800  0.74089200  0.42442800  1
  O  O57  1  0.21334200  0.30728300  0.13757100  1
  O  O58  1  0.64112500  0.18879500  0.67561600  1
  O  O59  1  0.90446000  0.58880100  0.60517200  1
