# generated using pymatgen
data_MgCr(PO3)4
_symmetry_space_group_name_H-M   'P 1'
_cell_length_a   7.45035178
_cell_length_b   7.45035178
_cell_length_c   10.12250723
_cell_angle_alpha   66.18242641
_cell_angle_beta   66.18242641
_cell_angle_gamma   68.50722553
_symmetry_Int_Tables_number   1
_chemical_formula_structural   MgCr(PO3)4
_chemical_formula_sum   'Mg2 Cr2 P8 O24'
_cell_volume   456.16305176
_cell_formula_units_Z   2
loop_
 _symmetry_equiv_pos_site_id
 _symmetry_equiv_pos_as_xyz
  1  'x, y, z'
loop_
 _atom_site_type_symbol
 _atom_site_label
 _atom_site_symmetry_multiplicity
 _atom_site_fract_x
 _atom_site_fract_y
 _atom_site_fract_z
 _atom_site_occupancy
  Mg  Mg0  1  0.95451100  0.04548900  0.75000000  1
  Mg  Mg1  1  0.04548900  0.95451100  0.25000000  1
  Cr  Cr2  1  0.00000000  0.50000000  0.50000000  1
  Cr  Cr3  1  0.50000000  0.00000000  0.00000000  1
  P  P4  1  0.70108300  0.68564000  0.80629200  1
  P  P5  1  0.31436000  0.29891700  0.69370800  1
  P  P6  1  0.29891700  0.31436000  0.19370800  1
  P  P7  1  0.68564000  0.70108300  0.30629200  1
  P  P8  1  0.74878400  0.27207400  0.02066300  1
  P  P9  1  0.72792600  0.25121600  0.47933700  1
  P  P10  1  0.25121600  0.72792600  0.97933700  1
  P  P11  1  0.27207400  0.74878400  0.52066300  1
  O  O12  1  0.46728100  0.69035400  0.85005000  1
  O  O13  1  0.30964600  0.53271900  0.64995000  1
  O  O14  1  0.53271900  0.30964600  0.14995000  1
  O  O15  1  0.69035400  0.46728100  0.35005000  1
  O  O16  1  0.77964500  0.49853600  0.93723100  1
  O  O17  1  0.50146400  0.22035500  0.56276900  1
  O  O18  1  0.22035500  0.50146400  0.06276900  1
  O  O19  1  0.49853600  0.77964500  0.43723100  1
  O  O20  1  0.80486100  0.65048000  0.65576800  1
  O  O21  1  0.34952000  0.19513900  0.84423200  1
  O  O22  1  0.19513900  0.34952000  0.34423200  1
  O  O23  1  0.65048000  0.80486100  0.15576800  1
  O  O24  1  0.71857000  0.87166200  0.82342100  1
  O  O25  1  0.12833800  0.28143000  0.67657900  1
  O  O26  1  0.28143000  0.12833800  0.17657900  1
  O  O27  1  0.87166200  0.71857000  0.32342100  1
  O  O28  1  0.73049400  0.19330200  0.91123300  1
  O  O29  1  0.80669800  0.26950600  0.58876700  1
  O  O30  1  0.26950600  0.80669800  0.08876700  1
  O  O31  1  0.19330200  0.73049400  0.41123300  1
  O  O32  1  0.90581100  0.15763200  0.09799600  1
  O  O33  1  0.84236800  0.09418900  0.40200400  1
  O  O34  1  0.09418900  0.84236800  0.90200400  1
  O  O35  1  0.15763200  0.90581100  0.59799600  1
