# generated using pymatgen
data_TiGa2O5
_symmetry_space_group_name_H-M   'P 1'
_cell_length_a   7.41646576
_cell_length_b   5.27952234
_cell_length_c   10.03580700
_cell_angle_alpha   90.00000000
_cell_angle_beta   90.00000000
_cell_angle_gamma   110.48417112
_symmetry_Int_Tables_number   1
_chemical_formula_structural   TiGa2O5
_chemical_formula_sum   'Ti4 Ga8 O20'
_cell_volume   368.10896524
_cell_formula_units_Z   4
loop_
 _symmetry_equiv_pos_site_id
 _symmetry_equiv_pos_as_xyz
  1  'x, y, z'
loop_
 _atom_site_type_symbol
 _atom_site_label
 _atom_site_symmetry_multiplicity
 _atom_site_fract_x
 _atom_site_fract_y
 _atom_site_fract_z
 _atom_site_occupancy
  Ti  Ti0  1  0.09245100  0.35572900  0.24940100  1
  Ti  Ti1  1  0.43334900  0.73465500  0.05996500  1
  Ti  Ti2  1  0.56665100  0.26534500  0.55996500  1
  Ti  Ti3  1  0.90754900  0.64427100  0.74940100  1
  Ga  Ga4  1  0.07122900  0.28290500  0.56255400  1
  Ga  Ga5  1  0.06797200  0.27419100  0.93561000  1
  Ga  Ga6  1  0.40342700  0.62533300  0.75014500  1
  Ga  Ga7  1  0.43155400  0.72865300  0.43405200  1
  Ga  Ga8  1  0.56844600  0.27134700  0.93405200  1
  Ga  Ga9  1  0.59657300  0.37466700  0.25014500  1
  Ga  Ga10  1  0.92877100  0.71709500  0.06255400  1
  Ga  Ga11  1  0.93202800  0.72580900  0.43561000  1
  O  O12  1  0.02803800  0.09254100  0.11786900  1
  O  O13  1  0.02889200  0.09703900  0.38269800  1
  O  O14  1  0.11183500  0.48432600  0.74911900  1
  O  O15  1  0.15781900  0.61675800  0.07025500  1
  O  O16  1  0.15552500  0.61493900  0.43285300  1
  O  O17  1  0.34882400  0.38439300  0.58159600  1
  O  O18  1  0.34698300  0.38128900  0.92126500  1
  O  O19  1  0.37241400  0.51395100  0.24865800  1
  O  O20  1  0.47744600  0.91348400  0.61717600  1
  O  O21  1  0.47733300  0.89593700  0.88678500  1
  O  O22  1  0.52266700  0.10406300  0.38678500  1
  O  O23  1  0.52255400  0.08651600  0.11717600  1
  O  O24  1  0.62758600  0.48604900  0.74865800  1
  O  O25  1  0.65117600  0.61560700  0.08159600  1
  O  O26  1  0.65301700  0.61871100  0.42126500  1
  O  O27  1  0.84218100  0.38324200  0.57025500  1
  O  O28  1  0.84447500  0.38506100  0.93285300  1
  O  O29  1  0.88816500  0.51567400  0.24911900  1
  O  O30  1  0.97196200  0.90745900  0.61786900  1
  O  O31  1  0.97110800  0.90296100  0.88269800  1
