# generated using pymatgen
data_Ta2WO8
_symmetry_space_group_name_H-M   'P 1'
_cell_length_a   10.45747920
_cell_length_b   10.45747920
_cell_length_c   5.17231983
_cell_angle_alpha   88.41009206
_cell_angle_beta   88.41009206
_cell_angle_gamma   34.12182388
_symmetry_Int_Tables_number   1
_chemical_formula_structural   Ta2WO8
_chemical_formula_sum   'Ta4 W2 O16'
_cell_volume   317.16403509
_cell_formula_units_Z   2
loop_
 _symmetry_equiv_pos_site_id
 _symmetry_equiv_pos_as_xyz
  1  'x, y, z'
loop_
 _atom_site_type_symbol
 _atom_site_label
 _atom_site_symmetry_multiplicity
 _atom_site_fract_x
 _atom_site_fract_y
 _atom_site_fract_z
 _atom_site_occupancy
  Ta  Ta0  1  0.68985500  0.04429300  0.24517000  1
  Ta  Ta1  1  0.95570700  0.31014500  0.25483000  1
  Ta  Ta2  1  0.31014500  0.95570700  0.75483000  1
  Ta  Ta3  1  0.04429300  0.68985500  0.74517000  1
  W  W4  1  0.34486600  0.65513400  0.25000000  1
  W  W5  1  0.65513400  0.34486600  0.75000000  1
  O  O6  1  0.78455600  0.09989900  0.92056000  1
  O  O7  1  0.90010100  0.21544400  0.57944000  1
  O  O8  1  0.21544400  0.90010100  0.07944000  1
  O  O9  1  0.09989900  0.78455600  0.42056000  1
  O  O10  1  0.56234400  0.33441900  0.43109700  1
  O  O11  1  0.66558100  0.43765600  0.06890300  1
  O  O12  1  0.43765600  0.66558100  0.56890300  1
  O  O13  1  0.33441900  0.56234400  0.93109700  1
  O  O14  1  0.75828800  0.91579300  0.57578300  1
  O  O15  1  0.08420700  0.24171200  0.92421700  1
  O  O16  1  0.20300900  0.42685500  0.64625500  1
  O  O17  1  0.57314500  0.79699100  0.85374500  1
  O  O18  1  0.79699100  0.57314500  0.35374500  1
  O  O19  1  0.42685500  0.20300900  0.14625500  1
  O  O20  1  0.91579300  0.75828800  0.07578300  1
  O  O21  1  0.24171200  0.08420700  0.42421700  1
