# generated using pymatgen
data_Cr5(TeO6)3
_symmetry_space_group_name_H-M   'P 1'
_cell_length_a   8.42217963
_cell_length_b   8.42217963
_cell_length_c   10.45636051
_cell_angle_alpha   84.25333470
_cell_angle_beta   84.25333470
_cell_angle_gamma   61.34281953
_symmetry_Int_Tables_number   1
_chemical_formula_structural   Cr5(TeO6)3
_chemical_formula_sum   'Cr10 Te6 O36'
_cell_volume   646.42181548
_cell_formula_units_Z   2
loop_
 _symmetry_equiv_pos_site_id
 _symmetry_equiv_pos_as_xyz
  1  'x, y, z'
loop_
 _atom_site_type_symbol
 _atom_site_label
 _atom_site_symmetry_multiplicity
 _atom_site_fract_x
 _atom_site_fract_y
 _atom_site_fract_z
 _atom_site_occupancy
  Cr  Cr0  1  0.50248900  0.80812600  0.97803000  1
  Cr  Cr1  1  0.19359800  0.11715100  0.47447200  1
  Cr  Cr2  1  0.36557400  0.32398700  0.28334600  1
  Cr  Cr3  1  0.71503900  0.96874000  0.78636800  1
  Cr  Cr4  1  0.67601300  0.63442600  0.71665400  1
  Cr  Cr5  1  0.02610300  0.97389700  0.00000000  1
  Cr  Cr6  1  0.36858500  0.63141500  0.50000000  1
  Cr  Cr7  1  0.03126000  0.28496100  0.21363200  1
  Cr  Cr8  1  0.88284900  0.80640200  0.52552800  1
  Cr  Cr9  1  0.19187400  0.49751100  0.02197000  1
  Te  Te10  1  0.87542100  0.45700300  0.95468000  1
  Te  Te11  1  0.19486600  0.80627000  0.25482700  1
  Te  Te12  1  0.19373000  0.80513400  0.74517300  1
  Te  Te13  1  0.84529100  0.48435300  0.45298300  1
  Te  Te14  1  0.51564700  0.15470900  0.54701700  1
  Te  Te15  1  0.54299700  0.12457900  0.04532000  1
  O  O16  1  0.10817200  0.41523200  0.88509800  1
  O  O17  1  0.44569200  0.74053900  0.80850300  1
  O  O18  1  0.61911300  0.55737500  0.55894700  1
  O  O19  1  0.11822500  0.73391400  0.42708800  1
  O  O20  1  0.25946100  0.55430800  0.19149700  1
  O  O21  1  0.26608600  0.88177500  0.57291200  1
  O  O22  1  0.79635900  0.39625200  0.31121000  1
  O  O23  1  0.10125200  0.02602900  0.82390900  1
  O  O24  1  0.29349100  0.57771300  0.67656600  1
  O  O25  1  0.42364200  0.09693700  0.39304300  1
  O  O26  1  0.63778600  0.56965600  0.04445700  1
  O  O27  1  0.96849400  0.51831600  0.10337400  1
  O  O28  1  0.95215500  0.86666500  0.68393100  1
  O  O29  1  0.74828000  0.71682500  0.86550300  1
  O  O30  1  0.43034400  0.36221400  0.95554300  1
  O  O31  1  0.58887900  0.21492400  0.19568400  1
  O  O32  1  0.75431700  0.03461600  0.45113800  1
  O  O33  1  0.28317500  0.25172000  0.13449700  1
  O  O34  1  0.44262500  0.38088700  0.44105300  1
  O  O35  1  0.96538400  0.24568300  0.54886200  1
  O  O36  1  0.80741400  0.71746200  0.38833000  1
  O  O37  1  0.64434100  0.88698800  0.63548100  1
  O  O38  1  0.97397100  0.89874800  0.17609100  1
  O  O39  1  0.78507600  0.41112100  0.80431600  1
  O  O40  1  0.77224400  0.05154800  0.94514800  1
  O  O41  1  0.12902900  0.72469100  0.92672600  1
  O  O42  1  0.48168400  0.03150600  0.89662600  1
  O  O43  1  0.60374800  0.20364100  0.68879000  1
  O  O44  1  0.13333500  0.04784500  0.31606900  1
  O  O45  1  0.11301200  0.35565900  0.36451900  1
  O  O46  1  0.28253800  0.19258600  0.61167000  1
  O  O47  1  0.27530900  0.87097100  0.07327400  1
  O  O48  1  0.42228700  0.70650900  0.32343400  1
  O  O49  1  0.90306300  0.57635800  0.60695700  1
  O  O50  1  0.94845200  0.22775600  0.05485200  1
  O  O51  1  0.58476800  0.89182800  0.11490200  1
