# generated using pymatgen
data_Ba2CaTi2CuF14
_symmetry_space_group_name_H-M   'P 1'
_cell_length_a   7.70407146
_cell_length_b   7.70407146
_cell_length_c   15.25835864
_cell_angle_alpha   86.81041791
_cell_angle_beta   86.81041791
_cell_angle_gamma   42.40342163
_symmetry_Int_Tables_number   1
_chemical_formula_structural   Ba2CaTi2CuF14
_chemical_formula_sum   'Ba4 Ca2 Ti4 Cu2 F28'
_cell_volume   609.61653956
_cell_formula_units_Z   2
loop_
 _symmetry_equiv_pos_site_id
 _symmetry_equiv_pos_as_xyz
  1  'x, y, z'
loop_
 _atom_site_type_symbol
 _atom_site_label
 _atom_site_symmetry_multiplicity
 _atom_site_fract_x
 _atom_site_fract_y
 _atom_site_fract_z
 _atom_site_occupancy
  Ba  Ba0  1  0.73604400  0.90542800  0.12322000  1
  Ba  Ba1  1  0.90542800  0.73604400  0.62322000  1
  Ba  Ba2  1  0.26395600  0.09457200  0.87678000  1
  Ba  Ba3  1  0.09457200  0.26395600  0.37678000  1
  Ca  Ca4  1  0.42840600  0.57159400  0.25000000  1
  Ca  Ca5  1  0.57159400  0.42840600  0.75000000  1
  Ti  Ti6  1  0.85209600  0.89832600  0.37641700  1
  Ti  Ti7  1  0.14790400  0.10167400  0.62358300  1
  Ti  Ti8  1  0.89832600  0.85209600  0.87641700  1
  Ti  Ti9  1  0.10167400  0.14790400  0.12358300  1
  Cu  Cu10  1  0.50000000  0.50000000  0.50000000  1
  Cu  Cu11  1  0.50000000  0.50000000  0.00000000  1
  F  F12  1  0.92019900  0.08474800  0.84415600  1
  F  F13  1  0.59010500  0.10653300  0.95106400  1
  F  F14  1  0.40989500  0.89346700  0.04893600  1
  F  F15  1  0.14865000  0.35946800  0.10462700  1
  F  F16  1  0.52048600  0.37973900  0.11905600  1
  F  F17  1  0.62026100  0.47951400  0.38094400  1
  F  F18  1  0.10653300  0.59010500  0.45106400  1
  F  F19  1  0.91525200  0.07980100  0.65584400  1
  F  F20  1  0.03199500  0.64778200  0.27949300  1
  F  F21  1  0.85135000  0.64053200  0.89537300  1
  F  F22  1  0.59564300  0.16937400  0.29133100  1
  F  F23  1  0.64053200  0.85135000  0.39537300  1
  F  F24  1  0.16937400  0.59564300  0.79133100  1
  F  F25  1  0.40435700  0.83062600  0.70866900  1
  F  F26  1  0.37973900  0.52048600  0.61905600  1
  F  F27  1  0.96800500  0.35221800  0.72050700  1
  F  F28  1  0.26861700  0.91425300  0.51980100  1
  F  F29  1  0.07980100  0.91525200  0.15584400  1
  F  F30  1  0.73138300  0.08574700  0.48019900  1
  F  F31  1  0.91425300  0.26861700  0.01980100  1
  F  F32  1  0.89346700  0.40989500  0.54893600  1
  F  F33  1  0.83062600  0.40435700  0.20866900  1
  F  F34  1  0.64778200  0.03199500  0.77949300  1
  F  F35  1  0.08574700  0.73138300  0.98019900  1
  F  F36  1  0.47951400  0.62026100  0.88094400  1
  F  F37  1  0.08474800  0.92019900  0.34415600  1
  F  F38  1  0.35221800  0.96800500  0.22050700  1
  F  F39  1  0.35946800  0.14865000  0.60462700  1
