# generated using pymatgen
data_Ca4Te3W5O18
_symmetry_space_group_name_H-M   'P 1'
_cell_length_a   10.33049037
_cell_length_b   10.33049037
_cell_length_c   10.03593691
_cell_angle_alpha   89.13513330
_cell_angle_beta   89.13513330
_cell_angle_gamma   67.55572146
_symmetry_Int_Tables_number   1
_chemical_formula_structural   Ca4Te3W5O18
_chemical_formula_sum   'Ca8 Te6 W10 O36'
_cell_volume   989.73340723
_cell_formula_units_Z   2
loop_
 _symmetry_equiv_pos_site_id
 _symmetry_equiv_pos_as_xyz
  1  'x, y, z'
loop_
 _atom_site_type_symbol
 _atom_site_label
 _atom_site_symmetry_multiplicity
 _atom_site_fract_x
 _atom_site_fract_y
 _atom_site_fract_z
 _atom_site_occupancy
  Ca  Ca0  1  0.11215200  0.47225500  0.63344600  1
  Ca  Ca1  1  0.45951100  0.53022300  0.80553000  1
  Ca  Ca2  1  0.52774500  0.88784800  0.36655400  1
  Ca  Ca3  1  0.46977700  0.54048900  0.19447000  1
  Ca  Ca4  1  0.93447000  0.06384700  0.31265900  1
  Ca  Ca5  1  0.86246900  0.73081900  0.13305800  1
  Ca  Ca6  1  0.26918100  0.13753100  0.86694200  1
  Ca  Ca7  1  0.93615300  0.06553000  0.68734100  1
  Te  Te8  1  0.65809700  0.19045300  0.05108800  1
  Te  Te9  1  0.19969100  0.79461100  0.74152000  1
  Te  Te10  1  0.20538900  0.80030900  0.25848000  1
  Te  Te11  1  0.58673200  0.26143000  0.54999600  1
  Te  Te12  1  0.73857000  0.41326800  0.45000400  1
  Te  Te13  1  0.80954700  0.34190300  0.94891200  1
  W  W14  1  0.17043300  0.47595900  0.01268100  1
  W  W15  1  0.86259500  0.78207200  0.51581000  1
  W  W16  1  0.67354300  0.66303100  0.71551700  1
  W  W17  1  0.05374600  0.28510400  0.21038800  1
  W  W18  1  0.33696900  0.32645700  0.28448300  1
  W  W19  1  0.03812800  0.96187200  0.00000000  1
  W  W20  1  0.35810300  0.64189700  0.50000000  1
  W  W21  1  0.71489600  0.94625400  0.78961200  1
  W  W22  1  0.21792800  0.13740500  0.48419000  1
  W  W23  1  0.52404100  0.82956700  0.98731900  1
  O  O24  1  0.61605000  0.86908100  0.13033300  1
  O  O25  1  0.23968400  0.50166400  0.19505900  1
  O  O26  1  0.38709700  0.45353200  0.41271000  1
  O  O27  1  0.33225900  0.95797700  0.51499500  1
  O  O28  1  0.49833600  0.76031600  0.80494100  1
  O  O29  1  0.04202300  0.66774100  0.48500500  1
  O  O30  1  0.69573400  0.13183500  0.70428800  1
  O  O31  1  0.97431900  0.88454800  0.16608400  1
  O  O32  1  0.42842700  0.72447000  0.33905100  1
  O  O33  1  0.85733100  0.60631400  0.63416800  1
  O  O34  1  0.34533700  0.46293200  0.95797900  1
  O  O35  1  0.52877200  0.00396000  0.86634300  1
  O  O36  1  0.15280600  0.10984300  0.29992500  1
  O  O37  1  0.24460800  0.26875500  0.11686400  1
  O  O38  1  0.53706800  0.65466300  0.04202100  1
  O  O39  1  0.69691700  0.47607300  0.79941400  1
  O  O40  1  0.04358200  0.14252800  0.53447900  1
  O  O41  1  0.73124500  0.75539200  0.88313600  1
  O  O42  1  0.54646800  0.61290300  0.58729000  1
  O  O43  1  0.85747200  0.95641800  0.46552100  1
  O  O44  1  0.25009300  0.23036600  0.62997400  1
  O  O45  1  0.14495400  0.34285900  0.37788900  1
  O  O46  1  0.11545200  0.02568100  0.83391600  1
  O  O47  1  0.52392700  0.30308300  0.20058600  1
  O  O48  1  0.01031700  0.15241700  0.08072300  1
  O  O49  1  0.34161300  0.93940500  0.01536600  1
  O  O50  1  0.99604000  0.47122800  0.13365700  1
  O  O51  1  0.86816500  0.30426600  0.29571200  1
  O  O52  1  0.89015700  0.84719400  0.70007500  1
  O  O53  1  0.65714100  0.85504600  0.62211100  1
  O  O54  1  0.76963400  0.74990700  0.37002600  1
  O  O55  1  0.06059500  0.65838700  0.98463400  1
  O  O56  1  0.27553000  0.57157300  0.66094900  1
  O  O57  1  0.39368600  0.14266900  0.36583200  1
  O  O58  1  0.84758300  0.98968300  0.91927700  1
  O  O59  1  0.13091900  0.38395000  0.86966700  1
