# generated using pymatgen
data_Ta2MoO8
_symmetry_space_group_name_H-M   'P 1'
_cell_length_a   10.44203681
_cell_length_b   10.44203681
_cell_length_c   5.14678648
_cell_angle_alpha   89.22910948
_cell_angle_beta   89.22910948
_cell_angle_gamma   34.03254472
_symmetry_Int_Tables_number   1
_chemical_formula_structural   Ta2MoO8
_chemical_formula_sum   'Ta4 Mo2 O16'
_cell_volume   314.04418088
_cell_formula_units_Z   2
loop_
 _symmetry_equiv_pos_site_id
 _symmetry_equiv_pos_as_xyz
  1  'x, y, z'
loop_
 _atom_site_type_symbol
 _atom_site_label
 _atom_site_symmetry_multiplicity
 _atom_site_fract_x
 _atom_site_fract_y
 _atom_site_fract_z
 _atom_site_occupancy
  Ta  Ta0  1  0.68589500  0.04911700  0.24867800  1
  Ta  Ta1  1  0.95088300  0.31410500  0.25132200  1
  Ta  Ta2  1  0.31410500  0.95088300  0.75132200  1
  Ta  Ta3  1  0.04911700  0.68589500  0.74867800  1
  Mo  Mo4  1  0.33976000  0.66024000  0.25000000  1
  Mo  Mo5  1  0.66024000  0.33976000  0.75000000  1
  O  O6  1  0.78338600  0.10151200  0.91955000  1
  O  O7  1  0.89848800  0.21661400  0.58045000  1
  O  O8  1  0.21661400  0.89848800  0.08045000  1
  O  O9  1  0.10151200  0.78338600  0.41955000  1
  O  O10  1  0.56417200  0.33133000  0.43105900  1
  O  O11  1  0.66867000  0.43582800  0.06894100  1
  O  O12  1  0.43582800  0.66867000  0.56894100  1
  O  O13  1  0.33133000  0.56417200  0.93105900  1
  O  O14  1  0.76003000  0.91602600  0.57690100  1
  O  O15  1  0.08397400  0.23997000  0.92309900  1
  O  O16  1  0.20390000  0.42396000  0.64615500  1
  O  O17  1  0.57604000  0.79610000  0.85384500  1
  O  O18  1  0.79610000  0.57604000  0.35384500  1
  O  O19  1  0.42396000  0.20390000  0.14615500  1
  O  O20  1  0.91602600  0.76003000  0.07690100  1
  O  O21  1  0.23997000  0.08397400  0.42309900  1
