# generated using pymatgen
data_VZnPO5
_symmetry_space_group_name_H-M   'P 1'
_cell_length_a   5.47059355
_cell_length_b   5.47059355
_cell_length_c   7.20872623
_cell_angle_alpha   72.47261205
_cell_angle_beta   72.47261205
_cell_angle_gamma   97.16836900
_symmetry_Int_Tables_number   1
_chemical_formula_structural   VZnPO5
_chemical_formula_sum   'V2 Zn2 P2 O10'
_cell_volume   190.58337318
_cell_formula_units_Z   2
loop_
 _symmetry_equiv_pos_site_id
 _symmetry_equiv_pos_as_xyz
  1  'x, y, z'
loop_
 _atom_site_type_symbol
 _atom_site_label
 _atom_site_symmetry_multiplicity
 _atom_site_fract_x
 _atom_site_fract_y
 _atom_site_fract_z
 _atom_site_occupancy
  V  V0  1  0.50000000  0.50000000  0.50000000  1
  V  V1  1  0.50000000  0.50000000  0.00000000  1
  Zn  Zn2  1  0.18062500  0.81937500  0.25000000  1
  Zn  Zn3  1  0.81937500  0.18062500  0.75000000  1
  P  P4  1  0.84956900  0.15043100  0.25000000  1
  P  P5  1  0.15043100  0.84956900  0.75000000  1
  O  O6  1  0.69959600  0.20841000  0.09691500  1
  O  O7  1  0.79159000  0.30040400  0.40308500  1
  O  O8  1  0.30040400  0.79159000  0.90308500  1
  O  O9  1  0.20841000  0.69959600  0.59691500  1
  O  O10  1  0.20256900  0.15738000  0.63214200  1
  O  O11  1  0.84262000  0.79743100  0.86785800  1
  O  O12  1  0.79743100  0.84262000  0.36785800  1
  O  O13  1  0.15738000  0.20256900  0.13214200  1
  O  O14  1  0.58954500  0.41045500  0.75000000  1
  O  O15  1  0.41045500  0.58954500  0.25000000  1
