# generated using pymatgen
data_Sr2CrSO3
_symmetry_space_group_name_H-M   'P 1'
_cell_length_a   3.99331600
_cell_length_b   3.99331600
_cell_length_c   14.66869300
_cell_angle_alpha   90.00000000
_cell_angle_beta   90.00000000
_cell_angle_gamma   90.00000000
_symmetry_Int_Tables_number   1
_chemical_formula_structural   Sr2CrSO3
_chemical_formula_sum   'Sr4 Cr2 S2 O6'
_cell_volume   233.91537898
_cell_formula_units_Z   2
loop_
 _symmetry_equiv_pos_site_id
 _symmetry_equiv_pos_as_xyz
  1  'x, y, z'
loop_
 _atom_site_type_symbol
 _atom_site_label
 _atom_site_symmetry_multiplicity
 _atom_site_fract_x
 _atom_site_fract_y
 _atom_site_fract_z
 _atom_site_occupancy
  Sr  Sr0  1  0.00000000  0.50000000  0.16467200  1
  Sr  Sr1  1  0.50000000  0.00000000  0.83532800  1
  Sr  Sr2  1  0.00000000  0.50000000  0.40788200  1
  Sr  Sr3  1  0.50000000  0.00000000  0.59211800  1
  Cr  Cr4  1  0.50000000  0.00000000  0.29272000  1
  Cr  Cr5  1  0.00000000  0.50000000  0.70728000  1
  S  S6  1  0.50000000  0.00000000  0.11983000  1
  S  S7  1  0.00000000  0.50000000  0.88017000  1
  O  O8  1  0.00000000  0.00000000  0.29001800  1
  O  O9  1  0.50000000  0.50000000  0.29001800  1
  O  O10  1  0.50000000  0.50000000  0.70998200  1
  O  O11  1  0.00000000  0.00000000  0.70998200  1
  O  O12  1  0.50000000  0.00000000  0.42346300  1
  O  O13  1  0.00000000  0.50000000  0.57653700  1
