# generated using pymatgen
data_Zn4Ni5(TeO6)3
_symmetry_space_group_name_H-M   'P 1'
_cell_length_a   8.64851770
_cell_length_b   8.64851770
_cell_length_c   10.40095933
_cell_angle_alpha   85.89018909
_cell_angle_beta   85.89018909
_cell_angle_gamma   61.87809442
_symmetry_Int_Tables_number   1
_chemical_formula_structural   Zn4Ni5(TeO6)3
_chemical_formula_sum   'Zn8 Ni10 Te6 O36'
_cell_volume   683.71909532
_cell_formula_units_Z   2
loop_
 _symmetry_equiv_pos_site_id
 _symmetry_equiv_pos_as_xyz
  1  'x, y, z'
loop_
 _atom_site_type_symbol
 _atom_site_label
 _atom_site_symmetry_multiplicity
 _atom_site_fract_x
 _atom_site_fract_y
 _atom_site_fract_z
 _atom_site_occupancy
  Zn  Zn0  1  0.94205500  0.65570800  0.42384300  1
  Zn  Zn1  1  0.32379900  0.63622700  0.54354300  1
  Zn  Zn2  1  0.34429200  0.05794500  0.07615700  1
  Zn  Zn3  1  0.36377300  0.67620100  0.95645700  1
  Zn  Zn4  1  0.63622700  0.32379900  0.04354300  1
  Zn  Zn5  1  0.65570800  0.94205500  0.92384300  1
  Zn  Zn6  1  0.05794500  0.34429200  0.57615700  1
  Zn  Zn7  1  0.67620100  0.36377300  0.45645700  1
  Ni  Ni8  1  0.00809000  0.69440400  0.76801300  1
  Ni  Ni9  1  0.69440400  0.00809000  0.26801300  1
  Ni  Ni10  1  0.47483300  0.85687600  0.44998800  1
  Ni  Ni11  1  0.85687600  0.47483300  0.94998800  1
  Ni  Ni12  1  0.14312400  0.52516700  0.05001200  1
  Ni  Ni13  1  0.82280900  0.17719100  0.75000000  1
  Ni  Ni14  1  0.17719100  0.82280900  0.25000000  1
  Ni  Ni15  1  0.52516700  0.14312400  0.55001200  1
  Ni  Ni16  1  0.99191000  0.30559600  0.23198700  1
  Ni  Ni17  1  0.30559600  0.99191000  0.73198700  1
  Te  Te18  1  0.34146500  0.33472400  0.79835600  1
  Te  Te19  1  0.00000000  0.00000000  0.50000000  1
  Te  Te20  1  0.00000000  0.00000000  0.00000000  1
  Te  Te21  1  0.33472400  0.34146500  0.29835600  1
  Te  Te22  1  0.65853500  0.66527600  0.20164400  1
  Te  Te23  1  0.66527600  0.65853500  0.70164400  1
  O  O24  1  0.40293000  0.10271800  0.88795300  1
  O  O25  1  0.08706900  0.75939000  0.93825200  1
  O  O26  1  0.24154300  0.56689600  0.20628500  1
  O  O27  1  0.07507500  0.06785600  0.33590200  1
  O  O28  1  0.24061000  0.91293100  0.56174800  1
  O  O29  1  0.93214400  0.92492500  0.16409800  1
  O  O30  1  0.42154200  0.40433100  0.44627500  1
  O  O31  1  0.76282500  0.09582800  0.93211400  1
  O  O32  1  0.23717500  0.90417200  0.06788600  1
  O  O33  1  0.72336500  0.77064900  0.34005200  1
  O  O34  1  0.25275600  0.55661400  0.70297300  1
  O  O35  1  0.27663500  0.22935100  0.65994800  1
  O  O36  1  0.91293100  0.24061000  0.06174800  1
  O  O37  1  0.10335200  0.44258900  0.88074900  1
  O  O38  1  0.44338600  0.74724400  0.79702700  1
  O  O39  1  0.57845800  0.59566900  0.55372500  1
  O  O40  1  0.74724400  0.44338600  0.29702700  1
  O  O41  1  0.55741100  0.89664800  0.61925100  1
  O  O42  1  0.43310400  0.75845700  0.29371500  1
  O  O43  1  0.55661400  0.25275600  0.20297300  1
  O  O44  1  0.10271800  0.40293000  0.38795300  1
  O  O45  1  0.89664800  0.55741100  0.11925100  1
  O  O46  1  0.90417200  0.23717500  0.56788600  1
  O  O47  1  0.40433100  0.42154200  0.94627500  1
  O  O48  1  0.75845700  0.43310400  0.79371500  1
  O  O49  1  0.06785600  0.07507500  0.83590200  1
  O  O50  1  0.77064900  0.72336500  0.84005200  1
  O  O51  1  0.59566900  0.57845800  0.05372500  1
  O  O52  1  0.75939000  0.08706900  0.43825200  1
  O  O53  1  0.44258900  0.10335200  0.38074900  1
  O  O54  1  0.59707000  0.89728200  0.11204700  1
  O  O55  1  0.92492500  0.93214400  0.66409800  1
  O  O56  1  0.09582800  0.76282500  0.43211400  1
  O  O57  1  0.22935100  0.27663500  0.15994800  1
  O  O58  1  0.56689600  0.24154300  0.70628500  1
  O  O59  1  0.89728200  0.59707000  0.61204700  1
