# generated using pymatgen
data_Ba2TlW2O7
_symmetry_space_group_name_H-M   'P 1'
_cell_length_a   3.97647800
_cell_length_b   3.97647800
_cell_length_c   13.09408200
_cell_angle_alpha   90.00000000
_cell_angle_beta   90.00000000
_cell_angle_gamma   90.00000000
_symmetry_Int_Tables_number   1
_chemical_formula_structural   Ba2TlW2O7
_chemical_formula_sum   'Ba2 Tl1 W2 O7'
_cell_volume   207.04856478
_cell_formula_units_Z   1
loop_
 _symmetry_equiv_pos_site_id
 _symmetry_equiv_pos_as_xyz
  1  'x, y, z'
loop_
 _atom_site_type_symbol
 _atom_site_label
 _atom_site_symmetry_multiplicity
 _atom_site_fract_x
 _atom_site_fract_y
 _atom_site_fract_z
 _atom_site_occupancy
  Ba  Ba0  1  0.50000000  0.50000000  0.69599400  1
  Ba  Ba1  1  0.50000000  0.50000000  0.30400600  1
  Tl  Tl2  1  0.00000000  0.00000000  0.50000000  1
  W  W3  1  0.00000000  0.00000000  0.87063800  1
  W  W4  1  0.00000000  0.00000000  0.12936200  1
  O  O5  1  0.50000000  0.50000000  0.50000000  1
  O  O6  1  0.00000000  0.50000000  0.87363600  1
  O  O7  1  0.50000000  0.00000000  0.87363600  1
  O  O8  1  0.00000000  0.50000000  0.12636400  1
  O  O9  1  0.50000000  0.00000000  0.12636400  1
  O  O10  1  0.00000000  0.00000000  0.71477300  1
  O  O11  1  0.00000000  0.00000000  0.28522700  1
