# generated using pymatgen
data_Mg2Co3O8
_symmetry_space_group_name_H-M   'P 1'
_cell_length_a   5.77893347
_cell_length_b   5.77893347
_cell_length_c   4.79969923
_cell_angle_alpha   72.56955972
_cell_angle_beta   72.56955972
_cell_angle_gamma   58.61544818
_symmetry_Int_Tables_number   1
_chemical_formula_structural   Mg2Co3O8
_chemical_formula_sum   'Mg2 Co3 O8'
_cell_volume   128.51197811
_cell_formula_units_Z   1
loop_
 _symmetry_equiv_pos_site_id
 _symmetry_equiv_pos_as_xyz
  1  'x, y, z'
loop_
 _atom_site_type_symbol
 _atom_site_label
 _atom_site_symmetry_multiplicity
 _atom_site_fract_x
 _atom_site_fract_y
 _atom_site_fract_z
 _atom_site_occupancy
  Mg  Mg0  1  0.72539800  0.72539800  0.34270400  1
  Mg  Mg1  1  0.27460200  0.27460200  0.65729600  1
  Co  Co2  1  0.00000000  0.00000000  0.50000000  1
  Co  Co3  1  0.74163000  0.25837000  0.00000000  1
  Co  Co4  1  0.25837000  0.74163000  0.00000000  1
  O  O5  1  0.39653500  0.39653500  0.93105600  1
  O  O6  1  0.60346500  0.60346500  0.06894400  1
  O  O7  1  0.89496300  0.89496300  0.91619100  1
  O  O8  1  0.10503700  0.10503700  0.08380900  1
  O  O9  1  0.33706300  0.88692400  0.59678400  1
  O  O10  1  0.88692400  0.33706300  0.59678400  1
  O  O11  1  0.11307600  0.66293700  0.40321600  1
  O  O12  1  0.66293700  0.11307600  0.40321600  1
