data_image0
_chemical_formula_structural       Eu2In4Ni2
_chemical_formula_sum              "Eu2 In4 Ni2"
_cell_length_a       4.40517
_cell_length_b       5.60901
_cell_length_c       7.77053
_cell_angle_alpha    90
_cell_angle_beta     90
_cell_angle_gamma    66.8782

_space_group_name_H-M_alt    "P 1"
_space_group_IT_number       1

loop_
  _space_group_symop_operation_xyz
  'x, y, z'

loop_
  _atom_site_type_symbol
  _atom_site_label
  _atom_site_symmetry_multiplicity
  _atom_site_fract_x
  _atom_site_fract_y
  _atom_site_fract_z
  _atom_site_occupancy
  Eu  Eu1       1.0  0.94200  0.11500  0.25000  1.0000
  Eu  Eu2       1.0  0.05770  0.88500  0.75000  1.0000
  In  In1       1.0  0.65200  0.69500  0.05270  1.0000
  In  In2       1.0  0.65200  0.69500  0.44700  1.0000
  In  In3       1.0  0.34800  0.30500  0.55300  1.0000
  In  In4       1.0  0.34800  0.30500  0.94700  1.0000
  Ni  Ni1       1.0  0.21900  0.56100  0.25000  1.0000
  Ni  Ni2       1.0  0.78100  0.43900  0.75000  1.0000
