# generated using pymatgen
data_Ca2W2O5
_symmetry_space_group_name_H-M   'P 1'
_cell_length_a   3.97670900
_cell_length_b   5.49225300
_cell_length_c   10.98454200
_cell_angle_alpha   90.00000000
_cell_angle_beta   90.00000000
_cell_angle_gamma   90.00000000
_symmetry_Int_Tables_number   1
_chemical_formula_structural   Ca2W2O5
_chemical_formula_sum   'Ca4 W4 O10'
_cell_volume   239.91439169
_cell_formula_units_Z   2
loop_
 _symmetry_equiv_pos_site_id
 _symmetry_equiv_pos_as_xyz
  1  'x, y, z'
loop_
 _atom_site_type_symbol
 _atom_site_label
 _atom_site_symmetry_multiplicity
 _atom_site_fract_x
 _atom_site_fract_y
 _atom_site_fract_z
 _atom_site_occupancy
  Ca  Ca0  1  0.50000000  0.65302300  0.34654900  1
  Ca  Ca1  1  0.50000000  0.34697700  0.65345100  1
  Ca  Ca2  1  0.50000000  0.15302300  0.15345100  1
  Ca  Ca3  1  0.50000000  0.84697700  0.84654900  1
  W  W4  1  0.00000000  0.66914700  0.09666600  1
  W  W5  1  0.00000000  0.33085300  0.90333400  1
  W  W6  1  0.00000000  0.83085300  0.59666600  1
  W  W7  1  0.00000000  0.16914700  0.40333400  1
  O  O8  1  0.00000000  0.00000000  0.00000000  1
  O  O9  1  0.00000000  0.59919100  0.77942300  1
  O  O10  1  0.00000000  0.09919100  0.72057700  1
  O  O11  1  0.00000000  0.90080900  0.27942300  1
  O  O12  1  0.50000000  0.77800400  0.61659700  1
  O  O13  1  0.50000000  0.22199600  0.38340300  1
  O  O14  1  0.00000000  0.40080900  0.22057700  1
  O  O15  1  0.50000000  0.72199600  0.11659700  1
  O  O16  1  0.00000000  0.50000000  0.50000000  1
  O  O17  1  0.50000000  0.27800400  0.88340300  1
