# generated using pymatgen
data_MgNiF5
_symmetry_space_group_name_H-M   'P 1'
_cell_length_a   9.54654700
_cell_length_b   5.06055700
_cell_length_c   7.35633883
_cell_angle_alpha   69.39884658
_cell_angle_beta   90.00000000
_cell_angle_gamma   90.00000000
_symmetry_Int_Tables_number   1
_chemical_formula_structural   MgNiF5
_chemical_formula_sum   'Mg4 Ni4 F20'
_cell_volume   332.66456719
_cell_formula_units_Z   4
loop_
 _symmetry_equiv_pos_site_id
 _symmetry_equiv_pos_as_xyz
  1  'x, y, z'
loop_
 _atom_site_type_symbol
 _atom_site_label
 _atom_site_symmetry_multiplicity
 _atom_site_fract_x
 _atom_site_fract_y
 _atom_site_fract_z
 _atom_site_occupancy
  Mg  Mg0  1  0.01357200  0.52981600  0.74797600  1
  Mg  Mg1  1  0.51357200  0.47018400  0.75202400  1
  Mg  Mg2  1  0.98642800  0.47018400  0.25202400  1
  Mg  Mg3  1  0.48642800  0.52981600  0.24797600  1
  Ni  Ni4  1  0.75196500  0.11218800  0.60216000  1
  Ni  Ni5  1  0.25196500  0.88781200  0.89784000  1
  Ni  Ni6  1  0.24803500  0.88781200  0.39784000  1
  Ni  Ni7  1  0.74803500  0.11218800  0.10216000  1
  F  F8  1  0.88284700  0.41441800  0.57197300  1
  F  F9  1  0.38284700  0.58558200  0.92802700  1
  F  F10  1  0.11715300  0.58558200  0.42802700  1
  F  F11  1  0.61715300  0.41441800  0.07197300  1
  F  F12  1  0.60807300  0.36830800  0.48806700  1
  F  F13  1  0.10807300  0.63169200  0.01193300  1
  F  F14  1  0.39192700  0.63169200  0.51193300  1
  F  F15  1  0.89192700  0.36830800  0.98806700  1
  F  F16  1  0.39609400  0.13334100  0.78611300  1
  F  F17  1  0.89609400  0.86665900  0.71388700  1
  F  F18  1  0.60390600  0.86665900  0.21388700  1
  F  F19  1  0.10390600  0.13334100  0.28611300  1
  F  F20  1  0.13058000  0.19122000  0.86168000  1
  F  F21  1  0.63058000  0.80878000  0.63832000  1
  F  F22  1  0.86942000  0.80878000  0.13832000  1
  F  F23  1  0.36942000  0.19122000  0.36168000  1
  F  F24  1  0.67496700  0.16658400  0.83846900  1
  F  F25  1  0.17496700  0.83341600  0.66153100  1
  F  F26  1  0.32503300  0.83341600  0.16153100  1
  F  F27  1  0.82503300  0.16658400  0.33846900  1
