# generated using pymatgen
data_Mn2Zn3O7
_symmetry_space_group_name_H-M   'P 1'
_cell_length_a   9.40707956
_cell_length_b   9.40707956
_cell_length_c   5.18206300
_cell_angle_alpha   90.00000000
_cell_angle_beta   90.00000000
_cell_angle_gamma   148.14801747
_symmetry_Int_Tables_number   1
_chemical_formula_structural   Mn2Zn3O7
_chemical_formula_sum   'Mn4 Zn6 O14'
_cell_volume   242.00333735
_cell_formula_units_Z   2
loop_
 _symmetry_equiv_pos_site_id
 _symmetry_equiv_pos_as_xyz
  1  'x, y, z'
loop_
 _atom_site_type_symbol
 _atom_site_label
 _atom_site_symmetry_multiplicity
 _atom_site_fract_x
 _atom_site_fract_y
 _atom_site_fract_z
 _atom_site_occupancy
  Mn  Mn0  1  0.84991100  0.64619400  0.24841000  1
  Mn  Mn1  1  0.15008900  0.35380600  0.74841000  1
  Mn  Mn2  1  0.35380600  0.15008900  0.74841000  1
  Mn  Mn3  1  0.64619400  0.84991100  0.24841000  1
  Zn  Zn4  1  0.24995300  0.24995300  0.29274700  1
  Zn  Zn5  1  0.75004700  0.75004700  0.79274700  1
  Zn  Zn6  1  0.03035300  0.42338400  0.19748200  1
  Zn  Zn7  1  0.96964700  0.57661600  0.69748200  1
  Zn  Zn8  1  0.42338400  0.03035300  0.19748200  1
  Zn  Zn9  1  0.57661600  0.96964700  0.69748200  1
  O  O10  1  0.64854700  0.05425700  0.30703300  1
  O  O11  1  0.35145400  0.94574300  0.80703300  1
  O  O12  1  0.94574300  0.35145300  0.80703300  1
  O  O13  1  0.05425700  0.64854700  0.30703300  1
  O  O14  1  0.44298500  0.69972100  0.93192700  1
  O  O15  1  0.55701500  0.30027900  0.43192700  1
  O  O16  1  0.30027900  0.55701500  0.43192700  1
  O  O17  1  0.69972100  0.44298500  0.93192700  1
  O  O18  1  0.99256300  0.14686300  0.06583700  1
  O  O19  1  0.00743700  0.85313700  0.56583700  1
  O  O20  1  0.63329900  0.63329900  0.18587200  1
  O  O21  1  0.36670100  0.36670100  0.68587200  1
  O  O22  1  0.14686300  0.99256300  0.06583700  1
  O  O23  1  0.85313700  0.00743700  0.56583700  1
