# generated using pymatgen
data_TaZn2SnO6
_symmetry_space_group_name_H-M   'P 1'
_cell_length_a   7.89917700
_cell_length_b   5.49090800
_cell_length_c   5.49559140
_cell_angle_alpha   88.02506168
_cell_angle_beta   90.00000000
_cell_angle_gamma   90.00000000
_symmetry_Int_Tables_number   1
_chemical_formula_structural   TaZn2SnO6
_chemical_formula_sum   'Ta2 Zn4 Sn2 O12'
_cell_volume   238.22229196
_cell_formula_units_Z   2
loop_
 _symmetry_equiv_pos_site_id
 _symmetry_equiv_pos_as_xyz
  1  'x, y, z'
loop_
 _atom_site_type_symbol
 _atom_site_label
 _atom_site_symmetry_multiplicity
 _atom_site_fract_x
 _atom_site_fract_y
 _atom_site_fract_z
 _atom_site_occupancy
  Ta  Ta0  1  0.00000000  0.00000000  0.50000000  1
  Ta  Ta1  1  0.50000000  0.00000000  0.50000000  1
  Zn  Zn2  1  0.75000000  0.01970300  0.01069100  1
  Zn  Zn3  1  0.75000000  0.48997800  0.52779000  1
  Zn  Zn4  1  0.25000000  0.51002200  0.47221000  1
  Zn  Zn5  1  0.25000000  0.98029700  0.98930900  1
  Sn  Sn6  1  0.00000000  0.50000000  0.00000000  1
  Sn  Sn7  1  0.50000000  0.50000000  0.00000000  1
  O  O8  1  0.43453900  0.14384500  0.17856000  1
  O  O9  1  0.57014100  0.68996300  0.34852400  1
  O  O10  1  0.56546100  0.85615500  0.82144000  1
  O  O11  1  0.07014100  0.31003700  0.65147600  1
  O  O12  1  0.25000000  0.87514200  0.56960700  1
  O  O13  1  0.42985900  0.31003700  0.65147600  1
  O  O14  1  0.92985900  0.68996300  0.34852400  1
  O  O15  1  0.06546100  0.14384500  0.17856000  1
  O  O16  1  0.75000000  0.38133700  0.90383900  1
  O  O17  1  0.93453900  0.85615500  0.82144000  1
  O  O18  1  0.25000000  0.61866300  0.09616100  1
  O  O19  1  0.75000000  0.12485800  0.43039300  1
