# generated using pymatgen
data_Zn2BiSbO6
_symmetry_space_group_name_H-M   'P 1'
_cell_length_a   8.17853800
_cell_length_b   5.53155100
_cell_length_c   5.61081233
_cell_angle_alpha   87.94704515
_cell_angle_beta   90.00000000
_cell_angle_gamma   90.00000000
_symmetry_Int_Tables_number   1
_chemical_formula_structural   Zn2BiSbO6
_chemical_formula_sum   'Zn4 Bi2 Sb2 O12'
_cell_volume   253.67022593
_cell_formula_units_Z   2
loop_
 _symmetry_equiv_pos_site_id
 _symmetry_equiv_pos_as_xyz
  1  'x, y, z'
loop_
 _atom_site_type_symbol
 _atom_site_label
 _atom_site_symmetry_multiplicity
 _atom_site_fract_x
 _atom_site_fract_y
 _atom_site_fract_z
 _atom_site_occupancy
  Zn  Zn0  1  0.75000000  0.52277500  0.49407500  1
  Zn  Zn1  1  0.25000000  0.47722500  0.50592500  1
  Zn  Zn2  1  0.75000000  0.01130300  0.03230400  1
  Zn  Zn3  1  0.25000000  0.98869700  0.96769600  1
  Bi  Bi4  1  0.50000000  0.00000000  0.50000000  1
  Bi  Bi5  1  0.00000000  0.00000000  0.50000000  1
  Sb  Sb6  1  0.50000000  0.50000000  0.00000000  1
  Sb  Sb7  1  0.00000000  0.50000000  0.00000000  1
  O  O8  1  0.42779100  0.63932500  0.30759400  1
  O  O9  1  0.07239500  0.18146800  0.12686300  1
  O  O10  1  0.92779100  0.36067500  0.69240600  1
  O  O11  1  0.57239500  0.81853200  0.87313700  1
  O  O12  1  0.42760500  0.18146800  0.12686300  1
  O  O13  1  0.92760500  0.81853200  0.87313700  1
  O  O14  1  0.25000000  0.61193400  0.86305600  1
  O  O15  1  0.07220900  0.63932500  0.30759400  1
  O  O16  1  0.75000000  0.86593000  0.36767700  1
  O  O17  1  0.57220900  0.36067500  0.69240600  1
  O  O18  1  0.75000000  0.38806600  0.13694400  1
  O  O19  1  0.25000000  0.13407000  0.63232300  1
