# generated using pymatgen
data_TaZn2SbO6
_symmetry_space_group_name_H-M   'P 1'
_cell_length_a   8.00113000
_cell_length_b   5.48938200
_cell_length_c   5.53881304
_cell_angle_alpha   87.51181035
_cell_angle_beta   90.00000000
_cell_angle_gamma   90.00000000
_symmetry_Int_Tables_number   1
_chemical_formula_structural   TaZn2SbO6
_chemical_formula_sum   'Ta2 Zn4 Sb2 O12'
_cell_volume   243.04228352
_cell_formula_units_Z   2
loop_
 _symmetry_equiv_pos_site_id
 _symmetry_equiv_pos_as_xyz
  1  'x, y, z'
loop_
 _atom_site_type_symbol
 _atom_site_label
 _atom_site_symmetry_multiplicity
 _atom_site_fract_x
 _atom_site_fract_y
 _atom_site_fract_z
 _atom_site_occupancy
  Ta  Ta0  1  0.50000000  0.00000000  0.50000000  1
  Ta  Ta1  1  0.00000000  0.00000000  0.50000000  1
  Zn  Zn2  1  0.25000000  0.51739200  0.52426000  1
  Zn  Zn3  1  0.75000000  0.48260800  0.47574000  1
  Zn  Zn4  1  0.25000000  0.02200600  0.98601000  1
  Zn  Zn5  1  0.75000000  0.97799400  0.01399000  1
  Sb  Sb6  1  0.50000000  0.50000000  0.00000000  1
  Sb  Sb7  1  0.00000000  0.50000000  0.00000000  1
  O  O8  1  0.57092000  0.67925200  0.63365700  1
  O  O9  1  0.92957900  0.14241800  0.80884100  1
  O  O10  1  0.07092000  0.32074800  0.36634300  1
  O  O11  1  0.42957900  0.85758200  0.19115900  1
  O  O12  1  0.57042100  0.14241800  0.80884100  1
  O  O13  1  0.07042100  0.85758200  0.19115900  1
  O  O14  1  0.75000000  0.61898900  0.12856100  1
  O  O15  1  0.92908000  0.67925200  0.63365700  1
  O  O16  1  0.25000000  0.91119000  0.62363200  1
  O  O17  1  0.42908000  0.32074800  0.36634300  1
  O  O18  1  0.25000000  0.38101100  0.87143900  1
  O  O19  1  0.75000000  0.08881000  0.37636800  1
