# generated using pymatgen
data_Mg3Sn2(GeO4)3
_symmetry_space_group_name_H-M   'P 1'
_cell_length_a   10.84817542
_cell_length_b   10.84817542
_cell_length_c   10.84817542
_cell_angle_alpha   109.47122063
_cell_angle_beta   109.47122063
_cell_angle_gamma   109.47122063
_symmetry_Int_Tables_number   1
_chemical_formula_structural   Mg3Sn2(GeO4)3
_chemical_formula_sum   'Mg12 Sn8 Ge12 O48'
_cell_volume   982.76166500
_cell_formula_units_Z   4
loop_
 _symmetry_equiv_pos_site_id
 _symmetry_equiv_pos_as_xyz
  1  'x, y, z'
loop_
 _atom_site_type_symbol
 _atom_site_label
 _atom_site_symmetry_multiplicity
 _atom_site_fract_x
 _atom_site_fract_y
 _atom_site_fract_z
 _atom_site_occupancy
  Mg  Mg0  1  0.25000000  0.87500000  0.62500000  1
  Mg  Mg1  1  0.75000000  0.62500000  0.87500000  1
  Mg  Mg2  1  0.62500000  0.87500000  0.75000000  1
  Mg  Mg3  1  0.87500000  0.62500000  0.25000000  1
  Mg  Mg4  1  0.62500000  0.25000000  0.87500000  1
  Mg  Mg5  1  0.87500000  0.75000000  0.62500000  1
  Mg  Mg6  1  0.75000000  0.12500000  0.37500000  1
  Mg  Mg7  1  0.25000000  0.37500000  0.12500000  1
  Mg  Mg8  1  0.37500000  0.12500000  0.25000000  1
  Mg  Mg9  1  0.12500000  0.37500000  0.75000000  1
  Mg  Mg10  1  0.37500000  0.75000000  0.12500000  1
  Mg  Mg11  1  0.12500000  0.25000000  0.37500000  1
  Sn  Sn12  1  0.50000000  0.50000000  0.50000000  1
  Sn  Sn13  1  0.50000000  0.00000000  0.50000000  1
  Sn  Sn14  1  0.00000000  0.50000000  0.50000000  1
  Sn  Sn15  1  0.50000000  0.50000000  0.00000000  1
  Sn  Sn16  1  0.00000000  0.00000000  0.50000000  1
  Sn  Sn17  1  0.00000000  0.50000000  0.00000000  1
  Sn  Sn18  1  0.50000000  0.00000000  0.00000000  1
  Sn  Sn19  1  0.00000000  0.00000000  0.00000000  1
  Ge  Ge20  1  0.12500000  0.75000000  0.87500000  1
  Ge  Ge21  1  0.87500000  0.25000000  0.12500000  1
  Ge  Ge22  1  0.62500000  0.37500000  0.25000000  1
  Ge  Ge23  1  0.75000000  0.87500000  0.12500000  1
  Ge  Ge24  1  0.87500000  0.12500000  0.75000000  1
  Ge  Ge25  1  0.25000000  0.62500000  0.37500000  1
  Ge  Ge26  1  0.75000000  0.37500000  0.62500000  1
  Ge  Ge27  1  0.25000000  0.12500000  0.87500000  1
  Ge  Ge28  1  0.12500000  0.87500000  0.25000000  1
  Ge  Ge29  1  0.37500000  0.62500000  0.75000000  1
  Ge  Ge30  1  0.62500000  0.75000000  0.37500000  1
  Ge  Ge31  1  0.37500000  0.25000000  0.62500000  1
  O  O32  1  0.41492900  0.81268400  0.78156100  1
  O  O33  1  0.86663100  0.39775500  0.08507100  1
  O  O34  1  0.10224500  0.96887600  0.68731600  1
  O  O35  1  0.53112400  0.63336900  0.71843900  1
  O  O36  1  0.68731600  0.08507100  0.71843900  1
  O  O37  1  0.63336900  0.71843900  0.53112400  1
  O  O38  1  0.63336900  0.41492900  0.10224500  1
  O  O39  1  0.71843900  0.53112400  0.63336900  1
  O  O40  1  0.81268400  0.53112400  0.39775500  1
  O  O41  1  0.96887600  0.78156100  0.86663100  1
  O  O42  1  0.78156100  0.86663100  0.96887600  1
  O  O43  1  0.71843900  0.68731600  0.08507100  1
  O  O44  1  0.41492900  0.10224500  0.63336900  1
  O  O45  1  0.39775500  0.81268400  0.53112400  1
  O  O46  1  0.08507100  0.71843900  0.68731600  1
  O  O47  1  0.10224500  0.63336900  0.41492900  1
  O  O48  1  0.53112400  0.39775500  0.81268400  1
  O  O49  1  0.08507100  0.86663100  0.39775500  1
  O  O50  1  0.96887600  0.68731600  0.10224500  1
  O  O51  1  0.18731600  0.46887600  0.60224500  1
  O  O52  1  0.68731600  0.10224500  0.96887600  1
  O  O53  1  0.78156100  0.41492900  0.81268400  1
  O  O54  1  0.39775500  0.08507100  0.86663100  1
  O  O55  1  0.86663100  0.96887600  0.78156100  1
  O  O56  1  0.58507100  0.18731600  0.21843900  1
  O  O57  1  0.13336900  0.60224500  0.91492900  1
  O  O58  1  0.89775500  0.03112400  0.31268400  1
  O  O59  1  0.46887600  0.36663100  0.28156100  1
  O  O60  1  0.31268400  0.91492900  0.28156100  1
  O  O61  1  0.36663100  0.28156100  0.46887600  1
  O  O62  1  0.36663100  0.58507100  0.89775500  1
  O  O63  1  0.28156100  0.46887600  0.36663100  1
  O  O64  1  0.13336900  0.03112400  0.21843900  1
  O  O65  1  0.60224500  0.91492900  0.13336900  1
  O  O66  1  0.21843900  0.58507100  0.18731600  1
  O  O67  1  0.18731600  0.21843900  0.58507100  1
  O  O68  1  0.31268400  0.89775500  0.03112400  1
  O  O69  1  0.03112400  0.31268400  0.89775500  1
  O  O70  1  0.91492900  0.13336900  0.60224500  1
  O  O71  1  0.46887600  0.60224500  0.18731600  1
  O  O72  1  0.89775500  0.36663100  0.58507100  1
  O  O73  1  0.91492900  0.28156100  0.31268400  1
  O  O74  1  0.60224500  0.18731600  0.46887600  1
  O  O75  1  0.58507100  0.89775500  0.36663100  1
  O  O76  1  0.28156100  0.31268400  0.91492900  1
  O  O77  1  0.21843900  0.13336900  0.03112400  1
  O  O78  1  0.03112400  0.21843900  0.13336900  1
  O  O79  1  0.81268400  0.78156100  0.41492900  1
