# generated using pymatgen
data_Ti2Zn3(GeO4)3
_symmetry_space_group_name_H-M   'P 1'
_cell_length_a   10.60950228
_cell_length_b   10.60950228
_cell_length_c   10.60950228
_cell_angle_alpha   109.47122063
_cell_angle_beta   109.47122063
_cell_angle_gamma   109.47122063
_symmetry_Int_Tables_number   1
_chemical_formula_structural   Ti2Zn3(GeO4)3
_chemical_formula_sum   'Ti8 Zn12 Ge12 O48'
_cell_volume   919.31244901
_cell_formula_units_Z   4
loop_
 _symmetry_equiv_pos_site_id
 _symmetry_equiv_pos_as_xyz
  1  'x, y, z'
loop_
 _atom_site_type_symbol
 _atom_site_label
 _atom_site_symmetry_multiplicity
 _atom_site_fract_x
 _atom_site_fract_y
 _atom_site_fract_z
 _atom_site_occupancy
  Ti  Ti0  1  0.50000000  0.50000000  0.50000000  1
  Ti  Ti1  1  0.50000000  0.00000000  0.50000000  1
  Ti  Ti2  1  0.00000000  0.50000000  0.50000000  1
  Ti  Ti3  1  0.50000000  0.50000000  0.00000000  1
  Ti  Ti4  1  0.00000000  0.00000000  0.50000000  1
  Ti  Ti5  1  0.00000000  0.50000000  0.00000000  1
  Ti  Ti6  1  0.50000000  0.00000000  0.00000000  1
  Ti  Ti7  1  0.00000000  0.00000000  0.00000000  1
  Zn  Zn8  1  0.25000000  0.87500000  0.62500000  1
  Zn  Zn9  1  0.75000000  0.62500000  0.87500000  1
  Zn  Zn10  1  0.62500000  0.87500000  0.75000000  1
  Zn  Zn11  1  0.87500000  0.62500000  0.25000000  1
  Zn  Zn12  1  0.62500000  0.25000000  0.87500000  1
  Zn  Zn13  1  0.87500000  0.75000000  0.62500000  1
  Zn  Zn14  1  0.75000000  0.12500000  0.37500000  1
  Zn  Zn15  1  0.25000000  0.37500000  0.12500000  1
  Zn  Zn16  1  0.37500000  0.12500000  0.25000000  1
  Zn  Zn17  1  0.12500000  0.37500000  0.75000000  1
  Zn  Zn18  1  0.37500000  0.75000000  0.12500000  1
  Zn  Zn19  1  0.12500000  0.25000000  0.37500000  1
  Ge  Ge20  1  0.12500000  0.75000000  0.87500000  1
  Ge  Ge21  1  0.87500000  0.25000000  0.12500000  1
  Ge  Ge22  1  0.62500000  0.37500000  0.25000000  1
  Ge  Ge23  1  0.75000000  0.87500000  0.12500000  1
  Ge  Ge24  1  0.87500000  0.12500000  0.75000000  1
  Ge  Ge25  1  0.25000000  0.62500000  0.37500000  1
  Ge  Ge26  1  0.75000000  0.37500000  0.62500000  1
  Ge  Ge27  1  0.25000000  0.12500000  0.87500000  1
  Ge  Ge28  1  0.12500000  0.87500000  0.25000000  1
  Ge  Ge29  1  0.37500000  0.62500000  0.75000000  1
  Ge  Ge30  1  0.62500000  0.75000000  0.37500000  1
  Ge  Ge31  1  0.37500000  0.25000000  0.62500000  1
  O  O32  1  0.41956900  0.81805500  0.79488200  1
  O  O33  1  0.87531300  0.39848600  0.08043100  1
  O  O34  1  0.10151400  0.97682700  0.68194500  1
  O  O35  1  0.52317300  0.62468700  0.70511800  1
  O  O36  1  0.68194500  0.08043100  0.70511800  1
  O  O37  1  0.62468700  0.70511800  0.52317300  1
  O  O38  1  0.62468700  0.41956900  0.10151400  1
  O  O39  1  0.70511800  0.52317300  0.62468700  1
  O  O40  1  0.81805500  0.52317300  0.39848600  1
  O  O41  1  0.97682700  0.79488200  0.87531300  1
  O  O42  1  0.79488200  0.87531300  0.97682700  1
  O  O43  1  0.70511800  0.68194500  0.08043100  1
  O  O44  1  0.41956900  0.10151400  0.62468700  1
  O  O45  1  0.39848600  0.81805500  0.52317300  1
  O  O46  1  0.08043100  0.70511800  0.68194500  1
  O  O47  1  0.10151400  0.62468700  0.41956900  1
  O  O48  1  0.52317300  0.39848600  0.81805500  1
  O  O49  1  0.08043100  0.87531300  0.39848600  1
  O  O50  1  0.97682700  0.68194500  0.10151400  1
  O  O51  1  0.18194500  0.47682700  0.60151400  1
  O  O52  1  0.68194500  0.10151400  0.97682700  1
  O  O53  1  0.79488200  0.41956900  0.81805500  1
  O  O54  1  0.39848600  0.08043100  0.87531300  1
  O  O55  1  0.87531300  0.97682700  0.79488200  1
  O  O56  1  0.58043100  0.18194500  0.20511800  1
  O  O57  1  0.12468700  0.60151400  0.91956900  1
  O  O58  1  0.89848600  0.02317300  0.31805500  1
  O  O59  1  0.47682700  0.37531300  0.29488200  1
  O  O60  1  0.31805500  0.91956900  0.29488200  1
  O  O61  1  0.37531300  0.29488200  0.47682700  1
  O  O62  1  0.37531300  0.58043100  0.89848600  1
  O  O63  1  0.29488200  0.47682700  0.37531300  1
  O  O64  1  0.12468700  0.02317300  0.20511800  1
  O  O65  1  0.60151400  0.91956900  0.12468700  1
  O  O66  1  0.20511800  0.58043100  0.18194500  1
  O  O67  1  0.18194500  0.20511800  0.58043100  1
  O  O68  1  0.31805500  0.89848600  0.02317300  1
  O  O69  1  0.02317300  0.31805500  0.89848600  1
  O  O70  1  0.91956900  0.12468700  0.60151400  1
  O  O71  1  0.47682700  0.60151400  0.18194500  1
  O  O72  1  0.89848600  0.37531300  0.58043100  1
  O  O73  1  0.91956900  0.29488200  0.31805500  1
  O  O74  1  0.60151400  0.18194500  0.47682700  1
  O  O75  1  0.58043100  0.89848600  0.37531300  1
  O  O76  1  0.29488200  0.31805500  0.91956900  1
  O  O77  1  0.20511800  0.12468700  0.02317300  1
  O  O78  1  0.02317300  0.20511800  0.12468700  1
  O  O79  1  0.81805500  0.79488200  0.41956900  1
