# generated using pymatgen
data_MgFeF4
_symmetry_space_group_name_H-M   'P 1'
_cell_length_a   5.10150140
_cell_length_b   5.07868520
_cell_length_c   6.28570089
_cell_angle_alpha   113.69908041
_cell_angle_beta   114.01266831
_cell_angle_gamma   89.85143674
_symmetry_Int_Tables_number   1
_chemical_formula_structural   MgFeF4
_chemical_formula_sum   'Mg2 Fe2 F8'
_cell_volume   133.66995051
_cell_formula_units_Z   2
loop_
 _symmetry_equiv_pos_site_id
 _symmetry_equiv_pos_as_xyz
  1  'x, y, z'
loop_
 _atom_site_type_symbol
 _atom_site_label
 _atom_site_symmetry_multiplicity
 _atom_site_fract_x
 _atom_site_fract_y
 _atom_site_fract_z
 _atom_site_occupancy
  Mg  Mg0  1  0.25260700  0.24892200  0.49910700  1
  Mg  Mg1  1  0.75105800  0.74875800  0.49899600  1
  Fe  Fe2  1  0.99718800  0.50315600  0.00056300  1
  Fe  Fe3  1  0.49712800  0.99635500  0.99815500  1
  F  F4  1  0.91488300  0.40544900  0.26326400  1
  F  F5  1  0.65867500  0.14583900  0.73497100  1
  F  F6  1  0.08918700  0.59706000  0.74029700  1
  F  F7  1  0.15777900  0.09235100  0.73286000  1
  F  F8  1  0.34876200  0.85072500  0.26411000  1
  F  F9  1  0.41440700  0.34940900  0.26224300  1
  F  F10  1  0.84644100  0.90246400  0.25896600  1
  F  F11  1  0.58694400  0.64564200  0.73572400  1
