# generated using pymatgen
data_ZnMoF5
_symmetry_space_group_name_H-M   'P 1'
_cell_length_a   10.38313300
_cell_length_b   5.36765900
_cell_length_c   8.00804652
_cell_angle_alpha   70.99813793
_cell_angle_beta   90.00000000
_cell_angle_gamma   90.00000000
_symmetry_Int_Tables_number   1
_chemical_formula_structural   ZnMoF5
_chemical_formula_sum   'Zn4 Mo4 F20'
_cell_volume   421.99288370
_cell_formula_units_Z   4
loop_
 _symmetry_equiv_pos_site_id
 _symmetry_equiv_pos_as_xyz
  1  'x, y, z'
loop_
 _atom_site_type_symbol
 _atom_site_label
 _atom_site_symmetry_multiplicity
 _atom_site_fract_x
 _atom_site_fract_y
 _atom_site_fract_z
 _atom_site_occupancy
  Zn  Zn0  1  0.98888800  0.48765000  0.77323300  1
  Zn  Zn1  1  0.48888800  0.51235000  0.72676700  1
  Zn  Zn2  1  0.01111200  0.51235000  0.22676700  1
  Zn  Zn3  1  0.51111200  0.48765000  0.27323300  1
  Mo  Mo4  1  0.75619400  0.07802200  0.61639700  1
  Mo  Mo5  1  0.25619400  0.92197800  0.88360300  1
  Mo  Mo6  1  0.24380600  0.92197800  0.38360300  1
  Mo  Mo7  1  0.74380600  0.07802200  0.11639700  1
  F  F8  1  0.88579700  0.38977100  0.59086500  1
  F  F9  1  0.38579700  0.61022900  0.90913500  1
  F  F10  1  0.11420300  0.61022900  0.40913500  1
  F  F11  1  0.61420300  0.38977100  0.09086500  1
  F  F12  1  0.60385600  0.33880200  0.50770600  1
  F  F13  1  0.10385600  0.66119800  0.99229400  1
  F  F14  1  0.39614400  0.66119800  0.49229400  1
  F  F15  1  0.89614400  0.33880200  0.00770600  1
  F  F16  1  0.41608300  0.16292000  0.78456600  1
  F  F17  1  0.91608300  0.83708000  0.71543400  1
  F  F18  1  0.58391700  0.83708000  0.21543400  1
  F  F19  1  0.08391700  0.16292000  0.28456600  1
  F  F20  1  0.13473100  0.25392500  0.83556700  1
  F  F21  1  0.63473100  0.74607500  0.66443300  1
  F  F22  1  0.86526900  0.74607500  0.16443300  1
  F  F23  1  0.36526900  0.25392500  0.33556700  1
  F  F24  1  0.69019400  0.10727400  0.85767700  1
  F  F25  1  0.19019400  0.89272600  0.64232300  1
  F  F26  1  0.30980600  0.89272600  0.14232300  1
  F  F27  1  0.80980600  0.10727400  0.35767700  1
