# generated using pymatgen
data_VZnF4
_symmetry_space_group_name_H-M   'P 1'
_cell_length_a   5.20146200
_cell_length_b   5.68482759
_cell_length_c   5.87162565
_cell_angle_alpha   109.58808508
_cell_angle_beta   104.30881412
_cell_angle_gamma   89.77054727
_symmetry_Int_Tables_number   1
_chemical_formula_structural   VZnF4
_chemical_formula_sum   'V2 Zn2 F8'
_cell_volume   157.90585420
_cell_formula_units_Z   2
loop_
 _symmetry_equiv_pos_site_id
 _symmetry_equiv_pos_as_xyz
  1  'x, y, z'
loop_
 _atom_site_type_symbol
 _atom_site_label
 _atom_site_symmetry_multiplicity
 _atom_site_fract_x
 _atom_site_fract_y
 _atom_site_fract_z
 _atom_site_occupancy
  V  V0  1  0.50000000  0.00000000  0.00000000  1
  V  V1  1  0.00000000  0.50000000  0.00000000  1
  Zn  Zn2  1  0.69691100  0.66617500  0.44079300  1
  Zn  Zn3  1  0.30308900  0.33382500  0.55920700  1
  F  F4  1  0.69671800  0.95770100  0.72286800  1
  F  F5  1  0.78685100  0.33787700  0.19480700  1
  F  F6  1  0.30328200  0.04229900  0.27713200  1
  F  F7  1  0.78058700  0.79195000  0.18344900  1
  F  F8  1  0.21314900  0.66212300  0.80519300  1
  F  F9  1  0.70712400  0.44876400  0.67074100  1
  F  F10  1  0.21941300  0.20805000  0.81655100  1
  F  F11  1  0.29287600  0.55123600  0.32925900  1
