# generated using pymatgen
data_Sr2YGaW2O7
_symmetry_space_group_name_H-M   'P 1'
_cell_length_a   12.04410095
_cell_length_b   12.04410095
_cell_length_c   12.04410095
_cell_angle_alpha   152.22009031
_cell_angle_beta   150.86281877
_cell_angle_gamma   40.69415158
_symmetry_Int_Tables_number   1
_chemical_formula_structural   Sr2YGaW2O7
_chemical_formula_sum   'Sr4 Y2 Ga2 W4 O14'
_cell_volume   395.66109239
_cell_formula_units_Z   2
loop_
 _symmetry_equiv_pos_site_id
 _symmetry_equiv_pos_as_xyz
  1  'x, y, z'
loop_
 _atom_site_type_symbol
 _atom_site_label
 _atom_site_symmetry_multiplicity
 _atom_site_fract_x
 _atom_site_fract_y
 _atom_site_fract_z
 _atom_site_occupancy
  Sr  Sr0  1  0.37912000  0.81339300  0.51078800  1
  Sr  Sr1  1  0.62088000  0.13166800  0.43427300  1
  Sr  Sr2  1  0.80260500  0.31339300  0.43427300  1
  Sr  Sr3  1  0.19739500  0.63166800  0.51078800  1
  Y  Y4  1  0.00000000  0.49978000  0.49978000  1
  Y  Y5  1  0.50000000  0.99978000  0.49978000  1
  Ga  Ga6  1  0.82989400  0.71333600  0.04323100  1
  Ga  Ga7  1  0.17010600  0.21333600  0.88344200  1
  W  W8  1  0.57399900  0.57097000  0.00186800  1
  W  W9  1  0.93089800  0.92786900  0.00186800  1
  W  W10  1  0.06910200  0.07097000  0.99697100  1
  W  W11  1  0.42600100  0.42786900  0.99697100  1
  O  O12  1  0.73767900  0.60979600  0.49425100  1
  O  O13  1  0.89824200  0.38672000  0.78496200  1
  O  O14  1  0.61554500  0.10979600  0.87211700  1
  O  O15  1  0.23254100  0.20176400  0.07835900  1
  O  O16  1  0.75715600  0.89903500  0.50513900  1
  O  O17  1  0.89389600  0.39903500  0.14187900  1
  O  O18  1  0.10175800  0.88672000  0.48847800  1
  O  O19  1  0.38445500  0.25657300  0.49425100  1
  O  O20  1  0.26232100  0.75657300  0.87211700  1
  O  O21  1  0.62340600  0.70176400  0.96922300  1
  O  O22  1  0.76745900  0.84581800  0.96922300  1
  O  O23  1  0.37659400  0.34581800  0.07835900  1
  O  O24  1  0.24284400  0.74798200  0.14187900  1
  O  O25  1  0.10610400  0.24798200  0.50513900  1
