# generated using pymatgen
data_MgCoF5
_symmetry_space_group_name_H-M   'P 1'
_cell_length_a   9.59941300
_cell_length_b   5.18507400
_cell_length_c   7.35479223
_cell_angle_alpha   70.03992144
_cell_angle_beta   90.00000000
_cell_angle_gamma   90.00000000
_symmetry_Int_Tables_number   1
_chemical_formula_structural   MgCoF5
_chemical_formula_sum   'Mg4 Co4 F20'
_cell_volume   344.08510945
_cell_formula_units_Z   4
loop_
 _symmetry_equiv_pos_site_id
 _symmetry_equiv_pos_as_xyz
  1  'x, y, z'
loop_
 _atom_site_type_symbol
 _atom_site_label
 _atom_site_symmetry_multiplicity
 _atom_site_fract_x
 _atom_site_fract_y
 _atom_site_fract_z
 _atom_site_occupancy
  Mg  Mg0  1  0.01246700  0.52294700  0.74713500  1
  Mg  Mg1  1  0.51246700  0.47705300  0.75286500  1
  Mg  Mg2  1  0.98753300  0.47705300  0.25286500  1
  Mg  Mg3  1  0.48753300  0.52294700  0.24713500  1
  Co  Co4  1  0.75345000  0.10122900  0.60171600  1
  Co  Co5  1  0.25345000  0.89877100  0.89828400  1
  Co  Co6  1  0.24655000  0.89877100  0.39828400  1
  Co  Co7  1  0.74655000  0.10122900  0.10171600  1
  F  F8  1  0.88802800  0.39315000  0.57512300  1
  F  F9  1  0.38802800  0.60685000  0.92487700  1
  F  F10  1  0.11197200  0.60685000  0.42487700  1
  F  F11  1  0.61197200  0.39315000  0.07512300  1
  F  F12  1  0.60815200  0.35608800  0.48905700  1
  F  F13  1  0.10815200  0.64391200  0.01094300  1
  F  F14  1  0.39184800  0.64391200  0.51094300  1
  F  F15  1  0.89184800  0.35608800  0.98905700  1
  F  F16  1  0.39757400  0.14647900  0.80358900  1
  F  F17  1  0.89757400  0.85352100  0.69641100  1
  F  F18  1  0.60242600  0.85352100  0.19641100  1
  F  F19  1  0.10242600  0.14647900  0.30358900  1
  F  F20  1  0.13480200  0.20604600  0.84691000  1
  F  F21  1  0.63480200  0.79395400  0.65309000  1
  F  F22  1  0.86519800  0.79395400  0.15309000  1
  F  F23  1  0.36519800  0.20604600  0.34691000  1
  F  F24  1  0.67953300  0.17492700  0.83282000  1
  F  F25  1  0.17953300  0.82507300  0.66718000  1
  F  F26  1  0.32046700  0.82507300  0.16718000  1
  F  F27  1  0.82046700  0.17492700  0.33282000  1
