# generated using pymatgen
data_Mn2Zn2O5
_symmetry_space_group_name_H-M   'P 1'
_cell_length_a   3.63219700
_cell_length_b   5.47217500
_cell_length_c   10.48984300
_cell_angle_alpha   90.00000000
_cell_angle_beta   90.00000000
_cell_angle_gamma   90.00000000
_symmetry_Int_Tables_number   1
_chemical_formula_structural   Mn2Zn2O5
_chemical_formula_sum   'Mn4 Zn4 O10'
_cell_volume   208.49630428
_cell_formula_units_Z   2
loop_
 _symmetry_equiv_pos_site_id
 _symmetry_equiv_pos_as_xyz
  1  'x, y, z'
loop_
 _atom_site_type_symbol
 _atom_site_label
 _atom_site_symmetry_multiplicity
 _atom_site_fract_x
 _atom_site_fract_y
 _atom_site_fract_z
 _atom_site_occupancy
  Mn  Mn0  1  0.00000000  0.73576600  0.13245700  1
  Mn  Mn1  1  0.00000000  0.26423400  0.86754300  1
  Mn  Mn2  1  0.00000000  0.76423400  0.63245700  1
  Mn  Mn3  1  0.00000000  0.23576600  0.36754300  1
  Zn  Zn4  1  0.50000000  0.77020900  0.40045400  1
  Zn  Zn5  1  0.50000000  0.22979100  0.59954600  1
  Zn  Zn6  1  0.50000000  0.27020900  0.09954600  1
  Zn  Zn7  1  0.50000000  0.72979100  0.90045400  1
  O  O8  1  0.00000000  0.00000000  0.00000000  1
  O  O9  1  0.00000000  0.63195700  0.81786400  1
  O  O10  1  0.00000000  0.13195700  0.68213600  1
  O  O11  1  0.00000000  0.86804300  0.31786400  1
  O  O12  1  0.50000000  0.81738500  0.59398800  1
  O  O13  1  0.50000000  0.18261500  0.40601200  1
  O  O14  1  0.00000000  0.36804300  0.18213600  1
  O  O15  1  0.50000000  0.68261500  0.09398800  1
  O  O16  1  0.00000000  0.50000000  0.50000000  1
  O  O17  1  0.50000000  0.31738500  0.90601200  1
