# generated using pymatgen
data_Th4P6O23
_symmetry_space_group_name_H-M   'P 1'
_cell_length_a   7.19651800
_cell_length_b   10.54887772
_cell_length_c   12.87770530
_cell_angle_alpha   89.50910634
_cell_angle_beta   90.00000000
_cell_angle_gamma   90.00000000
_symmetry_Int_Tables_number   1
_chemical_formula_structural   Th4P6O23
_chemical_formula_sum   'Th8 P12 O46'
_cell_volume   977.57754267
_cell_formula_units_Z   2
loop_
 _symmetry_equiv_pos_site_id
 _symmetry_equiv_pos_as_xyz
  1  'x, y, z'
loop_
 _atom_site_type_symbol
 _atom_site_label
 _atom_site_symmetry_multiplicity
 _atom_site_fract_x
 _atom_site_fract_y
 _atom_site_fract_z
 _atom_site_occupancy
  Th  Th0  1  0.25000000  0.02192900  0.68665400  1
  Th  Th1  1  0.25000000  0.50965300  0.41361700  1
  Th  Th2  1  0.25000000  0.97799300  0.18659700  1
  Th  Th3  1  0.25000000  0.49312500  0.91194400  1
  Th  Th4  1  0.75000000  0.97807100  0.31334600  1
  Th  Th5  1  0.75000000  0.02200700  0.81340300  1
  Th  Th6  1  0.75000000  0.49034700  0.58638300  1
  Th  Th7  1  0.75000000  0.50687500  0.08805600  1
  P  P8  1  0.95802200  0.72423200  0.75769200  1
  P  P9  1  0.25000000  0.62864900  0.13380200  1
  P  P10  1  0.25000000  0.12865600  0.91908200  1
  P  P11  1  0.25000000  0.37326500  0.63581800  1
  P  P12  1  0.25000000  0.87154600  0.42055600  1
  P  P13  1  0.45802200  0.27576800  0.24230800  1
  P  P14  1  0.54197800  0.72423200  0.75769200  1
  P  P15  1  0.75000000  0.12845400  0.57944400  1
  P  P16  1  0.75000000  0.37135100  0.86619800  1
  P  P17  1  0.75000000  0.62673500  0.36418200  1
  P  P18  1  0.75000000  0.87134400  0.08091800  1
  P  P19  1  0.04197800  0.27576800  0.24230800  1
  O  O20  1  0.02393200  0.86343300  0.74536000  1
  O  O21  1  0.05937800  0.34469600  0.34434600  1
  O  O22  1  0.05914200  0.65293800  0.84261500  1
  O  O23  1  0.08127600  0.08622200  0.85016800  1
  O  O24  1  0.08281300  0.91471600  0.35035800  1
  O  O25  1  0.08191200  0.58086000  0.06868000  1
  O  O26  1  0.08200800  0.42210600  0.57020000  1
  O  O27  1  0.25000000  0.24836300  0.19535700  1
  O  O28  1  0.25000000  0.57106200  0.24372700  1
  O  O29  1  0.25000000  0.05241100  0.02293900  1
  O  O30  1  0.25000000  0.22871700  0.64206600  1
  O  O31  1  0.25000000  0.72982800  0.44223100  1
  O  O32  1  0.25000000  0.77362600  0.14090600  1
  O  O33  1  0.25000000  0.42853800  0.74519900  1
  O  O34  1  0.25000000  0.94533300  0.52375000  1
  O  O35  1  0.25000000  0.26989500  0.93990900  1
  O  O36  1  0.41808800  0.58086000  0.06868000  1
  O  O37  1  0.41799200  0.42210600  0.57020000  1
  O  O38  1  0.41872400  0.08622200  0.85016800  1
  O  O39  1  0.41718700  0.91471600  0.35035800  1
  O  O40  1  0.44062200  0.34469600  0.34434600  1
  O  O41  1  0.44085800  0.65293800  0.84261500  1
  O  O42  1  0.52393200  0.13656700  0.25464000  1
  O  O43  1  0.47606800  0.86343300  0.74536000  1
  O  O44  1  0.55914200  0.34706200  0.15738500  1
  O  O45  1  0.55937800  0.65530400  0.65565400  1
  O  O46  1  0.58281300  0.08528400  0.64964200  1
  O  O47  1  0.58127600  0.91377800  0.14983200  1
  O  O48  1  0.58191200  0.41914000  0.93132000  1
  O  O49  1  0.58200800  0.57789400  0.42980000  1
  O  O50  1  0.75000000  0.73010500  0.06009100  1
  O  O51  1  0.75000000  0.05466700  0.47625000  1
  O  O52  1  0.75000000  0.22637400  0.85909400  1
  O  O53  1  0.75000000  0.27017200  0.55776900  1
  O  O54  1  0.75000000  0.57146200  0.25480100  1
  O  O55  1  0.75000000  0.75163700  0.80464300  1
  O  O56  1  0.75000000  0.77128300  0.35793400  1
  O  O57  1  0.75000000  0.94758900  0.97706100  1
  O  O58  1  0.75000000  0.42893800  0.75627300  1
  O  O59  1  0.91808800  0.41914000  0.93132000  1
  O  O60  1  0.91799200  0.57789400  0.42980000  1
  O  O61  1  0.91718700  0.08528400  0.64964200  1
  O  O62  1  0.91872400  0.91377800  0.14983200  1
  O  O63  1  0.94085800  0.34706200  0.15738500  1
  O  O64  1  0.94062200  0.65530400  0.65565400  1
  O  O65  1  0.97606800  0.13656700  0.25464000  1
