data_image0
_chemical_formula_structural       Al3H6KO14S2
_chemical_formula_sum              "Al3 H6 K1 O14 S2"
_cell_length_a       6.69325
_cell_length_b       6.69325
_cell_length_c       6.69325
_cell_angle_alpha    61.83
_cell_angle_beta     61.83
_cell_angle_gamma    61.83

_space_group_name_H-M_alt    "P 1"
_space_group_IT_number       1

loop_
  _space_group_symop_operation_xyz
  'x, y, z'

loop_
  _atom_site_type_symbol
  _atom_site_label
  _atom_site_symmetry_multiplicity
  _atom_site_fract_x
  _atom_site_fract_y
  _atom_site_fract_z
  _atom_site_occupancy
  Al  Al1       1.0  1.00000  0.50000  1.00000  1.0000
  Al  Al2       1.0  0.00000  0.00000  0.50000  1.0000
  Al  Al3       1.0  0.50000  0.00000  1.00000  1.0000
  H   H1        1.0  0.31700  0.71000  0.31700  1.0000
  H   H2        1.0  0.31700  0.31700  0.71000  1.0000
  H   H3        1.0  0.71000  0.31700  0.31700  1.0000
  H   H4        1.0  0.29000  0.68300  0.68300  1.0000
  H   H5        1.0  0.68300  0.68300  0.29000  1.0000
  H   H6        1.0  0.68300  0.29000  0.68300  1.0000
  K   K1        1.0  1.00000  0.00000  0.00000  1.0000
  O   O1        1.0  0.26700  0.88600  0.26700  1.0000
  O   O2        1.0  0.26700  0.26700  0.88600  1.0000
  O   O3        1.0  0.88600  0.26700  0.26700  1.0000
  O   O4        1.0  0.11400  0.73300  0.73300  1.0000
  O   O5        1.0  0.73300  0.73300  0.11400  1.0000
  O   O6        1.0  0.73300  0.11400  0.73300  1.0000
  O   O7        1.0  0.16500  0.51700  0.16500  1.0000
  O   O8        1.0  0.16500  0.16500  0.51700  1.0000
  O   O9        1.0  0.51700  0.16500  0.16500  1.0000
  O   O10       1.0  0.48300  0.83500  0.83500  1.0000
  O   O11       1.0  0.83500  0.83500  0.48300  1.0000
  O   O12       1.0  0.83500  0.48300  0.83500  1.0000
  O   O13       1.0  0.40400  0.40400  0.40400  1.0000
  O   O14       1.0  0.59600  0.59600  0.59600  1.0000
  S   S1        1.0  0.31300  0.31300  0.31300  1.0000
  S   S2        1.0  0.68700  0.68700  0.68700  1.0000
