# generated using pymatgen
data_Mg2BiWO6
_symmetry_space_group_name_H-M   'P 1'
_cell_length_a   5.60647200
_cell_length_b   5.51520300
_cell_length_c   9.78610241
_cell_angle_alpha   56.05803142
_cell_angle_beta   90.00000000
_cell_angle_gamma   90.00000000
_symmetry_Int_Tables_number   1
_chemical_formula_structural   Mg2BiWO6
_chemical_formula_sum   'Mg4 Bi2 W2 O12'
_cell_volume   251.03339632
_cell_formula_units_Z   2
loop_
 _symmetry_equiv_pos_site_id
 _symmetry_equiv_pos_as_xyz
  1  'x, y, z'
loop_
 _atom_site_type_symbol
 _atom_site_label
 _atom_site_symmetry_multiplicity
 _atom_site_fract_x
 _atom_site_fract_y
 _atom_site_fract_z
 _atom_site_occupancy
  Mg  Mg0  1  0.47950800  0.21221300  0.76288000  1
  Mg  Mg1  1  0.97950800  0.78778700  0.73712000  1
  Mg  Mg2  1  0.52049200  0.78778700  0.23712000  1
  Mg  Mg3  1  0.02049200  0.21221300  0.26288000  1
  Bi  Bi4  1  0.50000000  0.00000000  0.50000000  1
  Bi  Bi5  1  0.00000000  0.00000000  0.00000000  1
  W  W6  1  0.50000000  0.50000000  0.00000000  1
  W  W7  1  0.00000000  0.50000000  0.50000000  1
  O  O8  1  0.18819900  0.46130800  0.90882600  1
  O  O9  1  0.68819900  0.53869200  0.59117400  1
  O  O10  1  0.81180100  0.53869200  0.09117400  1
  O  O11  1  0.31180100  0.46130800  0.40882600  1
  O  O12  1  0.36539600  0.76096700  0.05705100  1
  O  O13  1  0.86539600  0.23903300  0.44294900  1
  O  O14  1  0.63460400  0.23903300  0.94294900  1
  O  O15  1  0.13460400  0.76096700  0.55705100  1
  O  O16  1  0.12457300  0.14309200  0.72518900  1
  O  O17  1  0.62457300  0.85690800  0.77481100  1
  O  O18  1  0.37542700  0.14309200  0.22518900  1
  O  O19  1  0.87542700  0.85690800  0.27481100  1
