# generated using pymatgen
data_Zn2BiWO6
_symmetry_space_group_name_H-M   'P 1'
_cell_length_a   5.52628500
_cell_length_b   5.52214200
_cell_length_c   9.81808977
_cell_angle_alpha   57.33426512
_cell_angle_beta   90.00000000
_cell_angle_gamma   90.00000000
_symmetry_Int_Tables_number   1
_chemical_formula_structural   Zn2BiWO6
_chemical_formula_sum   'Zn4 Bi2 W2 O12'
_cell_volume   252.22850347
_cell_formula_units_Z   2
loop_
 _symmetry_equiv_pos_site_id
 _symmetry_equiv_pos_as_xyz
  1  'x, y, z'
loop_
 _atom_site_type_symbol
 _atom_site_label
 _atom_site_symmetry_multiplicity
 _atom_site_fract_x
 _atom_site_fract_y
 _atom_site_fract_z
 _atom_site_occupancy
  Zn  Zn0  1  0.48452700  0.21972700  0.75477800  1
  Zn  Zn1  1  0.98452700  0.78027300  0.74522200  1
  Zn  Zn2  1  0.51547300  0.78027300  0.24522200  1
  Zn  Zn3  1  0.01547300  0.21972700  0.25477800  1
  Bi  Bi4  1  0.50000000  0.00000000  0.50000000  1
  Bi  Bi5  1  0.00000000  0.00000000  0.00000000  1
  W  W6  1  0.50000000  0.50000000  0.00000000  1
  W  W7  1  0.00000000  0.50000000  0.50000000  1
  O  O8  1  0.18418800  0.45924100  0.91301000  1
  O  O9  1  0.68418800  0.54075900  0.58699000  1
  O  O10  1  0.81581200  0.54075900  0.08699000  1
  O  O11  1  0.31581200  0.45924100  0.41301000  1
  O  O12  1  0.36623800  0.75393300  0.06504100  1
  O  O13  1  0.86623800  0.24606700  0.43495900  1
  O  O14  1  0.63376200  0.24606700  0.93495900  1
  O  O15  1  0.13376200  0.75393300  0.56504100  1
  O  O16  1  0.12665800  0.15146300  0.72344800  1
  O  O17  1  0.62665800  0.84853700  0.77655200  1
  O  O18  1  0.37334200  0.15146300  0.22344800  1
  O  O19  1  0.87334200  0.84853700  0.27655200  1
