# generated using pymatgen
data_Ca(BiO2)2
_symmetry_space_group_name_H-M   'P 1'
_cell_length_a   7.06847980
_cell_length_b   7.06847980
_cell_length_c   7.06847980
_cell_angle_alpha   60.00000000
_cell_angle_beta   60.00000000
_cell_angle_gamma   60.00000000
_symmetry_Int_Tables_number   1
_chemical_formula_structural   Ca(BiO2)2
_chemical_formula_sum   'Ca2 Bi4 O8'
_cell_volume   249.72560045
_cell_formula_units_Z   2
loop_
 _symmetry_equiv_pos_site_id
 _symmetry_equiv_pos_as_xyz
  1  'x, y, z'
loop_
 _atom_site_type_symbol
 _atom_site_label
 _atom_site_symmetry_multiplicity
 _atom_site_fract_x
 _atom_site_fract_y
 _atom_site_fract_z
 _atom_site_occupancy
  Ca  Ca0  1  0.25000000  0.25000000  0.25000000  1
  Ca  Ca1  1  0.00000000  0.00000000  0.00000000  1
  Bi  Bi2  1  0.62500000  0.62500000  0.12500000  1
  Bi  Bi3  1  0.62500000  0.12500000  0.62500000  1
  Bi  Bi4  1  0.62500000  0.62500000  0.62500000  1
  Bi  Bi5  1  0.12500000  0.62500000  0.62500000  1
  O  O6  1  0.86708100  0.39875600  0.86708100  1
  O  O7  1  0.86708100  0.86708100  0.86708100  1
  O  O8  1  0.39875600  0.86708100  0.86708100  1
  O  O9  1  0.38291900  0.38291900  0.85124400  1
  O  O10  1  0.85124400  0.38291900  0.38291900  1
  O  O11  1  0.38291900  0.38291900  0.38291900  1
  O  O12  1  0.86708100  0.86708100  0.39875600  1
  O  O13  1  0.38291900  0.85124400  0.38291900  1
