# generated using pymatgen
data_MgCr2O4
_symmetry_space_group_name_H-M   'P 1'
_cell_length_a   6.00010935
_cell_length_b   6.00010935
_cell_length_c   20.08527908
_cell_angle_alpha   79.76046865
_cell_angle_beta   79.76046865
_cell_angle_gamma   59.77993230
_symmetry_Int_Tables_number   1
_chemical_formula_structural   MgCr2O4
_chemical_formula_sum   'Mg8 Cr16 O32'
_cell_volume   611.55164864
_cell_formula_units_Z   8
loop_
 _symmetry_equiv_pos_site_id
 _symmetry_equiv_pos_as_xyz
  1  'x, y, z'
loop_
 _atom_site_type_symbol
 _atom_site_label
 _atom_site_symmetry_multiplicity
 _atom_site_fract_x
 _atom_site_fract_y
 _atom_site_fract_z
 _atom_site_occupancy
  Mg  Mg0  1  0.65319600  0.65319600  0.02993100  1
  Mg  Mg1  1  0.12197400  0.12197400  0.12462200  1
  Mg  Mg2  1  0.90163900  0.90163900  0.28157000  1
  Mg  Mg3  1  0.37305000  0.37305000  0.37446000  1
  Mg  Mg4  1  0.62530200  0.62530200  0.62464200  1
  Mg  Mg5  1  0.49978100  0.49978100  0.49937400  1
  Mg  Mg6  1  0.87521300  0.87521300  0.87473600  1
  Mg  Mg7  1  0.75020200  0.75020200  0.75001600  1
  Cr  Cr8  1  0.62928600  0.12352300  0.12502400  1
  Cr  Cr9  1  0.25034000  0.25034000  0.25155400  1
  Cr  Cr10  1  0.12352300  0.62928600  0.12502400  1
  Cr  Cr11  1  0.15301100  0.15301100  0.53207400  1
  Cr  Cr12  1  0.87614500  0.37332600  0.37439700  1
  Cr  Cr13  1  0.59894600  0.59894600  0.21980100  1
  Cr  Cr14  1  0.40550600  0.40550600  0.78076600  1
  Cr  Cr15  1  0.37332600  0.87614500  0.37439700  1
  Cr  Cr16  1  0.12479300  0.62494300  0.62461900  1
  Cr  Cr17  1  0.84605800  0.84605800  0.46705900  1
  Cr  Cr18  1  0.62494300  0.12479300  0.62461900  1
  Cr  Cr19  1  0.87593100  0.37834100  0.87557700  1
  Cr  Cr20  1  0.37834100  0.87593100  0.87557700  1
  Cr  Cr21  1  0.09572800  0.09572800  0.71810000  1
  Cr  Cr22  1  0.00031200  0.00031200  0.00199100  1
  Cr  Cr23  1  0.34934300  0.34934300  0.97051800  1
  O  O24  1  0.28208600  0.82217400  0.06368400  1
  O  O25  1  0.93356500  0.93356500  0.18006800  1
  O  O26  1  0.82217400  0.28208600  0.06368400  1
  O  O27  1  0.82380700  0.82380700  0.06608500  1
  O  O28  1  0.42614200  0.42614200  0.18334200  1
  O  O29  1  0.52833600  0.07488200  0.31385200  1
  O  O30  1  0.43002600  0.96065200  0.18728400  1
  O  O31  1  0.17735100  0.17735100  0.43271000  1
  O  O32  1  0.07488200  0.52833600  0.31385200  1
  O  O33  1  0.31606800  0.31606800  0.06871500  1
  O  O34  1  0.07420700  0.07420700  0.31552500  1
  O  O35  1  0.96065200  0.43002600  0.18728400  1
  O  O36  1  0.79254900  0.31963600  0.56403800  1
  O  O37  1  0.68309300  0.68309300  0.42975900  1
  O  O38  1  0.67913600  0.20554400  0.43444300  1
  O  O39  1  0.43029900  0.43029900  0.68118000  1
  O  O40  1  0.31963600  0.79254900  0.56403800  1
  O  O41  1  0.56882100  0.56882100  0.31794200  1
  O  O42  1  0.31899100  0.31899100  0.56877600  1
  O  O43  1  0.20554400  0.67913600  0.43444300  1
  O  O44  1  0.93226500  0.93226500  0.68078100  1
  O  O45  1  0.04705600  0.56824500  0.81450500  1
  O  O46  1  0.92971700  0.45645200  0.68581400  1
  O  O47  1  0.68725500  0.68725500  0.92883600  1
  O  O48  1  0.56824500  0.04705600  0.81450500  1
  O  O49  1  0.81967400  0.81967400  0.56829800  1
  O  O50  1  0.56763700  0.56763700  0.82009500  1
  O  O51  1  0.45645200  0.92971700  0.68581400  1
  O  O52  1  0.17535700  0.17535700  0.93485900  1
  O  O53  1  0.18162700  0.71206400  0.93804300  1
  O  O54  1  0.06934400  0.06934400  0.81925300  1
  O  O55  1  0.71206400  0.18162700  0.93804300  1
