# generated using pymatgen
data_ZnSn2O5
_symmetry_space_group_name_H-M   'P 1'
_cell_length_a   3.55699900
_cell_length_b   5.17909773
_cell_length_c   12.95496980
_cell_angle_alpha   92.87891452
_cell_angle_beta   94.01840356
_cell_angle_gamma   95.52466794
_symmetry_Int_Tables_number   1
_chemical_formula_structural   ZnSn2O5
_chemical_formula_sum   'Zn2 Sn4 O10'
_cell_volume   236.57404616
_cell_formula_units_Z   2
loop_
 _symmetry_equiv_pos_site_id
 _symmetry_equiv_pos_as_xyz
  1  'x, y, z'
loop_
 _atom_site_type_symbol
 _atom_site_label
 _atom_site_symmetry_multiplicity
 _atom_site_fract_x
 _atom_site_fract_y
 _atom_site_fract_z
 _atom_site_occupancy
  Zn  Zn0  1  0.41271200  0.02930900  0.24055600  1
  Zn  Zn1  1  0.61821600  0.97300900  0.75200200  1
  Sn  Sn2  1  0.79977000  0.55438000  0.11065000  1
  Sn  Sn3  1  0.22081600  0.44728200  0.88806700  1
  Sn  Sn4  1  0.26324700  0.42356700  0.60387900  1
  Sn  Sn5  1  0.73109500  0.57644300  0.39536100  1
  O  O6  1  0.36556100  0.60192300  0.75230100  1
  O  O7  1  0.65557600  0.40024200  0.24647200  1
  O  O8  1  0.26278400  0.40140100  0.05808300  1
  O  O9  1  0.75729900  0.60133600  0.94220000  1
  O  O10  1  0.21358100  0.40807400  0.43325600  1
  O  O11  1  0.77895900  0.58883000  0.56685200  1
  O  O12  1  0.63386200  0.92928000  0.36967400  1
  O  O13  1  0.30602200  0.06552900  0.63596500  1
  O  O14  1  0.06018400  0.08234000  0.84529900  1
  O  O15  1  0.92881500  0.92147900  0.15870100  1
