# generated using pymatgen
data_Ti7Fe13O30
_symmetry_space_group_name_H-M   'P 1'
_cell_length_a   5.14558200
_cell_length_b   5.55016346
_cell_length_c   21.40908975
_cell_angle_alpha   94.74825581
_cell_angle_beta   90.03972873
_cell_angle_gamma   117.46291184
_symmetry_Int_Tables_number   1
_chemical_formula_structural   Ti7Fe13O30
_chemical_formula_sum   'Ti7 Fe13 O30'
_cell_volume   540.13289063
_cell_formula_units_Z   1
loop_
 _symmetry_equiv_pos_site_id
 _symmetry_equiv_pos_as_xyz
  1  'x, y, z'
loop_
 _atom_site_type_symbol
 _atom_site_label
 _atom_site_symmetry_multiplicity
 _atom_site_fract_x
 _atom_site_fract_y
 _atom_site_fract_z
 _atom_site_occupancy
  Ti  Ti0  1  0.20720900  0.40844900  0.03057200  1
  Ti  Ti1  1  0.90189500  0.81699500  0.13560700  1
  Ti  Ti2  1  0.01360600  0.01330200  0.43466200  1
  Ti  Ti3  1  0.30378700  0.60563700  0.32923900  1
  Ti  Ti4  1  0.39577500  0.80933100  0.62744100  1
  Ti  Ti5  1  0.80648800  0.61009000  0.82782800  1
  Ti  Ti6  1  0.10950300  0.20681300  0.72846900  1
  Fe  Fe7  1  0.49626100  0.99240100  0.06999100  1
  Fe  Fe8  1  0.59609900  0.20002000  0.22889000  1
  Fe  Fe9  1  0.89328300  0.78541700  0.27361500  1
  Fe  Fe10  1  0.19551600  0.40073100  0.17102000  1
  Fe  Fe11  1  0.30635900  0.59679500  0.47031600  1
  Fe  Fe12  1  0.59961400  0.18791600  0.36912500  1
  Fe  Fe13  1  0.69017100  0.39897400  0.67041800  1
  Fe  Fe14  1  0.69674700  0.39835200  0.52799400  1
  Fe  Fe15  1  0.99446200  0.98845700  0.57200600  1
  Fe  Fe16  1  0.10101000  0.20007700  0.87076900  1
  Fe  Fe17  1  0.40114400  0.79753900  0.77190300  1
  Fe  Fe18  1  0.50083200  0.00654300  0.92803300  1
  Fe  Fe19  1  0.79742000  0.59927100  0.97085300  1
  O  O20  1  0.24033000  0.17281100  0.08432100  1
  O  O21  1  0.74899900  0.09230800  0.14573100  1
  O  O22  1  0.79476400  0.24412100  0.01178900  1
  O  O23  1  0.64332100  0.56741700  0.18466200  1
  O  O24  1  0.65427300  0.70114100  0.05279100  1
  O  O25  1  0.62370900  0.94188500  0.29058000  1
  O  O26  1  0.15613100  0.66074600  0.10700500  1
  O  O27  1  0.14621000  0.89517300  0.35198000  1
  O  O28  1  0.14830200  0.02001400  0.20993400  1
  O  O29  1  0.03186500  0.36667900  0.38323200  1
  O  O30  1  0.05891300  0.50609900  0.25660400  1
  O  O31  1  0.02001100  0.75968900  0.48413000  1
  O  O32  1  0.54797800  0.43863200  0.31167500  1
  O  O33  1  0.55147200  0.71305700  0.55689200  1
  O  O34  1  0.60318700  0.85456200  0.40716000  1
  O  O35  1  0.42107200  0.14645300  0.58969000  1
  O  O36  1  0.44068900  0.28471400  0.44404100  1
  O  O37  1  0.40200800  0.57182400  0.68692000  1
  O  O38  1  0.97314100  0.21850900  0.50782900  1
  O  O39  1  0.92330400  0.48012000  0.75689500  1
  O  O40  1  0.99768900  0.64550500  0.60796600  1
  O  O41  1  0.85996300  0.96329900  0.78460100  1
  O  O42  1  0.86482500  0.09415800  0.65390400  1
  O  O43  1  0.81367400  0.36843400  0.88955200  1
  O  O44  1  0.34111300  0.04262500  0.70901000  1
  O  O45  1  0.35091800  0.30673700  0.95896400  1
  O  O46  1  0.40364700  0.43966900  0.80794100  1
  O  O47  1  0.23405300  0.76019700  0.98919500  1
  O  O48  1  0.24486000  0.88838100  0.85445200  1
  O  O49  1  0.75239800  0.83192800  0.91180300  1
