# generated using pymatgen
data_ZnNiO2
_symmetry_space_group_name_H-M   'P 1'
_cell_length_a   8.12042817
_cell_length_b   8.12042817
_cell_length_c   11.38177760
_cell_angle_alpha   46.48703320
_cell_angle_beta   46.48703320
_cell_angle_gamma   20.86926145
_symmetry_Int_Tables_number   1
_chemical_formula_structural   ZnNiO2
_chemical_formula_sum   'Zn4 Ni4 O8'
_cell_volume   190.91236641
_cell_formula_units_Z   4
loop_
 _symmetry_equiv_pos_site_id
 _symmetry_equiv_pos_as_xyz
  1  'x, y, z'
loop_
 _atom_site_type_symbol
 _atom_site_label
 _atom_site_symmetry_multiplicity
 _atom_site_fract_x
 _atom_site_fract_y
 _atom_site_fract_z
 _atom_site_occupancy
  Zn  Zn0  1  0.67358900  0.67358900  0.24696500  1
  Zn  Zn1  1  0.32641100  0.32641100  0.75303500  1
  Zn  Zn2  1  0.92364800  0.92364800  0.39453600  1
  Zn  Zn3  1  0.07635200  0.07635200  0.60546400  1
  Ni  Ni4  1  0.40918100  0.40918100  0.92012500  1
  Ni  Ni5  1  0.82316200  0.82316200  0.27315300  1
  Ni  Ni6  1  0.17683800  0.17683800  0.72684700  1
  Ni  Ni7  1  0.59081900  0.59081900  0.07987500  1
  O  O8  1  0.15583500  0.15583500  0.92548100  1
  O  O9  1  0.59031700  0.59031700  0.72768600  1
  O  O10  1  0.40968300  0.40968300  0.27231400  1
  O  O11  1  0.84416500  0.84416500  0.07451900  1
  O  O12  1  0.90932000  0.90932000  0.77568500  1
  O  O13  1  0.19179400  0.19179400  0.37266100  1
  O  O14  1  0.09068000  0.09068000  0.22431500  1
  O  O15  1  0.80820600  0.80820600  0.62733900  1
