# generated using pymatgen
data_MgBi2O5
_symmetry_space_group_name_H-M   'P 1'
_cell_length_a   3.67585900
_cell_length_b   5.17854213
_cell_length_c   12.84137276
_cell_angle_alpha   90.49588243
_cell_angle_beta   90.13561688
_cell_angle_gamma   90.39670559
_symmetry_Int_Tables_number   1
_chemical_formula_structural   MgBi2O5
_chemical_formula_sum   'Mg2 Bi4 O10'
_cell_volume   244.42738184
_cell_formula_units_Z   2
loop_
 _symmetry_equiv_pos_site_id
 _symmetry_equiv_pos_as_xyz
  1  'x, y, z'
loop_
 _atom_site_type_symbol
 _atom_site_label
 _atom_site_symmetry_multiplicity
 _atom_site_fract_x
 _atom_site_fract_y
 _atom_site_fract_z
 _atom_site_occupancy
  Mg  Mg0  1  0.81862200  0.19276800  0.73157400  1
  Mg  Mg1  1  0.31612100  0.80684200  0.22539700  1
  Bi  Bi2  1  0.31826700  0.70814600  0.89532000  1
  Bi  Bi3  1  0.80379300  0.34773500  0.10958200  1
  Bi  Bi4  1  0.79966600  0.29864600  0.38920700  1
  Bi  Bi5  1  0.32224900  0.64200600  0.61153800  1
  O  O6  1  0.80846300  0.56956000  0.25937200  1
  O  O7  1  0.31682300  0.43731700  0.76181400  1
  O  O8  1  0.80337600  0.40652800  0.94840600  1
  O  O9  1  0.30535800  0.54940600  0.10225000  1
  O  O10  1  0.81935700  0.43878700  0.60374000  1
  O  O11  1  0.31717000  0.59236600  0.44890000  1
  O  O12  1  0.32725200  0.02721800  0.64276600  1
  O  O13  1  0.30527500  0.13575100  0.30367700  1
  O  O14  1  0.80632900  0.96036100  0.13394300  1
  O  O15  1  0.81411700  0.87574400  0.81448700  1
