# generated using pymatgen
data_MgMn2O4
_symmetry_space_group_name_H-M   'P 1'
_cell_length_a   6.03724214
_cell_length_b   6.03724214
_cell_length_c   20.06132696
_cell_angle_alpha   81.37482126
_cell_angle_beta   81.37482126
_cell_angle_gamma   60.21553891
_symmetry_Int_Tables_number   1
_chemical_formula_structural   MgMn2O4
_chemical_formula_sum   'Mg8 Mn16 O32'
_cell_volume   625.00080327
_cell_formula_units_Z   8
loop_
 _symmetry_equiv_pos_site_id
 _symmetry_equiv_pos_as_xyz
  1  'x, y, z'
loop_
 _atom_site_type_symbol
 _atom_site_label
 _atom_site_symmetry_multiplicity
 _atom_site_fract_x
 _atom_site_fract_y
 _atom_site_fract_z
 _atom_site_occupancy
  Mg  Mg0  1  0.85195600  0.85195600  0.97054500  1
  Mg  Mg1  1  0.37553800  0.37553800  0.87493900  1
  Mg  Mg2  1  0.60285300  0.60285300  0.71865400  1
  Mg  Mg3  1  0.12534000  0.12534000  0.62461300  1
  Mg  Mg4  1  0.87486100  0.87486100  0.37514600  1
  Mg  Mg5  1  0.99927400  0.99927400  0.49981000  1
  Mg  Mg6  1  0.62522700  0.62522700  0.12538000  1
  Mg  Mg7  1  0.75040400  0.75040400  0.25062300  1
  Mn  Mn8  1  0.37574600  0.87345700  0.87497500  1
  Mn  Mn9  1  0.24885400  0.24885400  0.74937500  1
  Mn  Mn10  1  0.87345700  0.37574600  0.87497500  1
  Mn  Mn11  1  0.35185100  0.35185100  0.46562700  1
  Mn  Mn12  1  0.12737000  0.62636500  0.62449900  1
  Mn  Mn13  1  0.89947700  0.89947700  0.78020500  1
  Mn  Mn14  1  0.10115400  0.10115400  0.21846600  1
  Mn  Mn15  1  0.62636500  0.12737000  0.62449900  1
  Mn  Mn16  1  0.87484100  0.37500500  0.37522100  1
  Mn  Mn17  1  0.64835100  0.64835100  0.53237000  1
  Mn  Mn18  1  0.37500500  0.87484100  0.37522100  1
  Mn  Mn19  1  0.12156900  0.62380800  0.12562500  1
  Mn  Mn20  1  0.62380800  0.12156900  0.12562500  1
  Mn  Mn21  1  0.39798200  0.39798200  0.28407300  1
  Mn  Mn22  1  0.50187600  0.50187600  0.99921000  1
  Mn  Mn23  1  0.14979100  0.14979100  0.03109800  1
  O  O24  1  0.67868500  0.22685800  0.93622100  1
  O  O25  1  0.56727000  0.56727000  0.82184800  1
  O  O26  1  0.22685800  0.67868500  0.93622100  1
  O  O27  1  0.68183400  0.68183400  0.93854000  1
  O  O28  1  0.07010800  0.07010800  0.81176900  1
  O  O29  1  0.43141900  0.97879500  0.68581800  1
  O  O30  1  0.51866400  0.07272900  0.81369300  1
  O  O31  1  0.31662000  0.31662000  0.57161800  1
  O  O32  1  0.97879500  0.43141900  0.68581800  1
  O  O33  1  0.18268700  0.18268700  0.92631100  1
  O  O34  1  0.42946400  0.42946400  0.68397500  1
  O  O35  1  0.07272900  0.51866400  0.81369300  1
  O  O36  1  0.18565400  0.72488900  0.43199700  1
  O  O37  1  0.81962500  0.81962500  0.56971400  1
  O  O38  1  0.27684000  0.81392900  0.56891300  1
  O  O39  1  0.06736200  0.06736200  0.32208100  1
  O  O40  1  0.72488900  0.18565400  0.43199700  1
  O  O41  1  0.93329800  0.93329800  0.67755300  1
  O  O42  1  0.17664700  0.17664700  0.43090100  1
  O  O43  1  0.81392900  0.27684000  0.56891300  1
  O  O44  1  0.57288400  0.57288400  0.31953700  1
  O  O45  1  0.93539000  0.47208500  0.18124100  1
  O  O46  1  0.02515200  0.56370200  0.31846200  1
  O  O47  1  0.81691100  0.81691100  0.07187300  1
  O  O48  1  0.47208500  0.93539000  0.18124100  1
  O  O49  1  0.68246200  0.68246200  0.42855200  1
  O  O50  1  0.93031500  0.93031500  0.18164800  1
  O  O51  1  0.56370200  0.02515200  0.31846200  1
  O  O52  1  0.32454400  0.32454400  0.06470700  1
  O  O53  1  0.76682700  0.32097800  0.06401200  1
  O  O54  1  0.43236400  0.43236400  0.17788600  1
  O  O55  1  0.32097800  0.76682700  0.06401200  1
