# generated using pymatgen
data_Zn2AgWO6
_symmetry_space_group_name_H-M   'P 1'
_cell_length_a   5.22724300
_cell_length_b   5.29507500
_cell_length_c   9.92118349
_cell_angle_alpha   60.76348871
_cell_angle_beta   90.00000000
_cell_angle_gamma   90.00000000
_symmetry_Int_Tables_number   1
_chemical_formula_structural   Zn2AgWO6
_chemical_formula_sum   'Zn4 Ag2 W2 O12'
_cell_volume   239.62326342
_cell_formula_units_Z   2
loop_
 _symmetry_equiv_pos_site_id
 _symmetry_equiv_pos_as_xyz
  1  'x, y, z'
loop_
 _atom_site_type_symbol
 _atom_site_label
 _atom_site_symmetry_multiplicity
 _atom_site_fract_x
 _atom_site_fract_y
 _atom_site_fract_z
 _atom_site_occupancy
  Zn  Zn0  1  0.48338100  0.21715400  0.75929300  1
  Zn  Zn1  1  0.98338100  0.78284600  0.74070700  1
  Zn  Zn2  1  0.51661900  0.78284600  0.24070700  1
  Zn  Zn3  1  0.01661900  0.21715400  0.25929300  1
  Ag  Ag4  1  0.50000000  0.00000000  0.50000000  1
  Ag  Ag5  1  0.00000000  0.00000000  0.00000000  1
  W  W6  1  0.50000000  0.50000000  0.00000000  1
  W  W7  1  0.00000000  0.50000000  0.50000000  1
  O  O8  1  0.19030500  0.46829500  0.90179800  1
  O  O9  1  0.69030500  0.53170500  0.59820200  1
  O  O10  1  0.80969500  0.53170500  0.09820200  1
  O  O11  1  0.30969500  0.46829500  0.40179800  1
  O  O12  1  0.34511700  0.76340700  0.05993700  1
  O  O13  1  0.84511700  0.23659300  0.44006300  1
  O  O14  1  0.65488300  0.23659300  0.94006300  1
  O  O15  1  0.15488300  0.76340700  0.55993700  1
  O  O16  1  0.12488800  0.17223400  0.69832900  1
  O  O17  1  0.62488800  0.82776600  0.80167100  1
  O  O18  1  0.37511200  0.17223400  0.19832900  1
  O  O19  1  0.87511200  0.82776600  0.30167100  1
