# generated using pymatgen
data_Mg(BiO2)2
_symmetry_space_group_name_H-M   'P 1'
_cell_length_a   6.75594792
_cell_length_b   6.75594792
_cell_length_c   22.27842714
_cell_angle_alpha   82.65516002
_cell_angle_beta   82.65516002
_cell_angle_gamma   61.72365523
_symmetry_Int_Tables_number   1
_chemical_formula_structural   Mg(BiO2)2
_chemical_formula_sum   'Mg8 Bi16 O32'
_cell_volume   885.52608115
_cell_formula_units_Z   8
loop_
 _symmetry_equiv_pos_site_id
 _symmetry_equiv_pos_as_xyz
  1  'x, y, z'
loop_
 _atom_site_type_symbol
 _atom_site_label
 _atom_site_symmetry_multiplicity
 _atom_site_fract_x
 _atom_site_fract_y
 _atom_site_fract_z
 _atom_site_occupancy
  Mg  Mg0  1  0.84604500  0.84604500  0.96901000  1
  Mg  Mg1  1  0.37753000  0.37753000  0.87356200  1
  Mg  Mg2  1  0.59479900  0.59479900  0.71826100  1
  Mg  Mg3  1  0.12501700  0.12501700  0.61757700  1
  Mg  Mg4  1  0.87460700  0.87460700  0.37513700  1
  Mg  Mg5  1  0.99874900  0.99874900  0.49630000  1
  Mg  Mg6  1  0.62132900  0.62132900  0.13320100  1
  Mg  Mg7  1  0.75085500  0.75085500  0.25373700  1
  Bi  Bi8  1  0.37538100  0.87196100  0.87432100  1
  Bi  Bi9  1  0.24610800  0.24610800  0.74311500  1
  Bi  Bi10  1  0.87196100  0.37538100  0.87432100  1
  Bi  Bi11  1  0.34830000  0.34830000  0.46890800  1
  Bi  Bi12  1  0.12763500  0.63691500  0.62220800  1
  Bi  Bi13  1  0.89309800  0.89309800  0.77777200  1
  Bi  Bi14  1  0.09631400  0.09631400  0.21653000  1
  Bi  Bi15  1  0.63691500  0.12763500  0.62220800  1
  Bi  Bi16  1  0.87402800  0.37602900  0.37549300  1
  Bi  Bi17  1  0.65417200  0.65417200  0.53488500  1
  Bi  Bi18  1  0.37602900  0.87402800  0.37549300  1
  Bi  Bi19  1  0.10941100  0.62106500  0.12668900  1
  Bi  Bi20  1  0.62106500  0.10941100  0.12668900  1
  Bi  Bi21  1  0.40036600  0.40036600  0.28364800  1
  Bi  Bi22  1  0.50053800  0.50053800  0.00281600  1
  Bi  Bi23  1  0.13567400  0.13567400  0.02821800  1
  O  O24  1  0.68318400  0.19472400  0.93836200  1
  O  O25  1  0.55620700  0.55620700  0.81387900  1
  O  O26  1  0.19472400  0.68318400  0.93836200  1
  O  O27  1  0.68393300  0.68393300  0.94009500  1
  O  O28  1  0.06054500  0.06054500  0.81064300  1
  O  O29  1  0.43308000  0.93364700  0.68390000  1
  O  O30  1  0.53293200  0.09935700  0.81822800  1
  O  O31  1  0.29312500  0.29312500  0.56990700  1
  O  O32  1  0.93364700  0.43308000  0.68390000  1
  O  O33  1  0.21198300  0.21198300  0.92633800  1
  O  O34  1  0.44286200  0.44286200  0.68363700  1
  O  O35  1  0.09935700  0.53293200  0.81822800  1
  O  O36  1  0.15041200  0.72824400  0.43388700  1
  O  O37  1  0.83695100  0.83695100  0.55386700  1
  O  O38  1  0.26547800  0.84880800  0.55820400  1
  O  O39  1  0.05112800  0.05112800  0.31637800  1
  O  O40  1  0.72824400  0.15041200  0.43388700  1
  O  O41  1  0.96461100  0.96461100  0.67491400  1
  O  O42  1  0.17336200  0.17336200  0.44101200  1
  O  O43  1  0.84880800  0.26547800  0.55820400  1
  O  O44  1  0.57899600  0.57899600  0.30923100  1
  O  O45  1  0.89892500  0.48790000  0.19076400  1
  O  O46  1  0.01731100  0.60006300  0.31562400  1
  O  O47  1  0.81565200  0.81565200  0.06352000  1
  O  O48  1  0.48790000  0.89892500  0.19076400  1
  O  O49  1  0.69806100  0.69806100  0.43406300  1
  O  O50  1  0.91509000  0.91509000  0.19328600  1
  O  O51  1  0.60006300  0.01731100  0.31562400  1
  O  O52  1  0.29606500  0.29606500  0.06612900  1
  O  O53  1  0.78903700  0.35409800  0.07549600  1
  O  O54  1  0.44824800  0.44824800  0.18407700  1
  O  O55  1  0.35409800  0.78903700  0.07549600  1
