# generated using pymatgen
data_TaZn2FeO6
_symmetry_space_group_name_H-M   'P 1'
_cell_length_a   7.71650900
_cell_length_b   5.26218900
_cell_length_c   5.34078928
_cell_angle_alpha   89.17900396
_cell_angle_beta   90.00000000
_cell_angle_gamma   90.00000000
_symmetry_Int_Tables_number   1
_chemical_formula_structural   TaZn2FeO6
_chemical_formula_sum   'Ta2 Zn4 Fe2 O12'
_cell_volume   216.84437766
_cell_formula_units_Z   2
loop_
 _symmetry_equiv_pos_site_id
 _symmetry_equiv_pos_as_xyz
  1  'x, y, z'
loop_
 _atom_site_type_symbol
 _atom_site_label
 _atom_site_symmetry_multiplicity
 _atom_site_fract_x
 _atom_site_fract_y
 _atom_site_fract_z
 _atom_site_occupancy
  Ta  Ta0  1  0.00000000  0.00000000  0.50000000  1
  Ta  Ta1  1  0.50000000  0.00000000  0.50000000  1
  Zn  Zn2  1  0.75000000  0.01589400  0.01747400  1
  Zn  Zn3  1  0.75000000  0.50337600  0.54630100  1
  Zn  Zn4  1  0.25000000  0.49662400  0.45369900  1
  Zn  Zn5  1  0.25000000  0.98410600  0.98252600  1
  Fe  Fe6  1  0.00000000  0.50000000  0.00000000  1
  Fe  Fe7  1  0.50000000  0.50000000  0.00000000  1
  O  O8  1  0.43631200  0.16709200  0.17948400  1
  O  O9  1  0.56482500  0.68015400  0.32745400  1
  O  O10  1  0.56368800  0.83290800  0.82051600  1
  O  O11  1  0.06482500  0.31984600  0.67254600  1
  O  O12  1  0.25000000  0.87924800  0.56519000  1
  O  O13  1  0.43517500  0.31984600  0.67254600  1
  O  O14  1  0.93517500  0.68015400  0.32745400  1
  O  O15  1  0.06368800  0.16709200  0.17948400  1
  O  O16  1  0.75000000  0.38519900  0.92022500  1
  O  O17  1  0.93631200  0.83290800  0.82051600  1
  O  O18  1  0.25000000  0.61480100  0.07977500  1
  O  O19  1  0.75000000  0.12075200  0.43481000  1
