# generated using pymatgen
data_CaBiAu
_symmetry_space_group_name_H-M   'P 1'
_cell_length_a   4.86117025
_cell_length_b   4.86117025
_cell_length_c   7.92238800
_cell_angle_alpha   90.00000000
_cell_angle_beta   90.00000000
_cell_angle_gamma   120.00000339
_symmetry_Int_Tables_number   1
_chemical_formula_structural   CaBiAu
_chemical_formula_sum   'Ca2 Bi2 Au2'
_cell_volume   162.13186848
_cell_formula_units_Z   2
loop_
 _symmetry_equiv_pos_site_id
 _symmetry_equiv_pos_as_xyz
  1  'x, y, z'
loop_
 _atom_site_type_symbol
 _atom_site_label
 _atom_site_symmetry_multiplicity
 _atom_site_fract_x
 _atom_site_fract_y
 _atom_site_fract_z
 _atom_site_occupancy
  Ca  Ca0  1  0.00000000  0.00000000  0.48348100  1
  Ca  Ca1  1  0.00000000  0.00000000  0.98348100  1
  Bi  Bi2  1  0.66666700  0.33333300  0.20730400  1
  Bi  Bi3  1  0.33333300  0.66666700  0.70730400  1
  Au  Au4  1  0.66666700  0.33333300  0.80921500  1
  Au  Au5  1  0.33333300  0.66666700  0.30921500  1
