# generated using pymatgen
data_Zn3Co2(GeO4)3
_symmetry_space_group_name_H-M   'P 1'
_cell_length_a   10.31820252
_cell_length_b   10.31820252
_cell_length_c   10.31820252
_cell_angle_alpha   109.47122063
_cell_angle_beta   109.47122063
_cell_angle_gamma   109.47122063
_symmetry_Int_Tables_number   1
_chemical_formula_structural   Zn3Co2(GeO4)3
_chemical_formula_sum   'Zn12 Co8 Ge12 O48'
_cell_volume   845.64921849
_cell_formula_units_Z   4
loop_
 _symmetry_equiv_pos_site_id
 _symmetry_equiv_pos_as_xyz
  1  'x, y, z'
loop_
 _atom_site_type_symbol
 _atom_site_label
 _atom_site_symmetry_multiplicity
 _atom_site_fract_x
 _atom_site_fract_y
 _atom_site_fract_z
 _atom_site_occupancy
  Zn  Zn0  1  0.25000000  0.87500000  0.62500000  1
  Zn  Zn1  1  0.75000000  0.62500000  0.87500000  1
  Zn  Zn2  1  0.62500000  0.87500000  0.75000000  1
  Zn  Zn3  1  0.87500000  0.62500000  0.25000000  1
  Zn  Zn4  1  0.62500000  0.25000000  0.87500000  1
  Zn  Zn5  1  0.87500000  0.75000000  0.62500000  1
  Zn  Zn6  1  0.75000000  0.12500000  0.37500000  1
  Zn  Zn7  1  0.25000000  0.37500000  0.12500000  1
  Zn  Zn8  1  0.37500000  0.12500000  0.25000000  1
  Zn  Zn9  1  0.12500000  0.37500000  0.75000000  1
  Zn  Zn10  1  0.37500000  0.75000000  0.12500000  1
  Zn  Zn11  1  0.12500000  0.25000000  0.37500000  1
  Co  Co12  1  0.50000000  0.50000000  0.50000000  1
  Co  Co13  1  0.50000000  0.00000000  0.50000000  1
  Co  Co14  1  0.00000000  0.50000000  0.50000000  1
  Co  Co15  1  0.50000000  0.50000000  0.00000000  1
  Co  Co16  1  0.00000000  0.00000000  0.50000000  1
  Co  Co17  1  0.00000000  0.50000000  0.00000000  1
  Co  Co18  1  0.50000000  0.00000000  0.00000000  1
  Co  Co19  1  0.00000000  0.00000000  0.00000000  1
  Ge  Ge20  1  0.12500000  0.75000000  0.87500000  1
  Ge  Ge21  1  0.87500000  0.25000000  0.12500000  1
  Ge  Ge22  1  0.62500000  0.37500000  0.25000000  1
  Ge  Ge23  1  0.75000000  0.87500000  0.12500000  1
  Ge  Ge24  1  0.87500000  0.12500000  0.75000000  1
  Ge  Ge25  1  0.25000000  0.62500000  0.37500000  1
  Ge  Ge26  1  0.75000000  0.37500000  0.62500000  1
  Ge  Ge27  1  0.25000000  0.12500000  0.87500000  1
  Ge  Ge28  1  0.12500000  0.87500000  0.25000000  1
  Ge  Ge29  1  0.37500000  0.62500000  0.75000000  1
  Ge  Ge30  1  0.62500000  0.75000000  0.37500000  1
  Ge  Ge31  1  0.37500000  0.25000000  0.62500000  1
  O  O32  1  0.42340500  0.82357500  0.79823900  1
  O  O33  1  0.87483400  0.40016900  0.07659500  1
  O  O34  1  0.09983100  0.97466400  0.67642500  1
  O  O35  1  0.52533600  0.62516600  0.70176100  1
  O  O36  1  0.67642500  0.07659500  0.70176100  1
  O  O37  1  0.62516600  0.70176100  0.52533600  1
  O  O38  1  0.62516600  0.42340500  0.09983100  1
  O  O39  1  0.70176100  0.52533600  0.62516600  1
  O  O40  1  0.82357500  0.52533600  0.40016900  1
  O  O41  1  0.97466400  0.79823900  0.87483400  1
  O  O42  1  0.79823900  0.87483400  0.97466400  1
  O  O43  1  0.70176100  0.67642500  0.07659500  1
  O  O44  1  0.42340500  0.09983100  0.62516600  1
  O  O45  1  0.40016900  0.82357500  0.52533600  1
  O  O46  1  0.07659500  0.70176100  0.67642500  1
  O  O47  1  0.09983100  0.62516600  0.42340500  1
  O  O48  1  0.52533600  0.40016900  0.82357500  1
  O  O49  1  0.07659500  0.87483400  0.40016900  1
  O  O50  1  0.97466400  0.67642500  0.09983100  1
  O  O51  1  0.17642500  0.47466400  0.59983100  1
  O  O52  1  0.67642500  0.09983100  0.97466400  1
  O  O53  1  0.79823900  0.42340500  0.82357500  1
  O  O54  1  0.40016900  0.07659500  0.87483400  1
  O  O55  1  0.87483400  0.97466400  0.79823900  1
  O  O56  1  0.57659500  0.17642500  0.20176100  1
  O  O57  1  0.12516600  0.59983100  0.92340500  1
  O  O58  1  0.90016900  0.02533600  0.32357500  1
  O  O59  1  0.47466400  0.37483400  0.29823900  1
  O  O60  1  0.32357500  0.92340500  0.29823900  1
  O  O61  1  0.37483400  0.29823900  0.47466400  1
  O  O62  1  0.37483400  0.57659500  0.90016900  1
  O  O63  1  0.29823900  0.47466400  0.37483400  1
  O  O64  1  0.12516600  0.02533600  0.20176100  1
  O  O65  1  0.59983100  0.92340500  0.12516600  1
  O  O66  1  0.20176100  0.57659500  0.17642500  1
  O  O67  1  0.17642500  0.20176100  0.57659500  1
  O  O68  1  0.32357500  0.90016900  0.02533600  1
  O  O69  1  0.02533600  0.32357500  0.90016900  1
  O  O70  1  0.92340500  0.12516600  0.59983100  1
  O  O71  1  0.47466400  0.59983100  0.17642500  1
  O  O72  1  0.90016900  0.37483400  0.57659500  1
  O  O73  1  0.92340500  0.29823900  0.32357500  1
  O  O74  1  0.59983100  0.17642500  0.47466400  1
  O  O75  1  0.57659500  0.90016900  0.37483400  1
  O  O76  1  0.29823900  0.32357500  0.92340500  1
  O  O77  1  0.20176100  0.12516600  0.02533600  1
  O  O78  1  0.02533600  0.20176100  0.12516600  1
  O  O79  1  0.82357500  0.79823900  0.42340500  1
