# generated using pymatgen
data_Sr2Y2Co2O7
_symmetry_space_group_name_H-M   'P 1'
_cell_length_a   12.68068144
_cell_length_b   12.68068144
_cell_length_c   12.68068144
_cell_angle_alpha   154.78992489
_cell_angle_beta   154.41887578
_cell_angle_gamma   36.22262858
_symmetry_Int_Tables_number   1
_chemical_formula_structural   Sr2Y2Co2O7
_chemical_formula_sum   'Sr4 Y4 Co4 O14'
_cell_volume   374.52895853
_cell_formula_units_Z   2
loop_
 _symmetry_equiv_pos_site_id
 _symmetry_equiv_pos_as_xyz
  1  'x, y, z'
loop_
 _atom_site_type_symbol
 _atom_site_label
 _atom_site_symmetry_multiplicity
 _atom_site_fract_x
 _atom_site_fract_y
 _atom_site_fract_z
 _atom_site_occupancy
  Sr  Sr0  1  0.33850300  0.84014600  0.45919600  1
  Sr  Sr1  1  0.66149700  0.12069300  0.50164300  1
  Sr  Sr2  1  0.11905000  0.62069300  0.45919600  1
  Sr  Sr3  1  0.88095000  0.34014600  0.50164300  1
  Y  Y4  1  0.00000000  0.47046100  0.47046100  1
  Y  Y5  1  0.50000000  0.97046100  0.47046100  1
  Y  Y6  1  0.70351500  0.76818800  0.97170300  1
  Y  Y7  1  0.29648500  0.26818800  0.06467300  1
  Co  Co8  1  0.42807000  0.39580100  0.97459500  1
  Co  Co9  1  0.57193000  0.54652500  0.96773100  1
  Co  Co10  1  0.07879400  0.04652500  0.97459500  1
  Co  Co11  1  0.92120600  0.89580100  0.96773100  1
  O  O12  1  0.32482100  0.66832400  0.49314500  1
  O  O13  1  0.67517900  0.16832400  0.34350400  1
  O  O14  1  0.20129000  0.66800200  0.98789200  1
  O  O15  1  0.79871000  0.78660200  0.46671200  1
  O  O16  1  0.81989000  0.28660200  0.98789200  1
  O  O17  1  0.18011000  0.16800200  0.46671200  1
  O  O18  1  0.67896300  0.14793200  0.95026900  1
  O  O19  1  0.32103700  0.27130500  0.46896900  1
  O  O20  1  0.30233700  0.77130500  0.95026900  1
  O  O21  1  0.69766300  0.64793200  0.46896900  1
  O  O22  1  0.87621100  0.78379900  0.98843700  1
  O  O23  1  0.12378900  0.11222600  0.90758800  1
  O  O24  1  0.70463800  0.61222600  0.98843700  1
  O  O25  1  0.29536200  0.28379900  0.90758800  1
