# generated using pymatgen
data_TaZn2CrO6
_symmetry_space_group_name_H-M   'P 1'
_cell_length_a   7.67265400
_cell_length_b   5.23859100
_cell_length_c   5.32082060
_cell_angle_alpha   89.20701356
_cell_angle_beta   90.00000000
_cell_angle_gamma   90.00000000
_symmetry_Int_Tables_number   1
_chemical_formula_structural   TaZn2CrO6
_chemical_formula_sum   'Ta2 Zn4 Cr2 O12'
_cell_volume   213.84402804
_cell_formula_units_Z   2
loop_
 _symmetry_equiv_pos_site_id
 _symmetry_equiv_pos_as_xyz
  1  'x, y, z'
loop_
 _atom_site_type_symbol
 _atom_site_label
 _atom_site_symmetry_multiplicity
 _atom_site_fract_x
 _atom_site_fract_y
 _atom_site_fract_z
 _atom_site_occupancy
  Ta  Ta0  1  0.00000000  0.00000000  0.50000000  1
  Ta  Ta1  1  0.50000000  0.00000000  0.50000000  1
  Zn  Zn2  1  0.75000000  0.01284500  0.01859100  1
  Zn  Zn3  1  0.75000000  0.50761000  0.54735600  1
  Zn  Zn4  1  0.25000000  0.49239000  0.45264400  1
  Zn  Zn5  1  0.25000000  0.98715500  0.98140900  1
  Cr  Cr6  1  0.00000000  0.50000000  0.00000000  1
  Cr  Cr7  1  0.50000000  0.50000000  0.00000000  1
  O  O8  1  0.43614500  0.17263700  0.18190400  1
  O  O9  1  0.56451800  0.68249100  0.32199000  1
  O  O10  1  0.56385500  0.82736300  0.81809600  1
  O  O11  1  0.06451800  0.31750900  0.67801000  1
  O  O12  1  0.25000000  0.87751900  0.56205300  1
  O  O13  1  0.43548200  0.31750900  0.67801000  1
  O  O14  1  0.93548200  0.68249100  0.32199000  1
  O  O15  1  0.06385500  0.17263700  0.18190400  1
  O  O16  1  0.75000000  0.38375900  0.92144300  1
  O  O17  1  0.93614500  0.82736300  0.81809600  1
  O  O18  1  0.25000000  0.61624100  0.07855700  1
  O  O19  1  0.75000000  0.12248100  0.43794700  1
