# generated using pymatgen
data_Ca2TiWO6
_symmetry_space_group_name_H-M   'P 1'
_cell_length_a   5.60168089
_cell_length_b   5.60168089
_cell_length_c   5.74858859
_cell_angle_alpha   59.89962840
_cell_angle_beta   59.89962840
_cell_angle_gamma   59.41678380
_symmetry_Int_Tables_number   1
_chemical_formula_structural   Ca2TiWO6
_chemical_formula_sum   'Ca2 Ti1 W1 O6'
_cell_volume   126.78776050
_cell_formula_units_Z   1
loop_
 _symmetry_equiv_pos_site_id
 _symmetry_equiv_pos_as_xyz
  1  'x, y, z'
loop_
 _atom_site_type_symbol
 _atom_site_label
 _atom_site_symmetry_multiplicity
 _atom_site_fract_x
 _atom_site_fract_y
 _atom_site_fract_z
 _atom_site_occupancy
  Ca  Ca0  1  0.74717600  0.74717600  0.78393600  1
  Ca  Ca1  1  0.24653000  0.24653000  0.27999200  1
  Ti  Ti2  1  0.49800600  0.49800600  0.48486500  1
  W  W3  1  0.99806700  0.99806700  0.98241200  1
  O  O4  1  0.74255000  0.74255000  0.23144100  1
  O  O5  1  0.25249800  0.25249800  0.69961200  1
  O  O6  1  0.74270500  0.26005900  0.22631000  1
  O  O7  1  0.26005900  0.74270500  0.22631000  1
  O  O8  1  0.74695200  0.24107100  0.71663300  1
  O  O9  1  0.24107100  0.74695200  0.71663300  1
