# generated using pymatgen
data_Ca2TiWO6
_symmetry_space_group_name_H-M   'P 1'
_cell_length_a   5.60444800
_cell_length_b   5.48927400
_cell_length_c   9.56183359
_cell_angle_alpha   55.16049899
_cell_angle_beta   90.00000000
_cell_angle_gamma   90.00000000
_symmetry_Int_Tables_number   1
_chemical_formula_structural   Ca2TiWO6
_chemical_formula_sum   'Ca4 Ti2 W2 O12'
_cell_volume   241.43640919
_cell_formula_units_Z   2
loop_
 _symmetry_equiv_pos_site_id
 _symmetry_equiv_pos_as_xyz
  1  'x, y, z'
loop_
 _atom_site_type_symbol
 _atom_site_label
 _atom_site_symmetry_multiplicity
 _atom_site_fract_x
 _atom_site_fract_y
 _atom_site_fract_z
 _atom_site_occupancy
  Ca  Ca0  1  0.44970500  0.26090200  0.75050900  1
  Ca  Ca1  1  0.94970500  0.73909800  0.74949100  1
  Ca  Ca2  1  0.55029500  0.73909800  0.24949100  1
  Ca  Ca3  1  0.05029500  0.26090200  0.25050900  1
  Ti  Ti4  1  0.50000000  0.00000000  0.50000000  1
  Ti  Ti5  1  0.00000000  0.00000000  0.00000000  1
  W  W6  1  0.50000000  0.50000000  0.00000000  1
  W  W7  1  0.00000000  0.50000000  0.50000000  1
  O  O8  1  0.20268700  0.34054700  0.95374300  1
  O  O9  1  0.70268700  0.65945300  0.54625700  1
  O  O10  1  0.79731300  0.65945300  0.04625700  1
  O  O11  1  0.29731300  0.34054700  0.45374300  1
  O  O12  1  0.28832700  0.76052900  0.04545000  1
  O  O13  1  0.78832700  0.23947100  0.45455000  1
  O  O14  1  0.71167300  0.23947100  0.95455000  1
  O  O15  1  0.21167300  0.76052900  0.54545000  1
  O  O16  1  0.02359800  0.15480800  0.75530400  1
  O  O17  1  0.52359800  0.84519200  0.74469600  1
  O  O18  1  0.47640200  0.15480800  0.25530400  1
  O  O19  1  0.97640200  0.84519200  0.24469600  1
