# generated using pymatgen
data_Ca2CoWO6
_symmetry_space_group_name_H-M   'P 1'
_cell_length_a   5.63381191
_cell_length_b   5.63381191
_cell_length_c   5.56975524
_cell_angle_alpha   60.45108253
_cell_angle_beta   60.45108253
_cell_angle_gamma   90.14306306
_symmetry_Int_Tables_number   1
_chemical_formula_structural   Ca2CoWO6
_chemical_formula_sum   'Ca2 Co1 W1 O6'
_cell_volume   126.53928791
_cell_formula_units_Z   1
loop_
 _symmetry_equiv_pos_site_id
 _symmetry_equiv_pos_as_xyz
  1  'x, y, z'
loop_
 _atom_site_type_symbol
 _atom_site_label
 _atom_site_symmetry_multiplicity
 _atom_site_fract_x
 _atom_site_fract_y
 _atom_site_fract_z
 _atom_site_occupancy
  Ca  Ca0  1  0.21883600  0.71517500  0.52825800  1
  Ca  Ca1  1  0.71517500  0.21883600  0.52825800  1
  Co  Co2  1  0.51779100  0.51779100  0.97984900  1
  W  W3  1  0.02125000  0.02125000  0.97648500  1
  O  O4  1  0.79446600  0.28090000  0.96902900  1
  O  O5  1  0.28090000  0.79446600  0.96902900  1
  O  O6  1  0.78561300  0.78561300  0.45817700  1
  O  O7  1  0.79622300  0.79622300  0.94381600  1
  O  O8  1  0.27354600  0.27354600  0.96502100  1
  O  O9  1  0.28073700  0.28073700  0.48507700  1
