# generated using pymatgen
data_Zn(AgO2)2
_symmetry_space_group_name_H-M   'P 1'
_cell_length_a   3.11115900
_cell_length_b   9.74425300
_cell_length_c   11.01399700
_cell_angle_alpha   90.00000000
_cell_angle_beta   90.00000000
_cell_angle_gamma   90.00000000
_symmetry_Int_Tables_number   1
_chemical_formula_structural   Zn(AgO2)2
_chemical_formula_sum   'Zn4 Ag8 O16'
_cell_volume   333.89945655
_cell_formula_units_Z   4
loop_
 _symmetry_equiv_pos_site_id
 _symmetry_equiv_pos_as_xyz
  1  'x, y, z'
loop_
 _atom_site_type_symbol
 _atom_site_label
 _atom_site_symmetry_multiplicity
 _atom_site_fract_x
 _atom_site_fract_y
 _atom_site_fract_z
 _atom_site_occupancy
  Zn  Zn0  1  0.25000000  0.26172600  0.34113500  1
  Zn  Zn1  1  0.75000000  0.73827400  0.65886500  1
  Zn  Zn2  1  0.25000000  0.76172600  0.15886500  1
  Zn  Zn3  1  0.75000000  0.23827400  0.84113500  1
  Ag  Ag4  1  0.75000000  0.41539800  0.10720700  1
  Ag  Ag5  1  0.25000000  0.08460200  0.60720700  1
  Ag  Ag6  1  0.75000000  0.91539800  0.39279300  1
  Ag  Ag7  1  0.25000000  0.58460200  0.89279300  1
  Ag  Ag8  1  0.25000000  0.56893200  0.38739700  1
  Ag  Ag9  1  0.75000000  0.43106800  0.61260300  1
  Ag  Ag10  1  0.25000000  0.06893200  0.11260300  1
  Ag  Ag11  1  0.75000000  0.93106800  0.88739700  1
  O  O12  1  0.75000000  0.87178800  0.07183200  1
  O  O13  1  0.25000000  0.12821200  0.92816800  1
  O  O14  1  0.75000000  0.37178800  0.42816800  1
  O  O15  1  0.25000000  0.62821200  0.57183200  1
  O  O16  1  0.75000000  0.02514800  0.72232500  1
  O  O17  1  0.25000000  0.97485200  0.27767500  1
  O  O18  1  0.75000000  0.52514800  0.77767500  1
  O  O19  1  0.25000000  0.47485200  0.22232500  1
  O  O20  1  0.75000000  0.61833800  0.03307500  1
  O  O21  1  0.25000000  0.38166200  0.96692500  1
  O  O22  1  0.75000000  0.11833800  0.46692500  1
  O  O23  1  0.25000000  0.88166200  0.53307500  1
  O  O24  1  0.25000000  0.77248400  0.79210900  1
  O  O25  1  0.75000000  0.22751600  0.20789100  1
  O  O26  1  0.75000000  0.72751600  0.29210900  1
  O  O27  1  0.25000000  0.27248400  0.70789100  1
