# generated using pymatgen
data_Zn(SbO2)2
_symmetry_space_group_name_H-M   'P 1'
_cell_length_a   7.21224640
_cell_length_b   7.21224640
_cell_length_c   21.86765146
_cell_angle_alpha   78.04189300
_cell_angle_beta   78.04189300
_cell_angle_gamma   53.99582112
_symmetry_Int_Tables_number   1
_chemical_formula_structural   Zn(SbO2)2
_chemical_formula_sum   'Zn8 Sb16 O32'
_cell_volume   894.96596015
_cell_formula_units_Z   8
loop_
 _symmetry_equiv_pos_site_id
 _symmetry_equiv_pos_as_xyz
  1  'x, y, z'
loop_
 _atom_site_type_symbol
 _atom_site_label
 _atom_site_symmetry_multiplicity
 _atom_site_fract_x
 _atom_site_fract_y
 _atom_site_fract_z
 _atom_site_occupancy
  Zn  Zn0  1  0.58811200  0.58811200  0.03098400  1
  Zn  Zn1  1  0.13564200  0.13564200  0.09601500  1
  Zn  Zn2  1  0.87955000  0.87955000  0.29353400  1
  Zn  Zn3  1  0.34402400  0.34402400  0.37928300  1
  Zn  Zn4  1  0.58416500  0.58416500  0.64961400  1
  Zn  Zn5  1  0.52681300  0.52681300  0.51287200  1
  Zn  Zn6  1  0.90898000  0.90898000  0.85231400  1
  Zn  Zn7  1  0.72535600  0.72535600  0.73974200  1
  Sb  Sb8  1  0.62242900  0.11313900  0.11948000  1
  Sb  Sb9  1  0.32372200  0.32372200  0.24592500  1
  Sb  Sb10  1  0.11313900  0.62242900  0.11948000  1
  Sb  Sb11  1  0.16777800  0.16777800  0.53120900  1
  Sb  Sb12  1  0.83321400  0.34674500  0.37818400  1
  Sb  Sb13  1  0.62925800  0.62925800  0.20395900  1
  Sb  Sb14  1  0.41967300  0.41967300  0.80180500  1
  Sb  Sb15  1  0.34674500  0.83321400  0.37818400  1
  Sb  Sb16  1  0.12461000  0.62412700  0.62449100  1
  Sb  Sb17  1  0.87792000  0.87792000  0.46210500  1
  Sb  Sb18  1  0.62412700  0.12461000  0.62449100  1
  Sb  Sb19  1  0.92642800  0.42618900  0.88082300  1
  Sb  Sb20  1  0.42618900  0.92642800  0.88082300  1
  Sb  Sb21  1  0.08510500  0.08510500  0.70425400  1
  Sb  Sb22  1  0.98391200  0.98391200  0.97908300  1
  Sb  Sb23  1  0.39054200  0.39054200  0.96379200  1
  O  O24  1  0.26303700  0.80282600  0.06137600  1
  O  O25  1  0.88599100  0.88599100  0.17837000  1
  O  O26  1  0.80282600  0.26303700  0.06137600  1
  O  O27  1  0.85353700  0.85353700  0.05867900  1
  O  O28  1  0.47723400  0.47723400  0.19707600  1
  O  O29  1  0.55225400  0.11751200  0.30809600  1
  O  O30  1  0.45404200  0.91250800  0.14509900  1
  O  O31  1  0.20485900  0.20485900  0.43542600  1
  O  O32  1  0.11751200  0.55225400  0.30809600  1
  O  O33  1  0.29178800  0.29178800  0.05064600  1
  O  O34  1  0.96569100  0.96569100  0.36246900  1
  O  O35  1  0.91250800  0.45404200  0.14509900  1
  O  O36  1  0.74440900  0.32888500  0.58424200  1
  O  O37  1  0.64114500  0.64114500  0.42822700  1
  O  O38  1  0.75719700  0.21224200  0.46176300  1
  O  O39  1  0.43490000  0.43490000  0.71048600  1
  O  O40  1  0.32888500  0.74440900  0.58424200  1
  O  O41  1  0.49895500  0.49895500  0.35690800  1
  O  O42  1  0.31615300  0.31615300  0.53939600  1
  O  O43  1  0.21224200  0.75719700  0.46176300  1
  O  O44  1  0.87736800  0.87736800  0.68408900  1
  O  O45  1  0.06246800  0.57816200  0.81655500  1
  O  O46  1  0.89547000  0.44658300  0.68955600  1
  O  O47  1  0.68597800  0.68597800  0.94024100  1
  O  O48  1  0.57816200  0.06246800  0.81655500  1
  O  O49  1  0.86278600  0.86278600  0.56591300  1
  O  O50  1  0.64707800  0.64707800  0.82745800  1
  O  O51  1  0.44658300  0.89547000  0.68955600  1
  O  O52  1  0.26827700  0.26827700  0.92236400  1
  O  O53  1  0.10380900  0.71557700  0.92963000  1
  O  O54  1  0.05379400  0.05379400  0.79717300  1
  O  O55  1  0.71557700  0.10380900  0.92963000  1
