# generated using pymatgen
data_TiO2
_symmetry_space_group_name_H-M   'P 1'
_cell_length_a   6.02084859
_cell_length_b   6.02084859
_cell_length_c   14.78419600
_cell_angle_alpha   90.00000000
_cell_angle_beta   90.00000000
_cell_angle_gamma   120.00000647
_symmetry_Int_Tables_number   1
_chemical_formula_structural   TiO2
_chemical_formula_sum   'Ti12 O24'
_cell_volume   464.13436632
_cell_formula_units_Z   12
loop_
 _symmetry_equiv_pos_site_id
 _symmetry_equiv_pos_as_xyz
  1  'x, y, z'
loop_
 _atom_site_type_symbol
 _atom_site_label
 _atom_site_symmetry_multiplicity
 _atom_site_fract_x
 _atom_site_fract_y
 _atom_site_fract_z
 _atom_site_occupancy
  Ti  Ti0  1  0.97792100  0.48896100  0.16372600  1
  Ti  Ti1  1  0.17094700  0.82905300  0.49418400  1
  Ti  Ti2  1  0.33333300  0.66666700  0.31848000  1
  Ti  Ti3  1  0.51103900  0.02207900  0.16372600  1
  Ti  Ti4  1  0.65810600  0.82905300  0.49418400  1
  Ti  Ti5  1  0.51103900  0.48896100  0.16372600  1
  Ti  Ti6  1  0.00000000  0.00000000  0.65236200  1
  Ti  Ti7  1  0.17094700  0.34189400  0.49418400  1
  Ti  Ti8  1  0.32310800  0.16155400  0.83130300  1
  Ti  Ti9  1  0.83844600  0.67689200  0.83130300  1
  Ti  Ti10  1  0.83844600  0.16155400  0.83130300  1
  Ti  Ti11  1  0.33333300  0.66666700  0.95525000  1
  O  O12  1  0.35697100  0.17848500  0.10430100  1
  O  O13  1  0.82151500  0.64302900  0.10430100  1
  O  O14  1  0.66666700  0.33333300  0.23778200  1
  O  O15  1  0.82151500  0.17848500  0.10430100  1
  O  O16  1  0.03778000  0.51889000  0.42688100  1
  O  O17  1  0.19106800  0.80893200  0.24591700  1
  O  O18  1  0.33333300  0.66666700  0.08277300  1
  O  O19  1  0.19106800  0.38213600  0.24591700  1
  O  O20  1  0.48111000  0.96222000  0.42688100  1
  O  O21  1  0.33333300  0.66666700  0.56658000  1
  O  O22  1  0.48111000  0.51889000  0.42688100  1
  O  O23  1  0.61786400  0.80893200  0.24591700  1
  O  O24  1  0.71319100  0.85659500  0.75937400  1
  O  O25  1  0.85544100  0.14455900  0.58002300  1
  O  O26  1  0.00000000  0.00000000  0.43459800  1
  O  O27  1  0.85544100  0.71088200  0.58002300  1
  O  O28  1  0.00000000  0.00000000  0.90288500  1
  O  O29  1  0.14340500  0.28680900  0.75937400  1
  O  O30  1  0.14340500  0.85659500  0.75937400  1
  O  O31  1  0.28911800  0.14455900  0.58002300  1
  O  O32  1  0.49440100  0.50559900  0.90349900  1
  O  O33  1  0.49440100  0.98880200  0.90349900  1
  O  O34  1  0.66666700  0.33333300  0.77568500  1
  O  O35  1  0.01119800  0.50559900  0.90349900  1
