# generated using pymatgen
data_Y3AlO6
_symmetry_space_group_name_H-M   'P 1'
_cell_length_a   6.45871299
_cell_length_b   6.45871299
_cell_length_c   6.45871290
_cell_angle_alpha   92.33703191
_cell_angle_beta   92.33703191
_cell_angle_gamma   92.33703204
_symmetry_Int_Tables_number   1
_chemical_formula_structural   Y3AlO6
_chemical_formula_sum   'Y6 Al2 O12'
_cell_volume   268.73387739
_cell_formula_units_Z   2
loop_
 _symmetry_equiv_pos_site_id
 _symmetry_equiv_pos_as_xyz
  1  'x, y, z'
loop_
 _atom_site_type_symbol
 _atom_site_label
 _atom_site_symmetry_multiplicity
 _atom_site_fract_x
 _atom_site_fract_y
 _atom_site_fract_z
 _atom_site_occupancy
  Y  Y0  1  0.56461800  0.07081500  0.25513500  1
  Y  Y1  1  0.74486500  0.43538200  0.92918500  1
  Y  Y2  1  0.92918500  0.74486500  0.43538200  1
  Y  Y3  1  0.07081500  0.25513500  0.56461800  1
  Y  Y4  1  0.25513500  0.56461800  0.07081500  1
  Y  Y5  1  0.43538200  0.92918500  0.74486500  1
  Al  Al6  1  0.00000000  0.00000000  0.00000000  1
  Al  Al7  1  0.50000000  0.50000000  0.50000000  1
  O  O8  1  0.92867600  0.06810000  0.29245600  1
  O  O9  1  0.70754400  0.07132400  0.93190000  1
  O  O10  1  0.79028000  0.45597400  0.58223700  1
  O  O11  1  0.93190000  0.70754400  0.07132400  1
  O  O12  1  0.41776300  0.20972000  0.54402600  1
  O  O13  1  0.54402600  0.41776300  0.20972000  1
  O  O14  1  0.45597400  0.58223700  0.79028000  1
  O  O15  1  0.58223700  0.79028000  0.45597400  1
  O  O16  1  0.06810000  0.29245600  0.92867600  1
  O  O17  1  0.20972000  0.54402600  0.41776300  1
  O  O18  1  0.29245600  0.92867600  0.06810000  1
  O  O19  1  0.07132400  0.93190000  0.70754400  1
