# generated using pymatgen
data_Mg2VWO6
_symmetry_space_group_name_H-M   'P 1'
_cell_length_a   5.37400900
_cell_length_b   5.21129000
_cell_length_c   9.22234890
_cell_angle_alpha   56.18127915
_cell_angle_beta   90.00000000
_cell_angle_gamma   90.00000000
_symmetry_Int_Tables_number   1
_chemical_formula_structural   Mg2VWO6
_chemical_formula_sum   'Mg4 V2 W2 O12'
_cell_volume   214.57694508
_cell_formula_units_Z   2
loop_
 _symmetry_equiv_pos_site_id
 _symmetry_equiv_pos_as_xyz
  1  'x, y, z'
loop_
 _atom_site_type_symbol
 _atom_site_label
 _atom_site_symmetry_multiplicity
 _atom_site_fract_x
 _atom_site_fract_y
 _atom_site_fract_z
 _atom_site_occupancy
  Mg  Mg0  1  0.04635200  0.25422200  0.74800400  1
  Mg  Mg1  1  0.54635200  0.74577800  0.75199600  1
  Mg  Mg2  1  0.95364800  0.74577800  0.25199600  1
  Mg  Mg3  1  0.45364800  0.25422200  0.24800400  1
  V  V4  1  0.00000000  0.50000000  0.00000000  1
  V  V5  1  0.50000000  0.50000000  0.50000000  1
  W  W6  1  0.00000000  0.00000000  0.50000000  1
  W  W7  1  0.50000000  0.00000000  0.00000000  1
  O  O8  1  0.31728100  0.75072300  0.57082200  1
  O  O9  1  0.81728100  0.24927700  0.92917800  1
  O  O10  1  0.68271900  0.24927700  0.42917800  1
  O  O11  1  0.18271900  0.75072300  0.07082200  1
  O  O12  1  0.17705100  0.38552000  0.43422900  1
  O  O13  1  0.67705100  0.61448000  0.06577100  1
  O  O14  1  0.82294900  0.61448000  0.56577100  1
  O  O15  1  0.32294900  0.38552000  0.93422900  1
  O  O16  1  0.42274200  0.11881900  0.75385700  1
  O  O17  1  0.92274200  0.88118100  0.74614300  1
  O  O18  1  0.07725800  0.11881900  0.25385700  1
  O  O19  1  0.57725800  0.88118100  0.24614300  1
