# generated using pymatgen
data_MgW2O5
_symmetry_space_group_name_H-M   'P 1'
_cell_length_a   3.22258400
_cell_length_b   5.23471386
_cell_length_c   12.54461107
_cell_angle_alpha   84.77366581
_cell_angle_beta   89.30338249
_cell_angle_gamma   89.44356245
_symmetry_Int_Tables_number   1
_chemical_formula_structural   MgW2O5
_chemical_formula_sum   'Mg2 W4 O10'
_cell_volume   210.71565293
_cell_formula_units_Z   2
loop_
 _symmetry_equiv_pos_site_id
 _symmetry_equiv_pos_as_xyz
  1  'x, y, z'
loop_
 _atom_site_type_symbol
 _atom_site_label
 _atom_site_symmetry_multiplicity
 _atom_site_fract_x
 _atom_site_fract_y
 _atom_site_fract_z
 _atom_site_occupancy
  Mg  Mg0  1  0.22820400  0.09732100  0.22357700  1
  Mg  Mg1  1  0.76471500  0.89556000  0.77731800  1
  W  W2  1  0.74232100  0.59766600  0.10396300  1
  W  W3  1  0.25591300  0.39814600  0.89630200  1
  W  W4  1  0.26061800  0.42412600  0.61222000  1
  W  W5  1  0.76420200  0.58470600  0.38914100  1
  O  O6  1  0.25180700  0.61803700  0.74254800  1
  O  O7  1  0.73303800  0.38213800  0.25744200  1
  O  O8  1  0.24996200  0.35078700  0.05816600  1
  O  O9  1  0.75311000  0.65715300  0.92369300  1
  O  O10  1  0.27235500  0.34788900  0.46247000  1
  O  O11  1  0.76006700  0.65277100  0.55615400  1
  O  O12  1  0.23364500  0.81079000  0.34855100  1
  O  O13  1  0.76550200  0.19789000  0.65666400  1
  O  O14  1  0.26088400  0.08465900  0.83666700  1
  O  O15  1  0.73360600  0.93148900  0.15921600  1
