# generated using pymatgen
data_TiP2O7
_symmetry_space_group_name_H-M   'P 1'
_cell_length_a   6.34083100
_cell_length_b   6.44141478
_cell_length_c   6.94922051
_cell_angle_alpha   88.08057433
_cell_angle_beta   114.38291006
_cell_angle_gamma   95.73399013
_symmetry_Int_Tables_number   1
_chemical_formula_structural   TiP2O7
_chemical_formula_sum   'Ti2 P4 O14'
_cell_volume   257.21451465
_cell_formula_units_Z   2
loop_
 _symmetry_equiv_pos_site_id
 _symmetry_equiv_pos_as_xyz
  1  'x, y, z'
loop_
 _atom_site_type_symbol
 _atom_site_label
 _atom_site_symmetry_multiplicity
 _atom_site_fract_x
 _atom_site_fract_y
 _atom_site_fract_z
 _atom_site_occupancy
  Ti  Ti0  1  0.08764900  0.33834200  0.20928000  1
  Ti  Ti1  1  0.91235100  0.66165800  0.79072000  1
  P  P2  1  0.33927800  0.61668600  0.64496600  1
  P  P3  1  0.66072200  0.38331400  0.35503400  1
  P  P4  1  0.23541700  0.86254100  0.24107900  1
  P  P5  1  0.76458300  0.13745900  0.75892100  1
  O  O6  1  0.40077900  0.38631600  0.21864300  1
  O  O7  1  0.56623000  0.09093200  0.81443100  1
  O  O8  1  0.43377000  0.90906800  0.18556900  1
  O  O9  1  0.91370200  0.94878600  0.77570200  1
  O  O10  1  0.30380900  0.80611700  0.48608400  1
  O  O11  1  0.21130800  0.65139300  0.78323400  1
  O  O12  1  0.05837700  0.66945000  0.11618700  1
  O  O13  1  0.59922100  0.61368400  0.78135700  1
  O  O14  1  0.69619100  0.19388300  0.51391600  1
  O  O15  1  0.23075000  0.42053700  0.50444200  1
  O  O16  1  0.08629800  0.05121400  0.22429800  1
  O  O17  1  0.94162300  0.33055000  0.88381300  1
  O  O18  1  0.78869200  0.34860700  0.21676600  1
  O  O19  1  0.76925000  0.57946300  0.49555800  1
