# generated using pymatgen
data_Mg(BiO2)2
_symmetry_space_group_name_H-M   'P 1'
_cell_length_a   6.77568081
_cell_length_b   6.77568081
_cell_length_c   16.40486580
_cell_angle_alpha   88.85773801
_cell_angle_beta   88.85773801
_cell_angle_gamma   61.53916988
_symmetry_Int_Tables_number   1
_chemical_formula_structural   Mg(BiO2)2
_chemical_formula_sum   'Mg6 Bi12 O24'
_cell_volume   661.94395655
_cell_formula_units_Z   6
loop_
 _symmetry_equiv_pos_site_id
 _symmetry_equiv_pos_as_xyz
  1  'x, y, z'
loop_
 _atom_site_type_symbol
 _atom_site_label
 _atom_site_symmetry_multiplicity
 _atom_site_fract_x
 _atom_site_fract_y
 _atom_site_fract_z
 _atom_site_occupancy
  Mg  Mg0  1  0.33707300  0.33707300  0.03982800  1
  Mg  Mg1  1  0.66435700  0.66435700  0.33870900  1
  Mg  Mg2  1  0.83172600  0.83172600  0.18059500  1
  Mg  Mg3  1  0.33641200  0.33641200  0.66308900  1
  Mg  Mg4  1  0.49936300  0.49936300  0.50053200  1
  Mg  Mg5  1  0.16301900  0.16301900  0.82021800  1
  Bi  Bi6  1  0.83900200  0.34473000  0.16892600  1
  Bi  Bi7  1  0.00607200  0.00607200  0.37807700  1
  Bi  Bi8  1  0.99482800  0.99482800  0.00291500  1
  Bi  Bi9  1  0.34473000  0.83900200  0.16892600  1
  Bi  Bi10  1  0.50062400  0.00020500  0.50155400  1
  Bi  Bi11  1  0.66648000  0.66648000  0.71616400  1
  Bi  Bi12  1  0.00020500  0.50062400  0.50155400  1
  Bi  Bi13  1  0.15885800  0.65380300  0.83209600  1
  Bi  Bi14  1  0.33425000  0.33425000  0.28785200  1
  Bi  Bi15  1  0.65380300  0.15885800  0.83209600  1
  Bi  Bi16  1  0.99492000  0.99492000  0.61831300  1
  Bi  Bi17  1  0.64062700  0.64062700  0.96277900  1
  O  O18  1  0.66857400  0.16919300  0.08487800  1
  O  O19  1  0.98440300  0.98440300  0.24346900  1
  O  O20  1  0.16919300  0.66857400  0.08487800  1
  O  O21  1  0.16819600  0.16819600  0.07614400  1
  O  O22  1  0.37698800  0.79021500  0.42194600  1
  O  O23  1  0.52372700  0.52372700  0.25691700  1
  O  O24  1  0.65780900  0.65780900  0.58211300  1
  O  O25  1  0.53570800  0.95603100  0.25593800  1
  O  O26  1  0.79021500  0.37698800  0.42194600  1
  O  O27  1  0.69160900  0.69160900  0.10320200  1
  O  O28  1  0.82137800  0.82137800  0.41198500  1
  O  O29  1  0.95603100  0.53570800  0.25593800  1
  O  O30  1  0.04966200  0.46231800  0.74507900  1
  O  O31  1  0.18255500  0.18255500  0.58815900  1
  O  O32  1  0.21102000  0.61778500  0.58042100  1
  O  O33  1  0.46231800  0.04966200  0.74507900  1
  O  O34  1  0.33957300  0.33957300  0.91358100  1
  O  O35  1  0.34117800  0.34117800  0.42244500  1
  O  O36  1  0.47579700  0.47579700  0.74819200  1
  O  O37  1  0.61778500  0.21102000  0.58042100  1
  O  O38  1  0.81516000  0.81516000  0.91933200  1
  O  O39  1  0.86927900  0.31576200  0.89704500  1
  O  O40  1  0.01260300  0.01260300  0.74966400  1
  O  O41  1  0.31576200  0.86927900  0.89704500  1
