# generated using pymatgen
data_BaCa(CuO2)4
_symmetry_space_group_name_H-M   'P 1'
_cell_length_a   5.38284654
_cell_length_b   5.38284654
_cell_length_c   7.75776700
_cell_angle_alpha   90.00000000
_cell_angle_beta   90.00000000
_cell_angle_gamma   120.00000659
_symmetry_Int_Tables_number   1
_chemical_formula_structural   BaCa(CuO2)4
_chemical_formula_sum   'Ba1 Ca1 Cu4 O8'
_cell_volume   194.66654961
_cell_formula_units_Z   1
loop_
 _symmetry_equiv_pos_site_id
 _symmetry_equiv_pos_as_xyz
  1  'x, y, z'
loop_
 _atom_site_type_symbol
 _atom_site_label
 _atom_site_symmetry_multiplicity
 _atom_site_fract_x
 _atom_site_fract_y
 _atom_site_fract_z
 _atom_site_occupancy
  Ba  Ba0  1  0.00000000  0.00000000  0.00000000  1
  Ca  Ca1  1  0.00000000  0.00000000  0.50000000  1
  Cu  Cu2  1  0.33333300  0.66666700  0.76065800  1
  Cu  Cu3  1  0.66666700  0.33333300  0.76065800  1
  Cu  Cu4  1  0.33333300  0.66666700  0.23934200  1
  Cu  Cu5  1  0.66666700  0.33333300  0.23934200  1
  O  O6  1  0.33086900  0.33086900  0.70144800  1
  O  O7  1  0.66913100  0.00000000  0.70144800  1
  O  O8  1  0.00000000  0.66913100  0.70144800  1
  O  O9  1  0.66913100  0.66913100  0.29855200  1
  O  O10  1  0.00000000  0.33086900  0.29855200  1
  O  O11  1  0.33086900  0.00000000  0.29855200  1
  O  O12  1  0.33333300  0.66666700  0.00000000  1
  O  O13  1  0.66666700  0.33333300  0.00000000  1
