# generated using pymatgen
data_ZnCuAsO5
_symmetry_space_group_name_H-M   'P 1'
_cell_length_a   5.87544800
_cell_length_b   7.77098000
_cell_length_c   8.81300900
_cell_angle_alpha   90.00000000
_cell_angle_beta   90.00000000
_cell_angle_gamma   90.00000000
_symmetry_Int_Tables_number   1
_chemical_formula_structural   ZnCuAsO5
_chemical_formula_sum   'Zn4 Cu4 As4 O20'
_cell_volume   402.38426709
_cell_formula_units_Z   4
loop_
 _symmetry_equiv_pos_site_id
 _symmetry_equiv_pos_as_xyz
  1  'x, y, z'
loop_
 _atom_site_type_symbol
 _atom_site_label
 _atom_site_symmetry_multiplicity
 _atom_site_fract_x
 _atom_site_fract_y
 _atom_site_fract_z
 _atom_site_occupancy
  Zn  Zn0  1  0.05151500  0.80826200  0.69451200  1
  Zn  Zn1  1  0.44848500  0.19173800  0.19451200  1
  Zn  Zn2  1  0.94848500  0.30826200  0.80548800  1
  Zn  Zn3  1  0.55151500  0.69173800  0.30548800  1
  Cu  Cu4  1  0.25321900  0.75059400  0.00359800  1
  Cu  Cu5  1  0.24678100  0.24940600  0.50359800  1
  Cu  Cu6  1  0.74678100  0.25059400  0.49640200  1
  Cu  Cu7  1  0.75321900  0.74940600  0.99640200  1
  As  As8  1  0.47533800  0.09462200  0.84244800  1
  As  As9  1  0.02466200  0.90537800  0.34244800  1
  As  As10  1  0.52466200  0.59462200  0.65755200  1
  As  As11  1  0.97533800  0.40537800  0.15755200  1
  O  O12  1  0.50278400  0.89364800  0.93716000  1
  O  O13  1  0.99721600  0.10635200  0.43716000  1
  O  O14  1  0.49721600  0.39364800  0.56284000  1
  O  O15  1  0.00278400  0.60635200  0.06284000  1
  O  O16  1  0.44231100  0.24522000  0.98107700  1
  O  O17  1  0.05768900  0.75478000  0.48107700  1
  O  O18  1  0.55768900  0.74522000  0.51892300  1
  O  O19  1  0.94231100  0.25478000  0.01892300  1
  O  O20  1  0.71947300  0.11990200  0.73867000  1
  O  O21  1  0.78052700  0.88009800  0.23867000  1
  O  O22  1  0.28052700  0.61990200  0.76133000  1
  O  O23  1  0.21947300  0.38009800  0.26133000  1
  O  O24  1  0.23843100  0.07900700  0.72797000  1
  O  O25  1  0.26156900  0.92099300  0.22797000  1
  O  O26  1  0.76156900  0.57900700  0.77203000  1
  O  O27  1  0.73843100  0.42099300  0.27203000  1
  O  O28  1  0.00171500  0.86234400  0.91131000  1
  O  O29  1  0.49828500  0.13765600  0.41131000  1
  O  O30  1  0.99828500  0.36234400  0.58869000  1
  O  O31  1  0.50171500  0.63765600  0.08869000  1
