# generated using pymatgen
data_Zn11Fe25O48
_symmetry_space_group_name_H-M   'P 1'
_cell_length_a   10.48962771
_cell_length_b   10.48579825
_cell_length_c   10.46984398
_cell_angle_alpha   119.94967637
_cell_angle_beta   109.47095403
_cell_angle_gamma   80.42079419
_symmetry_Int_Tables_number   1
_chemical_formula_structural   Zn11Fe25O48
_chemical_formula_sum   'Zn11 Fe25 O48'
_cell_volume   940.75572984
_cell_formula_units_Z   1
loop_
 _symmetry_equiv_pos_site_id
 _symmetry_equiv_pos_as_xyz
  1  'x, y, z'
loop_
 _atom_site_type_symbol
 _atom_site_label
 _atom_site_symmetry_multiplicity
 _atom_site_fract_x
 _atom_site_fract_y
 _atom_site_fract_z
 _atom_site_occupancy
  Zn  Zn0  1  0.56154600  0.66666700  0.02044300  1
  Zn  Zn1  1  0.93809100  0.33410600  0.47925700  1
  Zn  Zn2  1  0.56159100  0.33395900  0.35391800  1
  Zn  Zn3  1  0.43577400  0.99863200  0.31222200  1
  Zn  Zn4  1  0.43479700  0.66666700  0.64415800  1
  Zn  Zn5  1  0.93809100  0.99922700  0.81181700  1
  Zn  Zn6  1  0.06434500  0.99983900  0.18739100  1
  Zn  Zn7  1  0.06406000  0.66666700  0.52084900  1
  Zn  Zn8  1  0.56159100  0.99937400  0.68662500  1
  Zn  Zn9  1  0.43577400  0.33470100  0.98025600  1
  Zn  Zn10  1  0.06434500  0.33349400  0.85421900  1
  Fe  Fe11  1  0.93743100  0.66666700  0.14677000  1
  Fe  Fe12  1  0.74805900  0.83196100  0.41786800  1
  Fe  Fe13  1  0.75146500  0.16800200  0.08436600  1
  Fe  Fe14  1  0.74805900  0.50137200  0.25257400  1
  Fe  Fe15  1  0.25449100  0.66666700  0.08425300  1
  Fe  Fe16  1  0.74944400  0.00130000  0.24955000  1
  Fe  Fe17  1  0.49928800  0.99993800  0.00018500  1
  Fe  Fe18  1  0.49854900  0.66666700  0.33404900  1
  Fe  Fe19  1  0.74799300  0.66666700  0.58192200  1
  Fe  Fe20  1  0.74922800  0.83507500  0.91588300  1
  Fe  Fe21  1  0.75146500  0.16533100  0.58303100  1
  Fe  Fe22  1  0.25018000  0.83372900  0.41723800  1
  Fe  Fe23  1  0.24922200  0.16700200  0.08297000  1
  Fe  Fe24  1  0.25018000  0.49960500  0.25017600  1
  Fe  Fe25  1  0.74922800  0.49825800  0.74747400  1
  Fe  Fe26  1  0.74944400  0.33203400  0.91491800  1
  Fe  Fe27  1  0.24937100  0.33519900  0.41756800  1
  Fe  Fe28  1  0.49928800  0.33339500  0.66691300  1
  Fe  Fe29  1  0.00145200  0.33305000  0.16702600  1
  Fe  Fe30  1  0.25002900  0.49985000  0.75019400  1
  Fe  Fe31  1  0.25002900  0.83348300  0.91701000  1
  Fe  Fe32  1  0.24922200  0.16633200  0.58263600  1
  Fe  Fe33  1  0.24937100  0.99813400  0.74903600  1
  Fe  Fe34  1  0.00145200  0.00028300  0.50064300  1
  Fe  Fe35  1  0.00271300  0.66666700  0.83215800  1
  O  O36  1  0.63109700  0.84755700  0.04353200  1
  O  O37  1  0.87356000  0.49102000  0.12352200  1
  O  O38  1  0.87356000  0.84231300  0.29916900  1
  O  O39  1  0.64160800  0.33384200  0.04669600  1
  O  O40  1  0.87179200  0.33379100  0.27553800  1
  O  O41  1  0.85992000  0.00003200  0.11972100  1
  O  O42  1  0.63725200  0.66666700  0.22224300  1
  O  O43  1  0.86110600  0.66666700  0.45373200  1
  O  O44  1  0.63069300  0.15248700  0.19628100  1
  O  O45  1  0.63786400  0.82469000  0.53691600  1
  O  O46  1  0.13023900  0.81894600  0.02837300  1
  O  O47  1  0.63786400  0.50864400  0.37889300  1
  O  O48  1  0.35971600  0.50906300  0.13048600  1
  O  O49  1  0.35971600  0.82427100  0.28809000  1
  O  O50  1  0.87084200  0.15152400  0.45529500  1
  O  O51  1  0.87139100  0.51450400  0.64033200  1
  O  O52  1  0.87139100  0.81882900  0.79249600  1
  O  O53  1  0.35949100  0.66666700  0.44372000  1
  O  O54  1  0.36926200  0.00049400  0.10970500  1
  O  O55  1  0.64048700  0.66666700  0.71535800  1
  O  O56  1  0.64160800  0.99949100  0.37952100  1
  O  O57  1  0.13228300  0.66666700  0.21086100  1
  O  O58  1  0.87179200  0.99954300  0.60841500  1
  O  O59  1  0.87361300  0.66666700  0.95014400  1
  O  O60  1  0.12887100  0.33273900  0.05626700  1
  O  O61  1  0.35849400  0.33378600  0.28663100  1
  O  O62  1  0.85992000  0.33330200  0.78635600  1
  O  O63  1  0.63027800  0.33236400  0.55733300  1
  O  O64  1  0.12861900  0.84734400  0.54315500  1
  O  O65  1  0.13037400  0.18121400  0.21070700  1
  O  O66  1  0.63069300  0.18084700  0.71046100  1
  O  O67  1  0.12861900  0.48599000  0.36247700  1
  O  O68  1  0.63109700  0.48577600  0.86264100  1
  O  O69  1  0.36883500  0.18166000  0.47062100  1
  O  O70  1  0.36967600  0.84705000  0.80414600  1
  O  O71  1  0.36967600  0.48628300  0.62376300  1
  O  O72  1  0.87084200  0.18180900  0.97043800  1
  O  O73  1  0.36926200  0.33283900  0.77587800  1
  O  O74  1  0.14056400  0.33374600  0.54718700  1
  O  O75  1  0.12887100  0.00059400  0.39019500  1
  O  O76  1  0.35849400  0.99954800  0.61951200  1
  O  O77  1  0.63027800  0.00096900  0.89163600  1
  O  O78  1  0.36021600  0.66666700  0.95310600  1
  O  O79  1  0.13150500  0.66666700  0.72289900  1
  O  O80  1  0.13037400  0.15211900  0.69615900  1
  O  O81  1  0.13023900  0.51438700  0.87609300  1
  O  O82  1  0.36883500  0.15167400  0.95562700  1
  O  O83  1  0.14056400  0.99958700  0.88010700  1
