# generated using pymatgen
data_TiZn2IrO6
_symmetry_space_group_name_H-M   'P 1'
_cell_length_a   5.24089100
_cell_length_b   5.22239900
_cell_length_c   9.23728763
_cell_angle_alpha   55.88171086
_cell_angle_beta   90.00000000
_cell_angle_gamma   90.00000000
_symmetry_Int_Tables_number   1
_chemical_formula_structural   TiZn2IrO6
_chemical_formula_sum   'Ti2 Zn4 Ir2 O12'
_cell_volume   209.30891877
_cell_formula_units_Z   2
loop_
 _symmetry_equiv_pos_site_id
 _symmetry_equiv_pos_as_xyz
  1  'x, y, z'
loop_
 _atom_site_type_symbol
 _atom_site_label
 _atom_site_symmetry_multiplicity
 _atom_site_fract_x
 _atom_site_fract_y
 _atom_site_fract_z
 _atom_site_occupancy
  Ti  Ti0  1  0.50000000  0.00000000  0.00000000  1
  Ti  Ti1  1  0.00000000  0.00000000  0.50000000  1
  Zn  Zn2  1  0.96769800  0.25516400  0.75132500  1
  Zn  Zn3  1  0.46769800  0.74483600  0.74867500  1
  Zn  Zn4  1  0.53230200  0.25516400  0.25132500  1
  Zn  Zn5  1  0.03230200  0.74483600  0.24867500  1
  Ir  Ir6  1  0.50000000  0.50000000  0.50000000  1
  Ir  Ir7  1  0.00000000  0.50000000  0.00000000  1
  O  O8  1  0.42119500  0.63307000  0.24973900  1
  O  O9  1  0.18221100  0.89115000  0.93580200  1
  O  O10  1  0.17519900  0.25941600  0.56253900  1
  O  O11  1  0.67519900  0.74058400  0.93746100  1
  O  O12  1  0.68221100  0.10885000  0.56419800  1
  O  O13  1  0.92119500  0.36693000  0.25026100  1
  O  O14  1  0.07880500  0.63307000  0.74973900  1
  O  O15  1  0.31778900  0.89115000  0.43580200  1
  O  O16  1  0.32480100  0.25941600  0.06253900  1
  O  O17  1  0.81778900  0.10885000  0.06419800  1
  O  O18  1  0.82480100  0.74058400  0.43746100  1
  O  O19  1  0.57880500  0.36693000  0.75026100  1
