# generated using pymatgen
data_Ca2Nb2NiO8
_symmetry_space_group_name_H-M   'P 1'
_cell_length_a   9.95587492
_cell_length_b   9.95587492
_cell_length_c   5.48497163
_cell_angle_alpha   88.82553978
_cell_angle_beta   88.82553978
_cell_angle_gamma   36.90912338
_symmetry_Int_Tables_number   1
_chemical_formula_structural   Ca2Nb2NiO8
_chemical_formula_sum   'Ca4 Nb4 Ni2 O16'
_cell_volume   326.42186411
_cell_formula_units_Z   2
loop_
 _symmetry_equiv_pos_site_id
 _symmetry_equiv_pos_as_xyz
  1  'x, y, z'
loop_
 _atom_site_type_symbol
 _atom_site_label
 _atom_site_symmetry_multiplicity
 _atom_site_fract_x
 _atom_site_fract_y
 _atom_site_fract_z
 _atom_site_occupancy
  Ca  Ca0  1  0.89118700  0.52281500  0.75754600  1
  Ca  Ca1  1  0.47718500  0.10881300  0.74245400  1
  Ca  Ca2  1  0.10881300  0.47718500  0.24245400  1
  Ca  Ca3  1  0.52281500  0.89118700  0.25754600  1
  Nb  Nb4  1  0.04546400  0.73530200  0.75491600  1
  Nb  Nb5  1  0.26469800  0.95453600  0.74508400  1
  Nb  Nb6  1  0.95453600  0.26469800  0.24508400  1
  Nb  Nb7  1  0.73530200  0.04546400  0.25491600  1
  Ni  Ni8  1  0.64077700  0.35922300  0.75000000  1
  Ni  Ni9  1  0.35922300  0.64077700  0.25000000  1
  O  O10  1  0.06051200  0.80234800  0.09392400  1
  O  O11  1  0.19765200  0.93948800  0.40607600  1
  O  O12  1  0.93948800  0.19765200  0.90607600  1
  O  O13  1  0.80234800  0.06051200  0.59392400  1
  O  O14  1  0.30205900  0.58631200  0.58078600  1
  O  O15  1  0.41368800  0.69794100  0.91921400  1
  O  O16  1  0.69794100  0.41368800  0.41921400  1
  O  O17  1  0.58631200  0.30205900  0.08078600  1
  O  O18  1  0.87718200  0.76035400  0.50681600  1
  O  O19  1  0.23964600  0.12281800  0.99318400  1
  O  O20  1  0.46395600  0.16727800  0.34333100  1
  O  O21  1  0.83272200  0.53604400  0.15666900  1
  O  O22  1  0.53604400  0.83272200  0.65666900  1
  O  O23  1  0.16727800  0.46395600  0.84333100  1
  O  O24  1  0.76035400  0.87718200  0.00681600  1
  O  O25  1  0.12281800  0.23964600  0.49318400  1
