# generated using pymatgen
data_Yb2TiO5
_symmetry_space_group_name_H-M   'P 1'
_cell_length_a   6.57655261
_cell_length_b   6.57655261
_cell_length_c   7.57283476
_cell_angle_alpha   66.89473392
_cell_angle_beta   66.89473392
_cell_angle_gamma   46.74559248
_symmetry_Int_Tables_number   1
_chemical_formula_structural   Yb2TiO5
_chemical_formula_sum   'Yb4 Ti2 O10'
_cell_volume   215.65117848
_cell_formula_units_Z   2
loop_
 _symmetry_equiv_pos_site_id
 _symmetry_equiv_pos_as_xyz
  1  'x, y, z'
loop_
 _atom_site_type_symbol
 _atom_site_label
 _atom_site_symmetry_multiplicity
 _atom_site_fract_x
 _atom_site_fract_y
 _atom_site_fract_z
 _atom_site_occupancy
  Yb  Yb0  1  0.62841500  0.64882900  0.23148800  1
  Yb  Yb1  1  0.64882900  0.62841500  0.73148800  1
  Yb  Yb2  1  0.35117100  0.37158500  0.26851200  1
  Yb  Yb3  1  0.37158500  0.35117100  0.76851200  1
  Ti  Ti4  1  0.00000000  0.00000000  0.50000000  1
  Ti  Ti5  1  0.00000000  0.00000000  0.00000000  1
  O  O6  1  0.73225500  0.39297100  0.03475100  1
  O  O7  1  0.39297100  0.73225500  0.53475100  1
  O  O8  1  0.02830400  0.29990900  0.37904700  1
  O  O9  1  0.70009100  0.97169600  0.12095300  1
  O  O10  1  0.29990900  0.02830400  0.87904700  1
  O  O11  1  0.97169600  0.70009100  0.62095300  1
  O  O12  1  0.60702900  0.26774500  0.46524900  1
  O  O13  1  0.14123400  0.85876600  0.25000000  1
  O  O14  1  0.26774500  0.60702900  0.96524900  1
  O  O15  1  0.85876600  0.14123400  0.75000000  1
