# generated using pymatgen
data_Sn3(P2O7)2
_symmetry_space_group_name_H-M   'P 1'
_cell_length_a   8.93318000
_cell_length_b   8.92765600
_cell_length_c   9.17987722
_cell_angle_alpha   69.87274004
_cell_angle_beta   90.00000000
_cell_angle_gamma   90.00000000
_symmetry_Int_Tables_number   1
_chemical_formula_structural   Sn3(P2O7)2
_chemical_formula_sum   'Sn6 P8 O28'
_cell_volume   687.40694746
_cell_formula_units_Z   2
loop_
 _symmetry_equiv_pos_site_id
 _symmetry_equiv_pos_as_xyz
  1  'x, y, z'
loop_
 _atom_site_type_symbol
 _atom_site_label
 _atom_site_symmetry_multiplicity
 _atom_site_fract_x
 _atom_site_fract_y
 _atom_site_fract_z
 _atom_site_occupancy
  Sn  Sn0  1  0.60490400  0.24402100  0.41690400  1
  Sn  Sn1  1  0.89509600  0.24402100  0.91690400  1
  Sn  Sn2  1  0.10490400  0.75597900  0.08309600  1
  Sn  Sn3  1  0.50000000  0.00000000  0.00000000  1
  Sn  Sn4  1  0.39509600  0.75597900  0.58309600  1
  Sn  Sn5  1  0.00000000  0.00000000  0.50000000  1
  P  P6  1  0.69480500  0.88548700  0.32273400  1
  P  P7  1  0.99723200  0.64735500  0.77744000  1
  P  P8  1  0.50276800  0.64735500  0.27744000  1
  P  P9  1  0.49723200  0.35264500  0.72256000  1
  P  P10  1  0.00276800  0.35264500  0.22256000  1
  P  P11  1  0.30519500  0.11451300  0.67726600  1
  P  P12  1  0.80519500  0.88548700  0.82273400  1
  P  P13  1  0.19480500  0.11451300  0.17726600  1
  O  O14  1  0.55156800  0.23227200  0.88125400  1
  O  O15  1  0.66527100  0.00547500  0.15573700  1
  O  O16  1  0.08456600  0.10001300  0.05623700  1
  O  O17  1  0.35778400  0.09730500  0.13528400  1
  O  O18  1  0.83472900  0.00547500  0.65573700  1
  O  O19  1  0.41543400  0.10001300  0.55623700  1
  O  O20  1  0.33472900  0.99452500  0.84426300  1
  O  O21  1  0.91543400  0.89998700  0.94376300  1
  O  O22  1  0.64221600  0.90269500  0.86471600  1
  O  O23  1  0.16527100  0.99452500  0.34426300  1
  O  O24  1  0.58456600  0.89998700  0.44376300  1
  O  O25  1  0.83103500  0.70967800  0.81060300  1
  O  O26  1  0.10643400  0.65172800  0.90405400  1
  O  O27  1  0.85778400  0.90269500  0.36471600  1
  O  O28  1  0.05156800  0.76772800  0.61874600  1
  O  O29  1  0.47566300  0.51560900  0.73415300  1
  O  O30  1  0.66896500  0.70967800  0.31060300  1
  O  O31  1  0.89356600  0.34827200  0.09594600  1
  O  O32  1  0.44843200  0.76772800  0.11874600  1
  O  O33  1  0.97566300  0.48439100  0.76584700  1
  O  O34  1  0.02433700  0.51560900  0.23415300  1
  O  O35  1  0.16896500  0.29032200  0.18939700  1
  O  O36  1  0.60643400  0.34827200  0.59594600  1
  O  O37  1  0.33103500  0.29032200  0.68939700  1
  O  O38  1  0.52433700  0.48439100  0.26584700  1
  O  O39  1  0.94843200  0.23227200  0.38125400  1
  O  O40  1  0.14221600  0.09730500  0.63528400  1
  O  O41  1  0.39356600  0.65172800  0.40405400  1
