# generated using pymatgen
data_CaVAsO5
_symmetry_space_group_name_H-M   'P 1'
_cell_length_a   9.01996000
_cell_length_b   6.01108200
_cell_length_c   7.67760209
_cell_angle_alpha   89.83178263
_cell_angle_beta   90.00000000
_cell_angle_gamma   90.00000000
_symmetry_Int_Tables_number   1
_chemical_formula_structural   CaVAsO5
_chemical_formula_sum   'Ca4 V4 As4 O20'
_cell_volume   416.27563529
_cell_formula_units_Z   4
loop_
 _symmetry_equiv_pos_site_id
 _symmetry_equiv_pos_as_xyz
  1  'x, y, z'
loop_
 _atom_site_type_symbol
 _atom_site_label
 _atom_site_symmetry_multiplicity
 _atom_site_fract_x
 _atom_site_fract_y
 _atom_site_fract_z
 _atom_site_occupancy
  Ca  Ca0  1  0.91845100  0.77388400  0.84749500  1
  Ca  Ca1  1  0.41845100  0.22611600  0.15250500  1
  Ca  Ca2  1  0.08225400  0.72334900  0.35469800  1
  Ca  Ca3  1  0.58225400  0.27665100  0.64530200  1
  V  V4  1  0.24890300  0.49453300  0.75772200  1
  V  V5  1  0.74890300  0.50546700  0.24227800  1
  V  V6  1  0.75383000  0.00345300  0.25765800  1
  V  V7  1  0.25383000  0.99654700  0.74234200  1
  As  As8  1  0.05954800  0.26911000  0.10725700  1
  As  As9  1  0.55954800  0.73089000  0.89274300  1
  As  As10  1  0.94056000  0.23130100  0.60716500  1
  As  As11  1  0.44056000  0.76869900  0.39283500  1
  O  O12  1  0.17628400  0.24151300  0.92569000  1
  O  O13  1  0.67628400  0.75848700  0.07431000  1
  O  O14  1  0.82496500  0.25979600  0.42485100  1
  O  O15  1  0.32496500  0.74020400  0.57514900  1
  O  O16  1  0.17619200  0.33722100  0.27215800  1
  O  O17  1  0.67619200  0.66277900  0.72784200  1
  O  O18  1  0.82031400  0.15943000  0.76914500  1
  O  O19  1  0.32031400  0.84057000  0.23085500  1
  O  O20  1  0.96673100  0.01882600  0.13253700  1
  O  O21  1  0.46673100  0.98117400  0.86746300  1
  O  O22  1  0.03180500  0.48208400  0.63439900  1
  O  O23  1  0.53180500  0.51791600  0.36560100  1
  O  O24  1  0.94173100  0.49704800  0.08968300  1
  O  O25  1  0.44173100  0.50295200  0.91031700  1
  O  O26  1  0.05908800  0.00534500  0.59103900  1
  O  O27  1  0.55908800  0.99465500  0.40896100  1
  O  O28  1  0.16623300  0.75302600  0.86865400  1
  O  O29  1  0.66623300  0.24697400  0.13134600  1
  O  O30  1  0.83320100  0.74550300  0.37414400  1
  O  O31  1  0.33320100  0.25449700  0.62585600  1
