# generated using pymatgen
data_BiAsO5
_symmetry_space_group_name_H-M   'P 1'
_cell_length_a   6.71140800
_cell_length_b   7.84954900
_cell_length_c   8.62207300
_cell_angle_alpha   90.00000000
_cell_angle_beta   90.00000000
_cell_angle_gamma   90.00000000
_symmetry_Int_Tables_number   1
_chemical_formula_structural   BiAsO5
_chemical_formula_sum   'Bi4 As4 O20'
_cell_volume   454.22396254
_cell_formula_units_Z   4
loop_
 _symmetry_equiv_pos_site_id
 _symmetry_equiv_pos_as_xyz
  1  'x, y, z'
loop_
 _atom_site_type_symbol
 _atom_site_label
 _atom_site_symmetry_multiplicity
 _atom_site_fract_x
 _atom_site_fract_y
 _atom_site_fract_z
 _atom_site_occupancy
  Bi  Bi0  1  0.25287900  0.75093800  0.99589900  1
  Bi  Bi1  1  0.24712100  0.24906200  0.49589900  1
  Bi  Bi2  1  0.74712100  0.25093800  0.50410100  1
  Bi  Bi3  1  0.75287900  0.74906200  0.00410100  1
  As  As4  1  0.48363900  0.14040100  0.83283600  1
  As  As5  1  0.01636100  0.85959900  0.33283600  1
  As  As6  1  0.51636100  0.64040100  0.66716400  1
  As  As7  1  0.98363900  0.35959900  0.16716400  1
  O  O8  1  0.99897000  0.87551600  0.90646100  1
  O  O9  1  0.50103000  0.12448400  0.40646100  1
  O  O10  1  0.00103000  0.37551600  0.59353900  1
  O  O11  1  0.49897000  0.62448400  0.09353900  1
  O  O12  1  0.50243600  0.93023600  0.92505200  1
  O  O13  1  0.99756400  0.06976400  0.42505200  1
  O  O14  1  0.49756400  0.43023600  0.57494800  1
  O  O15  1  0.00243600  0.56976400  0.07494800  1
  O  O16  1  0.44632200  0.29277300  0.96197100  1
  O  O17  1  0.05367800  0.70722700  0.46197100  1
  O  O18  1  0.55367800  0.79277300  0.53802900  1
  O  O19  1  0.94632200  0.20722700  0.03802900  1
  O  O20  1  0.71002500  0.13891200  0.73086900  1
  O  O21  1  0.78997500  0.86108800  0.23086900  1
  O  O22  1  0.28997500  0.63891200  0.76913100  1
  O  O23  1  0.21002500  0.36108800  0.26913100  1
  O  O24  1  0.28356100  0.10058900  0.70635500  1
  O  O25  1  0.21643900  0.89941100  0.20635500  1
  O  O26  1  0.71643900  0.60058900  0.79364500  1
  O  O27  1  0.78356100  0.39941100  0.29364500  1
