# generated using pymatgen
data_CaAgAsO5
_symmetry_space_group_name_H-M   'P 1'
_cell_length_a   6.01956600
_cell_length_b   7.60872200
_cell_length_c   9.86286600
_cell_angle_alpha   90.00000000
_cell_angle_beta   90.00000000
_cell_angle_gamma   90.00000000
_symmetry_Int_Tables_number   1
_chemical_formula_structural   CaAgAsO5
_chemical_formula_sum   'Ca4 Ag4 As4 O20'
_cell_volume   451.73114020
_cell_formula_units_Z   4
loop_
 _symmetry_equiv_pos_site_id
 _symmetry_equiv_pos_as_xyz
  1  'x, y, z'
loop_
 _atom_site_type_symbol
 _atom_site_label
 _atom_site_symmetry_multiplicity
 _atom_site_fract_x
 _atom_site_fract_y
 _atom_site_fract_z
 _atom_site_occupancy
  Ca  Ca0  1  0.49473900  0.67712300  0.33363800  1
  Ca  Ca1  1  0.00526100  0.32287700  0.83363800  1
  Ca  Ca2  1  0.50526100  0.17712300  0.16636200  1
  Ca  Ca3  1  0.99473900  0.82287700  0.66636200  1
  Ag  Ag4  1  0.74740900  0.75046200  0.00028200  1
  Ag  Ag5  1  0.75259100  0.24953800  0.50028200  1
  Ag  Ag6  1  0.25259100  0.25046200  0.49971800  1
  Ag  Ag7  1  0.24740900  0.74953800  0.99971800  1
  As  As8  1  0.97139700  0.39295500  0.16637200  1
  As  As9  1  0.52860300  0.60704500  0.66637200  1
  As  As10  1  0.02860300  0.89295500  0.33362800  1
  As  As11  1  0.47139700  0.10704500  0.83362800  1
  O  O12  1  0.99898200  0.55630500  0.03205400  1
  O  O13  1  0.50101800  0.44369500  0.53205400  1
  O  O14  1  0.00101800  0.05630500  0.46794600  1
  O  O15  1  0.49898200  0.94369500  0.96794600  1
  O  O16  1  0.88818100  0.22251900  0.06607900  1
  O  O17  1  0.61181900  0.77748100  0.56607900  1
  O  O18  1  0.11181900  0.72251900  0.43392100  1
  O  O19  1  0.38818100  0.27748100  0.93392100  1
  O  O20  1  0.22567600  0.37965100  0.24223000  1
  O  O21  1  0.27432400  0.62034900  0.74223000  1
  O  O22  1  0.77432400  0.87965100  0.25777000  1
  O  O23  1  0.72567600  0.12034900  0.75777000  1
  O  O24  1  0.75339600  0.43626800  0.27214600  1
  O  O25  1  0.74660400  0.56373200  0.77214600  1
  O  O26  1  0.24660400  0.93626800  0.22785400  1
  O  O27  1  0.25339600  0.06373200  0.72785400  1
  O  O28  1  0.49636800  0.62642400  0.09557200  1
  O  O29  1  0.00363200  0.37357600  0.59557200  1
  O  O30  1  0.50363200  0.12642400  0.40442800  1
  O  O31  1  0.99636800  0.87357600  0.90442800  1
