# generated using pymatgen
data_MgVAsO5
_symmetry_space_group_name_H-M   'P 1'
_cell_length_a   6.24280300
_cell_length_b   8.18340900
_cell_length_c   8.46834800
_cell_angle_alpha   90.00000000
_cell_angle_beta   90.00000000
_cell_angle_gamma   90.00000000
_symmetry_Int_Tables_number   1
_chemical_formula_structural   MgVAsO5
_chemical_formula_sum   'Mg4 V4 As4 O20'
_cell_volume   432.62596846
_cell_formula_units_Z   4
loop_
 _symmetry_equiv_pos_site_id
 _symmetry_equiv_pos_as_xyz
  1  'x, y, z'
loop_
 _atom_site_type_symbol
 _atom_site_label
 _atom_site_symmetry_multiplicity
 _atom_site_fract_x
 _atom_site_fract_y
 _atom_site_fract_z
 _atom_site_occupancy
  Mg  Mg0  1  0.11603000  0.84537200  0.68128400  1
  Mg  Mg1  1  0.38397000  0.15462800  0.18128400  1
  Mg  Mg2  1  0.88397000  0.34537200  0.81871600  1
  Mg  Mg3  1  0.61603000  0.65462800  0.31871600  1
  V  V4  1  0.26262500  0.75801400  0.00637600  1
  V  V5  1  0.23737500  0.24198600  0.50637600  1
  V  V6  1  0.73737500  0.25801400  0.49362400  1
  V  V7  1  0.76262500  0.74198600  0.99362400  1
  As  As8  1  0.48398800  0.09040300  0.81939200  1
  As  As9  1  0.01601200  0.90959700  0.31939200  1
  As  As10  1  0.51601200  0.59040300  0.68060800  1
  As  As11  1  0.98398800  0.40959700  0.18060800  1
  O  O12  1  0.51590100  0.90202000  0.91123500  1
  O  O13  1  0.98409900  0.09798000  0.41123500  1
  O  O14  1  0.48409900  0.40202000  0.58876500  1
  O  O15  1  0.01590100  0.59798000  0.08876500  1
  O  O16  1  0.41832700  0.22703700  0.96160800  1
  O  O17  1  0.08167300  0.77296300  0.46160800  1
  O  O18  1  0.58167300  0.72703700  0.53839200  1
  O  O19  1  0.91832700  0.27296300  0.03839200  1
  O  O20  1  0.71537900  0.14822300  0.72418400  1
  O  O21  1  0.78462100  0.85177700  0.22418400  1
  O  O22  1  0.28462100  0.64822300  0.77581600  1
  O  O23  1  0.21537900  0.35177700  0.27581600  1
  O  O24  1  0.27737400  0.06612600  0.68296800  1
  O  O25  1  0.22262600  0.93387400  0.18296800  1
  O  O26  1  0.72262600  0.56612600  0.81703200  1
  O  O27  1  0.77737400  0.43387400  0.31703200  1
  O  O28  1  0.00361800  0.84622100  0.89598200  1
  O  O29  1  0.49638200  0.15377900  0.39598200  1
  O  O30  1  0.99638200  0.34622100  0.60401800  1
  O  O31  1  0.50361800  0.65377900  0.10401800  1
