# generated using pymatgen
data_CaSn3(P2O7)2
_symmetry_space_group_name_H-M   'P 1'
_cell_length_a   8.31367100
_cell_length_b   8.34486500
_cell_length_c   10.11145686
_cell_angle_alpha   71.68844012
_cell_angle_beta   90.00000000
_cell_angle_gamma   90.00000000
_symmetry_Int_Tables_number   1
_chemical_formula_structural   CaSn3(P2O7)2
_chemical_formula_sum   'Ca2 Sn6 P8 O28'
_cell_volume   665.97476956
_cell_formula_units_Z   2
loop_
 _symmetry_equiv_pos_site_id
 _symmetry_equiv_pos_as_xyz
  1  'x, y, z'
loop_
 _atom_site_type_symbol
 _atom_site_label
 _atom_site_symmetry_multiplicity
 _atom_site_fract_x
 _atom_site_fract_y
 _atom_site_fract_z
 _atom_site_occupancy
  Ca  Ca0  1  0.00000000  0.50000000  0.00000000  1
  Ca  Ca1  1  0.50000000  0.50000000  0.50000000  1
  Sn  Sn2  1  0.11869900  0.79661900  0.53736900  1
  Sn  Sn3  1  0.61869900  0.20338100  0.96263100  1
  Sn  Sn4  1  0.88130100  0.20338100  0.46263100  1
  Sn  Sn5  1  0.38130100  0.79661900  0.03736900  1
  Sn  Sn6  1  0.00000000  0.00000000  0.00000000  1
  Sn  Sn7  1  0.50000000  0.00000000  0.50000000  1
  P  P8  1  0.94814900  0.40953700  0.70764100  1
  P  P9  1  0.44814900  0.59046300  0.79235900  1
  P  P10  1  0.05185100  0.59046300  0.29235900  1
  P  P11  1  0.55185100  0.40953700  0.20764100  1
  P  P12  1  0.20535200  0.17548800  0.67523500  1
  P  P13  1  0.70535200  0.82451200  0.82476500  1
  P  P14  1  0.79464800  0.82451200  0.32476500  1
  P  P15  1  0.29464800  0.17548800  0.17523500  1
  O  O16  1  0.36594200  0.22458600  0.59883000  1
  O  O17  1  0.86594200  0.77541400  0.90117000  1
  O  O18  1  0.63405800  0.77541400  0.40117000  1
  O  O19  1  0.13405800  0.22458600  0.09882900  1
  O  O20  1  0.42610900  0.67917400  0.63435900  1
  O  O21  1  0.92610900  0.32082600  0.86564100  1
  O  O22  1  0.57389100  0.32082600  0.36564100  1
  O  O23  1  0.07389100  0.67917400  0.13435900  1
  O  O24  1  0.82279000  0.36094800  0.61472300  1
  O  O25  1  0.32279000  0.63905200  0.88527700  1
  O  O26  1  0.17721000  0.63905200  0.38527700  1
  O  O27  1  0.67721000  0.36094800  0.11472300  1
  O  O28  1  0.12505700  0.35738100  0.66620000  1
  O  O29  1  0.62505700  0.64261900  0.83380000  1
  O  O30  1  0.87494300  0.64261900  0.33380000  1
  O  O31  1  0.37494300  0.35738100  0.16620000  1
  O  O32  1  0.53531700  0.59920500  0.18424300  1
  O  O33  1  0.03531700  0.40079500  0.31575700  1
  O  O34  1  0.46468300  0.40079500  0.81575700  1
  O  O35  1  0.96468300  0.59920500  0.68424300  1
  O  O36  1  0.78337700  0.93305600  0.17292300  1
  O  O37  1  0.28337700  0.06694400  0.32707700  1
  O  O38  1  0.21662300  0.06694400  0.82707700  1
  O  O39  1  0.71662300  0.93305600  0.67292300  1
  O  O40  1  0.41487500  0.09605300  0.09581300  1
  O  O41  1  0.91487500  0.90394700  0.40418700  1
  O  O42  1  0.58512500  0.90394700  0.90418700  1
  O  O43  1  0.08512500  0.09605300  0.59581300  1
