# generated using pymatgen
data_Mg(AgO2)2
_symmetry_space_group_name_H-M   'P 1'
_cell_length_a   3.12761500
_cell_length_b   9.54401600
_cell_length_c   11.02997700
_cell_angle_alpha   90.00000000
_cell_angle_beta   90.00000000
_cell_angle_gamma   90.00000000
_symmetry_Int_Tables_number   1
_chemical_formula_structural   Mg(AgO2)2
_chemical_formula_sum   'Mg4 Ag8 O16'
_cell_volume   329.24489730
_cell_formula_units_Z   4
loop_
 _symmetry_equiv_pos_site_id
 _symmetry_equiv_pos_as_xyz
  1  'x, y, z'
loop_
 _atom_site_type_symbol
 _atom_site_label
 _atom_site_symmetry_multiplicity
 _atom_site_fract_x
 _atom_site_fract_y
 _atom_site_fract_z
 _atom_site_occupancy
  Mg  Mg0  1  0.25000000  0.75019200  0.34152400  1
  Mg  Mg1  1  0.75000000  0.24980800  0.65847600  1
  Mg  Mg2  1  0.25000000  0.25019200  0.15847600  1
  Mg  Mg3  1  0.75000000  0.74980800  0.84152400  1
  Ag  Ag4  1  0.75000000  0.91386600  0.10706600  1
  Ag  Ag5  1  0.25000000  0.58613400  0.60706600  1
  Ag  Ag6  1  0.75000000  0.41386600  0.39293400  1
  Ag  Ag7  1  0.25000000  0.08613400  0.89293400  1
  Ag  Ag8  1  0.25000000  0.06658600  0.38911200  1
  Ag  Ag9  1  0.75000000  0.93341400  0.61088800  1
  Ag  Ag10  1  0.25000000  0.56658600  0.11088800  1
  Ag  Ag11  1  0.75000000  0.43341400  0.88911200  1
  O  O12  1  0.75000000  0.37321000  0.07237000  1
  O  O13  1  0.25000000  0.62679000  0.92763000  1
  O  O14  1  0.75000000  0.87321000  0.42763000  1
  O  O15  1  0.25000000  0.12679000  0.57237000  1
  O  O16  1  0.75000000  0.52338300  0.72366600  1
  O  O17  1  0.25000000  0.47661700  0.27633400  1
  O  O18  1  0.75000000  0.02338300  0.77633400  1
  O  O19  1  0.25000000  0.97661700  0.22366600  1
  O  O20  1  0.75000000  0.12220100  0.03945500  1
  O  O21  1  0.25000000  0.87779900  0.96054500  1
  O  O22  1  0.75000000  0.62220100  0.46054500  1
  O  O23  1  0.25000000  0.37779900  0.53945500  1
  O  O24  1  0.25000000  0.27710100  0.79576000  1
  O  O25  1  0.75000000  0.72289900  0.20424000  1
  O  O26  1  0.75000000  0.22289900  0.29576000  1
  O  O27  1  0.25000000  0.77710100  0.70424000  1
