# generated using pymatgen
data_Ca2VIrO6
_symmetry_space_group_name_H-M   'P 1'
_cell_length_a   5.53764500
_cell_length_b   5.35795100
_cell_length_c   9.32338605
_cell_angle_alpha   55.29119994
_cell_angle_beta   90.00000000
_cell_angle_gamma   90.00000000
_symmetry_Int_Tables_number   1
_chemical_formula_structural   Ca2VIrO6
_chemical_formula_sum   'Ca4 V2 Ir2 O12'
_cell_volume   227.40459417
_cell_formula_units_Z   2
loop_
 _symmetry_equiv_pos_site_id
 _symmetry_equiv_pos_as_xyz
  1  'x, y, z'
loop_
 _atom_site_type_symbol
 _atom_site_label
 _atom_site_symmetry_multiplicity
 _atom_site_fract_x
 _atom_site_fract_y
 _atom_site_fract_z
 _atom_site_occupancy
  Ca  Ca0  1  0.55552100  0.73434100  0.75091100  1
  Ca  Ca1  1  0.05552100  0.26565900  0.74908900  1
  Ca  Ca2  1  0.94447900  0.73434100  0.25091100  1
  Ca  Ca3  1  0.44447900  0.26565900  0.24908900  1
  V  V4  1  0.00000000  0.00000000  0.50000000  1
  V  V5  1  0.50000000  0.00000000  0.00000000  1
  Ir  Ir6  1  0.00000000  0.50000000  0.00000000  1
  Ir  Ir7  1  0.50000000  0.50000000  0.50000000  1
  O  O8  1  0.02083000  0.15306400  0.25818400  1
  O  O9  1  0.28542100  0.75856000  0.54728200  1
  O  O10  1  0.30389200  0.33379500  0.95694200  1
  O  O11  1  0.80389200  0.66620500  0.54305800  1
  O  O12  1  0.78542100  0.24144000  0.95271800  1
  O  O13  1  0.52083000  0.84693600  0.24181600  1
  O  O14  1  0.47917000  0.15306400  0.75818400  1
  O  O15  1  0.21457900  0.75856000  0.04728200  1
  O  O16  1  0.19610800  0.33379500  0.45694200  1
  O  O17  1  0.71457900  0.24144000  0.45271800  1
  O  O18  1  0.69610800  0.66620500  0.04305800  1
  O  O19  1  0.97917000  0.84693600  0.74181600  1
