# generated using pymatgen
data_Mg(SbO2)2
_symmetry_space_group_name_H-M   'P 1'
_cell_length_a   7.20959263
_cell_length_b   7.20959263
_cell_length_c   21.27348055
_cell_angle_alpha   79.28262172
_cell_angle_beta   79.28262172
_cell_angle_gamma   53.75564444
_symmetry_Int_Tables_number   1
_chemical_formula_structural   Mg(SbO2)2
_chemical_formula_sum   'Mg8 Sb16 O32'
_cell_volume   872.19969953
_cell_formula_units_Z   8
loop_
 _symmetry_equiv_pos_site_id
 _symmetry_equiv_pos_as_xyz
  1  'x, y, z'
loop_
 _atom_site_type_symbol
 _atom_site_label
 _atom_site_symmetry_multiplicity
 _atom_site_fract_x
 _atom_site_fract_y
 _atom_site_fract_z
 _atom_site_occupancy
  Mg  Mg0  1  0.62814800  0.62814800  0.06055100  1
  Mg  Mg1  1  0.12968200  0.12968200  0.10018300  1
  Mg  Mg2  1  0.89940600  0.89940600  0.28494300  1
  Mg  Mg3  1  0.36036800  0.36036800  0.38870400  1
  Mg  Mg4  1  0.59024100  0.59024100  0.64778500  1
  Mg  Mg5  1  0.49905500  0.49905500  0.50987500  1
  Mg  Mg6  1  0.90089000  0.90089000  0.85243300  1
  Mg  Mg7  1  0.73815500  0.73815500  0.74551600  1
  Sb  Sb8  1  0.63206100  0.12840900  0.11927600  1
  Sb  Sb9  1  0.32196900  0.32196900  0.25639500  1
  Sb  Sb10  1  0.12840900  0.63206100  0.11927600  1
  Sb  Sb11  1  0.17152300  0.17152300  0.53818500  1
  Sb  Sb12  1  0.83833700  0.34806100  0.37602500  1
  Sb  Sb13  1  0.62872400  0.62872400  0.20454500  1
  Sb  Sb14  1  0.40769700  0.40769700  0.80320300  1
  Sb  Sb15  1  0.34806100  0.83833700  0.37602500  1
  Sb  Sb16  1  0.12936600  0.62065900  0.62634400  1
  Sb  Sb17  1  0.86031400  0.86031400  0.46278200  1
  Sb  Sb18  1  0.62065900  0.12936600  0.62634400  1
  Sb  Sb19  1  0.91408900  0.42318900  0.88252200  1
  Sb  Sb20  1  0.42318900  0.91408900  0.88252200  1
  Sb  Sb21  1  0.09241500  0.09241500  0.70508300  1
  Sb  Sb22  1  0.98446800  0.98446800  0.97756800  1
  Sb  Sb23  1  0.39001800  0.39001800  0.96589900  1
  O  O24  1  0.27053800  0.78451700  0.06336200  1
  O  O25  1  0.91105700  0.91105700  0.17975500  1
  O  O26  1  0.78451700  0.27053800  0.06336200  1
  O  O27  1  0.85429400  0.85429400  0.05899500  1
  O  O28  1  0.47306100  0.47306100  0.20009100  1
  O  O29  1  0.56099200  0.12070200  0.31608400  1
  O  O30  1  0.45647800  0.87733100  0.13646900  1
  O  O31  1  0.20751400  0.20751400  0.44374700  1
  O  O32  1  0.12070200  0.56099200  0.31608400  1
  O  O33  1  0.28379300  0.28379300  0.05003300  1
  O  O34  1  0.00181700  0.00181700  0.34187200  1
  O  O35  1  0.87733100  0.45647800  0.13646900  1
  O  O36  1  0.74080500  0.32174800  0.58082900  1
  O  O37  1  0.62560100  0.62560100  0.43644400  1
  O  O38  1  0.71100000  0.20562000  0.44911900  1
  O  O39  1  0.44121300  0.44121300  0.70807100  1
  O  O40  1  0.32174800  0.74080500  0.58082900  1
  O  O41  1  0.51758500  0.51758500  0.34180700  1
  O  O42  1  0.32709700  0.32709700  0.54051700  1
  O  O43  1  0.20562000  0.71100000  0.44911900  1
  O  O44  1  0.88403500  0.88403500  0.68361600  1
  O  O45  1  0.03884600  0.57937000  0.81204000  1
  O  O46  1  0.89772000  0.45533700  0.69223800  1
  O  O47  1  0.69210400  0.69210400  0.94153000  1
  O  O48  1  0.57937000  0.03884600  0.81204000  1
  O  O49  1  0.84987400  0.84987400  0.56166800  1
  O  O50  1  0.63173700  0.63173700  0.82871500  1
  O  O51  1  0.45533700  0.89772000  0.69223800  1
  O  O52  1  0.27274400  0.27274400  0.91622500  1
  O  O53  1  0.10389600  0.71481100  0.92769600  1
  O  O54  1  0.04946600  0.04946600  0.79925600  1
  O  O55  1  0.71481100  0.10389600  0.92769600  1
