# generated using pymatgen
data_Ca(AgO2)2
_symmetry_space_group_name_H-M   'P 1'
_cell_length_a   6.59461195
_cell_length_b   6.59461195
_cell_length_c   16.23099457
_cell_angle_alpha   89.58030243
_cell_angle_beta   89.58030243
_cell_angle_gamma   59.82260741
_symmetry_Int_Tables_number   1
_chemical_formula_structural   Ca(AgO2)2
_chemical_formula_sum   'Ca6 Ag12 O24'
_cell_volume   610.18237012
_cell_formula_units_Z   6
loop_
 _symmetry_equiv_pos_site_id
 _symmetry_equiv_pos_as_xyz
  1  'x, y, z'
loop_
 _atom_site_type_symbol
 _atom_site_label
 _atom_site_symmetry_multiplicity
 _atom_site_fract_x
 _atom_site_fract_y
 _atom_site_fract_z
 _atom_site_occupancy
  Ca  Ca0  1  0.84780200  0.84780200  0.95995400  1
  Ca  Ca1  1  0.16630100  0.16630100  0.66842500  1
  Ca  Ca2  1  0.33536100  0.33536100  0.83398500  1
  Ca  Ca3  1  0.83397000  0.83397000  0.33209400  1
  Ca  Ca4  1  0.00035800  0.00035800  0.49996200  1
  Ca  Ca5  1  0.66362300  0.66362300  0.16561900  1
  Ag  Ag6  1  0.83171500  0.33778700  0.83373800  1
  Ag  Ag7  1  0.50602200  0.50602200  0.62011500  1
  Ag  Ag8  1  0.49976100  0.49976100  0.99951300  1
  Ag  Ag9  1  0.33778700  0.83171500  0.83373800  1
  Ag  Ag10  1  0.50001500  0.99994500  0.50018500  1
  Ag  Ag11  1  0.17251900  0.17251900  0.29266500  1
  Ag  Ag12  1  0.99994500  0.50001500  0.50018500  1
  Ag  Ag13  1  0.16618400  0.66388500  0.16648700  1
  Ag  Ag14  1  0.82955300  0.82955300  0.70676600  1
  Ag  Ag15  1  0.66388500  0.16618400  0.16648700  1
  Ag  Ag16  1  0.49302400  0.49302400  0.37946600  1
  Ag  Ag17  1  0.16487200  0.16487200  0.04309900  1
  O  O18  1  0.66179700  0.22081000  0.91538200  1
  O  O19  1  0.51380700  0.51380700  0.76017000  1
  O  O20  1  0.22081000  0.66179700  0.91538200  1
  O  O21  1  0.65560700  0.65560700  0.91165800  1
  O  O22  1  0.33978800  0.86706300  0.57430400  1
  O  O23  1  0.00308900  0.00308900  0.76417800  1
  O  O24  1  0.18038800  0.18038800  0.42789300  1
  O  O25  1  0.47451200  0.99046700  0.76196000  1
  O  O26  1  0.86706300  0.33978800  0.57430400  1
  O  O27  1  0.15097400  0.15097400  0.90398300  1
  O  O28  1  0.32346100  0.32346100  0.57177600  1
  O  O29  1  0.99046700  0.47451200  0.76196000  1
  O  O30  1  0.00730900  0.52655000  0.23895300  1
  O  O31  1  0.67651500  0.67651500  0.42849800  1
  O  O32  1  0.13375400  0.65987100  0.42614300  1
  O  O33  1  0.52655000  0.00730900  0.23895300  1
  O  O34  1  0.84573900  0.84573900  0.09970400  1
  O  O35  1  0.82038000  0.82038000  0.57229200  1
  O  O36  1  0.99831800  0.99831800  0.24070300  1
  O  O37  1  0.65987100  0.13375400  0.42614300  1
  O  O38  1  0.34314200  0.34314200  0.08338400  1
  O  O39  1  0.78245000  0.33121500  0.08168000  1
  O  O40  1  0.48302300  0.48302300  0.23637600  1
  O  O41  1  0.33121500  0.78245000  0.08168000  1
