# generated using pymatgen
data_BiO2
_symmetry_space_group_name_H-M   'P 1'
_cell_length_a   6.98719200
_cell_length_b   7.12040636
_cell_length_c   16.58817220
_cell_angle_alpha   90.34154136
_cell_angle_beta   91.17021150
_cell_angle_gamma   119.24631289
_symmetry_Int_Tables_number   1
_chemical_formula_structural   BiO2
_chemical_formula_sum   'Bi12 O24'
_cell_volume   719.81683470
_cell_formula_units_Z   12
loop_
 _symmetry_equiv_pos_site_id
 _symmetry_equiv_pos_as_xyz
  1  'x, y, z'
loop_
 _atom_site_type_symbol
 _atom_site_label
 _atom_site_symmetry_multiplicity
 _atom_site_fract_x
 _atom_site_fract_y
 _atom_site_fract_z
 _atom_site_occupancy
  Bi  Bi0  1  0.34643300  0.66920300  0.83379700  1
  Bi  Bi1  1  0.50355600  0.00453300  0.50176500  1
  Bi  Bi2  1  0.15341100  0.80594500  0.66839600  1
  Bi  Bi3  1  0.36017200  0.20955000  0.83841000  1
  Bi  Bi4  1  0.00204000  0.00037500  0.50100500  1
  Bi  Bi5  1  0.83184500  0.66796000  0.83103100  1
  Bi  Bi6  1  0.83821500  0.18607800  0.33325800  1
  Bi  Bi7  1  0.00221700  0.50014200  0.50030500  1
  Bi  Bi8  1  0.66472300  0.33056200  0.16619400  1
  Bi  Bi9  1  0.66456200  0.83367900  0.16634200  1
  Bi  Bi10  1  0.16522700  0.33266200  0.16191100  1
  Bi  Bi11  1  0.15363300  0.82585100  0.04770800  1
  O  O12  1  0.68877800  0.38399800  0.89336100  1
  O  O13  1  0.66725200  0.81529500  0.89034700  1
  O  O14  1  0.50242700  0.50547500  0.76426000  1
  O  O15  1  0.20902100  0.38085200  0.89389900  1
  O  O16  1  0.29062400  0.67247200  0.58152300  1
  O  O17  1  0.43444700  0.92706300  0.75035900  1
  O  O18  1  0.15866100  0.79462600  0.90262000  1
  O  O19  1  0.02557600  0.54792000  0.75551000  1
  O  O20  1  0.28805400  0.08491700  0.59715800  1
  O  O21  1  0.14912800  0.79629700  0.43750900  1
  O  O22  1  0.88130500  0.67162600  0.57834100  1
  O  O23  1  0.99610800  0.92721900  0.74914300  1
  O  O24  1  0.97590900  0.05220700  0.25322200  1
  O  O25  1  0.11524800  0.32544400  0.42108600  1
  O  O26  1  0.85823200  0.20452800  0.56430100  1
  O  O27  1  0.69680600  0.91361100  0.41253400  1
  O  O28  1  0.80262200  0.17540200  0.09908600  1
  O  O29  1  0.95881300  0.44565200  0.24817900  1
  O  O30  1  0.56011000  0.05407000  0.24921600  1
  O  O31  1  0.70490000  0.32321300  0.42135300  1
  O  O32  1  0.83317600  0.64155500  0.10652100  1
  O  O33  1  0.34808000  0.15782400  0.10293300  1
  O  O34  1  0.51111200  0.48845600  0.22443000  1
  O  O35  1  0.32427900  0.67703700  0.09808600  1
