# generated using pymatgen
data_Ca(CoO2)2
_symmetry_space_group_name_H-M   'P 1'
_cell_length_a   6.18590567
_cell_length_b   6.18590567
_cell_length_c   20.06882923
_cell_angle_alpha   79.23352783
_cell_angle_beta   79.23352783
_cell_angle_gamma   58.23749080
_symmetry_Int_Tables_number   1
_chemical_formula_structural   Ca(CoO2)2
_chemical_formula_sum   'Ca8 Co16 O32'
_cell_volume   637.83119266
_cell_formula_units_Z   8
loop_
 _symmetry_equiv_pos_site_id
 _symmetry_equiv_pos_as_xyz
  1  'x, y, z'
loop_
 _atom_site_type_symbol
 _atom_site_label
 _atom_site_symmetry_multiplicity
 _atom_site_fract_x
 _atom_site_fract_y
 _atom_site_fract_z
 _atom_site_occupancy
  Ca  Ca0  1  0.65186100  0.65186100  0.02835600  1
  Ca  Ca1  1  0.12494400  0.12494400  0.12551900  1
  Ca  Ca2  1  0.90342600  0.90342600  0.28517100  1
  Ca  Ca3  1  0.37242300  0.37242300  0.37459300  1
  Ca  Ca4  1  0.62428400  0.62428400  0.62550500  1
  Ca  Ca5  1  0.50522500  0.50522500  0.49583200  1
  Ca  Ca6  1  0.87834000  0.87834000  0.87506400  1
  Ca  Ca7  1  0.74646800  0.74646800  0.75326500  1
  Co  Co8  1  0.62782300  0.12029300  0.12523800  1
  Co  Co9  1  0.24919800  0.24919800  0.24967200  1
  Co  Co10  1  0.12029300  0.62782300  0.12523800  1
  Co  Co11  1  0.14763100  0.14763100  0.53576500  1
  Co  Co12  1  0.88753200  0.36969900  0.37328900  1
  Co  Co13  1  0.61297100  0.61297100  0.22242100  1
  Co  Co14  1  0.39590000  0.39590000  0.78394600  1
  Co  Co15  1  0.36969900  0.88753200  0.37328900  1
  Co  Co16  1  0.12588200  0.62446900  0.62494300  1
  Co  Co17  1  0.85399500  0.85399500  0.46730000  1
  Co  Co18  1  0.62446900  0.12588200  0.62494300  1
  Co  Co19  1  0.87869400  0.36390300  0.87549100  1
  Co  Co20  1  0.36390300  0.87869400  0.87549100  1
  Co  Co21  1  0.10315000  0.10315000  0.71528800  1
  Co  Co22  1  0.99689800  0.99689800  0.00268000  1
  Co  Co23  1  0.36343500  0.36343500  0.97232100  1
  O  O24  1  0.24924100  0.81116000  0.06144200  1
  O  O25  1  0.91804000  0.91804000  0.17595600  1
  O  O26  1  0.81116000  0.24924100  0.06144200  1
  O  O27  1  0.83344000  0.83344000  0.06847700  1
  O  O28  1  0.41920200  0.41920200  0.18361200  1
  O  O29  1  0.49805400  0.06786400  0.30846800  1
  O  O30  1  0.44279100  0.97920500  0.19048000  1
  O  O31  1  0.16965400  0.16965400  0.43481300  1
  O  O32  1  0.06786400  0.49805400  0.30846800  1
  O  O33  1  0.32959100  0.32959100  0.07098500  1
  O  O34  1  0.09078400  0.09078400  0.31693500  1
  O  O35  1  0.97920500  0.44279100  0.19048000  1
  O  O36  1  0.80478300  0.28434900  0.56758000  1
  O  O37  1  0.70199900  0.70199900  0.42279300  1
  O  O38  1  0.72298100  0.18916900  0.42727400  1
  O  O39  1  0.41812800  0.41812800  0.68363800  1
  O  O40  1  0.28434900  0.80478300  0.56758000  1
  O  O41  1  0.58165200  0.58165200  0.32132900  1
  O  O42  1  0.31122200  0.31122200  0.57056500  1
  O  O43  1  0.18916900  0.72298100  0.42727400  1
  O  O44  1  0.93993400  0.93993400  0.67876900  1
  O  O45  1  0.05904100  0.52460300  0.82121100  1
  O  O46  1  0.96756900  0.44512500  0.68163600  1
  O  O47  1  0.66891900  0.66891900  0.92014000  1
  O  O48  1  0.52460300  0.05904100  0.82121100  1
  O  O49  1  0.83135400  0.83135400  0.56561200  1
  O  O50  1  0.54695400  0.54695400  0.82271900  1
  O  O51  1  0.44512500  0.96756900  0.68163600  1
  O  O52  1  0.16409000  0.16409000  0.93629300  1
  O  O53  1  0.18890800  0.73246500  0.94276600  1
  O  O54  1  0.07923200  0.07923200  0.81502500  1
  O  O55  1  0.73246500  0.18890800  0.94276600  1
