# generated using pymatgen
data_Fe3(AsO4)4
_symmetry_space_group_name_H-M   'P 1'
_cell_length_a   4.99892500
_cell_length_b   9.53397113
_cell_length_c   14.80842156
_cell_angle_alpha   102.92177073
_cell_angle_beta   90.00000000
_cell_angle_gamma   90.00000000
_symmetry_Int_Tables_number   1
_chemical_formula_structural   Fe3(AsO4)4
_chemical_formula_sum   'Fe6 As8 O32'
_cell_volume   687.89099895
_cell_formula_units_Z   2
loop_
 _symmetry_equiv_pos_site_id
 _symmetry_equiv_pos_as_xyz
  1  'x, y, z'
loop_
 _atom_site_type_symbol
 _atom_site_label
 _atom_site_symmetry_multiplicity
 _atom_site_fract_x
 _atom_site_fract_y
 _atom_site_fract_z
 _atom_site_occupancy
  Fe  Fe0  1  0.04156200  0.32841400  0.12813100  1
  Fe  Fe1  1  0.95843800  0.67158600  0.87186900  1
  Fe  Fe2  1  0.54156200  0.17158600  0.37186900  1
  Fe  Fe3  1  0.45843800  0.82841400  0.62813100  1
  Fe  Fe4  1  0.50000000  0.50000000  0.00000000  1
  Fe  Fe5  1  0.00000000  0.00000000  0.50000000  1
  As  As6  1  0.44625700  0.89030900  0.85580300  1
  As  As7  1  0.05507400  0.34739900  0.89630600  1
  As  As8  1  0.55507400  0.15260100  0.60369400  1
  As  As9  1  0.44492600  0.84739900  0.39630600  1
  As  As10  1  0.55374300  0.10969100  0.14419700  1
  As  As11  1  0.94492600  0.65260100  0.10369400  1
  As  As12  1  0.05374300  0.39030900  0.35580300  1
  As  As13  1  0.94625700  0.60969100  0.64419700  1
  O  O14  1  0.99291000  0.55460000  0.74565000  1
  O  O15  1  0.71625000  0.17268700  0.50146300  1
  O  O16  1  0.12941800  0.21569600  0.80238100  1
  O  O17  1  0.10393900  0.77234400  0.65487400  1
  O  O18  1  0.87058200  0.78430400  0.19761900  1
  O  O19  1  0.50709000  0.05460000  0.24565000  1
  O  O20  1  0.62941800  0.28430400  0.69761900  1
  O  O21  1  0.78297700  0.87467100  0.40552200  1
  O  O22  1  0.92280600  0.52852700  0.44209700  1
  O  O23  1  0.00709000  0.44540000  0.25435000  1
  O  O24  1  0.39606100  0.27234400  0.15487400  1
  O  O25  1  0.21702300  0.12532900  0.59447800  1
  O  O26  1  0.21303400  0.51703900  0.90079000  1
  O  O27  1  0.07719400  0.47147300  0.55790300  1
  O  O28  1  0.87860600  0.14525700  0.11748900  1
  O  O29  1  0.37860600  0.35474300  0.38251100  1
  O  O30  1  0.71303400  0.98296100  0.59921000  1
  O  O31  1  0.37058200  0.71569600  0.30238100  1
  O  O32  1  0.42280600  0.97147300  0.05790300  1
  O  O33  1  0.28297700  0.62532900  0.09447800  1
  O  O34  1  0.62139400  0.64525700  0.61748900  1
  O  O35  1  0.12139400  0.85474300  0.88251100  1
  O  O36  1  0.28375000  0.82731300  0.49853700  1
  O  O37  1  0.21625000  0.32731300  0.99853700  1
  O  O38  1  0.78696600  0.48296100  0.09921000  1
  O  O39  1  0.49291000  0.94540000  0.75435000  1
  O  O40  1  0.89606100  0.22765600  0.34512600  1
  O  O41  1  0.57719400  0.02852700  0.94209700  1
  O  O42  1  0.78375000  0.67268700  0.00146300  1
  O  O43  1  0.71702300  0.37467100  0.90552200  1
  O  O44  1  0.28696600  0.01703900  0.40079000  1
  O  O45  1  0.60393900  0.72765600  0.84512600  1
