# generated using pymatgen
data_Ca2YMnO5
_symmetry_space_group_name_H-M   'P 1'
_cell_length_a   9.11022831
_cell_length_b   9.11022831
_cell_length_c   9.11022831
_cell_angle_alpha   145.33061735
_cell_angle_beta   144.14061847
_cell_angle_gamma   50.73520568
_symmetry_Int_Tables_number   1
_chemical_formula_structural   Ca2YMnO5
_chemical_formula_sum   'Ca4 Y2 Mn2 O10'
_cell_volume   250.66841959
_cell_formula_units_Z   2
loop_
 _symmetry_equiv_pos_site_id
 _symmetry_equiv_pos_as_xyz
  1  'x, y, z'
loop_
 _atom_site_type_symbol
 _atom_site_label
 _atom_site_symmetry_multiplicity
 _atom_site_fract_x
 _atom_site_fract_y
 _atom_site_fract_z
 _atom_site_occupancy
  Ca  Ca0  1  0.87424000  0.89247200  0.96537700  1
  Ca  Ca1  1  0.57290400  0.59113700  0.96537700  1
  Ca  Ca2  1  0.12576000  0.09113700  0.01823200  1
  Ca  Ca3  1  0.42709600  0.39247200  0.01823200  1
  Y  Y4  1  0.21018300  0.71166000  0.42184400  1
  Y  Y5  1  0.78981700  0.21166000  0.50147700  1
  Mn  Mn6  1  0.00000000  0.51272000  0.51272000  1
  Mn  Mn7  1  0.50000000  0.01272000  0.51272000  1
  O  O8  1  0.17227500  0.30278600  0.97506100  1
  O  O9  1  0.82772500  0.80278600  0.13051100  1
  O  O10  1  0.79537700  0.42339900  0.47910600  1
  O  O11  1  0.20462300  0.68372900  0.62802300  1
  O  O12  1  0.44429300  0.92339900  0.62802300  1
  O  O13  1  0.55570700  0.18372900  0.47910600  1
  O  O14  1  0.76785300  0.77384300  0.51111500  1
  O  O15  1  0.23214700  0.74326200  0.00599100  1
  O  O16  1  0.23727100  0.24326200  0.51111500  1
  O  O17  1  0.76272900  0.27384300  0.00599100  1
