# generated using pymatgen
data_Zn(NiO2)2
_symmetry_space_group_name_H-M   'P 1'
_cell_length_a   5.89618624
_cell_length_b   5.90335062
_cell_length_c   23.50044271
_cell_angle_alpha   59.84455000
_cell_angle_beta   60.61260317
_cell_angle_gamma   60.16127298
_symmetry_Int_Tables_number   1
_chemical_formula_structural   Zn(NiO2)2
_chemical_formula_sum   'Zn8 Ni16 O32'
_cell_volume   581.05066527
_cell_formula_units_Z   8
loop_
 _symmetry_equiv_pos_site_id
 _symmetry_equiv_pos_as_xyz
  1  'x, y, z'
loop_
 _atom_site_type_symbol
 _atom_site_label
 _atom_site_symmetry_multiplicity
 _atom_site_fract_x
 _atom_site_fract_y
 _atom_site_fract_z
 _atom_site_occupancy
  Zn  Zn0  1  0.14057711  0.12267246  0.02851596  1
  Zn  Zn1  1  0.99841785  0.50064582  0.12530616  1
  Zn  Zn2  1  0.13836908  0.11770845  0.28170882  1
  Zn  Zn3  1  0.00011979  0.50026388  0.37495168  1
  Zn  Zn4  1  0.99945237  0.49956229  0.62530014  1
  Zn  Zn5  1  0.50025195  0.50214446  0.49903687  1
  Zn  Zn6  1  0.99843981  0.50107844  0.87482627  1
  Zn  Zn7  1  0.50052118  0.49826219  0.75071709  1
  Ni  Ni8  1  0.49748212  0.50201129  0.12529203  1
  Ni  Ni9  1  0.49977033  0.50113198  0.24972472  1
  Ni  Ni10  1  0.49812654  -0.00023968  0.12544000  1
  Ni  Ni11  1  0.12936493  0.11855685  0.53328306  1
  Ni  Ni12  1  0.50437583  0.49792987  0.37365695  1
  Ni  Ni13  1  0.86446785  0.88169997  0.21854981  1
  Ni  Ni14  1  0.13239529  0.11985346  0.78185642  1
  Ni  Ni15  1  0.50309366  0.00438427  0.37378147  1
  Ni  Ni16  1  0.49977678  0.50009405  0.62521757  1
  Ni  Ni17  1  0.87111999  0.88055041  0.46697875  1
  Ni  Ni18  1  0.49957657  0.99911661  0.62525147  1
  Ni  Ni19  1  0.49944169  0.99625065  0.87574502  1
  Ni  Ni20  1  0.49938300  0.50126936  0.87576068  1
  Ni  Ni21  1  0.87056642  0.88018014  0.71740886  1
  Ni  Ni22  1  0.49982511  0.49841304  0.00086117  1
  Ni  Ni23  1  0.86398223  0.87890843  0.96959054  1
  O  O24  1  0.28094695  0.25756977  0.06288119  1
  O  O25  1  0.27863674  0.25307458  0.17865412  1
  O  O26  1  0.28244423  0.71002876  0.06276911  1
  O  O27  1  0.72796393  0.26316121  0.06198847  1
  O  O28  1  0.26271278  0.74283737  0.18549293  1
  O  O29  1  0.28545872  0.25327431  0.31424671  1
  O  O30  1  0.71095815  0.29067779  0.18803299  1
  O  O31  1  0.27884088  0.25437472  0.43111479  1
  O  O32  1  0.28521953  0.70536374  0.31325277  1
  O  O33  1  0.71876314  0.74821451  0.07129592  1
  O  O34  1  0.72912976  0.25406257  0.31619495  1
  O  O35  1  0.72064909  0.74336490  0.18729438  1
  O  O36  1  0.27082738  0.24309207  0.56776561  1
  O  O37  1  0.27026125  0.75326476  0.42875952  1
  O  O38  1  0.72976096  0.28139476  0.43233967  1
  O  O39  1  0.27023175  0.24606499  0.68401499  1
  O  O40  1  0.26916841  0.71541034  0.56778542  1
  O  O41  1  0.72414345  0.74560896  0.31911308  1
  O  O42  1  0.72362690  0.24591266  0.57061404  1
  O  O43  1  0.72824330  0.76291355  0.43139065  1
  O  O44  1  0.27745930  0.75300889  0.67938022  1
  O  O45  1  0.26509519  0.24141389  0.81613609  1
  O  O46  1  0.73107184  0.28389026  0.68200845  1
  O  O47  1  0.28462840  0.25520706  0.92614950  1
  O  O48  1  0.26522322  0.72886989  0.81615038  1
  O  O49  1  0.72325464  0.75638547  0.56675891  1
  O  O50  1  0.75078287  0.24328547  0.81571330  1
  O  O51  1  0.73044384  0.75780102  0.68188934  1
  O  O52  1  0.26974472  0.73131983  0.94180935  1
  O  O53  1  0.71554912  0.28523950  0.93926064  1
  O  O54  1  0.71409541  0.74947700  0.82175292  1
  O  O55  1  0.71576767  0.74198772  0.93922508  1
