# generated using pymatgen
data_Mg(BiO2)2
_symmetry_space_group_name_H-M   'P 1'
_cell_length_a   5.86871293
_cell_length_b   5.86871293
_cell_length_c   11.18433200
_cell_angle_alpha   90.00000000
_cell_angle_beta   90.00000000
_cell_angle_gamma   147.59328411
_symmetry_Int_Tables_number   1
_chemical_formula_structural   Mg(BiO2)2
_chemical_formula_sum   'Mg2 Bi4 O8'
_cell_volume   206.44312016
_cell_formula_units_Z   2
loop_
 _symmetry_equiv_pos_site_id
 _symmetry_equiv_pos_as_xyz
  1  'x, y, z'
loop_
 _atom_site_type_symbol
 _atom_site_label
 _atom_site_symmetry_multiplicity
 _atom_site_fract_x
 _atom_site_fract_y
 _atom_site_fract_z
 _atom_site_occupancy
  Mg  Mg0  1  0.61115000  0.38885000  0.75000000  1
  Mg  Mg1  1  0.38885000  0.61115000  0.25000000  1
  Bi  Bi2  1  0.13201000  0.86799000  0.08005700  1
  Bi  Bi3  1  0.86799000  0.13201000  0.91994300  1
  Bi  Bi4  1  0.13201000  0.86799000  0.41994300  1
  Bi  Bi5  1  0.86799000  0.13201000  0.58005700  1
  O  O6  1  0.78346000  0.21654000  0.37585400  1
  O  O7  1  0.21654000  0.78346000  0.62414600  1
  O  O8  1  0.21654000  0.78346000  0.87585400  1
  O  O9  1  0.78346000  0.21654000  0.12414600  1
  O  O10  1  0.00774000  0.99226000  0.25000000  1
  O  O11  1  0.99226000  0.00774000  0.75000000  1
  O  O12  1  0.50000000  0.50000000  0.00000000  1
  O  O13  1  0.50000000  0.50000000  0.50000000  1
