# generated using pymatgen
data_AlNi(WO4)2
_symmetry_space_group_name_H-M   'P 1'
_cell_length_a   5.03761000
_cell_length_b   5.52142785
_cell_length_c   5.66812456
_cell_angle_alpha   108.55116815
_cell_angle_beta   91.95738080
_cell_angle_gamma   111.82213392
_symmetry_Int_Tables_number   1
_chemical_formula_structural   AlNi(WO4)2
_chemical_formula_sum   'Al1 Ni1 W2 O8'
_cell_volume   136.65876142
_cell_formula_units_Z   1
loop_
 _symmetry_equiv_pos_site_id
 _symmetry_equiv_pos_as_xyz
  1  'x, y, z'
loop_
 _atom_site_type_symbol
 _atom_site_label
 _atom_site_symmetry_multiplicity
 _atom_site_fract_x
 _atom_site_fract_y
 _atom_site_fract_z
 _atom_site_occupancy
  Al  Al0  1  0.00000000  0.00000000  0.50000000  1
  Ni  Ni1  1  0.50000000  0.00000000  0.00000000  1
  W  W2  1  0.74789800  0.50069900  0.81380800  1
  W  W3  1  0.25210200  0.49930100  0.18619200  1
  O  O4  1  0.20996100  0.77727100  0.43937300  1
  O  O5  1  0.22991700  0.23638800  0.32641000  1
  O  O6  1  0.14973700  0.69594500  0.95351000  1
  O  O7  1  0.32641900  0.27891500  0.81971200  1
  O  O8  1  0.77008300  0.76361200  0.67359000  1
  O  O9  1  0.79003900  0.22272900  0.56062700  1
  O  O10  1  0.85026300  0.30405500  0.04649000  1
  O  O11  1  0.67358100  0.72108500  0.18028800  1
