# generated using pymatgen
data_Co3(AsO4)4
_symmetry_space_group_name_H-M   'P 1'
_cell_length_a   5.02790500
_cell_length_b   9.00712900
_cell_length_c   15.15061784
_cell_angle_alpha   68.84248182
_cell_angle_beta   90.00000000
_cell_angle_gamma   90.00000000
_symmetry_Int_Tables_number   1
_chemical_formula_structural   Co3(AsO4)4
_chemical_formula_sum   'Co6 As8 O32'
_cell_volume   639.87526424
_cell_formula_units_Z   2
loop_
 _symmetry_equiv_pos_site_id
 _symmetry_equiv_pos_as_xyz
  1  'x, y, z'
loop_
 _atom_site_type_symbol
 _atom_site_label
 _atom_site_symmetry_multiplicity
 _atom_site_fract_x
 _atom_site_fract_y
 _atom_site_fract_z
 _atom_site_occupancy
  Co  Co0  1  0.48162200  0.20826900  0.62917300  1
  Co  Co1  1  0.51837800  0.79173100  0.37082700  1
  Co  Co2  1  0.98162200  0.79173100  0.87082700  1
  Co  Co3  1  0.01837800  0.20826900  0.12917300  1
  Co  Co4  1  0.00000000  0.50000000  0.50000000  1
  Co  Co5  1  0.50000000  0.50000000  0.00000000  1
  As  As6  1  0.01255800  0.03222400  0.35550500  1
  As  As7  1  0.47441500  0.42416400  0.39747600  1
  As  As8  1  0.97441500  0.57583600  0.10252400  1
  As  As9  1  0.02558500  0.42416400  0.89747600  1
  As  As10  1  0.98744200  0.96777600  0.64449500  1
  As  As11  1  0.52558500  0.57583600  0.60252400  1
  As  As12  1  0.48744200  0.03222400  0.85550500  1
  As  As13  1  0.51255800  0.96777600  0.14449500  1
  O  O14  1  0.45416800  0.80411600  0.24791800  1
  O  O15  1  0.83039800  0.70872700  0.99712300  1
  O  O16  1  0.41142200  0.37441600  0.30487800  1
  O  O17  1  0.35794600  0.12545700  0.16392900  1
  O  O18  1  0.58857800  0.62558400  0.69512200  1
  O  O19  1  0.04583200  0.80411600  0.74791800  1
  O  O20  1  0.91142200  0.62558400  0.19512200  1
  O  O21  1  0.69104500  0.47037900  0.90544300  1
  O  O22  1  0.59828700  0.09687700  0.94171300  1
  O  O23  1  0.54583200  0.19588400  0.75208200  1
  O  O24  1  0.14205400  0.12545700  0.66392900  1
  O  O25  1  0.30895500  0.52962100  0.09455700  1
  O  O26  1  0.30664900  0.59518900  0.40703300  1
  O  O27  1  0.40171300  0.90312300  0.05828700  1
  O  O28  1  0.66007300  0.03412400  0.62422000  1
  O  O29  1  0.16007300  0.96587600  0.87578000  1
  O  O30  1  0.80664900  0.40481100  0.09296700  1
  O  O31  1  0.08857800  0.37441600  0.80487800  1
  O  O32  1  0.09828700  0.90312300  0.55828700  1
  O  O33  1  0.19104500  0.52962100  0.59455700  1
  O  O34  1  0.83992700  0.03412400  0.12422000  1
  O  O35  1  0.33992700  0.96587600  0.37578000  1
  O  O36  1  0.16960200  0.29127300  0.00287700  1
  O  O37  1  0.33039800  0.29127300  0.50287700  1
  O  O38  1  0.69335100  0.40481100  0.59296700  1
  O  O39  1  0.95416800  0.19588400  0.25208200  1
  O  O40  1  0.64205400  0.87454300  0.83607100  1
  O  O41  1  0.90171300  0.09687700  0.44171300  1
  O  O42  1  0.66960200  0.70872700  0.49712300  1
  O  O43  1  0.80895500  0.47037900  0.40544300  1
  O  O44  1  0.19335100  0.59518900  0.90703300  1
  O  O45  1  0.85794600  0.87454300  0.33607100  1
