# generated using pymatgen
data_V3Ni2P6WO24
_symmetry_space_group_name_H-M   'P 1'
_cell_length_a   8.55447106
_cell_length_b   8.69758504
_cell_length_c   8.69758603
_cell_angle_alpha   59.99999927
_cell_angle_beta   59.44502685
_cell_angle_gamma   59.44502490
_symmetry_Int_Tables_number   1
_chemical_formula_structural   V3Ni2P6WO24
_chemical_formula_sum   'V3 Ni2 P6 W1 O24'
_cell_volume   453.71290725
_cell_formula_units_Z   1
loop_
 _symmetry_equiv_pos_site_id
 _symmetry_equiv_pos_as_xyz
  1  'x, y, z'
loop_
 _atom_site_type_symbol
 _atom_site_label
 _atom_site_symmetry_multiplicity
 _atom_site_fract_x
 _atom_site_fract_y
 _atom_site_fract_z
 _atom_site_occupancy
  V  V0  1  0.07509100  0.64163600  0.64163600  1
  V  V1  1  0.42973200  0.85675600  0.85675600  1
  V  V2  1  0.92451900  0.35849300  0.35849300  1
  Ni  Ni3  1  0.01523300  0.99492200  0.99492200  1
  Ni  Ni4  1  0.50154200  0.49948600  0.49948600  1
  P  P5  1  0.24549900  0.25233200  0.54913300  1
  P  P6  1  0.24549900  0.95303700  0.25233200  1
  P  P7  1  0.24549900  0.54913300  0.95303700  1
  P  P8  1  0.74860600  0.46026300  0.04567500  1
  P  P9  1  0.74860600  0.04567500  0.74545500  1
  P  P10  1  0.74860600  0.74545500  0.46026300  1
  W  W11  1  0.57253400  0.14248900  0.14248900  1
  O  O12  1  0.06922200  0.10981000  0.31841800  1
  O  O13  1  0.06922200  0.50255100  0.10981000  1
  O  O14  1  0.06922200  0.31841800  0.50255100  1
  O  O15  1  0.22684900  0.09146200  0.74294000  1
  O  O16  1  0.43293500  0.17856100  0.38971700  1
  O  O17  1  0.28039600  0.40671600  0.55564800  1
  O  O18  1  0.22684900  0.93875000  0.09146200  1
  O  O19  1  0.28039600  0.75724000  0.40671600  1
  O  O20  1  0.56551200  0.61146700  0.00583000  1
  O  O21  1  0.28039600  0.55564800  0.75724000  1
  O  O22  1  0.76742800  0.25794000  0.06485000  1
  O  O23  1  0.56551200  0.00583000  0.81719200  1
  O  O24  1  0.43293500  0.99878600  0.17856100  1
  O  O25  1  0.22684900  0.74294000  0.93875000  1
  O  O26  1  0.72450700  0.43799700  0.24469200  1
  O  O27  1  0.43293500  0.38971700  0.99878600  1
  O  O28  1  0.72450700  0.24469200  0.59280300  1
  O  O29  1  0.76742800  0.06485000  0.90978200  1
  O  O30  1  0.72450700  0.59280300  0.43799700  1
  O  O31  1  0.56551200  0.81719200  0.61146700  1
  O  O32  1  0.76742800  0.90978200  0.25794000  1
  O  O33  1  0.93282800  0.68728700  0.49054100  1
  O  O34  1  0.93282800  0.49054100  0.88934400  1
  O  O35  1  0.93282800  0.88934400  0.68728700  1
