# generated using pymatgen
data_ZnMoAsO5
_symmetry_space_group_name_H-M   'P 1'
_cell_length_a   6.65026100
_cell_length_b   7.89962400
_cell_length_c   8.56671984
_cell_angle_alpha   89.89700195
_cell_angle_beta   90.00000000
_cell_angle_gamma   90.00000000
_symmetry_Int_Tables_number   1
_chemical_formula_structural   ZnMoAsO5
_chemical_formula_sum   'Zn4 Mo4 As4 O20'
_cell_volume   450.04814237
_cell_formula_units_Z   4
loop_
 _symmetry_equiv_pos_site_id
 _symmetry_equiv_pos_as_xyz
  1  'x, y, z'
loop_
 _atom_site_type_symbol
 _atom_site_label
 _atom_site_symmetry_multiplicity
 _atom_site_fract_x
 _atom_site_fract_y
 _atom_site_fract_z
 _atom_site_occupancy
  Zn  Zn0  1  0.24825600  0.96671300  0.81252700  1
  Zn  Zn1  1  0.74847000  0.51661200  0.30951600  1
  Zn  Zn2  1  0.24847000  0.48338800  0.69048400  1
  Zn  Zn3  1  0.74825700  0.03328700  0.18747300  1
  Mo  Mo4  1  0.49999200  0.00084600  0.50080500  1
  Mo  Mo5  1  0.49838500  0.50023100  0.99965300  1
  Mo  Mo6  1  0.99838500  0.49976900  0.00034700  1
  Mo  Mo7  1  0.99999200  0.99915400  0.49919500  1
  As  As8  1  0.74739500  0.36323000  0.66403900  1
  As  As9  1  0.25304500  0.13850800  0.16420900  1
  As  As10  1  0.75304500  0.86149200  0.83579100  1
  As  As11  1  0.24739500  0.63677000  0.33596100  1
  O  O12  1  0.74998600  0.16543300  0.57383600  1
  O  O13  1  0.24895900  0.33394600  0.06845800  1
  O  O14  1  0.74895900  0.66605400  0.93154200  1
  O  O15  1  0.24998600  0.83456700  0.42616400  1
  O  O16  1  0.74225900  0.52175500  0.52930500  1
  O  O17  1  0.26729900  0.97688300  0.03371700  1
  O  O18  1  0.76729900  0.02311700  0.96628300  1
  O  O19  1  0.24225900  0.47824500  0.47069500  1
  O  O20  1  0.96367200  0.37725400  0.77379400  1
  O  O21  1  0.03651300  0.12829600  0.27403700  1
  O  O22  1  0.53651300  0.87170400  0.72596300  1
  O  O23  1  0.46367200  0.62274600  0.22620600  1
  O  O24  1  0.53179400  0.37460200  0.77507100  1
  O  O25  1  0.46634200  0.13453200  0.27853400  1
  O  O26  1  0.96634200  0.86546800  0.72146600  1
  O  O27  1  0.03179400  0.62539800  0.22492900  1
  O  O28  1  0.24881600  0.09825100  0.62260900  1
  O  O29  1  0.74865300  0.39229600  0.11775700  1
  O  O30  1  0.24865300  0.60770400  0.88224300  1
  O  O31  1  0.74881600  0.90174900  0.37739100  1
