# generated using pymatgen
data_Mg(WO2)2
_symmetry_space_group_name_H-M   'P 1'
_cell_length_a   3.17600500
_cell_length_b   9.65437400
_cell_length_c   11.08450900
_cell_angle_alpha   90.00000000
_cell_angle_beta   90.00000000
_cell_angle_gamma   90.00000000
_symmetry_Int_Tables_number   1
_chemical_formula_structural   Mg(WO2)2
_chemical_formula_sum   'Mg4 W8 O16'
_cell_volume   339.87698475
_cell_formula_units_Z   4
loop_
 _symmetry_equiv_pos_site_id
 _symmetry_equiv_pos_as_xyz
  1  'x, y, z'
loop_
 _atom_site_type_symbol
 _atom_site_label
 _atom_site_symmetry_multiplicity
 _atom_site_fract_x
 _atom_site_fract_y
 _atom_site_fract_z
 _atom_site_occupancy
  Mg  Mg0  1  0.25000000  0.74721800  0.34509000  1
  Mg  Mg1  1  0.75000000  0.25278200  0.65491000  1
  Mg  Mg2  1  0.25000000  0.24721800  0.15491000  1
  Mg  Mg3  1  0.75000000  0.75278200  0.84509000  1
  W  W4  1  0.75000000  0.89532400  0.09927800  1
  W  W5  1  0.25000000  0.60467600  0.59927800  1
  W  W6  1  0.75000000  0.39532400  0.40072200  1
  W  W7  1  0.25000000  0.10467600  0.90072200  1
  W  W8  1  0.25000000  0.04853000  0.37669700  1
  W  W9  1  0.75000000  0.95147000  0.62330300  1
  W  W10  1  0.25000000  0.54853000  0.12330300  1
  W  W11  1  0.75000000  0.45147000  0.87669700  1
  O  O12  1  0.75000000  0.39859500  0.07075300  1
  O  O13  1  0.25000000  0.60140500  0.92924700  1
  O  O14  1  0.75000000  0.89859500  0.42924700  1
  O  O15  1  0.25000000  0.10140500  0.57075300  1
  O  O16  1  0.75000000  0.58083600  0.72240500  1
  O  O17  1  0.25000000  0.41916400  0.27759500  1
  O  O18  1  0.75000000  0.08083600  0.77759500  1
  O  O19  1  0.25000000  0.91916400  0.22240500  1
  O  O20  1  0.75000000  0.11621700  0.04442100  1
  O  O21  1  0.25000000  0.88378300  0.95557900  1
  O  O22  1  0.75000000  0.61621700  0.45557900  1
  O  O23  1  0.25000000  0.38378300  0.54442100  1
  O  O24  1  0.25000000  0.31221400  0.81240300  1
  O  O25  1  0.75000000  0.68778600  0.18759700  1
  O  O26  1  0.75000000  0.18778600  0.31240300  1
  O  O27  1  0.25000000  0.81221400  0.68759700  1
