# generated using pymatgen
data_Mg2BiWO6
_symmetry_space_group_name_H-M   'P 1'
_cell_length_a   5.35508400
_cell_length_b   5.70620905
_cell_length_c   5.75101818
_cell_angle_alpha   70.70399716
_cell_angle_beta   65.84844147
_cell_angle_gamma   64.34637367
_symmetry_Int_Tables_number   1
_chemical_formula_structural   Mg2BiWO6
_chemical_formula_sum   'Mg2 Bi1 W1 O6'
_cell_volume   142.01292722
_cell_formula_units_Z   1
loop_
 _symmetry_equiv_pos_site_id
 _symmetry_equiv_pos_as_xyz
  1  'x, y, z'
loop_
 _atom_site_type_symbol
 _atom_site_label
 _atom_site_symmetry_multiplicity
 _atom_site_fract_x
 _atom_site_fract_y
 _atom_site_fract_z
 _atom_site_occupancy
  Mg  Mg0  1  0.74853100  0.93384800  0.65283100  1
  Mg  Mg1  1  0.26005300  0.33040700  0.06440000  1
  Bi  Bi2  1  0.48976900  0.53903300  0.47429000  1
  W  W3  1  0.99720800  0.95987100  0.04916500  1
  O  O4  1  0.94868300  0.16140900  0.30670300  1
  O  O5  1  0.07343400  0.69415600  0.81520600  1
  O  O6  1  0.32342100  0.08664200  0.83034300  1
  O  O7  1  0.71061800  0.19882000  0.89272300  1
  O  O8  1  0.27590800  0.61641000  0.19462700  1
  O  O9  1  0.68067800  0.83436900  0.37156800  1
