# generated using pymatgen
data_YTe(WO4)2
_symmetry_space_group_name_H-M   'P 1'
_cell_length_a   5.16735600
_cell_length_b   6.06340081
_cell_length_c   6.60798607
_cell_angle_alpha   109.82122881
_cell_angle_beta   112.93421284
_cell_angle_gamma   90.77019085
_symmetry_Int_Tables_number   1
_chemical_formula_structural   YTe(WO4)2
_chemical_formula_sum   'Y1 Te1 W2 O8'
_cell_volume   176.82719055
_cell_formula_units_Z   1
loop_
 _symmetry_equiv_pos_site_id
 _symmetry_equiv_pos_as_xyz
  1  'x, y, z'
loop_
 _atom_site_type_symbol
 _atom_site_label
 _atom_site_symmetry_multiplicity
 _atom_site_fract_x
 _atom_site_fract_y
 _atom_site_fract_z
 _atom_site_occupancy
  Y  Y0  1  0.50000000  0.50000000  0.00000000  1
  Te  Te1  1  0.00000000  0.00000000  0.00000000  1
  W  W2  1  0.74949500  0.17582700  0.49898200  1
  W  W3  1  0.25050500  0.82417300  0.50101800  1
  O  O4  1  0.01893800  0.42005200  0.74036800  1
  O  O5  1  0.55466300  0.29702600  0.27494300  1
  O  O6  1  0.02662600  0.97164700  0.67680100  1
  O  O7  1  0.49351500  0.82249100  0.33097000  1
  O  O8  1  0.44533700  0.70297400  0.72505700  1
  O  O9  1  0.98106200  0.57994800  0.25963200  1
  O  O10  1  0.97337400  0.02835300  0.32319900  1
  O  O11  1  0.50648500  0.17750900  0.66903000  1
