# generated using pymatgen
data_Ca(FeO2)2
_symmetry_space_group_name_H-M   'P 1'
_cell_length_a   6.26974700
_cell_length_b   6.32113869
_cell_length_c   15.28387872
_cell_angle_alpha   90.33766010
_cell_angle_beta   89.97749987
_cell_angle_gamma   119.63578319
_symmetry_Int_Tables_number   1
_chemical_formula_structural   Ca(FeO2)2
_chemical_formula_sum   'Ca6 Fe12 O24'
_cell_volume   526.48064482
_cell_formula_units_Z   6
loop_
 _symmetry_equiv_pos_site_id
 _symmetry_equiv_pos_as_xyz
  1  'x, y, z'
loop_
 _atom_site_type_symbol
 _atom_site_label
 _atom_site_symmetry_multiplicity
 _atom_site_fract_x
 _atom_site_fract_y
 _atom_site_fract_z
 _atom_site_occupancy
  Ca  Ca0  1  0.84186700  0.17959800  0.04099600  1
  Ca  Ca1  1  0.16018100  0.82583400  0.33108300  1
  Ca  Ca2  1  0.33431800  0.16614900  0.16739500  1
  Ca  Ca3  1  0.83847900  0.17234500  0.66883200  1
  Ca  Ca4  1  0.00233800  0.50016900  0.50054300  1
  Ca  Ca5  1  0.66346300  0.82874600  0.83262200  1
  Fe  Fe6  1  0.82394400  0.66018300  0.16406200  1
  Fe  Fe7  1  0.50739200  0.51363700  0.38124400  1
  Fe  Fe8  1  0.49827400  0.50282900  0.00575500  1
  Fe  Fe9  1  0.34035000  0.65952600  0.16718100  1
  Fe  Fe10  1  0.50033700  0.00093200  0.49910900  1
  Fe  Fe11  1  0.17942600  0.85518000  0.71026900  1
  Fe  Fe12  1  0.00131100  0.99961100  0.49993400  1
  Fe  Fe13  1  0.16392900  0.33821700  0.83264100  1
  Fe  Fe14  1  0.82424100  0.14779200  0.28735500  1
  Fe  Fe15  1  0.65259900  0.32633600  0.83534000  1
  Fe  Fe16  1  0.49541900  0.48546200  0.62091200  1
  Fe  Fe17  1  0.15105200  0.81181000  0.95818300  1
  O  O18  1  0.66255300  0.38220200  0.08435600  1
  O  O19  1  0.51292400  0.52062900  0.25177700  1
  O  O20  1  0.22051600  0.38498800  0.08620700  1
  O  O21  1  0.64431200  0.79138200  0.08896000  1
  O  O22  1  0.35573500  0.69330200  0.42277800  1
  O  O23  1  0.99623300  0.48953500  0.23665000  1
  O  O24  1  0.18193200  0.86059100  0.57829600  1
  O  O25  1  0.49973800  0.97233000  0.24148800  1
  O  O26  1  0.83706200  0.69163400  0.42380300  1
  O  O27  1  0.14946600  0.80878200  0.08477600  1
  O  O28  1  0.33085000  0.16179100  0.42437100  1
  O  O29  1  0.97225800  0.97356200  0.24032300  1
  O  O30  1  0.02691400  0.02518900  0.75831900  1
  O  O31  1  0.66940800  0.83478900  0.57634700  1
  O  O32  1  0.16741800  0.30827200  0.57739300  1
  O  O33  1  0.50173500  0.02733100  0.75740500  1
  O  O34  1  0.84652300  0.20125600  0.89470800  1
  O  O35  1  0.82159900  0.14238600  0.41966200  1
  O  O36  1  0.02167100  0.51909800  0.75736200  1
  O  O37  1  0.64570100  0.30809400  0.57740200  1
  O  O38  1  0.33707300  0.18322900  0.91837200  1
  O  O39  1  0.80738000  0.63464700  0.92063500  1
  O  O40  1  0.49031900  0.47303000  0.75387200  1
  O  O41  1  0.32176100  0.63759500  0.92128200  1
