# generated using pymatgen
data_Mg(BiO2)2
_symmetry_space_group_name_H-M   'P 1'
_cell_length_a   3.39329400
_cell_length_b   11.16335300
_cell_length_c   11.31182800
_cell_angle_alpha   90.00000000
_cell_angle_beta   90.00000000
_cell_angle_gamma   90.00000000
_symmetry_Int_Tables_number   1
_chemical_formula_structural   Mg(BiO2)2
_chemical_formula_sum   'Mg4 Bi8 O16'
_cell_volume   428.49813894
_cell_formula_units_Z   4
loop_
 _symmetry_equiv_pos_site_id
 _symmetry_equiv_pos_as_xyz
  1  'x, y, z'
loop_
 _atom_site_type_symbol
 _atom_site_label
 _atom_site_symmetry_multiplicity
 _atom_site_fract_x
 _atom_site_fract_y
 _atom_site_fract_z
 _atom_site_occupancy
  Mg  Mg0  1  0.02267000  0.85719400  0.25000000  1
  Mg  Mg1  1  0.02267000  0.64280600  0.75000000  1
  Mg  Mg2  1  0.97733000  0.35719400  0.25000000  1
  Mg  Mg3  1  0.97733000  0.14280600  0.75000000  1
  Bi  Bi4  1  0.68885100  0.61810200  0.42052300  1
  Bi  Bi5  1  0.68885100  0.88189800  0.92052300  1
  Bi  Bi6  1  0.31114900  0.38189800  0.92052300  1
  Bi  Bi7  1  0.68885100  0.88189800  0.57947700  1
  Bi  Bi8  1  0.31114900  0.38189800  0.57947700  1
  Bi  Bi9  1  0.68885100  0.61810200  0.07947700  1
  Bi  Bi10  1  0.31114900  0.11810200  0.07947700  1
  Bi  Bi11  1  0.31114900  0.11810200  0.42052300  1
  O  O12  1  0.16939200  0.47344500  0.11935100  1
  O  O13  1  0.83060800  0.52655500  0.88064900  1
  O  O14  1  0.16518800  0.75000000  0.00000000  1
  O  O15  1  0.83060800  0.97344500  0.11935100  1
  O  O16  1  0.83060800  0.97344500  0.38064900  1
  O  O17  1  0.56588200  0.75794500  0.75000000  1
  O  O18  1  0.16939200  0.02655500  0.88064900  1
  O  O19  1  0.43411800  0.25794500  0.75000000  1
  O  O20  1  0.16518800  0.75000000  0.50000000  1
  O  O21  1  0.83481200  0.25000000  0.00000000  1
  O  O22  1  0.16939200  0.47344500  0.38064900  1
  O  O23  1  0.43411800  0.24205500  0.25000000  1
  O  O24  1  0.56588200  0.74205500  0.25000000  1
  O  O25  1  0.83481200  0.25000000  0.50000000  1
  O  O26  1  0.16939200  0.02655500  0.61935100  1
  O  O27  1  0.83060800  0.52655500  0.61935100  1
