# generated using pymatgen
data_Mg2AgWO6
_symmetry_space_group_name_H-M   'P 1'
_cell_length_a   5.40659604
_cell_length_b   5.83907661
_cell_length_c   7.66385863
_cell_angle_alpha   95.54729273
_cell_angle_beta   131.10555824
_cell_angle_gamma   120.05163694
_symmetry_Int_Tables_number   1
_chemical_formula_structural   Mg2AgWO6
_chemical_formula_sum   'Mg2 Ag1 W1 O6'
_cell_volume   119.50761508
_cell_formula_units_Z   1
loop_
 _symmetry_equiv_pos_site_id
 _symmetry_equiv_pos_as_xyz
  1  'x, y, z'
loop_
 _atom_site_type_symbol
 _atom_site_label
 _atom_site_symmetry_multiplicity
 _atom_site_fract_x
 _atom_site_fract_y
 _atom_site_fract_z
 _atom_site_occupancy
  Mg  Mg0  1  0.00945200  0.57743500  0.20925500  1
  Mg  Mg1  1  0.01859900  0.59158200  0.71153200  1
  Ag  Ag2  1  0.00117100  0.00742500  0.49409800  1
  W  W3  1  0.00646300  0.98440900  0.00783500  1
  O  O4  1  0.67269300  0.77091100  0.07072200  1
  O  O5  1  0.30060500  0.09121800  0.92323900  1
  O  O6  1  0.33565300  0.43677600  0.25586400  1
  O  O7  1  0.37456400  0.77064700  0.63018900  1
  O  O8  1  0.53312200  0.08886600  0.37970700  1
  O  O9  1  0.75345200  0.51919200  0.82698600  1
