# generated using pymatgen
data_MgTi2O4
_symmetry_space_group_name_H-M   'P 1'
_cell_length_a   5.03784850
_cell_length_b   5.03784850
_cell_length_c   10.01379600
_cell_angle_alpha   90.00000000
_cell_angle_beta   90.00000000
_cell_angle_gamma   146.42490950
_symmetry_Int_Tables_number   1
_chemical_formula_structural   MgTi2O4
_chemical_formula_sum   'Mg2 Ti4 O8'
_cell_volume   140.55203930
_cell_formula_units_Z   2
loop_
 _symmetry_equiv_pos_site_id
 _symmetry_equiv_pos_as_xyz
  1  'x, y, z'
loop_
 _atom_site_type_symbol
 _atom_site_label
 _atom_site_symmetry_multiplicity
 _atom_site_fract_x
 _atom_site_fract_y
 _atom_site_fract_z
 _atom_site_occupancy
  Mg  Mg0  1  0.88074400  0.11925600  0.75000000  1
  Mg  Mg1  1  0.11925600  0.88074400  0.25000000  1
  Ti  Ti2  1  0.62699900  0.37300100  0.56981800  1
  Ti  Ti3  1  0.37300100  0.62699900  0.06981800  1
  Ti  Ti4  1  0.37300100  0.62699900  0.43018200  1
  Ti  Ti5  1  0.62699900  0.37300100  0.93018200  1
  O  O6  1  0.27493700  0.72506300  0.88317000  1
  O  O7  1  0.72506300  0.27493700  0.11683000  1
  O  O8  1  0.00000000  0.00000000  0.00000000  1
  O  O9  1  0.27493700  0.72506300  0.61683000  1
  O  O10  1  0.46492500  0.53507500  0.25000000  1
  O  O11  1  0.00000000  0.00000000  0.50000000  1
  O  O12  1  0.53507500  0.46492500  0.75000000  1
  O  O13  1  0.72506300  0.27493700  0.38317000  1
