# generated using pymatgen
data_Ca(SnO2)2
_symmetry_space_group_name_H-M   'P 1'
_cell_length_a   5.71107584
_cell_length_b   5.71107584
_cell_length_c   11.07396800
_cell_angle_alpha   90.00000000
_cell_angle_beta   90.00000000
_cell_angle_gamma   146.18958330
_symmetry_Int_Tables_number   1
_chemical_formula_structural   Ca(SnO2)2
_chemical_formula_sum   'Ca2 Sn4 O8'
_cell_volume   200.98455171
_cell_formula_units_Z   2
loop_
 _symmetry_equiv_pos_site_id
 _symmetry_equiv_pos_as_xyz
  1  'x, y, z'
loop_
 _atom_site_type_symbol
 _atom_site_label
 _atom_site_symmetry_multiplicity
 _atom_site_fract_x
 _atom_site_fract_y
 _atom_site_fract_z
 _atom_site_occupancy
  Ca  Ca0  1  0.60983000  0.39017000  0.75000000  1
  Ca  Ca1  1  0.39017000  0.60983000  0.25000000  1
  Sn  Sn2  1  0.13146400  0.86853600  0.07300100  1
  Sn  Sn3  1  0.86853600  0.13146400  0.92699900  1
  Sn  Sn4  1  0.13146400  0.86853600  0.42699900  1
  Sn  Sn5  1  0.86853600  0.13146400  0.57300100  1
  O  O6  1  0.77332200  0.22667800  0.38881200  1
  O  O7  1  0.22667800  0.77332200  0.61118800  1
  O  O8  1  0.22667800  0.77332200  0.88881200  1
  O  O9  1  0.77332200  0.22667800  0.11118800  1
  O  O10  1  0.04394400  0.95605600  0.25000000  1
  O  O11  1  0.95605600  0.04394400  0.75000000  1
  O  O12  1  0.50000000  0.50000000  0.00000000  1
  O  O13  1  0.50000000  0.50000000  0.50000000  1
