# generated using pymatgen
data_Nb2Zn2TeO8
_symmetry_space_group_name_H-M   'P 1'
_cell_length_a   5.26814400
_cell_length_b   6.14408998
_cell_length_c   11.45584599
_cell_angle_alpha   101.07863872
_cell_angle_beta   97.10860109
_cell_angle_gamma   89.80944548
_symmetry_Int_Tables_number   1
_chemical_formula_structural   Nb2Zn2TeO8
_chemical_formula_sum   'Nb4 Zn4 Te2 O16'
_cell_volume   361.01536642
_cell_formula_units_Z   2
loop_
 _symmetry_equiv_pos_site_id
 _symmetry_equiv_pos_as_xyz
  1  'x, y, z'
loop_
 _atom_site_type_symbol
 _atom_site_label
 _atom_site_symmetry_multiplicity
 _atom_site_fract_x
 _atom_site_fract_y
 _atom_site_fract_z
 _atom_site_occupancy
  Nb  Nb0  1  0.27889900  0.99040700  0.71888600  1
  Nb  Nb1  1  0.19736500  0.31367100  0.25491000  1
  Nb  Nb2  1  0.72110100  0.00959300  0.28111400  1
  Nb  Nb3  1  0.80263500  0.68632900  0.74509000  1
  Zn  Zn4  1  0.25274500  0.87018200  0.44560900  1
  Zn  Zn5  1  0.26571500  0.42761400  0.54813300  1
  Zn  Zn6  1  0.74725500  0.12981800  0.55439100  1
  Zn  Zn7  1  0.73428500  0.57238600  0.45186700  1
  Te  Te8  1  0.33397100  0.66487600  0.02062100  1
  Te  Te9  1  0.66602900  0.33512400  0.97937900  1
  O  O10  1  0.98891500  0.97723900  0.80694600  1
  O  O11  1  0.49889800  0.21491400  0.18328100  1
  O  O12  1  0.01108500  0.02276100  0.19305400  1
  O  O13  1  0.50110200  0.78508600  0.81671900  1
  O  O14  1  0.45687200  0.24730800  0.82221500  1
  O  O15  1  0.03304800  0.47076300  0.14687500  1
  O  O16  1  0.54312800  0.75269200  0.17778500  1
  O  O17  1  0.96695200  0.52923700  0.85312500  1
  O  O18  1  0.55287500  0.89996200  0.60556500  1
  O  O19  1  0.91514200  0.30414100  0.37561500  1
  O  O20  1  0.64859900  0.44811800  0.60361600  1
  O  O21  1  0.87326700  0.83783800  0.40008600  1
  O  O22  1  0.35140100  0.55188200  0.39638400  1
  O  O23  1  0.12673300  0.16216200  0.59991400  1
  O  O24  1  0.08485800  0.69585900  0.62438500  1
  O  O25  1  0.44712500  0.10003800  0.39443500  1
