# generated using pymatgen
data_Ca2BiWO6
_symmetry_space_group_name_H-M   'P 1'
_cell_length_a   6.24032711
_cell_length_b   6.24032711
_cell_length_c   6.24032755
_cell_angle_alpha   55.85835564
_cell_angle_beta   55.85835564
_cell_angle_gamma   55.85835091
_symmetry_Int_Tables_number   1
_chemical_formula_structural   Ca2BiWO6
_chemical_formula_sum   'Ca2 Bi1 W1 O6'
_cell_volume   155.33536965
_cell_formula_units_Z   1
loop_
 _symmetry_equiv_pos_site_id
 _symmetry_equiv_pos_as_xyz
  1  'x, y, z'
loop_
 _atom_site_type_symbol
 _atom_site_label
 _atom_site_symmetry_multiplicity
 _atom_site_fract_x
 _atom_site_fract_y
 _atom_site_fract_z
 _atom_site_occupancy
  Ca  Ca0  1  0.30559300  0.30559300  0.30559300  1
  Ca  Ca1  1  0.78350500  0.78350500  0.78350500  1
  Bi  Bi2  1  0.54683000  0.54683000  0.54683000  1
  W  W3  1  0.98904300  0.98904300  0.98904300  1
  O  O4  1  0.33370000  0.75725600  0.04203200  1
  O  O5  1  0.62705000  0.15765000  0.92404400  1
  O  O6  1  0.75725600  0.04203200  0.33370000  1
  O  O7  1  0.04203200  0.33370000  0.75725600  1
  O  O8  1  0.92404400  0.62705000  0.15765000  1
  O  O9  1  0.15765000  0.92404400  0.62705000  1
