# generated using pymatgen
data_CaFeAsO5
_symmetry_space_group_name_H-M   'P 1'
_cell_length_a   5.98939900
_cell_length_b   7.70923500
_cell_length_c   9.04394100
_cell_angle_alpha   90.00000000
_cell_angle_beta   90.00000000
_cell_angle_gamma   90.00000000
_symmetry_Int_Tables_number   1
_chemical_formula_structural   CaFeAsO5
_chemical_formula_sum   'Ca4 Fe4 As4 O20'
_cell_volume   417.59207746
_cell_formula_units_Z   4
loop_
 _symmetry_equiv_pos_site_id
 _symmetry_equiv_pos_as_xyz
  1  'x, y, z'
loop_
 _atom_site_type_symbol
 _atom_site_label
 _atom_site_symmetry_multiplicity
 _atom_site_fract_x
 _atom_site_fract_y
 _atom_site_fract_z
 _atom_site_occupancy
  Ca  Ca0  1  0.97503100  0.85255000  0.67034600  1
  Ca  Ca1  1  0.52496900  0.14745000  0.17034600  1
  Ca  Ca2  1  0.02496900  0.35255000  0.82965400  1
  Ca  Ca3  1  0.47503100  0.64745000  0.32965400  1
  Fe  Fe4  1  0.25404500  0.75804600  0.99517500  1
  Fe  Fe5  1  0.24595500  0.24195400  0.49517500  1
  Fe  Fe6  1  0.74595500  0.25804600  0.50482500  1
  Fe  Fe7  1  0.75404500  0.74195400  0.00482500  1
  As  As8  1  0.48121400  0.11121500  0.81467400  1
  As  As9  1  0.01878600  0.88878500  0.31467400  1
  As  As10  1  0.51878600  0.61121500  0.68532600  1
  As  As11  1  0.98121400  0.38878500  0.18532600  1
  O  O12  1  0.50846000  0.92865300  0.93055800  1
  O  O13  1  0.99154000  0.07134700  0.43055800  1
  O  O14  1  0.49154000  0.42865300  0.56944200  1
  O  O15  1  0.00846000  0.57134700  0.06944200  1
  O  O16  1  0.41350400  0.27393000  0.93375600  1
  O  O17  1  0.08649600  0.72607000  0.43375600  1
  O  O18  1  0.58649600  0.77393000  0.56624400  1
  O  O19  1  0.91350400  0.22607000  0.06624400  1
  O  O20  1  0.73152700  0.13775500  0.72163400  1
  O  O21  1  0.76847300  0.86224500  0.22163400  1
  O  O22  1  0.26847300  0.63775500  0.77836600  1
  O  O23  1  0.23152700  0.36224500  0.27836600  1
  O  O24  1  0.25404900  0.09546400  0.69685400  1
  O  O25  1  0.24595100  0.90453600  0.19685400  1
  O  O26  1  0.74595100  0.59546400  0.80314600  1
  O  O27  1  0.75404900  0.40453600  0.30314600  1
  O  O28  1  0.99514700  0.86875200  0.92024200  1
  O  O29  1  0.50485300  0.13124800  0.42024200  1
  O  O30  1  0.00485300  0.36875200  0.57975800  1
  O  O31  1  0.49514700  0.63124800  0.07975800  1
