# generated using pymatgen
data_Ca2YCrO5
_symmetry_space_group_name_H-M   'P 1'
_cell_length_a   8.91492168
_cell_length_b   8.91492168
_cell_length_c   8.91492168
_cell_angle_alpha   144.34075231
_cell_angle_beta   142.82360109
_cell_angle_gamma   52.46273701
_symmetry_Int_Tables_number   1
_chemical_formula_structural   Ca2YCrO5
_chemical_formula_sum   'Ca4 Y2 Cr2 O10'
_cell_volume   248.12467631
_cell_formula_units_Z   2
loop_
 _symmetry_equiv_pos_site_id
 _symmetry_equiv_pos_as_xyz
  1  'x, y, z'
loop_
 _atom_site_type_symbol
 _atom_site_label
 _atom_site_symmetry_multiplicity
 _atom_site_fract_x
 _atom_site_fract_y
 _atom_site_fract_z
 _atom_site_occupancy
  Ca  Ca0  1  0.37601700  0.90274600  0.47364900  1
  Ca  Ca1  1  0.07090300  0.59763200  0.47364900  1
  Ca  Ca2  1  0.62398300  0.09763200  0.52672900  1
  Ca  Ca3  1  0.92909700  0.40274600  0.52672900  1
  Y  Y4  1  0.70505300  0.71015600  0.91520900  1
  Y  Y5  1  0.29494700  0.21015600  0.00510300  1
  Cr  Cr6  1  0.50000000  0.51649500  0.01649500  1
  Cr  Cr7  1  0.00000000  0.01649400  0.01649400  1
  O  O8  1  0.67038100  0.30324500  0.47362600  1
  O  O9  1  0.32961900  0.80324500  0.63286500  1
  O  O10  1  0.29693800  0.41198600  0.96212600  1
  O  O11  1  0.70306200  0.66518800  0.11504800  1
  O  O12  1  0.94986000  0.91198600  0.11504800  1
  O  O13  1  0.05014000  0.16518800  0.96212600  1
  O  O14  1  0.26163100  0.77918400  0.00341400  1
  O  O15  1  0.73836900  0.74178300  0.51755300  1
  O  O16  1  0.72423000  0.24178300  0.00341400  1
  O  O17  1  0.27577000  0.27918400  0.51755300  1
