# generated using pymatgen
data_Ca(CuO2)2
_symmetry_space_group_name_H-M   'P 1'
_cell_length_a   7.50138850
_cell_length_b   7.50138850
_cell_length_c   7.50138850
_cell_angle_alpha   136.71956960
_cell_angle_beta   136.71956960
_cell_angle_gamma   62.86980948
_symmetry_Int_Tables_number   1
_chemical_formula_structural   Ca(CuO2)2
_chemical_formula_sum   'Ca2 Cu4 O8'
_cell_volume   195.92079207
_cell_formula_units_Z   2
loop_
 _symmetry_equiv_pos_site_id
 _symmetry_equiv_pos_as_xyz
  1  'x, y, z'
loop_
 _atom_site_type_symbol
 _atom_site_label
 _atom_site_symmetry_multiplicity
 _atom_site_fract_x
 _atom_site_fract_y
 _atom_site_fract_z
 _atom_site_occupancy
  Ca  Ca0  1  0.50000000  0.50000000  0.00000000  1
  Ca  Ca1  1  0.25000000  0.75000000  0.50000000  1
  Cu  Cu2  1  0.87500000  0.12500000  0.25000000  1
  Cu  Cu3  1  0.37500000  0.12500000  0.25000000  1
  Cu  Cu4  1  0.87500000  0.62500000  0.75000000  1
  Cu  Cu5  1  0.87500000  0.12500000  0.75000000  1
  O  O6  1  0.65895400  0.87956500  0.77938800  1
  O  O7  1  0.12043500  0.89982300  0.77938800  1
  O  O8  1  0.12043500  0.34104600  0.22061200  1
  O  O9  1  0.09104600  0.37043500  0.72061200  1
  O  O10  1  0.64982300  0.37043500  0.27938800  1
  O  O11  1  0.62956500  0.35017700  0.72061200  1
  O  O12  1  0.10017700  0.87956500  0.22061200  1
  O  O13  1  0.62956500  0.90895400  0.27938800  1
