# generated using pymatgen
data_Y11Ta5O28
_symmetry_space_group_name_H-M   'P 1'
_cell_length_a   13.00181819
_cell_length_b   13.00181819
_cell_length_c   6.44460575
_cell_angle_alpha   80.55985292
_cell_angle_beta   80.55985292
_cell_angle_gamma   32.95033978
_symmetry_Int_Tables_number   1
_chemical_formula_structural   Y11Ta5O28
_chemical_formula_sum   'Y11 Ta5 O28'
_cell_volume   583.82917511
_cell_formula_units_Z   1
loop_
 _symmetry_equiv_pos_site_id
 _symmetry_equiv_pos_as_xyz
  1  'x, y, z'
loop_
 _atom_site_type_symbol
 _atom_site_label
 _atom_site_symmetry_multiplicity
 _atom_site_fract_x
 _atom_site_fract_y
 _atom_site_fract_z
 _atom_site_occupancy
  Y  Y0  1  0.12268400  0.12268400  0.71994100  1
  Y  Y1  1  0.00000000  0.00000000  0.50000000  1
  Y  Y2  1  0.62602700  0.62602700  0.77796400  1
  Y  Y3  1  0.50000000  0.00000000  0.50000000  1
  Y  Y4  1  0.24606300  0.75393700  0.00000000  1
  Y  Y5  1  0.75393700  0.24606300  0.00000000  1
  Y  Y6  1  0.00000000  0.50000000  0.50000000  1
  Y  Y7  1  0.37397300  0.37397300  0.22203600  1
  Y  Y8  1  0.25900500  0.25900500  0.98045700  1
  Y  Y9  1  0.87731600  0.87731600  0.28005900  1
  Y  Y10  1  0.74099500  0.74099500  0.01954300  1
  Ta  Ta11  1  0.50000000  0.50000000  0.50000000  1
  Ta  Ta12  1  0.10815000  0.63667600  0.75841000  1
  Ta  Ta13  1  0.36332400  0.89185000  0.24159000  1
  Ta  Ta14  1  0.89185000  0.36332400  0.24159000  1
  Ta  Ta15  1  0.63667600  0.10815000  0.75841000  1
  O  O16  1  0.90389500  0.90389500  0.62198900  1
  O  O17  1  0.35689200  0.35689200  0.85895700  1
  O  O18  1  0.25562100  0.65290900  0.64337300  1
  O  O19  1  0.65290900  0.25562100  0.64337300  1
  O  O20  1  0.71565900  0.71565900  0.70454900  1
  O  O21  1  0.21525400  0.21525400  0.69715500  1
  O  O22  1  0.46547300  0.46547300  0.23140700  1
  O  O23  1  0.97333200  0.97333200  0.19993600  1
  O  O24  1  0.87180600  0.41733900  0.53313700  1
  O  O25  1  0.12516100  0.67824900  0.03064500  1
  O  O26  1  0.74437900  0.34709100  0.35662700  1
  O  O27  1  0.34709100  0.74437900  0.35662700  1
  O  O28  1  0.67824900  0.12516100  0.03064500  1
  O  O29  1  0.41733900  0.87180600  0.53313700  1
  O  O30  1  0.64310800  0.64310800  0.14104300  1
  O  O31  1  0.09610500  0.09610500  0.37801100  1
  O  O32  1  0.87483900  0.32175100  0.96935500  1
  O  O33  1  0.12819400  0.58266100  0.46686300  1
  O  O34  1  0.58266100  0.12819400  0.46686300  1
  O  O35  1  0.98605200  0.42790600  0.16245500  1
  O  O36  1  0.32175100  0.87483900  0.96935500  1
  O  O37  1  0.42790600  0.98605200  0.16245500  1
  O  O38  1  0.02666800  0.02666800  0.80006400  1
  O  O39  1  0.28434100  0.28434100  0.29545100  1
  O  O40  1  0.78474600  0.78474600  0.30284500  1
  O  O41  1  0.53452700  0.53452700  0.76859300  1
  O  O42  1  0.57209400  0.01394800  0.83754500  1
  O  O43  1  0.01394800  0.57209400  0.83754500  1
