# generated using pymatgen
data_MoO2
_symmetry_space_group_name_H-M   'P 1'
_cell_length_a   6.16855700
_cell_length_b   6.22745641
_cell_length_c   20.78736759
_cell_angle_alpha   81.47528950
_cell_angle_beta   81.47594159
_cell_angle_gamma   63.21579270
_symmetry_Int_Tables_number   1
_chemical_formula_structural   MoO2
_chemical_formula_sum   'Mo16 O32'
_cell_volume   701.97944730
_cell_formula_units_Z   16
loop_
 _symmetry_equiv_pos_site_id
 _symmetry_equiv_pos_as_xyz
  1  'x, y, z'
loop_
 _atom_site_type_symbol
 _atom_site_label
 _atom_site_symmetry_multiplicity
 _atom_site_fract_x
 _atom_site_fract_y
 _atom_site_fract_z
 _atom_site_occupancy
  Mo  Mo0  1  0.61620100  0.64218900  0.12547900  1
  Mo  Mo1  1  0.74937600  0.25201700  0.25739200  1
  Mo  Mo2  1  0.14550700  0.11540900  0.12570900  1
  Mo  Mo3  1  0.65740500  0.16037100  0.53225800  1
  Mo  Mo4  1  0.87780900  0.88077100  0.37844800  1
  Mo  Mo5  1  0.10160800  0.60926300  0.22214100  1
  Mo  Mo6  1  0.90756000  0.39326400  0.77796000  1
  Mo  Mo7  1  0.37693300  0.38193000  0.37871100  1
  Mo  Mo8  1  0.12498800  0.11935400  0.62466500  1
  Mo  Mo9  1  0.35542500  0.86246700  0.46520700  1
  Mo  Mo10  1  0.61836400  0.62794600  0.62450700  1
  Mo  Mo11  1  0.88102700  0.86461700  0.87156600  1
  Mo  Mo12  1  0.36409700  0.38155900  0.87239200  1
  Mo  Mo13  1  0.59827400  0.10040300  0.71561700  1
  Mo  Mo14  1  0.48929100  0.98672000  0.00200200  1
  Mo  Mo15  1  0.83870400  0.34505800  0.97372500  1
  O  O16  1  0.32082700  0.25103200  0.05762900  1
  O  O17  1  0.42998800  0.92498400  0.17543100  1
  O  O18  1  0.75444500  0.81553900  0.05818000  1
  O  O19  1  0.31626000  0.81830400  0.06959500  1
  O  O20  1  0.93876100  0.43708900  0.18631400  1
  O  O21  1  0.56630400  0.51062200  0.31275400  1
  O  O22  1  0.45394400  0.45076900  0.19170800  1
  O  O23  1  0.68221500  0.18285000  0.43821400  1
  O  O24  1  0.01023700  0.06586000  0.31248900  1
  O  O25  1  0.83080000  0.32616700  0.06841800  1
  O  O26  1  0.57750800  0.08422000  0.32595300  1
  O  O27  1  0.94892700  0.95790900  0.19150700  1
  O  O28  1  0.77466000  0.84390100  0.56605200  1
  O  O29  1  0.20102800  0.70231600  0.42528200  1
  O  O30  1  0.68948700  0.71804800  0.43424200  1
  O  O31  1  0.91946400  0.42263400  0.68467900  1
  O  O32  1  0.34058600  0.27786600  0.56609800  1
  O  O33  1  0.07736000  0.58246300  0.31742500  1
  O  O34  1  0.81160000  0.31555400  0.57024700  1
  O  O35  1  0.21397700  0.19268700  0.43428300  1
  O  O36  1  0.43797300  0.93839800  0.68172000  1
  O  O37  1  0.02783800  0.08539400  0.81374200  1
  O  O38  1  0.92075500  0.94967600  0.68748500  1
  O  O39  1  0.19591700  0.66201700  0.91709200  1
  O  O40  1  0.58823600  0.51378700  0.81479800  1
  O  O41  1  0.32459700  0.82870600  0.56362100  1
  O  O42  1  0.05293800  0.55451100  0.81703600  1
  O  O43  1  0.44972400  0.42095400  0.68736800  1
  O  O44  1  0.67811600  0.17460100  0.93341800  1
  O  O45  1  0.19268100  0.19826000  0.93788400  1
  O  O46  1  0.56561300  0.08025900  0.81090300  1
  O  O47  1  0.70122100  0.68585200  0.94027400  1
