# generated using pymatgen
data_Ca(CoO2)2
_symmetry_space_group_name_H-M   'P 1'
_cell_length_a   9.88066000
_cell_length_b   3.14091300
_cell_length_c   9.71539407
_cell_angle_alpha   89.71752413
_cell_angle_beta   90.00000000
_cell_angle_gamma   90.00000000
_symmetry_Int_Tables_number   1
_chemical_formula_structural   Ca(CoO2)2
_chemical_formula_sum   'Ca4 Co8 O16'
_cell_volume   301.50672626
_cell_formula_units_Z   4
loop_
 _symmetry_equiv_pos_site_id
 _symmetry_equiv_pos_as_xyz
  1  'x, y, z'
loop_
 _atom_site_type_symbol
 _atom_site_label
 _atom_site_symmetry_multiplicity
 _atom_site_fract_x
 _atom_site_fract_y
 _atom_site_fract_z
 _atom_site_occupancy
  Ca  Ca0  1  0.10405800  0.73516600  0.24894000  1
  Ca  Ca1  1  0.89594200  0.73516600  0.74894000  1
  Ca  Ca2  1  0.60500700  0.27074700  0.24935500  1
  Ca  Ca3  1  0.39499300  0.27074700  0.74935500  1
  Co  Co4  1  0.86202400  0.26434900  0.43036000  1
  Co  Co5  1  0.13797600  0.26434900  0.93036000  1
  Co  Co6  1  0.63630000  0.74394100  0.93310100  1
  Co  Co7  1  0.13821500  0.24533600  0.56631000  1
  Co  Co8  1  0.63678100  0.74850900  0.56723400  1
  Co  Co9  1  0.86178500  0.24533600  0.06631000  1
  Co  Co10  1  0.36321900  0.74850900  0.06723400  1
  Co  Co11  1  0.36370000  0.74394100  0.43310100  1
  O  O12  1  0.72651500  0.79476000  0.10560700  1
  O  O13  1  0.77409300  0.25042300  0.89365900  1
  O  O14  1  0.99573500  0.65963700  0.00250100  1
  O  O15  1  0.22592800  0.24154500  0.10729200  1
  O  O16  1  0.22590700  0.25042300  0.39365900  1
  O  O17  1  0.07227100  0.23865600  0.75067600  1
  O  O18  1  0.27388800  0.76066600  0.89235200  1
  O  O19  1  0.56888700  0.76505600  0.75098500  1
  O  O20  1  0.00426500  0.65963700  0.50250100  1
  O  O21  1  0.49918300  0.28079700  0.00160300  1
  O  O22  1  0.72611200  0.76066600  0.39235200  1
  O  O23  1  0.43111300  0.76505600  0.25098500  1
  O  O24  1  0.92772900  0.23865600  0.25067600  1
  O  O25  1  0.50081700  0.28079700  0.50160300  1
  O  O26  1  0.27348500  0.79476000  0.60560700  1
  O  O27  1  0.77407200  0.24154500  0.60729200  1
