# generated using pymatgen
data_MoF5
_symmetry_space_group_name_H-M   'P 1'
_cell_length_a   5.86182431
_cell_length_b   5.86182431
_cell_length_c   8.56501900
_cell_angle_alpha   90.00000000
_cell_angle_beta   90.00000000
_cell_angle_gamma   144.31445836
_symmetry_Int_Tables_number   1
_chemical_formula_structural   MoF5
_chemical_formula_sum   'Mo2 F10'
_cell_volume   171.67731148
_cell_formula_units_Z   2
loop_
 _symmetry_equiv_pos_site_id
 _symmetry_equiv_pos_as_xyz
  1  'x, y, z'
loop_
 _atom_site_type_symbol
 _atom_site_label
 _atom_site_symmetry_multiplicity
 _atom_site_fract_x
 _atom_site_fract_y
 _atom_site_fract_z
 _atom_site_occupancy
  Mo  Mo0  1  0.50000000  0.50000000  0.50000000  1
  Mo  Mo1  1  0.50000000  0.50000000  0.00000000  1
  F  F2  1  0.50435300  0.49564700  0.25000000  1
  F  F3  1  0.49564700  0.50435300  0.75000000  1
  F  F4  1  0.92896900  0.07103100  0.59220700  1
  F  F5  1  0.07103100  0.92896900  0.40779300  1
  F  F6  1  0.66126000  0.33874000  0.93114000  1
  F  F7  1  0.33874000  0.66126000  0.06886000  1
  F  F8  1  0.33874000  0.66126000  0.43114000  1
  F  F9  1  0.66126000  0.33874000  0.56886000  1
  F  F10  1  0.92896900  0.07103100  0.90779300  1
  F  F11  1  0.07103100  0.92896900  0.09220700  1
