# generated using pymatgen
data_Zn3Cr3(AsO4)4
_symmetry_space_group_name_H-M   'P 1'
_cell_length_a   5.25985600
_cell_length_b   8.80333600
_cell_length_c   16.06430719
_cell_angle_alpha   68.47746672
_cell_angle_beta   90.00000000
_cell_angle_gamma   90.00000000
_symmetry_Int_Tables_number   1
_chemical_formula_structural   Zn3Cr3(AsO4)4
_chemical_formula_sum   'Zn6 Cr6 As8 O32'
_cell_volume   691.98027748
_cell_formula_units_Z   2
loop_
 _symmetry_equiv_pos_site_id
 _symmetry_equiv_pos_as_xyz
  1  'x, y, z'
loop_
 _atom_site_type_symbol
 _atom_site_label
 _atom_site_symmetry_multiplicity
 _atom_site_fract_x
 _atom_site_fract_y
 _atom_site_fract_z
 _atom_site_occupancy
  Zn  Zn0  1  0.52614100  0.27432900  0.23095600  1
  Zn  Zn1  1  0.02614100  0.72567100  0.26904400  1
  Zn  Zn2  1  0.47385900  0.72567100  0.76904400  1
  Zn  Zn3  1  0.97385900  0.27432900  0.73095600  1
  Zn  Zn4  1  0.50000000  0.00000000  0.50000000  1
  Zn  Zn5  1  0.00000000  0.00000000  0.00000000  1
  Cr  Cr6  1  0.50846400  0.21048200  0.62117300  1
  Cr  Cr7  1  0.49153600  0.78951800  0.37882700  1
  Cr  Cr8  1  0.00846400  0.78951800  0.87882700  1
  Cr  Cr9  1  0.99153600  0.21048200  0.12117300  1
  Cr  Cr10  1  0.00000000  0.50000000  0.50000000  1
  Cr  Cr11  1  0.50000000  0.50000000  0.00000000  1
  As  As12  1  0.98468800  0.03628700  0.35050600  1
  As  As13  1  0.50158800  0.41553700  0.39584800  1
  As  As14  1  0.00158800  0.58446300  0.10415200  1
  As  As15  1  0.99841200  0.41553700  0.89584800  1
  As  As16  1  0.01531200  0.96371300  0.64949400  1
  As  As17  1  0.49841200  0.58446300  0.60415200  1
  As  As18  1  0.51531200  0.03628700  0.85050600  1
  As  As19  1  0.48468800  0.96371300  0.14949400  1
  O  O20  1  0.39241700  0.81404800  0.25178000  1
  O  O21  1  0.94335800  0.75768600  0.00990600  1
  O  O22  1  0.40628500  0.39642200  0.29988200  1
  O  O23  1  0.39244500  0.15331100  0.15394800  1
  O  O24  1  0.59371500  0.60357800  0.70011800  1
  O  O25  1  0.10758300  0.81404800  0.75178000  1
  O  O26  1  0.90628500  0.60357800  0.20011800  1
  O  O27  1  0.70031300  0.49849700  0.89154400  1
  O  O28  1  0.68299400  0.08328200  0.92719000  1
  O  O29  1  0.60758300  0.18595200  0.74822000  1
  O  O30  1  0.10755500  0.15331100  0.65394800  1
  O  O31  1  0.29968700  0.50150300  0.10845600  1
  O  O32  1  0.29875300  0.56351400  0.41128800  1
  O  O33  1  0.31700600  0.91671800  0.07281000  1
  O  O34  1  0.68898500  0.96870500  0.63705000  1
  O  O35  1  0.18898500  0.03129500  0.86295000  1
  O  O36  1  0.79875300  0.43648600  0.08871200  1
  O  O37  1  0.09371500  0.39642200  0.79988200  1
  O  O38  1  0.18299400  0.91671800  0.57281000  1
  O  O39  1  0.20031300  0.50150300  0.60845600  1
  O  O40  1  0.81101500  0.96870500  0.13705000  1
  O  O41  1  0.31101500  0.03129500  0.36295000  1
  O  O42  1  0.05664200  0.24231400  0.99009400  1
  O  O43  1  0.44335800  0.24231400  0.49009400  1
  O  O44  1  0.70124700  0.43648600  0.58871200  1
  O  O45  1  0.89241700  0.18595200  0.24822000  1
  O  O46  1  0.60755500  0.84668900  0.84605200  1
  O  O47  1  0.81700600  0.08328200  0.42719000  1
  O  O48  1  0.55664200  0.75768600  0.50990600  1
  O  O49  1  0.79968700  0.49849700  0.39154400  1
  O  O50  1  0.20124700  0.56351400  0.91128800  1
  O  O51  1  0.89244500  0.84668900  0.34605200  1
