# generated using pymatgen
data_Ca(BiO2)2
_symmetry_space_group_name_H-M   'P 1'
_cell_length_a   6.99774028
_cell_length_b   6.99774028
_cell_length_c   6.99774028
_cell_angle_alpha   120.45167514
_cell_angle_beta   118.33082173
_cell_angle_gamma   91.06729614
_symmetry_Int_Tables_number   1
_chemical_formula_structural   Ca(BiO2)2
_chemical_formula_sum   'Ca2 Bi4 O8'
_cell_volume   244.38406237
_cell_formula_units_Z   2
loop_
 _symmetry_equiv_pos_site_id
 _symmetry_equiv_pos_as_xyz
  1  'x, y, z'
loop_
 _atom_site_type_symbol
 _atom_site_label
 _atom_site_symmetry_multiplicity
 _atom_site_fract_x
 _atom_site_fract_y
 _atom_site_fract_z
 _atom_site_occupancy
  Ca  Ca0  1  0.00000000  0.50000000  0.50000000  1
  Ca  Ca1  1  0.50000000  0.50000000  0.00000000  1
  Bi  Bi2  1  0.12340000  0.87340000  0.25000000  1
  Bi  Bi3  1  0.87660000  0.12660000  0.75000000  1
  Bi  Bi4  1  0.50000000  0.00000000  0.00000000  1
  Bi  Bi5  1  0.50000000  0.50000000  0.50000000  1
  O  O6  1  0.74435700  0.25964000  0.01528300  1
  O  O7  1  0.73753000  0.25696200  0.48056900  1
  O  O8  1  0.74435700  0.72907300  0.48471700  1
  O  O9  1  0.27639300  0.25696200  0.01943100  1
  O  O10  1  0.72360700  0.74303800  0.98056900  1
  O  O11  1  0.26247000  0.74303800  0.51943100  1
  O  O12  1  0.25564300  0.27092700  0.51528300  1
  O  O13  1  0.25564300  0.74036000  0.98471700  1
