# generated using pymatgen
data_YCo3F15
_symmetry_space_group_name_H-M   'P 1'
_cell_length_a   11.50120200
_cell_length_b   5.75781600
_cell_length_c   9.39075581
_cell_angle_alpha   72.78228876
_cell_angle_beta   90.00000000
_cell_angle_gamma   90.00000000
_symmetry_Int_Tables_number   1
_chemical_formula_structural   YCo3F15
_chemical_formula_sum   'Y2 Co6 F30'
_cell_volume   594.00475571
_cell_formula_units_Z   2
loop_
 _symmetry_equiv_pos_site_id
 _symmetry_equiv_pos_as_xyz
  1  'x, y, z'
loop_
 _atom_site_type_symbol
 _atom_site_label
 _atom_site_symmetry_multiplicity
 _atom_site_fract_x
 _atom_site_fract_y
 _atom_site_fract_z
 _atom_site_occupancy
  Y  Y0  1  0.25000000  0.78475300  0.74256100  1
  Y  Y1  1  0.75000000  0.21524700  0.25743900  1
  Co  Co2  1  0.50000000  0.00000000  0.00000000  1
  Co  Co3  1  0.51133400  0.68017500  0.34747800  1
  Co  Co4  1  0.48866600  0.31982500  0.65252200  1
  Co  Co5  1  0.00000000  0.00000000  0.00000000  1
  Co  Co6  1  0.98866600  0.68017500  0.34747800  1
  Co  Co7  1  0.01133400  0.31982500  0.65252200  1
  F  F8  1  0.25000000  0.53637200  0.04456300  1
  F  F9  1  0.25000000  0.40895200  0.20002900  1
  F  F10  1  0.25000000  0.03780700  0.54694000  1
  F  F11  1  0.75000000  0.46362800  0.95543700  1
  F  F12  1  0.75000000  0.96219300  0.45306000  1
  F  F13  1  0.75000000  0.59104800  0.79997100  1
  F  F14  1  0.56776700  0.25469200  0.85756900  1
  F  F15  1  0.61352400  0.01093900  0.17176100  1
  F  F16  1  0.58823200  0.58042300  0.54671300  1
  F  F17  1  0.43223300  0.74530800  0.14243100  1
  F  F18  1  0.41176800  0.41957700  0.45328700  1
  F  F19  1  0.38647600  0.98906100  0.82823900  1
  F  F20  1  0.90938200  0.79939500  0.95153400  1
  F  F21  1  0.88040600  0.49037100  0.27705400  1
  F  F22  1  0.93662300  0.07669900  0.62120300  1
  F  F23  1  0.09061800  0.20060500  0.04846600  1
  F  F24  1  0.06337700  0.92330100  0.37879700  1
  F  F25  1  0.11959400  0.50962900  0.72294600  1
  F  F26  1  0.40938200  0.20060500  0.04846600  1
  F  F27  1  0.43662300  0.92330100  0.37879700  1
  F  F28  1  0.38040600  0.50962900  0.72294600  1
  F  F29  1  0.59061800  0.79939500  0.95153400  1
  F  F30  1  0.61959400  0.49037100  0.27705400  1
  F  F31  1  0.56337700  0.07669900  0.62120300  1
  F  F32  1  0.93223300  0.25469200  0.85756900  1
  F  F33  1  0.88647600  0.01093900  0.17176100  1
  F  F34  1  0.91176800  0.58042300  0.54671300  1
  F  F35  1  0.06776700  0.74530800  0.14243100  1
  F  F36  1  0.08823200  0.41957700  0.45328700  1
  F  F37  1  0.11352400  0.98906100  0.82823900  1
