# generated using pymatgen
data_Mg(BiO2)2
_symmetry_space_group_name_H-M   'P 1'
_cell_length_a   6.10016500
_cell_length_b   6.84145000
_cell_length_c   11.31314700
_cell_angle_alpha   90.00000000
_cell_angle_beta   90.00000000
_cell_angle_gamma   90.00000000
_symmetry_Int_Tables_number   1
_chemical_formula_structural   Mg(BiO2)2
_chemical_formula_sum   'Mg4 Bi8 O16'
_cell_volume   472.14258094
_cell_formula_units_Z   4
loop_
 _symmetry_equiv_pos_site_id
 _symmetry_equiv_pos_as_xyz
  1  'x, y, z'
loop_
 _atom_site_type_symbol
 _atom_site_label
 _atom_site_symmetry_multiplicity
 _atom_site_fract_x
 _atom_site_fract_y
 _atom_site_fract_z
 _atom_site_occupancy
  Mg  Mg0  1  0.85996500  0.00000000  0.50000000  1
  Mg  Mg1  1  0.14003500  0.50000000  0.00000000  1
  Mg  Mg2  1  0.53451400  0.00000000  0.00000000  1
  Mg  Mg3  1  0.46548600  0.50000000  0.50000000  1
  Bi  Bi4  1  0.50607700  0.50000000  0.20902700  1
  Bi  Bi5  1  0.50607700  0.50000000  0.79097300  1
  Bi  Bi6  1  0.49392300  0.00000000  0.29097300  1
  Bi  Bi7  1  0.49392300  0.00000000  0.70902700  1
  Bi  Bi8  1  0.00000000  0.25000000  0.25000000  1
  Bi  Bi9  1  0.00000000  0.75000000  0.75000000  1
  Bi  Bi10  1  0.00000000  0.75000000  0.25000000  1
  Bi  Bi11  1  0.00000000  0.25000000  0.75000000  1
  O  O12  1  0.90206200  0.50000000  0.12467300  1
  O  O13  1  0.90206200  0.50000000  0.87532700  1
  O  O14  1  0.09793800  0.00000000  0.37532700  1
  O  O15  1  0.09793800  0.00000000  0.62467300  1
  O  O16  1  0.24939800  0.50000000  0.35383800  1
  O  O17  1  0.24939800  0.50000000  0.64616200  1
  O  O18  1  0.75060200  0.00000000  0.14616200  1
  O  O19  1  0.75060200  0.00000000  0.85383800  1
  O  O20  1  0.67760100  0.23729500  0.37887100  1
  O  O21  1  0.67760100  0.76270500  0.62112900  1
  O  O22  1  0.32239900  0.73729500  0.12112900  1
  O  O23  1  0.32239900  0.26270500  0.87887100  1
  O  O24  1  0.32239900  0.26270500  0.12112900  1
  O  O25  1  0.32239900  0.73729500  0.87887100  1
  O  O26  1  0.67760100  0.76270500  0.37887100  1
  O  O27  1  0.67760100  0.23729500  0.62112900  1
