# generated using pymatgen
data_MgCuW2O7
_symmetry_space_group_name_H-M   'P 1'
_cell_length_a   8.94110800
_cell_length_b   9.33509919
_cell_length_c   11.37407037
_cell_angle_alpha   102.46948554
_cell_angle_beta   90.00000000
_cell_angle_gamma   90.00000000
_symmetry_Int_Tables_number   1
_chemical_formula_structural   MgCuW2O7
_chemical_formula_sum   'Mg6 Cu6 W12 O42'
_cell_volume   926.95556111
_cell_formula_units_Z   6
loop_
 _symmetry_equiv_pos_site_id
 _symmetry_equiv_pos_as_xyz
  1  'x, y, z'
loop_
 _atom_site_type_symbol
 _atom_site_label
 _atom_site_symmetry_multiplicity
 _atom_site_fract_x
 _atom_site_fract_y
 _atom_site_fract_z
 _atom_site_occupancy
  Mg  Mg0  1  0.43138200  0.15325500  0.57743500  1
  Mg  Mg1  1  0.93549800  0.50000000  0.75000000  1
  Mg  Mg2  1  0.43138200  0.84674500  0.92256500  1
  Mg  Mg3  1  0.06450200  0.50000000  0.25000000  1
  Mg  Mg4  1  0.56861800  0.84674500  0.42256500  1
  Mg  Mg5  1  0.56861800  0.15325500  0.07743500  1
  Cu  Cu6  1  0.93307000  0.82071200  0.40508200  1
  Cu  Cu7  1  0.06693000  0.17928800  0.59491800  1
  Cu  Cu8  1  0.43355800  0.50000000  0.25000000  1
  Cu  Cu9  1  0.93307000  0.17928800  0.09491800  1
  Cu  Cu10  1  0.56644200  0.50000000  0.75000000  1
  Cu  Cu11  1  0.06693000  0.82071200  0.90508200  1
  W  W12  1  0.24729100  0.20678600  0.29352800  1
  W  W13  1  0.76463000  0.12103300  0.37434400  1
  W  W14  1  0.23537000  0.12103300  0.87434400  1
  W  W15  1  0.75270900  0.20678600  0.79352800  1
  W  W16  1  0.26627500  0.53817700  0.96084400  1
  W  W17  1  0.76463000  0.87896700  0.12565600  1
  W  W18  1  0.73372500  0.53817700  0.46084400  1
  W  W19  1  0.23537000  0.87896700  0.62565600  1
  W  W20  1  0.26627500  0.46182300  0.53915600  1
  W  W21  1  0.73372500  0.46182300  0.03915600  1
  W  W22  1  0.75270900  0.79321400  0.70647200  1
  W  W23  1  0.24729100  0.79321400  0.20647200  1
  O  O24  1  0.73910700  0.22627100  0.97131400  1
  O  O25  1  0.76331200  0.89015600  0.30653200  1
  O  O26  1  0.80060800  0.00000000  0.75000000  1
  O  O27  1  0.90857000  0.44719200  0.11435400  1
  O  O28  1  0.41241300  0.92140300  0.55062500  1
  O  O29  1  0.92295700  0.27291900  0.72204200  1
  O  O30  1  0.28724300  0.33671000  0.91834300  1
  O  O31  1  0.09143000  0.44719200  0.61435400  1
  O  O32  1  0.74358200  0.44646500  0.86619600  1
  O  O33  1  0.41241300  0.07859700  0.94937500  1
  O  O34  1  0.74358200  0.55353500  0.63380400  1
  O  O35  1  0.43088300  0.59133200  0.88455200  1
  O  O36  1  0.94311900  0.86556800  0.05068200  1
  O  O37  1  0.07704300  0.27291900  0.22204200  1
  O  O38  1  0.71275700  0.66329000  0.08165700  1
  O  O39  1  0.28724300  0.66329000  0.58165700  1
  O  O40  1  0.92295700  0.72708100  0.77795800  1
  O  O41  1  0.58758700  0.07859700  0.44937500  1
  O  O42  1  0.26089300  0.22627100  0.47131400  1
  O  O43  1  0.56911700  0.40866800  0.11544800  1
  O  O44  1  0.42467000  0.79711000  0.28290300  1
  O  O45  1  0.25641800  0.55353500  0.13380400  1
  O  O46  1  0.05688100  0.86556800  0.55068200  1
  O  O47  1  0.25641800  0.44646500  0.36619600  1
  O  O48  1  0.90857000  0.55280800  0.38564600  1
  O  O49  1  0.56911700  0.59133200  0.38455200  1
  O  O50  1  0.09143000  0.55280800  0.88564600  1
  O  O51  1  0.57533000  0.79711000  0.78290300  1
  O  O52  1  0.57533000  0.20289000  0.71709700  1
  O  O53  1  0.05688100  0.13443200  0.94931800  1
  O  O54  1  0.07704300  0.72708100  0.27795800  1
  O  O55  1  0.73910700  0.77372900  0.52868600  1
  O  O56  1  0.19939200  0.00000000  0.25000000  1
  O  O57  1  0.23668800  0.89015600  0.80653200  1
  O  O58  1  0.58758700  0.92140300  0.05062500  1
  O  O59  1  0.94311900  0.13443200  0.44931800  1
  O  O60  1  0.26089300  0.77372900  0.02868600  1
  O  O61  1  0.76331200  0.10984400  0.19346800  1
  O  O62  1  0.43088300  0.40866800  0.61544800  1
  O  O63  1  0.71275700  0.33671000  0.41834300  1
  O  O64  1  0.23668800  0.10984400  0.69346800  1
  O  O65  1  0.42467000  0.20289000  0.21709700  1
