# generated using pymatgen
data_Re(WO4)2
_symmetry_space_group_name_H-M   'P 1'
_cell_length_a   4.96724856
_cell_length_b   6.44511150
_cell_length_c   6.42484164
_cell_angle_alpha   114.52107669
_cell_angle_beta   116.40541908
_cell_angle_gamma   91.68664717
_symmetry_Int_Tables_number   1
_chemical_formula_structural   Re(WO4)2
_chemical_formula_sum   'Re1 W2 O8'
_cell_volume   161.72938227
_cell_formula_units_Z   1
loop_
 _symmetry_equiv_pos_site_id
 _symmetry_equiv_pos_as_xyz
  1  'x, y, z'
loop_
 _atom_site_type_symbol
 _atom_site_label
 _atom_site_symmetry_multiplicity
 _atom_site_fract_x
 _atom_site_fract_y
 _atom_site_fract_z
 _atom_site_occupancy
  Re  Re0  1  0.12453300  0.22324300  0.09958200  1
  W  W1  1  0.88265500  0.40589000  0.62464400  1
  W  W2  1  0.36671000  0.04054100  0.57458100  1
  O  O3  1  0.13410600  0.68790900  0.80762200  1
  O  O4  1  0.54094400  0.42932600  0.34379500  1
  O  O5  1  0.16119300  0.21685900  0.80239200  1
  O  O6  1  0.54818500  0.03291500  0.37891700  1
  O  O7  1  0.70815800  0.01711300  0.85573300  1
  O  O8  1  0.11508600  0.75869300  0.39153100  1
  O  O9  1  0.08836000  0.22968900  0.39708800  1
  O  O10  1  0.70172800  0.41345300  0.82072800  1
