# generated using pymatgen
data_MgCuSb2O7
_symmetry_space_group_name_H-M   'P 1'
_cell_length_a   8.80671000
_cell_length_b   9.39483400
_cell_length_c   11.14023519
_cell_angle_alpha   78.80415428
_cell_angle_beta   90.00000000
_cell_angle_gamma   90.00000000
_symmetry_Int_Tables_number   1
_chemical_formula_structural   MgCuSb2O7
_chemical_formula_sum   'Mg6 Cu6 Sb12 O42'
_cell_volume   904.17512241
_cell_formula_units_Z   6
loop_
 _symmetry_equiv_pos_site_id
 _symmetry_equiv_pos_as_xyz
  1  'x, y, z'
loop_
 _atom_site_type_symbol
 _atom_site_label
 _atom_site_symmetry_multiplicity
 _atom_site_fract_x
 _atom_site_fract_y
 _atom_site_fract_z
 _atom_site_occupancy
  Mg  Mg0  1  0.44722000  0.84184600  0.58566400  1
  Mg  Mg1  1  0.94068800  0.50000000  0.75000000  1
  Mg  Mg2  1  0.44722000  0.15815400  0.91433600  1
  Mg  Mg3  1  0.05931200  0.50000000  0.25000000  1
  Mg  Mg4  1  0.55278000  0.15815400  0.41433600  1
  Mg  Mg5  1  0.55278000  0.84184600  0.08566400  1
  Cu  Cu6  1  0.92905400  0.19629600  0.41167200  1
  Cu  Cu7  1  0.07094600  0.80370400  0.58832800  1
  Cu  Cu8  1  0.43293100  0.50000000  0.25000000  1
  Cu  Cu9  1  0.92905400  0.80370400  0.08832800  1
  Cu  Cu10  1  0.56706900  0.50000000  0.75000000  1
  Cu  Cu11  1  0.07094600  0.19629600  0.91167200  1
  Sb  Sb12  1  0.22975700  0.80391300  0.29727300  1
  Sb  Sb13  1  0.75806900  0.85591700  0.37523400  1
  Sb  Sb14  1  0.24193100  0.85591700  0.87523400  1
  Sb  Sb15  1  0.77024300  0.80391300  0.79727300  1
  Sb  Sb16  1  0.27038100  0.46367600  0.96213300  1
  Sb  Sb17  1  0.75806900  0.14408300  0.12476600  1
  Sb  Sb18  1  0.72961900  0.46367600  0.46213300  1
  Sb  Sb19  1  0.24193100  0.14408300  0.62476600  1
  Sb  Sb20  1  0.27038100  0.53632400  0.53786700  1
  Sb  Sb21  1  0.72961900  0.53632400  0.03786700  1
  Sb  Sb22  1  0.77024300  0.19608700  0.70272700  1
  Sb  Sb23  1  0.22975700  0.19608700  0.20272700  1
  O  O24  1  0.74724600  0.77691900  0.97925300  1
  O  O25  1  0.77007100  0.12465700  0.30288300  1
  O  O26  1  0.85019300  0.00000000  0.75000000  1
  O  O27  1  0.92119100  0.53530900  0.10823100  1
  O  O28  1  0.39875300  0.06210000  0.54460300  1
  O  O29  1  0.92384000  0.72356700  0.70791900  1
  O  O30  1  0.33371600  0.66536300  0.93208200  1
  O  O31  1  0.07880900  0.53530900  0.60823100  1
  O  O32  1  0.73853600  0.55974100  0.85709600  1
  O  O33  1  0.39875300  0.93790000  0.95539700  1
  O  O34  1  0.73853600  0.44025900  0.64290400  1
  O  O35  1  0.43679900  0.39617200  0.87648100  1
  O  O36  1  0.96031300  0.15137300  0.06379000  1
  O  O37  1  0.07616000  0.72356700  0.20791900  1
  O  O38  1  0.66628400  0.33463700  0.06791800  1
  O  O39  1  0.33371600  0.33463700  0.56791800  1
  O  O40  1  0.92384000  0.27643300  0.79208100  1
  O  O41  1  0.60124700  0.93790000  0.45539700  1
  O  O42  1  0.25275400  0.77691900  0.47925300  1
  O  O43  1  0.56320100  0.60382800  0.12351900  1
  O  O44  1  0.42632100  0.18848200  0.26562200  1
  O  O45  1  0.26146400  0.44025900  0.14290400  1
  O  O46  1  0.03968700  0.15137300  0.56379000  1
  O  O47  1  0.26146400  0.55974100  0.35709600  1
  O  O48  1  0.92119100  0.46469100  0.39176900  1
  O  O49  1  0.56320100  0.39617200  0.37648100  1
  O  O50  1  0.07880900  0.46469100  0.89176900  1
  O  O51  1  0.57367900  0.18848200  0.76562200  1
  O  O52  1  0.57367900  0.81151800  0.73437800  1
  O  O53  1  0.03968700  0.84862700  0.93621000  1
  O  O54  1  0.07616000  0.27643300  0.29208100  1
  O  O55  1  0.74724600  0.22308100  0.52074700  1
  O  O56  1  0.14980700  0.00000000  0.25000000  1
  O  O57  1  0.22992900  0.12465700  0.80288300  1
  O  O58  1  0.60124700  0.06210000  0.04460300  1
  O  O59  1  0.96031300  0.84862700  0.43621000  1
  O  O60  1  0.25275400  0.22308100  0.02074700  1
  O  O61  1  0.77007100  0.87534300  0.19711700  1
  O  O62  1  0.43679900  0.60382800  0.62351900  1
  O  O63  1  0.66628400  0.66536300  0.43208200  1
  O  O64  1  0.22992900  0.87534300  0.69711700  1
  O  O65  1  0.42632100  0.81151800  0.23437800  1
