# generated using pymatgen
data_MgTiP2O7
_symmetry_space_group_name_H-M   'P 1'
_cell_length_a   5.66853200
_cell_length_b   6.57642695
_cell_length_c   7.32841915
_cell_angle_alpha   85.52190793
_cell_angle_beta   86.57446678
_cell_angle_gamma   67.87697337
_symmetry_Int_Tables_number   1
_chemical_formula_structural   MgTiP2O7
_chemical_formula_sum   'Mg2 Ti2 P4 O14'
_cell_volume   252.17174765
_cell_formula_units_Z   2
loop_
 _symmetry_equiv_pos_site_id
 _symmetry_equiv_pos_as_xyz
  1  'x, y, z'
loop_
 _atom_site_type_symbol
 _atom_site_label
 _atom_site_symmetry_multiplicity
 _atom_site_fract_x
 _atom_site_fract_y
 _atom_site_fract_z
 _atom_site_occupancy
  Mg  Mg0  1  0.31685600  0.67532000  0.65472700  1
  Mg  Mg1  1  0.68314400  0.32468000  0.34527300  1
  Ti  Ti2  1  0.31137200  0.11216400  0.15421900  1
  Ti  Ti3  1  0.68862800  0.88783600  0.84578100  1
  P  P4  1  0.18275200  0.65415700  0.11144200  1
  P  P5  1  0.81724800  0.34584300  0.88855800  1
  P  P6  1  0.22450300  0.22060200  0.59527100  1
  P  P7  1  0.77549700  0.77939800  0.40472900  1
  O  O8  1  0.08614100  0.71329900  0.91435900  1
  O  O9  1  0.91385900  0.28670100  0.08564100  1
  O  O10  1  0.26574400  0.82355400  0.18629300  1
  O  O11  1  0.73425600  0.17644600  0.81370700  1
  O  O12  1  0.37625200  0.41686700  0.14557500  1
  O  O13  1  0.62374800  0.58313300  0.85442500  1
  O  O14  1  0.61447200  0.63877300  0.45378100  1
  O  O15  1  0.38552800  0.36122700  0.54621900  1
  O  O16  1  0.05690300  0.21624500  0.44083300  1
  O  O17  1  0.94309700  0.78375500  0.55916700  1
  O  O18  1  0.06300400  0.34586700  0.76765800  1
  O  O19  1  0.62872300  0.01707500  0.32499100  1
  O  O20  1  0.37127700  0.98292500  0.67500900  1
  O  O21  1  0.93699600  0.65413300  0.23234200  1
