# generated using pymatgen
data_Mg3Co3(AsO4)4
_symmetry_space_group_name_H-M   'P 1'
_cell_length_a   5.15983400
_cell_length_b   8.67642800
_cell_length_c   16.05039820
_cell_angle_alpha   67.71579679
_cell_angle_beta   90.00000000
_cell_angle_gamma   90.00000000
_symmetry_Int_Tables_number   1
_chemical_formula_structural   Mg3Co3(AsO4)4
_chemical_formula_sum   'Mg6 Co6 As8 O32'
_cell_volume   664.89303439
_cell_formula_units_Z   2
loop_
 _symmetry_equiv_pos_site_id
 _symmetry_equiv_pos_as_xyz
  1  'x, y, z'
loop_
 _atom_site_type_symbol
 _atom_site_label
 _atom_site_symmetry_multiplicity
 _atom_site_fract_x
 _atom_site_fract_y
 _atom_site_fract_z
 _atom_site_occupancy
  Mg  Mg0  1  0.54550500  0.31195600  0.21220700  1
  Mg  Mg1  1  0.04550500  0.68804400  0.28779300  1
  Mg  Mg2  1  0.45449500  0.68804400  0.78779300  1
  Mg  Mg3  1  0.95449500  0.31195600  0.71220700  1
  Mg  Mg4  1  0.50000000  0.00000000  0.50000000  1
  Mg  Mg5  1  0.00000000  0.00000000  0.00000000  1
  Co  Co6  1  0.49036800  0.20347600  0.62504200  1
  Co  Co7  1  0.50963200  0.79652400  0.37495800  1
  Co  Co8  1  0.99036800  0.79652400  0.87495800  1
  Co  Co9  1  0.00963200  0.20347600  0.12504200  1
  Co  Co10  1  0.00000000  0.50000000  0.50000000  1
  Co  Co11  1  0.50000000  0.50000000  0.00000000  1
  As  As12  1  0.99153600  0.03740200  0.35153700  1
  As  As13  1  0.49687900  0.41750000  0.39655400  1
  As  As14  1  0.99687900  0.58250000  0.10344600  1
  As  As15  1  0.00312100  0.41750000  0.89655400  1
  As  As16  1  0.00846400  0.96259800  0.64846300  1
  As  As17  1  0.50312100  0.58250000  0.60344600  1
  As  As18  1  0.50846400  0.03740200  0.85153700  1
  As  As19  1  0.49153600  0.96259800  0.14846300  1
  O  O20  1  0.40449300  0.81020700  0.25258900  1
  O  O21  1  0.94378800  0.75590000  0.00824100  1
  O  O22  1  0.40899800  0.39951100  0.30008600  1
  O  O23  1  0.39389900  0.15361300  0.15245800  1
  O  O24  1  0.59100200  0.60048900  0.69991400  1
  O  O25  1  0.09550700  0.81020700  0.75258900  1
  O  O26  1  0.90899800  0.60048900  0.19991400  1
  O  O27  1  0.70411500  0.51114000  0.89250500  1
  O  O28  1  0.67582300  0.08818300  0.92695300  1
  O  O29  1  0.59550700  0.18979300  0.74741100  1
  O  O30  1  0.10610100  0.15361300  0.65245800  1
  O  O31  1  0.29588500  0.48886000  0.10749500  1
  O  O32  1  0.28593300  0.57107700  0.40783900  1
  O  O33  1  0.32417700  0.91181700  0.07304700  1
  O  O34  1  0.67581200  0.97785900  0.63195600  1
  O  O35  1  0.17581200  0.02214100  0.86804400  1
  O  O36  1  0.78593300  0.42892300  0.09216100  1
  O  O37  1  0.09100200  0.39951100  0.80008600  1
  O  O38  1  0.17582300  0.91181700  0.57304700  1
  O  O39  1  0.20411500  0.48886000  0.60749500  1
  O  O40  1  0.82418800  0.97785900  0.13195600  1
  O  O41  1  0.32418800  0.02214100  0.36804400  1
  O  O42  1  0.05621200  0.24410000  0.99175900  1
  O  O43  1  0.44378800  0.24410000  0.49175900  1
  O  O44  1  0.71406700  0.42892300  0.59216100  1
  O  O45  1  0.90449300  0.18979300  0.24741100  1
  O  O46  1  0.60610100  0.84638700  0.84754200  1
  O  O47  1  0.82417700  0.08818300  0.42695300  1
  O  O48  1  0.55621200  0.75590000  0.50824100  1
  O  O49  1  0.79588500  0.51114000  0.39250500  1
  O  O50  1  0.21406700  0.57107700  0.90783900  1
  O  O51  1  0.89389900  0.84638700  0.34754200  1
