# generated using pymatgen
data_Sn(WO4)2
_symmetry_space_group_name_H-M   'P 1'
_cell_length_a   5.13703900
_cell_length_b   5.48671659
_cell_length_c   6.71294520
_cell_angle_alpha   109.51519247
_cell_angle_beta   92.07764696
_cell_angle_gamma   105.06479214
_symmetry_Int_Tables_number   1
_chemical_formula_structural   Sn(WO4)2
_chemical_formula_sum   'Sn1 W2 O8'
_cell_volume   170.62729307
_cell_formula_units_Z   1
loop_
 _symmetry_equiv_pos_site_id
 _symmetry_equiv_pos_as_xyz
  1  'x, y, z'
loop_
 _atom_site_type_symbol
 _atom_site_label
 _atom_site_symmetry_multiplicity
 _atom_site_fract_x
 _atom_site_fract_y
 _atom_site_fract_z
 _atom_site_occupancy
  Sn  Sn0  1  0.50000000  0.00000000  0.00000000  1
  W  W1  1  0.24398900  0.52784400  0.18688100  1
  W  W2  1  0.75601100  0.47215600  0.81311900  1
  O  O3  1  0.16924700  0.70685600  0.43198900  1
  O  O4  1  0.36031800  0.25984500  0.24149100  1
  O  O5  1  0.12408500  0.70142100  0.97034800  1
  O  O6  1  0.41633500  0.23783600  0.83538100  1
  O  O7  1  0.63968200  0.74015500  0.75850900  1
  O  O8  1  0.83075300  0.29314400  0.56801100  1
  O  O9  1  0.87591500  0.29857900  0.02965200  1
  O  O10  1  0.58366500  0.76216400  0.16461900  1
