# generated using pymatgen
data_Mg(AgO2)2
_symmetry_space_group_name_H-M   'P 1'
_cell_length_a   3.18526600
_cell_length_b   9.82492100
_cell_length_c   10.82439900
_cell_angle_alpha   90.00000000
_cell_angle_beta   90.00000000
_cell_angle_gamma   90.00000000
_symmetry_Int_Tables_number   1
_chemical_formula_structural   Mg(AgO2)2
_chemical_formula_sum   'Mg4 Ag8 O16'
_cell_volume   338.74942397
_cell_formula_units_Z   4
loop_
 _symmetry_equiv_pos_site_id
 _symmetry_equiv_pos_as_xyz
  1  'x, y, z'
loop_
 _atom_site_type_symbol
 _atom_site_label
 _atom_site_symmetry_multiplicity
 _atom_site_fract_x
 _atom_site_fract_y
 _atom_site_fract_z
 _atom_site_occupancy
  Mg  Mg0  1  0.34415800  0.75000000  0.85141600  1
  Mg  Mg1  1  0.34415800  0.25000000  0.64858400  1
  Mg  Mg2  1  0.65584200  0.75000000  0.35141600  1
  Mg  Mg3  1  0.65584200  0.25000000  0.14858400  1
  Ag  Ag4  1  0.83451000  0.57151600  0.61537800  1
  Ag  Ag5  1  0.83451000  0.07151600  0.88462200  1
  Ag  Ag6  1  0.16549000  0.07151600  0.38462200  1
  Ag  Ag7  1  0.83451000  0.42848400  0.88462200  1
  Ag  Ag8  1  0.16549000  0.42848400  0.38462200  1
  Ag  Ag9  1  0.83451000  0.92848400  0.61537800  1
  Ag  Ag10  1  0.16549000  0.92848400  0.11537800  1
  Ag  Ag11  1  0.16549000  0.57151600  0.11537800  1
  O  O12  1  0.13273700  0.87496600  0.45023300  1
  O  O13  1  0.86726300  0.12503400  0.54976700  1
  O  O14  1  0.46359100  0.00000000  0.75000000  1
  O  O15  1  0.86726300  0.87496600  0.95023300  1
  O  O16  1  0.86726300  0.62503400  0.95023300  1
  O  O17  1  0.83609600  0.25000000  0.78478200  1
  O  O18  1  0.13273700  0.12503400  0.04976700  1
  O  O19  1  0.16390400  0.25000000  0.28478200  1
  O  O20  1  0.46359100  0.50000000  0.75000000  1
  O  O21  1  0.53640900  0.00000000  0.25000000  1
  O  O22  1  0.13273700  0.62503400  0.45023300  1
  O  O23  1  0.16390400  0.75000000  0.21521800  1
  O  O24  1  0.83609600  0.75000000  0.71521800  1
  O  O25  1  0.53640900  0.50000000  0.25000000  1
  O  O26  1  0.13273700  0.37496600  0.04976700  1
  O  O27  1  0.86726300  0.37496600  0.54976700  1
