# generated using pymatgen
data_ZnCuW2O7
_symmetry_space_group_name_H-M   'P 1'
_cell_length_a   8.53268700
_cell_length_b   10.89895300
_cell_length_c   10.93287615
_cell_angle_alpha   84.87274128
_cell_angle_beta   90.00000000
_cell_angle_gamma   90.00000000
_symmetry_Int_Tables_number   1
_chemical_formula_structural   ZnCuW2O7
_chemical_formula_sum   'Zn6 Cu6 W12 O42'
_cell_volume   1012.66028364
_cell_formula_units_Z   6
loop_
 _symmetry_equiv_pos_site_id
 _symmetry_equiv_pos_as_xyz
  1  'x, y, z'
loop_
 _atom_site_type_symbol
 _atom_site_label
 _atom_site_symmetry_multiplicity
 _atom_site_fract_x
 _atom_site_fract_y
 _atom_site_fract_z
 _atom_site_occupancy
  Zn  Zn0  1  0.43173700  0.87929800  0.56645000  1
  Zn  Zn1  1  0.93557100  0.50000000  0.75000000  1
  Zn  Zn2  1  0.43173700  0.12070200  0.93355000  1
  Zn  Zn3  1  0.06442900  0.50000000  0.25000000  1
  Zn  Zn4  1  0.56826300  0.12070200  0.43355000  1
  Zn  Zn5  1  0.56826300  0.87929800  0.06645000  1
  Cu  Cu6  1  0.92888600  0.17564300  0.40780200  1
  Cu  Cu7  1  0.07111400  0.82435700  0.59219800  1
  Cu  Cu8  1  0.43157300  0.50000000  0.25000000  1
  Cu  Cu9  1  0.92888600  0.82435700  0.09219800  1
  Cu  Cu10  1  0.56842700  0.50000000  0.75000000  1
  Cu  Cu11  1  0.07111400  0.17564300  0.90780200  1
  W  W12  1  0.23719900  0.83171600  0.28518000  1
  W  W13  1  0.75877800  0.83919000  0.36850100  1
  W  W14  1  0.24122200  0.83919000  0.86850200  1
  W  W15  1  0.76280100  0.83171600  0.78518000  1
  W  W16  1  0.27141100  0.51759000  0.96115200  1
  W  W17  1  0.75877800  0.16081000  0.13149900  1
  W  W18  1  0.72858900  0.51759000  0.46115200  1
  W  W19  1  0.24122200  0.16081000  0.63149800  1
  W  W20  1  0.27141100  0.48241000  0.53884800  1
  W  W21  1  0.72858900  0.48241000  0.03884800  1
  W  W22  1  0.76280100  0.16828400  0.71482000  1
  W  W23  1  0.23719900  0.16828400  0.21482000  1
  O  O24  1  0.71567600  0.80059100  0.94610300  1
  O  O25  1  0.75425900  0.14699100  0.30456000  1
  O  O26  1  0.82707000  0.00000000  0.75000000  1
  O  O27  1  0.90596200  0.52571500  0.11766100  1
  O  O28  1  0.40314300  0.06515000  0.56335000  1
  O  O29  1  0.91144400  0.73117500  0.73502300  1
  O  O30  1  0.34139000  0.68709100  0.93018700  1
  O  O31  1  0.09403800  0.52571500  0.61766100  1
  O  O32  1  0.75006400  0.51532600  0.86861600  1
  O  O33  1  0.40314300  0.93485000  0.93665000  1
  O  O34  1  0.75006400  0.48467400  0.63138400  1
  O  O35  1  0.43166200  0.44217900  0.88277700  1
  O  O36  1  0.94054900  0.14708300  0.04594500  1
  O  O37  1  0.08855600  0.73117500  0.23502300  1
  O  O38  1  0.65861000  0.31290900  0.06981300  1
  O  O39  1  0.34139000  0.31290900  0.56981300  1
  O  O40  1  0.91144400  0.26882500  0.76497700  1
  O  O41  1  0.59685700  0.93485000  0.43665000  1
  O  O42  1  0.28432400  0.80059100  0.44610300  1
  O  O43  1  0.56833800  0.55782100  0.11722300  1
  O  O44  1  0.41077300  0.18482500  0.30333700  1
  O  O45  1  0.24993600  0.48467400  0.13138400  1
  O  O46  1  0.05945100  0.14708300  0.54594500  1
  O  O47  1  0.24993600  0.51532600  0.36861600  1
  O  O48  1  0.90596200  0.47428500  0.38233900  1
  O  O49  1  0.56833800  0.44217900  0.38277700  1
  O  O50  1  0.09403800  0.47428500  0.88233900  1
  O  O51  1  0.58922700  0.18482500  0.80333700  1
  O  O52  1  0.58922700  0.81517500  0.69666300  1
  O  O53  1  0.05945100  0.85291700  0.95405500  1
  O  O54  1  0.08855600  0.26882500  0.26497700  1
  O  O55  1  0.71567600  0.19940900  0.55389700  1
  O  O56  1  0.17293000  0.00000000  0.25000000  1
  O  O57  1  0.24574100  0.14699100  0.80456000  1
  O  O58  1  0.59685700  0.06515000  0.06335000  1
  O  O59  1  0.94054900  0.85291700  0.45405500  1
  O  O60  1  0.28432400  0.19940900  0.05389700  1
  O  O61  1  0.75425900  0.85300900  0.19544000  1
  O  O62  1  0.43166200  0.55782100  0.61722300  1
  O  O63  1  0.65861000  0.68709100  0.43018700  1
  O  O64  1  0.24574100  0.85300900  0.69544000  1
  O  O65  1  0.41077300  0.81517500  0.19666300  1
