# generated using pymatgen
data_Ca(CuO2)2
_symmetry_space_group_name_H-M   'P 1'
_cell_length_a   3.47344200
_cell_length_b   9.33508800
_cell_length_c   10.29978200
_cell_angle_alpha   90.00000000
_cell_angle_beta   90.00000000
_cell_angle_gamma   90.00000000
_symmetry_Int_Tables_number   1
_chemical_formula_structural   Ca(CuO2)2
_chemical_formula_sum   'Ca4 Cu8 O16'
_cell_volume   333.96926472
_cell_formula_units_Z   4
loop_
 _symmetry_equiv_pos_site_id
 _symmetry_equiv_pos_as_xyz
  1  'x, y, z'
loop_
 _atom_site_type_symbol
 _atom_site_label
 _atom_site_symmetry_multiplicity
 _atom_site_fract_x
 _atom_site_fract_y
 _atom_site_fract_z
 _atom_site_occupancy
  Ca  Ca0  1  0.40106700  0.25000000  0.34533400  1
  Ca  Ca1  1  0.40106700  0.75000000  0.15466600  1
  Ca  Ca2  1  0.59893300  0.25000000  0.84533400  1
  Ca  Ca3  1  0.59893300  0.75000000  0.65466600  1
  Cu  Cu4  1  0.86763400  0.06926400  0.11273900  1
  Cu  Cu5  1  0.86763400  0.56926400  0.38726100  1
  Cu  Cu6  1  0.13236600  0.56926400  0.88726100  1
  Cu  Cu7  1  0.86763400  0.93073600  0.38726100  1
  Cu  Cu8  1  0.13236600  0.93073600  0.88726100  1
  Cu  Cu9  1  0.86763400  0.43073600  0.11273900  1
  Cu  Cu10  1  0.13236600  0.43073600  0.61273900  1
  Cu  Cu11  1  0.13236600  0.06926400  0.61273900  1
  O  O12  1  0.11226600  0.38770000  0.95788200  1
  O  O13  1  0.88773400  0.61230000  0.04211800  1
  O  O14  1  0.56939900  0.50000000  0.25000000  1
  O  O15  1  0.88773400  0.38770000  0.45788200  1
  O  O16  1  0.88773400  0.11230000  0.45788200  1
  O  O17  1  0.89443000  0.75000000  0.31141500  1
  O  O18  1  0.11226600  0.61230000  0.54211800  1
  O  O19  1  0.10557000  0.75000000  0.81141500  1
  O  O20  1  0.56939900  0.00000000  0.25000000  1
  O  O21  1  0.43060100  0.50000000  0.75000000  1
  O  O22  1  0.11226600  0.11230000  0.95788200  1
  O  O23  1  0.10557000  0.25000000  0.68858500  1
  O  O24  1  0.89443000  0.25000000  0.18858500  1
  O  O25  1  0.43060100  0.00000000  0.75000000  1
  O  O26  1  0.11226600  0.88770000  0.54211800  1
  O  O27  1  0.88773400  0.88770000  0.04211800  1
