# generated using pymatgen
data_Zn(MoO2)2
_symmetry_space_group_name_H-M   'P 1'
_cell_length_a   5.40086047
_cell_length_b   5.40086047
_cell_length_c   10.41297800
_cell_angle_alpha   90.00000000
_cell_angle_beta   90.00000000
_cell_angle_gamma   146.29957420
_symmetry_Int_Tables_number   1
_chemical_formula_structural   Zn(MoO2)2
_chemical_formula_sum   'Zn2 Mo4 O8'
_cell_volume   168.52988879
_cell_formula_units_Z   2
loop_
 _symmetry_equiv_pos_site_id
 _symmetry_equiv_pos_as_xyz
  1  'x, y, z'
loop_
 _atom_site_type_symbol
 _atom_site_label
 _atom_site_symmetry_multiplicity
 _atom_site_fract_x
 _atom_site_fract_y
 _atom_site_fract_z
 _atom_site_occupancy
  Zn  Zn0  1  0.60522800  0.39477200  0.75000000  1
  Zn  Zn1  1  0.39477200  0.60522800  0.25000000  1
  Mo  Mo2  1  0.13240200  0.86759800  0.07266100  1
  Mo  Mo3  1  0.86759800  0.13240200  0.92733900  1
  Mo  Mo4  1  0.13240200  0.86759800  0.42733900  1
  Mo  Mo5  1  0.86759800  0.13240200  0.57266100  1
  O  O6  1  0.76983000  0.23017000  0.38682100  1
  O  O7  1  0.23017000  0.76983000  0.61317900  1
  O  O8  1  0.23017000  0.76983000  0.88682100  1
  O  O9  1  0.76983000  0.23017000  0.11317900  1
  O  O10  1  0.02220600  0.97779400  0.25000000  1
  O  O11  1  0.97779400  0.02220600  0.75000000  1
  O  O12  1  0.50000000  0.50000000  0.00000000  1
  O  O13  1  0.50000000  0.50000000  0.50000000  1
