# generated using pymatgen
data_ZnCuMo2O7
_symmetry_space_group_name_H-M   'P 1'
_cell_length_a   8.58773400
_cell_length_b   10.61254000
_cell_length_c   10.76902593
_cell_angle_alpha   83.52972036
_cell_angle_beta   90.00000000
_cell_angle_gamma   90.00000000
_symmetry_Int_Tables_number   1
_chemical_formula_structural   ZnCuMo2O7
_chemical_formula_sum   'Zn6 Cu6 Mo12 O42'
_cell_volume   975.21244673
_cell_formula_units_Z   6
loop_
 _symmetry_equiv_pos_site_id
 _symmetry_equiv_pos_as_xyz
  1  'x, y, z'
loop_
 _atom_site_type_symbol
 _atom_site_label
 _atom_site_symmetry_multiplicity
 _atom_site_fract_x
 _atom_site_fract_y
 _atom_site_fract_z
 _atom_site_occupancy
  Zn  Zn0  1  0.43222800  0.87407500  0.57087300  1
  Zn  Zn1  1  0.92403100  0.50000000  0.75000000  1
  Zn  Zn2  1  0.43222800  0.12592500  0.92912700  1
  Zn  Zn3  1  0.07596900  0.50000000  0.25000000  1
  Zn  Zn4  1  0.56777200  0.12592500  0.42912700  1
  Zn  Zn5  1  0.56777200  0.87407500  0.07087300  1
  Cu  Cu6  1  0.93050500  0.19047500  0.40834300  1
  Cu  Cu7  1  0.06949500  0.80952500  0.59165700  1
  Cu  Cu8  1  0.43747200  0.50000000  0.25000000  1
  Cu  Cu9  1  0.93050500  0.80952500  0.09165700  1
  Cu  Cu10  1  0.56252800  0.50000000  0.75000000  1
  Cu  Cu11  1  0.06949500  0.19047500  0.90834300  1
  Mo  Mo12  1  0.23307000  0.82495900  0.28737100  1
  Mo  Mo13  1  0.75526700  0.84821500  0.36855000  1
  Mo  Mo14  1  0.24473300  0.84821500  0.86855000  1
  Mo  Mo15  1  0.76693000  0.82495900  0.78737100  1
  Mo  Mo16  1  0.26970300  0.50841500  0.95878400  1
  Mo  Mo17  1  0.75526700  0.15178500  0.13145000  1
  Mo  Mo18  1  0.73029700  0.50841500  0.45878400  1
  Mo  Mo19  1  0.24473300  0.15178500  0.63145000  1
  Mo  Mo20  1  0.26970300  0.49158500  0.54121600  1
  Mo  Mo21  1  0.73029700  0.49158500  0.04121600  1
  Mo  Mo22  1  0.76693000  0.17504100  0.71262900  1
  Mo  Mo23  1  0.23307000  0.17504100  0.21262900  1
  O  O24  1  0.74013500  0.79854900  0.95725700  1
  O  O25  1  0.75661400  0.13640600  0.30662500  1
  O  O26  1  0.82077500  0.00000000  0.75000000  1
  O  O27  1  0.91118600  0.51576500  0.11511900  1
  O  O28  1  0.41574100  0.06850800  0.56673900  1
  O  O29  1  0.91867500  0.72647900  0.72387900  1
  O  O30  1  0.32025500  0.67739200  0.92741000  1
  O  O31  1  0.08881400  0.51576500  0.61511900  1
  O  O32  1  0.74070200  0.53069700  0.87014700  1
  O  O33  1  0.41574100  0.93149200  0.93326100  1
  O  O34  1  0.74070200  0.46930300  0.62985300  1
  O  O35  1  0.42101700  0.42963500  0.88570300  1
  O  O36  1  0.92933100  0.13814900  0.04340700  1
  O  O37  1  0.08132500  0.72647900  0.22387900  1
  O  O38  1  0.67974500  0.32260800  0.07259000  1
  O  O39  1  0.32025500  0.32260800  0.57259000  1
  O  O40  1  0.91867500  0.27352100  0.77612100  1
  O  O41  1  0.58425900  0.93149200  0.43326100  1
  O  O42  1  0.25986500  0.79854900  0.45725700  1
  O  O43  1  0.57898300  0.57036500  0.11429700  1
  O  O44  1  0.40836300  0.19700500  0.29890500  1
  O  O45  1  0.25929800  0.46930300  0.12985300  1
  O  O46  1  0.07066900  0.13814900  0.54340700  1
  O  O47  1  0.25929800  0.53069700  0.37014700  1
  O  O48  1  0.91118600  0.48423500  0.38488100  1
  O  O49  1  0.57898300  0.42963500  0.38570300  1
  O  O50  1  0.08881400  0.48423500  0.88488100  1
  O  O51  1  0.59163700  0.19700500  0.79890500  1
  O  O52  1  0.59163700  0.80299500  0.70109500  1
  O  O53  1  0.07066900  0.86185100  0.95659300  1
  O  O54  1  0.08132500  0.27352100  0.27612100  1
  O  O55  1  0.74013500  0.20145100  0.54274300  1
  O  O56  1  0.17922500  0.00000000  0.25000000  1
  O  O57  1  0.24338600  0.13640600  0.80662500  1
  O  O58  1  0.58425900  0.06850800  0.06673900  1
  O  O59  1  0.92933100  0.86185100  0.45659300  1
  O  O60  1  0.25986500  0.20145100  0.04274300  1
  O  O61  1  0.75661400  0.86359400  0.19337500  1
  O  O62  1  0.42101700  0.57036500  0.61429700  1
  O  O63  1  0.67974500  0.67739200  0.42741000  1
  O  O64  1  0.24338600  0.86359400  0.69337500  1
  O  O65  1  0.40836300  0.80299500  0.20109500  1
