# generated using pymatgen
data_ZnCuP2O7
_symmetry_space_group_name_H-M   'P 1'
_cell_length_a   5.60466800
_cell_length_b   6.34643852
_cell_length_c   7.49858677
_cell_angle_alpha   96.19971098
_cell_angle_beta   90.24775621
_cell_angle_gamma   109.49700508
_symmetry_Int_Tables_number   1
_chemical_formula_structural   ZnCuP2O7
_chemical_formula_sum   'Zn2 Cu2 P4 O14'
_cell_volume   249.72571458
_cell_formula_units_Z   2
loop_
 _symmetry_equiv_pos_site_id
 _symmetry_equiv_pos_as_xyz
  1  'x, y, z'
loop_
 _atom_site_type_symbol
 _atom_site_label
 _atom_site_symmetry_multiplicity
 _atom_site_fract_x
 _atom_site_fract_y
 _atom_site_fract_z
 _atom_site_occupancy
  Zn  Zn0  1  0.67376200  0.67637700  0.35619700  1
  Zn  Zn1  1  0.32623800  0.32362300  0.64380300  1
  Cu  Cu2  1  0.72799700  0.14045800  0.81845800  1
  Cu  Cu3  1  0.27200300  0.85954200  0.18154200  1
  P  P4  1  0.82797700  0.67130400  0.89137400  1
  P  P5  1  0.17202300  0.32869600  0.10862600  1
  P  P6  1  0.78017300  0.21597800  0.38842200  1
  P  P7  1  0.21982700  0.78402200  0.61157800  1
  O  O8  1  0.92013800  0.72055500  0.09055600  1
  O  O9  1  0.07986200  0.27944500  0.90944400  1
  O  O10  1  0.71575800  0.83602800  0.82580600  1
  O  O11  1  0.28424200  0.16397200  0.17419400  1
  O  O12  1  0.64354600  0.42572200  0.84530400  1
  O  O13  1  0.35645400  0.57427800  0.15469600  1
  O  O14  1  0.37434900  0.63039500  0.55688200  1
  O  O15  1  0.62565100  0.36960500  0.44311800  1
  O  O16  1  0.96203800  0.20963200  0.53663900  1
  O  O17  1  0.03796200  0.79036800  0.46336100  1
  O  O18  1  0.92138500  0.32033800  0.21630500  1
  O  O19  1  0.39024800  0.02901400  0.68295300  1
  O  O20  1  0.60975200  0.97098600  0.31704700  1
  O  O21  1  0.07861500  0.67966200  0.78369500  1
