# generated using pymatgen
data_YMo3F15
_symmetry_space_group_name_H-M   'P 1'
_cell_length_a   10.72100900
_cell_length_b   5.62738300
_cell_length_c   9.99483877
_cell_angle_alpha   84.23794401
_cell_angle_beta   90.00000000
_cell_angle_gamma   90.00000000
_symmetry_Int_Tables_number   1
_chemical_formula_structural   YMo3F15
_chemical_formula_sum   'Y2 Mo6 F30'
_cell_volume   599.95414165
_cell_formula_units_Z   2
loop_
 _symmetry_equiv_pos_site_id
 _symmetry_equiv_pos_as_xyz
  1  'x, y, z'
loop_
 _atom_site_type_symbol
 _atom_site_label
 _atom_site_symmetry_multiplicity
 _atom_site_fract_x
 _atom_site_fract_y
 _atom_site_fract_z
 _atom_site_occupancy
  Y  Y0  1  0.75000000  0.41805200  0.70394500  1
  Y  Y1  1  0.25000000  0.58194800  0.29605500  1
  Mo  Mo2  1  0.50000000  0.00000000  0.50000000  1
  Mo  Mo3  1  0.55356700  0.03347900  0.15746400  1
  Mo  Mo4  1  0.44643300  0.96652100  0.84253600  1
  Mo  Mo5  1  0.00000000  0.00000000  0.50000000  1
  Mo  Mo6  1  0.94643300  0.03347900  0.15746400  1
  Mo  Mo7  1  0.05356700  0.96652100  0.84253600  1
  F  F8  1  0.75000000  0.70136200  0.55638500  1
  F  F9  1  0.75000000  0.97515200  0.17121100  1
  F  F10  1  0.75000000  0.65855600  0.83930000  1
  F  F11  1  0.25000000  0.29863800  0.44361500  1
  F  F12  1  0.25000000  0.34144400  0.16070000  1
  F  F13  1  0.25000000  0.02484800  0.82878900  1
  F  F14  1  0.40059300  0.14722900  0.64336900  1
  F  F15  1  0.47714300  0.21646700  0.31884300  1
  F  F16  1  0.41796600  0.14854600  0.01047200  1
  F  F17  1  0.59940700  0.85277100  0.35663100  1
  F  F18  1  0.58203400  0.85145400  0.98952800  1
  F  F19  1  0.52285700  0.78353300  0.68115700  1
  F  F20  1  0.12993200  0.77310400  0.46204000  1
  F  F21  1  0.08620100  0.78945000  0.19658700  1
  F  F22  1  0.11348500  0.65688800  0.90112000  1
  F  F23  1  0.87006800  0.22689600  0.53796000  1
  F  F24  1  0.88651500  0.34311200  0.09888000  1
  F  F25  1  0.91379900  0.21055000  0.80341300  1
  F  F26  1  0.62993200  0.22689600  0.53796000  1
  F  F27  1  0.61348500  0.34311200  0.09888000  1
  F  F28  1  0.58620100  0.21055000  0.80341300  1
  F  F29  1  0.37006800  0.77310400  0.46204000  1
  F  F30  1  0.41379900  0.78945000  0.19658700  1
  F  F31  1  0.38651500  0.65688800  0.90112000  1
  F  F32  1  0.09940700  0.14722900  0.64336900  1
  F  F33  1  0.02285700  0.21646700  0.31884300  1
  F  F34  1  0.08203400  0.14854600  0.01047200  1
  F  F35  1  0.90059300  0.85277100  0.35663100  1
  F  F36  1  0.91796600  0.85145400  0.98952800  1
  F  F37  1  0.97714300  0.78353300  0.68115700  1
