# generated using pymatgen
data_Ba2Mg3Mn4Tl2O12
_symmetry_space_group_name_H-M   'P 1'
_cell_length_a   3.83653179
_cell_length_b   3.83653213
_cell_length_c   23.06727865
_cell_angle_alpha   94.77019995
_cell_angle_beta   94.77020195
_cell_angle_gamma   90.00000049
_symmetry_Int_Tables_number   1
_chemical_formula_structural   Ba2Mg3Mn4Tl2O12
_chemical_formula_sum   'Ba2 Mg3 Mn4 Tl2 O12'
_cell_volume   337.17057836
_cell_formula_units_Z   1
loop_
 _symmetry_equiv_pos_site_id
 _symmetry_equiv_pos_as_xyz
  1  'x, y, z'
loop_
 _atom_site_type_symbol
 _atom_site_label
 _atom_site_symmetry_multiplicity
 _atom_site_fract_x
 _atom_site_fract_y
 _atom_site_fract_z
 _atom_site_occupancy
  Ba  Ba0  1  0.16344300  0.16344300  0.32688600  1
  Ba  Ba1  1  0.83655700  0.83655700  0.67311400  1
  Mg  Mg2  1  0.07828800  0.07828800  0.15657800  1
  Mg  Mg3  1  0.92171200  0.92171200  0.84342200  1
  Mg  Mg4  1  0.00000000  0.00000000  0.00000000  1
  Mn  Mn5  1  0.53579000  0.53579000  0.07158000  1
  Mn  Mn6  1  0.39190200  0.39190200  0.78380300  1
  Mn  Mn7  1  0.60809800  0.60809800  0.21619700  1
  Mn  Mn8  1  0.46421000  0.46421000  0.92842000  1
  Tl  Tl9  1  0.72486500  0.72486500  0.44972800  1
  Tl  Tl10  1  0.27513500  0.27513500  0.55027200  1
  O  O11  1  0.40495300  0.90495300  0.80990600  1
  O  O12  1  0.52998900  0.02998900  0.05997800  1
  O  O13  1  0.22112800  0.22112800  0.44225600  1
  O  O14  1  0.97001100  0.47001100  0.94002200  1
  O  O15  1  0.77887200  0.77887200  0.55774400  1
  O  O16  1  0.09504700  0.59504700  0.19009400  1
  O  O17  1  0.59504700  0.09504700  0.19009400  1
  O  O18  1  0.34750400  0.34750400  0.69500700  1
  O  O19  1  0.90495300  0.40495300  0.80990600  1
  O  O20  1  0.02998900  0.52998900  0.05997800  1
  O  O21  1  0.47001100  0.97001100  0.94002200  1
  O  O22  1  0.65249600  0.65249600  0.30499300  1
