# generated using pymatgen
data_Mg3Fe3(AsO4)4
_symmetry_space_group_name_H-M   'P 1'
_cell_length_a   5.23566700
_cell_length_b   8.66009100
_cell_length_c   16.27423041
_cell_angle_alpha   68.50495843
_cell_angle_beta   90.00000000
_cell_angle_gamma   90.00000000
_symmetry_Int_Tables_number   1
_chemical_formula_structural   Mg3Fe3(AsO4)4
_chemical_formula_sum   'Mg6 Fe6 As8 O32'
_cell_volume   686.57445017
_cell_formula_units_Z   2
loop_
 _symmetry_equiv_pos_site_id
 _symmetry_equiv_pos_as_xyz
  1  'x, y, z'
loop_
 _atom_site_type_symbol
 _atom_site_label
 _atom_site_symmetry_multiplicity
 _atom_site_fract_x
 _atom_site_fract_y
 _atom_site_fract_z
 _atom_site_occupancy
  Mg  Mg0  1  0.55952500  0.31637100  0.21078500  1
  Mg  Mg1  1  0.05952500  0.68362900  0.28921500  1
  Mg  Mg2  1  0.44047500  0.68362900  0.78921500  1
  Mg  Mg3  1  0.94047500  0.31637100  0.71078500  1
  Mg  Mg4  1  0.50000000  0.00000000  0.50000000  1
  Mg  Mg5  1  0.00000000  0.00000000  0.00000000  1
  Fe  Fe6  1  0.48967000  0.19788800  0.62509400  1
  Fe  Fe7  1  0.51033000  0.80211200  0.37490600  1
  Fe  Fe8  1  0.98967000  0.80211200  0.87490600  1
  Fe  Fe9  1  0.01033000  0.19788800  0.12509400  1
  Fe  Fe10  1  0.00000000  0.50000000  0.50000000  1
  Fe  Fe11  1  0.50000000  0.50000000  0.00000000  1
  As  As12  1  0.98433400  0.03307400  0.35119900  1
  As  As13  1  0.49880800  0.41586200  0.39508800  1
  As  As14  1  0.99880800  0.58413800  0.10491200  1
  As  As15  1  0.00119200  0.41586200  0.89508800  1
  As  As16  1  0.01566600  0.96692600  0.64880100  1
  As  As17  1  0.50119200  0.58413800  0.60491200  1
  As  As18  1  0.51566600  0.03307400  0.85119900  1
  As  As19  1  0.48433400  0.96692600  0.14880100  1
  O  O20  1  0.40498600  0.81419600  0.24965600  1
  O  O21  1  0.94251300  0.75394800  0.01149100  1
  O  O22  1  0.42042200  0.39339000  0.30017600  1
  O  O23  1  0.39452800  0.15808400  0.15605000  1
  O  O24  1  0.57957800  0.60661000  0.69982400  1
  O  O25  1  0.09501400  0.81419600  0.74965600  1
  O  O26  1  0.92042200  0.60661000  0.19982400  1
  O  O27  1  0.70402900  0.50587300  0.89357100  1
  O  O28  1  0.68721500  0.07692200  0.92653700  1
  O  O29  1  0.59501400  0.18580400  0.75034400  1
  O  O30  1  0.10547200  0.15808400  0.65605000  1
  O  O31  1  0.29597100  0.49412700  0.10642900  1
  O  O32  1  0.28951800  0.57095600  0.40336800  1
  O  O33  1  0.31278500  0.92307800  0.07346300  1
  O  O34  1  0.69219400  0.98964900  0.62601100  1
  O  O35  1  0.19219400  0.01035100  0.87398900  1
  O  O36  1  0.78951800  0.42904400  0.09663200  1
  O  O37  1  0.07957800  0.39339000  0.80017600  1
  O  O38  1  0.18721500  0.92307800  0.57346300  1
  O  O39  1  0.20402900  0.49412700  0.60642900  1
  O  O40  1  0.80780600  0.98964900  0.12601100  1
  O  O41  1  0.30780600  0.01035100  0.37398900  1
  O  O42  1  0.05748700  0.24605200  0.98850900  1
  O  O43  1  0.44251300  0.24605200  0.48850900  1
  O  O44  1  0.71048200  0.42904400  0.59663200  1
  O  O45  1  0.90498600  0.18580400  0.25034400  1
  O  O46  1  0.60547200  0.84191600  0.84395000  1
  O  O47  1  0.81278500  0.07692200  0.42653700  1
  O  O48  1  0.55748700  0.75394800  0.51149100  1
  O  O49  1  0.79597100  0.50587300  0.39357100  1
  O  O50  1  0.21048200  0.57095600  0.90336800  1
  O  O51  1  0.89452800  0.84191600  0.34395000  1
