# generated using pymatgen
data_Ti2ZnO4
_symmetry_space_group_name_H-M   'P 1'
_cell_length_a   2.92296100
_cell_length_b   9.60948500
_cell_length_c   10.13878800
_cell_angle_alpha   90.00000000
_cell_angle_beta   90.00000000
_cell_angle_gamma   90.00000000
_symmetry_Int_Tables_number   1
_chemical_formula_structural   Ti2ZnO4
_chemical_formula_sum   'Ti8 Zn4 O16'
_cell_volume   284.77979700
_cell_formula_units_Z   4
loop_
 _symmetry_equiv_pos_site_id
 _symmetry_equiv_pos_as_xyz
  1  'x, y, z'
loop_
 _atom_site_type_symbol
 _atom_site_label
 _atom_site_symmetry_multiplicity
 _atom_site_fract_x
 _atom_site_fract_y
 _atom_site_fract_z
 _atom_site_occupancy
  Ti  Ti0  1  0.24035500  0.12376500  0.43016500  1
  Ti  Ti1  1  0.24035500  0.37623500  0.93016500  1
  Ti  Ti2  1  0.75964500  0.87623500  0.93016500  1
  Ti  Ti3  1  0.24035500  0.37623500  0.56983500  1
  Ti  Ti4  1  0.75964500  0.87623500  0.56983500  1
  Ti  Ti5  1  0.24035500  0.12376500  0.06983500  1
  Ti  Ti6  1  0.75964500  0.62376500  0.06983500  1
  Ti  Ti7  1  0.75964500  0.62376500  0.43016500  1
  Zn  Zn8  1  0.72096700  0.36990200  0.25000000  1
  Zn  Zn9  1  0.72096700  0.13009800  0.75000000  1
  Zn  Zn10  1  0.27903300  0.86990200  0.25000000  1
  Zn  Zn11  1  0.27903300  0.63009800  0.75000000  1
  O  O12  1  0.74366300  0.97633400  0.11385300  1
  O  O13  1  0.25633700  0.02366600  0.88614700  1
  O  O14  1  0.74105200  0.25000000  0.00000000  1
  O  O15  1  0.25633700  0.47633400  0.11385300  1
  O  O16  1  0.25633700  0.47633400  0.38614700  1
  O  O17  1  0.22292100  0.28471000  0.75000000  1
  O  O18  1  0.74366300  0.52366600  0.88614700  1
  O  O19  1  0.77707900  0.78471000  0.75000000  1
  O  O20  1  0.74105200  0.25000000  0.50000000  1
  O  O21  1  0.25894800  0.75000000  0.00000000  1
  O  O22  1  0.74366300  0.97633400  0.38614700  1
  O  O23  1  0.77707900  0.71529000  0.25000000  1
  O  O24  1  0.22292100  0.21529000  0.25000000  1
  O  O25  1  0.25894800  0.75000000  0.50000000  1
  O  O26  1  0.74366300  0.52366600  0.61385300  1
  O  O27  1  0.25633700  0.02366600  0.61385300  1
