# generated using pymatgen
data_AlSb(WO4)2
_symmetry_space_group_name_H-M   'P 1'
_cell_length_a   5.62752100
_cell_length_b   5.19810300
_cell_length_c   10.68662032
_cell_angle_alpha   60.81131254
_cell_angle_beta   90.00000000
_cell_angle_gamma   90.00000000
_symmetry_Int_Tables_number   1
_chemical_formula_structural   AlSb(WO4)2
_chemical_formula_sum   'Al2 Sb2 W4 O16'
_cell_volume   272.91397435
_cell_formula_units_Z   2
loop_
 _symmetry_equiv_pos_site_id
 _symmetry_equiv_pos_as_xyz
  1  'x, y, z'
loop_
 _atom_site_type_symbol
 _atom_site_label
 _atom_site_symmetry_multiplicity
 _atom_site_fract_x
 _atom_site_fract_y
 _atom_site_fract_z
 _atom_site_occupancy
  Al  Al0  1  0.66612300  0.50000000  0.25000000  1
  Al  Al1  1  0.33387700  0.50000000  0.75000000  1
  Sb  Sb2  1  0.36156600  0.00000000  0.25000000  1
  Sb  Sb3  1  0.63843400  0.00000000  0.75000000  1
  W  W4  1  0.15812900  0.75486000  0.00160200  1
  W  W5  1  0.15812900  0.24514000  0.49839800  1
  W  W6  1  0.84187100  0.24514000  0.99839800  1
  W  W7  1  0.84187100  0.75486000  0.50160200  1
  O  O8  1  0.40030300  0.22375400  0.35976400  1
  O  O9  1  0.40030300  0.77624600  0.14023600  1
  O  O10  1  0.59969700  0.77624600  0.64023600  1
  O  O11  1  0.59969700  0.22375400  0.85976400  1
  O  O12  1  0.87927300  0.71195800  0.88155200  1
  O  O13  1  0.87927300  0.28804200  0.61844800  1
  O  O14  1  0.12072700  0.28804200  0.11844800  1
  O  O15  1  0.12072700  0.71195800  0.38155200  1
  O  O16  1  0.62101300  0.70698500  0.36034200  1
  O  O17  1  0.62101300  0.29301500  0.13965800  1
  O  O18  1  0.37898700  0.29301500  0.63965800  1
  O  O19  1  0.37898700  0.70698500  0.86034200  1
  O  O20  1  0.88432200  0.21553200  0.37827400  1
  O  O21  1  0.11567800  0.78446800  0.62172600  1
  O  O22  1  0.88432200  0.78446800  0.12172600  1
  O  O23  1  0.11567800  0.21553200  0.87827400  1
