# generated using pymatgen
data_Ti3Zn3(AsO4)4
_symmetry_space_group_name_H-M   'P 1'
_cell_length_a   4.93760200
_cell_length_b   8.63011700
_cell_length_c   16.28125194
_cell_angle_alpha   76.03540388
_cell_angle_beta   90.00000000
_cell_angle_gamma   90.00000000
_symmetry_Int_Tables_number   1
_chemical_formula_structural   Ti3Zn3(AsO4)4
_chemical_formula_sum   'Ti6 Zn6 As8 O32'
_cell_volume   673.27346748
_cell_formula_units_Z   2
loop_
 _symmetry_equiv_pos_site_id
 _symmetry_equiv_pos_as_xyz
  1  'x, y, z'
loop_
 _atom_site_type_symbol
 _atom_site_label
 _atom_site_symmetry_multiplicity
 _atom_site_fract_x
 _atom_site_fract_y
 _atom_site_fract_z
 _atom_site_occupancy
  Ti  Ti0  1  0.44793600  0.22736300  0.61465900  1
  Ti  Ti1  1  0.55206400  0.77263700  0.38534100  1
  Ti  Ti2  1  0.94793600  0.77263700  0.88534100  1
  Ti  Ti3  1  0.05206400  0.22736300  0.11465900  1
  Ti  Ti4  1  0.00000000  0.50000000  0.50000000  1
  Ti  Ti5  1  0.50000000  0.50000000  0.00000000  1
  Zn  Zn6  1  0.57319200  0.40246700  0.20823200  1
  Zn  Zn7  1  0.07319200  0.59753300  0.29176800  1
  Zn  Zn8  1  0.42680800  0.59753300  0.79176800  1
  Zn  Zn9  1  0.92680800  0.40246700  0.70823200  1
  Zn  Zn10  1  0.50000000  0.00000000  0.50000000  1
  Zn  Zn11  1  0.00000000  0.00000000  0.00000000  1
  As  As12  1  0.94200400  0.10990600  0.32904300  1
  As  As13  1  0.49152100  0.37818500  0.40533900  1
  As  As14  1  0.99152100  0.62181500  0.09466100  1
  As  As15  1  0.00847900  0.37818500  0.90533900  1
  As  As16  1  0.05799600  0.89009400  0.67095700  1
  As  As17  1  0.50847900  0.62181500  0.59466100  1
  As  As18  1  0.55799600  0.10990600  0.82904300  1
  As  As19  1  0.44200400  0.89009400  0.17095700  1
  O  O20  1  0.34793800  0.76971900  0.27524600  1
  O  O21  1  0.71021400  0.70479700  0.99370400  1
  O  O22  1  0.33084300  0.40966000  0.30447400  1
  O  O23  1  0.29976100  0.08000500  0.17736500  1
  O  O24  1  0.66915700  0.59034000  0.69552600  1
  O  O25  1  0.15206200  0.76971900  0.77524600  1
  O  O26  1  0.83084300  0.59034000  0.19552600  1
  O  O27  1  0.70156200  0.51170100  0.88686400  1
  O  O28  1  0.83541000  0.18286900  0.89354800  1
  O  O29  1  0.65206200  0.23028100  0.72475400  1
  O  O30  1  0.20023900  0.08000500  0.67736500  1
  O  O31  1  0.29843800  0.48829900  0.11313600  1
  O  O32  1  0.30514100  0.57783700  0.42656200  1
  O  O33  1  0.16459000  0.81713100  0.10645200  1
  O  O34  1  0.66212800  0.10531700  0.57422700  1
  O  O35  1  0.16212800  0.89468300  0.92577300  1
  O  O36  1  0.80514100  0.42216300  0.07343800  1
  O  O37  1  0.16915700  0.40966000  0.80447400  1
  O  O38  1  0.33541000  0.81713100  0.60645200  1
  O  O39  1  0.20156200  0.48829900  0.61313600  1
  O  O40  1  0.83787200  0.10531700  0.07422700  1
  O  O41  1  0.33787200  0.89468300  0.42577300  1
  O  O42  1  0.28978600  0.29520300  0.00629600  1
  O  O43  1  0.21021400  0.29520300  0.50629600  1
  O  O44  1  0.69485900  0.42216300  0.57343800  1
  O  O45  1  0.84793800  0.23028100  0.22475400  1
  O  O46  1  0.70023900  0.91999500  0.82263500  1
  O  O47  1  0.66459000  0.18286900  0.39354800  1
  O  O48  1  0.78978600  0.70479700  0.49370400  1
  O  O49  1  0.79843800  0.51170100  0.38686400  1
  O  O50  1  0.19485900  0.57783700  0.92656200  1
  O  O51  1  0.79976100  0.91999500  0.32263500  1
