# generated using pymatgen
data_SnO2
_symmetry_space_group_name_H-M   'P 1'
_cell_length_a   5.81974883
_cell_length_b   5.81974883
_cell_length_c   5.81974883
_cell_angle_alpha   112.12975327
_cell_angle_beta   108.16399253
_cell_angle_gamma   108.15307558
_symmetry_Int_Tables_number   1
_chemical_formula_structural   SnO2
_chemical_formula_sum   'Sn4 O8'
_cell_volume   151.49050869
_cell_formula_units_Z   4
loop_
 _symmetry_equiv_pos_site_id
 _symmetry_equiv_pos_as_xyz
  1  'x, y, z'
loop_
 _atom_site_type_symbol
 _atom_site_label
 _atom_site_symmetry_multiplicity
 _atom_site_fract_x
 _atom_site_fract_y
 _atom_site_fract_z
 _atom_site_occupancy
  Sn  Sn0  1  0.50359900  0.75000000  0.75359900  1
  Sn  Sn1  1  0.49640100  0.25000000  0.24640100  1
  Sn  Sn2  1  0.00000000  0.50000000  0.00000000  1
  Sn  Sn3  1  0.00000000  0.00000000  0.50000000  1
  O  O4  1  0.30649600  0.50272200  0.30921800  1
  O  O5  1  0.18944500  0.94350500  0.24594000  1
  O  O6  1  0.30649600  0.99727700  0.80377300  1
  O  O7  1  0.80243500  0.55649500  0.24594000  1
  O  O8  1  0.19756500  0.44350500  0.75406000  1
  O  O9  1  0.81055500  0.05649500  0.75406000  1
  O  O10  1  0.69350400  0.00272300  0.19622700  1
  O  O11  1  0.69350400  0.49727800  0.69078200  1
