# generated using pymatgen
data_Zn(FeO2)2
_symmetry_space_group_name_H-M   'P 1'
_cell_length_a   5.07849391
_cell_length_b   5.07849391
_cell_length_c   10.05653000
_cell_angle_alpha   90.00000000
_cell_angle_beta   90.00000000
_cell_angle_gamma   146.39748321
_symmetry_Int_Tables_number   1
_chemical_formula_structural   Zn(FeO2)2
_chemical_formula_sum   'Zn2 Fe4 O8'
_cell_volume   143.54208835
_cell_formula_units_Z   2
loop_
 _symmetry_equiv_pos_site_id
 _symmetry_equiv_pos_as_xyz
  1  'x, y, z'
loop_
 _atom_site_type_symbol
 _atom_site_label
 _atom_site_symmetry_multiplicity
 _atom_site_fract_x
 _atom_site_fract_y
 _atom_site_fract_z
 _atom_site_occupancy
  Zn  Zn0  1  0.61256300  0.38743700  0.75000000  1
  Zn  Zn1  1  0.38743700  0.61256300  0.25000000  1
  Fe  Fe2  1  0.13152100  0.86847900  0.07385400  1
  Fe  Fe3  1  0.86847900  0.13152100  0.92614600  1
  Fe  Fe4  1  0.13152100  0.86847900  0.42614600  1
  Fe  Fe5  1  0.86847900  0.13152100  0.57385400  1
  O  O6  1  0.77005300  0.22994700  0.38658300  1
  O  O7  1  0.22994700  0.77005300  0.61341700  1
  O  O8  1  0.22994700  0.77005300  0.88658300  1
  O  O9  1  0.77005300  0.22994700  0.11341700  1
  O  O10  1  0.03552500  0.96447500  0.25000000  1
  O  O11  1  0.96447500  0.03552500  0.75000000  1
  O  O12  1  0.50000000  0.50000000  0.00000000  1
  O  O13  1  0.50000000  0.50000000  0.50000000  1
