# generated using pymatgen
data_V2F9
_symmetry_space_group_name_H-M   'P 1'
_cell_length_a   5.20355764
_cell_length_b   5.20355764
_cell_length_c   14.46956300
_cell_angle_alpha   90.00000000
_cell_angle_beta   90.00000000
_cell_angle_gamma   119.99999540
_symmetry_Int_Tables_number   1
_chemical_formula_structural   V2F9
_chemical_formula_sum   'V4 F18'
_cell_volume   339.30230173
_cell_formula_units_Z   2
loop_
 _symmetry_equiv_pos_site_id
 _symmetry_equiv_pos_as_xyz
  1  'x, y, z'
loop_
 _atom_site_type_symbol
 _atom_site_label
 _atom_site_symmetry_multiplicity
 _atom_site_fract_x
 _atom_site_fract_y
 _atom_site_fract_z
 _atom_site_occupancy
  V  V0  1  0.00000000  0.00000000  0.35093600  1
  V  V1  1  0.00000000  0.00000000  0.14906400  1
  V  V2  1  0.00000000  0.00000000  0.64906400  1
  V  V3  1  0.00000000  0.00000000  0.85093600  1
  F  F4  1  0.00000000  0.70267600  0.59315600  1
  F  F5  1  0.29732400  0.00000000  0.09315600  1
  F  F6  1  0.00000000  0.29732400  0.09315600  1
  F  F7  1  0.29732400  0.29732400  0.59315600  1
  F  F8  1  0.26414600  0.26414600  0.25000000  1
  F  F9  1  0.70267600  0.00000000  0.59315600  1
  F  F10  1  0.29732400  0.29732400  0.90684400  1
  F  F11  1  0.70267600  0.70267600  0.09315600  1
  F  F12  1  0.26414600  0.00000000  0.75000000  1
  F  F13  1  0.29732400  0.00000000  0.40684400  1
  F  F14  1  0.73585400  0.73585400  0.75000000  1
  F  F15  1  0.70267600  0.70267600  0.40684400  1
  F  F16  1  0.00000000  0.70267600  0.90684400  1
  F  F17  1  0.00000000  0.73585400  0.25000000  1
  F  F18  1  0.70267600  0.00000000  0.90684400  1
  F  F19  1  0.73585400  0.00000000  0.25000000  1
  F  F20  1  0.00000000  0.29732400  0.40684400  1
  F  F21  1  0.00000000  0.26414600  0.75000000  1
