# generated using pymatgen
data_Ca(SnO2)2
_symmetry_space_group_name_H-M   'P 1'
_cell_length_a   3.23691600
_cell_length_b   10.85825000
_cell_length_c   11.45129100
_cell_angle_alpha   90.00000000
_cell_angle_beta   90.00000000
_cell_angle_gamma   90.00000000
_symmetry_Int_Tables_number   1
_chemical_formula_structural   Ca(SnO2)2
_chemical_formula_sum   'Ca4 Sn8 O16'
_cell_volume   402.48130924
_cell_formula_units_Z   4
loop_
 _symmetry_equiv_pos_site_id
 _symmetry_equiv_pos_as_xyz
  1  'x, y, z'
loop_
 _atom_site_type_symbol
 _atom_site_label
 _atom_site_symmetry_multiplicity
 _atom_site_fract_x
 _atom_site_fract_y
 _atom_site_fract_z
 _atom_site_occupancy
  Ca  Ca0  1  0.26253700  0.75069100  0.64310500  1
  Ca  Ca1  1  0.26253700  0.25069100  0.85689500  1
  Ca  Ca2  1  0.73746300  0.75069100  0.14310500  1
  Ca  Ca3  1  0.73746300  0.25069100  0.35689500  1
  Sn  Sn4  1  0.76039400  0.58181000  0.89056300  1
  Sn  Sn5  1  0.76039400  0.08181000  0.60943700  1
  Sn  Sn6  1  0.23960600  0.08181000  0.10943700  1
  Sn  Sn7  1  0.75386700  0.42811500  0.61986400  1
  Sn  Sn8  1  0.24613300  0.42811500  0.11986400  1
  Sn  Sn9  1  0.75386700  0.92811500  0.88013600  1
  Sn  Sn10  1  0.24613300  0.92811500  0.38013600  1
  Sn  Sn11  1  0.23960600  0.58181000  0.39056300  1
  O  O12  1  0.25567400  0.87593300  0.00074100  1
  O  O13  1  0.75501100  0.10941500  0.95771500  1
  O  O14  1  0.25469300  0.98987500  0.77763100  1
  O  O15  1  0.74432600  0.87593300  0.50074100  1
  O  O16  1  0.75501100  0.60941500  0.54228500  1
  O  O17  1  0.76058200  0.26401000  0.71226800  1
  O  O18  1  0.24498900  0.10941500  0.45771500  1
  O  O19  1  0.23941800  0.26401000  0.21226800  1
  O  O20  1  0.25469300  0.48987500  0.72236900  1
  O  O21  1  0.74530700  0.98987500  0.27763100  1
  O  O22  1  0.24498900  0.60941500  0.04228500  1
  O  O23  1  0.23941800  0.76401000  0.28773200  1
  O  O24  1  0.76058200  0.76401000  0.78773200  1
  O  O25  1  0.74530700  0.48987500  0.22236900  1
  O  O26  1  0.25567400  0.37593300  0.49925900  1
  O  O27  1  0.74432600  0.37593300  0.99925900  1
