# generated using pymatgen
data_Zn(WO2)2
_symmetry_space_group_name_H-M   'P 1'
_cell_length_a   5.47514906
_cell_length_b   5.47514906
_cell_length_c   10.34451200
_cell_angle_alpha   90.00000000
_cell_angle_beta   90.00000000
_cell_angle_gamma   146.38675485
_symmetry_Int_Tables_number   1
_chemical_formula_structural   Zn(WO2)2
_chemical_formula_sum   'Zn2 W4 O8'
_cell_volume   171.66647772
_cell_formula_units_Z   2
loop_
 _symmetry_equiv_pos_site_id
 _symmetry_equiv_pos_as_xyz
  1  'x, y, z'
loop_
 _atom_site_type_symbol
 _atom_site_label
 _atom_site_symmetry_multiplicity
 _atom_site_fract_x
 _atom_site_fract_y
 _atom_site_fract_z
 _atom_site_occupancy
  Zn  Zn0  1  0.61051200  0.38948800  0.75000000  1
  Zn  Zn1  1  0.38948800  0.61051200  0.25000000  1
  W  W2  1  0.13076900  0.86923100  0.07348900  1
  W  W3  1  0.86923100  0.13076900  0.92651100  1
  W  W4  1  0.13076900  0.86923100  0.42651100  1
  W  W5  1  0.86923100  0.13076900  0.57348900  1
  O  O6  1  0.76766100  0.23233900  0.38722100  1
  O  O7  1  0.23233900  0.76766100  0.61277900  1
  O  O8  1  0.23233900  0.76766100  0.88722100  1
  O  O9  1  0.76766100  0.23233900  0.11277900  1
  O  O10  1  0.01525600  0.98474400  0.25000000  1
  O  O11  1  0.98474400  0.01525600  0.75000000  1
  O  O12  1  0.50000000  0.50000000  0.00000000  1
  O  O13  1  0.50000000  0.50000000  0.50000000  1
