# generated using pymatgen
data_Ca(MoO2)2
_symmetry_space_group_name_H-M   'P 1'
_cell_length_a   6.45739856
_cell_length_b   6.45739856
_cell_length_c   22.19575173
_cell_angle_alpha   78.32662076
_cell_angle_beta   78.32662076
_cell_angle_gamma   62.16573347
_symmetry_Int_Tables_number   1
_chemical_formula_structural   Ca(MoO2)2
_chemical_formula_sum   'Ca8 Mo16 O32'
_cell_volume   795.26892626
_cell_formula_units_Z   8
loop_
 _symmetry_equiv_pos_site_id
 _symmetry_equiv_pos_as_xyz
  1  'x, y, z'
loop_
 _atom_site_type_symbol
 _atom_site_label
 _atom_site_symmetry_multiplicity
 _atom_site_fract_x
 _atom_site_fract_y
 _atom_site_fract_z
 _atom_site_occupancy
  Ca  Ca0  1  0.18470000  0.18470000  0.97110200  1
  Ca  Ca1  1  0.74900100  0.74900100  0.87514500  1
  Ca  Ca2  1  0.68299600  0.68299600  0.71781700  1
  Ca  Ca3  1  0.24604900  0.24604900  0.62642100  1
  Ca  Ca4  1  0.74844100  0.74844100  0.37562100  1
  Ca  Ca5  1  0.49667700  0.49667700  0.50137700  1
  Ca  Ca6  1  0.25329300  0.25329300  0.12542300  1
  Ca  Ca7  1  0.00215900  0.00215900  0.24936700  1
  Mo  Mo8  1  0.74752500  0.25572400  0.87480100  1
  Mo  Mo9  1  0.00102300  0.00102300  0.74890300  1
  Mo  Mo10  1  0.25572400  0.74752500  0.87480100  1
  Mo  Mo11  1  0.18255500  0.18255500  0.46935400  1
  Mo  Mo12  1  0.24657500  0.75116600  0.62540400  1
  Mo  Mo13  1  0.32087900  0.32087900  0.77889400  1
  Mo  Mo14  1  0.68947300  0.68947300  0.21997200  1
  Mo  Mo15  1  0.75116600  0.24657500  0.62540400  1
  Mo  Mo16  1  0.74847100  0.24839800  0.37526600  1
  Mo  Mo17  1  0.81194400  0.81194400  0.53139100  1
  Mo  Mo18  1  0.24839800  0.74847100  0.37526600  1
  Mo  Mo19  1  0.75238100  0.25322000  0.12518600  1
  Mo  Mo20  1  0.25322000  0.75238100  0.12518600  1
  Mo  Mo21  1  0.31447300  0.31447300  0.28236400  1
  Mo  Mo22  1  0.50433100  0.50433100  0.99801300  1
  Mo  Mo23  1  0.83243200  0.83243200  0.02767100  1
  O  O24  1  0.39749700  0.83204800  0.93948400  1
  O  O25  1  0.59693100  0.59693100  0.82132300  1
  O  O26  1  0.83204800  0.39749700  0.93948400  1
  O  O27  1  0.39687800  0.39687800  0.92765700  1
  O  O28  1  0.10809800  0.10809800  0.82315200  1
  O  O29  1  0.89808700  0.32577500  0.69030200  1
  O  O30  1  0.64941700  0.11057300  0.80775000  1
  O  O31  1  0.09388500  0.09388500  0.56725400  1
  O  O32  1  0.32577500  0.89808700  0.69030200  1
  O  O33  1  0.90279200  0.90279200  0.93132300  1
  O  O34  1  0.89660600  0.89660600  0.67838800  1
  O  O35  1  0.11057300  0.64941700  0.80775000  1
  O  O36  1  0.38666400  0.86056500  0.43822300  1
  O  O37  1  0.61385000  0.61385000  0.57858300  1
  O  O38  1  0.13097500  0.60812400  0.56326200  1
  O  O39  1  0.59487000  0.59487000  0.31832900  1
  O  O40  1  0.86056500  0.38666400  0.43822300  1
  O  O41  1  0.40410000  0.40410000  0.68200700  1
  O  O42  1  0.38498200  0.38498200  0.42295500  1
  O  O43  1  0.60812400  0.13097500  0.56326200  1
  O  O44  1  0.11207000  0.11207000  0.32727700  1
  O  O45  1  0.88836100  0.36841200  0.18750200  1
  O  O46  1  0.63885400  0.10856400  0.31136900  1
  O  O47  1  0.09833300  0.09833300  0.07397500  1
  O  O48  1  0.36841200  0.88836100  0.18750200  1
  O  O49  1  0.90283000  0.90283000  0.43173000  1
  O  O50  1  0.88620800  0.88620800  0.17216900  1
  O  O51  1  0.10856400  0.63885400  0.31136900  1
  O  O52  1  0.60703900  0.60703900  0.07176500  1
  O  O53  1  0.15547500  0.61223600  0.05715600  1
  O  O54  1  0.40507000  0.40507000  0.18186700  1
  O  O55  1  0.61223600  0.15547500  0.05715600  1
