# generated using pymatgen
data_Zn3Fe3(AsO4)4
_symmetry_space_group_name_H-M   'P 1'
_cell_length_a   5.28463900
_cell_length_b   8.62645600
_cell_length_c   16.19911865
_cell_angle_alpha   69.24523634
_cell_angle_beta   90.00000000
_cell_angle_gamma   90.00000000
_symmetry_Int_Tables_number   1
_chemical_formula_structural   Zn3Fe3(AsO4)4
_chemical_formula_sum   'Zn6 Fe6 As8 O32'
_cell_volume   690.55750737
_cell_formula_units_Z   2
loop_
 _symmetry_equiv_pos_site_id
 _symmetry_equiv_pos_as_xyz
  1  'x, y, z'
loop_
 _atom_site_type_symbol
 _atom_site_label
 _atom_site_symmetry_multiplicity
 _atom_site_fract_x
 _atom_site_fract_y
 _atom_site_fract_z
 _atom_site_occupancy
  Zn  Zn0  1  0.56017500  0.30797900  0.21520500  1
  Zn  Zn1  1  0.06017500  0.69202100  0.28479500  1
  Zn  Zn2  1  0.43982500  0.69202100  0.78479500  1
  Zn  Zn3  1  0.93982500  0.30797900  0.71520500  1
  Zn  Zn4  1  0.50000000  0.00000000  0.50000000  1
  Zn  Zn5  1  0.00000000  0.00000000  0.00000000  1
  Fe  Fe6  1  0.49578800  0.19919400  0.62460200  1
  Fe  Fe7  1  0.50421200  0.80080600  0.37539800  1
  Fe  Fe8  1  0.99578800  0.80080600  0.87539800  1
  Fe  Fe9  1  0.00421200  0.19919400  0.12460200  1
  Fe  Fe10  1  0.00000000  0.50000000  0.50000000  1
  Fe  Fe11  1  0.50000000  0.50000000  0.00000000  1
  As  As12  1  0.97860400  0.03102100  0.35192100  1
  As  As13  1  0.49530700  0.41502500  0.39426700  1
  As  As14  1  0.99530700  0.58497500  0.10573300  1
  As  As15  1  0.00469300  0.41502500  0.89426700  1
  As  As16  1  0.02139600  0.96897900  0.64807900  1
  As  As17  1  0.50469300  0.58497500  0.60573300  1
  As  As18  1  0.52139600  0.03102100  0.85192100  1
  As  As19  1  0.47860400  0.96897900  0.14807900  1
  O  O20  1  0.40113900  0.81794300  0.24895500  1
  O  O21  1  0.92983200  0.75185800  0.01161500  1
  O  O22  1  0.40899400  0.39258200  0.29880000  1
  O  O23  1  0.38457600  0.16135100  0.15402700  1
  O  O24  1  0.59100600  0.60741800  0.70120000  1
  O  O25  1  0.09886100  0.81794300  0.74895500  1
  O  O26  1  0.90899400  0.60741800  0.20120000  1
  O  O27  1  0.71038300  0.49974900  0.89529300  1
  O  O28  1  0.68930100  0.08138300  0.92740400  1
  O  O29  1  0.59886100  0.18205700  0.75104500  1
  O  O30  1  0.11542400  0.16135100  0.65402700  1
  O  O31  1  0.28961700  0.50025100  0.10470700  1
  O  O32  1  0.28570100  0.57172200  0.40226200  1
  O  O33  1  0.31069900  0.91861700  0.07259600  1
  O  O34  1  0.70068900  0.99033100  0.62774400  1
  O  O35  1  0.20068900  0.00966900  0.87225600  1
  O  O36  1  0.78570100  0.42827800  0.09773800  1
  O  O37  1  0.09100600  0.39258200  0.79880000  1
  O  O38  1  0.18930100  0.91861700  0.57259600  1
  O  O39  1  0.21038300  0.50025100  0.60470700  1
  O  O40  1  0.79931100  0.99033100  0.12774400  1
  O  O41  1  0.29931100  0.00966900  0.37225600  1
  O  O42  1  0.07016800  0.24814200  0.98838500  1
  O  O43  1  0.42983200  0.24814200  0.48838500  1
  O  O44  1  0.71429900  0.42827800  0.59773800  1
  O  O45  1  0.90113900  0.18205700  0.25104500  1
  O  O46  1  0.61542400  0.83864900  0.84597300  1
  O  O47  1  0.81069900  0.08138300  0.42740400  1
  O  O48  1  0.57016800  0.75185800  0.51161500  1
  O  O49  1  0.78961700  0.49974900  0.39529300  1
  O  O50  1  0.21429900  0.57172200  0.90226200  1
  O  O51  1  0.88457600  0.83864900  0.34597300  1
