# generated using pymatgen
data_Mg3Ni3(AsO4)4
_symmetry_space_group_name_H-M   'P 1'
_cell_length_a   5.14513500
_cell_length_b   8.57013100
_cell_length_c   15.95699521
_cell_angle_alpha   68.97028849
_cell_angle_beta   90.00000000
_cell_angle_gamma   90.00000000
_symmetry_Int_Tables_number   1
_chemical_formula_structural   Mg3Ni3(AsO4)4
_chemical_formula_sum   'Mg6 Ni6 As8 O32'
_cell_volume   656.75073961
_cell_formula_units_Z   2
loop_
 _symmetry_equiv_pos_site_id
 _symmetry_equiv_pos_as_xyz
  1  'x, y, z'
loop_
 _atom_site_type_symbol
 _atom_site_label
 _atom_site_symmetry_multiplicity
 _atom_site_fract_x
 _atom_site_fract_y
 _atom_site_fract_z
 _atom_site_occupancy
  Mg  Mg0  1  0.54616800  0.31022600  0.21126200  1
  Mg  Mg1  1  0.04616800  0.68977400  0.28873800  1
  Mg  Mg2  1  0.45383200  0.68977400  0.78873800  1
  Mg  Mg3  1  0.95383200  0.31022600  0.71126200  1
  Mg  Mg4  1  0.50000000  0.00000000  0.50000000  1
  Mg  Mg5  1  0.00000000  0.00000000  0.00000000  1
  Ni  Ni6  1  0.48909200  0.20576500  0.62442400  1
  Ni  Ni7  1  0.51090800  0.79423500  0.37557600  1
  Ni  Ni8  1  0.98909200  0.79423500  0.87557600  1
  Ni  Ni9  1  0.01090800  0.20576500  0.12442400  1
  Ni  Ni10  1  0.00000000  0.50000000  0.50000000  1
  Ni  Ni11  1  0.50000000  0.50000000  0.00000000  1
  As  As12  1  0.99030300  0.04264400  0.35009500  1
  As  As13  1  0.48805200  0.41725900  0.39802500  1
  As  As14  1  0.98805200  0.58274100  0.10197500  1
  As  As15  1  0.01194800  0.41725900  0.89802500  1
  As  As16  1  0.00969700  0.95735600  0.64990500  1
  As  As17  1  0.51194800  0.58274100  0.60197500  1
  As  As18  1  0.50969700  0.04264400  0.85009500  1
  As  As19  1  0.49030300  0.95735600  0.14990500  1
  O  O20  1  0.41181300  0.80199200  0.25259100  1
  O  O21  1  0.92417700  0.75372200  0.00782000  1
  O  O22  1  0.40934300  0.39564500  0.30120100  1
  O  O23  1  0.38378600  0.14453900  0.15914400  1
  O  O24  1  0.59065700  0.60435500  0.69879900  1
  O  O25  1  0.08818700  0.80199200  0.75259100  1
  O  O26  1  0.90934300  0.60435500  0.19879900  1
  O  O27  1  0.71363800  0.51469100  0.89545900  1
  O  O28  1  0.67596600  0.09479400  0.92683400  1
  O  O29  1  0.58818700  0.19800800  0.74740900  1
  O  O30  1  0.11621400  0.14453900  0.65914400  1
  O  O31  1  0.28636200  0.48530900  0.10454100  1
  O  O32  1  0.27587100  0.57490200  0.40718800  1
  O  O33  1  0.32403400  0.90520600  0.07316600  1
  O  O34  1  0.67823100  0.98735000  0.62859000  1
  O  O35  1  0.17823100  0.01265000  0.87141000  1
  O  O36  1  0.77587100  0.42509800  0.09281200  1
  O  O37  1  0.09065700  0.39564500  0.80120100  1
  O  O38  1  0.17596600  0.90520600  0.57316600  1
  O  O39  1  0.21363800  0.48530900  0.60454100  1
  O  O40  1  0.82176900  0.98735000  0.12859000  1
  O  O41  1  0.32176900  0.01265000  0.37141000  1
  O  O42  1  0.07582300  0.24627800  0.99218000  1
  O  O43  1  0.42417700  0.24627800  0.49218000  1
  O  O44  1  0.72412900  0.42509800  0.59281200  1
  O  O45  1  0.91181300  0.19800800  0.24740900  1
  O  O46  1  0.61621400  0.85546100  0.84085600  1
  O  O47  1  0.82403400  0.09479400  0.42683400  1
  O  O48  1  0.57582300  0.75372200  0.50782000  1
  O  O49  1  0.78636200  0.51469100  0.39545900  1
  O  O50  1  0.22412900  0.57490200  0.90718800  1
  O  O51  1  0.88378600  0.85546100  0.34085600  1
