# generated using pymatgen
data_Mg3As4W3O16
_symmetry_space_group_name_H-M   'P 1'
_cell_length_a   5.56425500
_cell_length_b   10.14137100
_cell_length_c   15.89090088
_cell_angle_alpha   74.14267335
_cell_angle_beta   90.00000000
_cell_angle_gamma   90.00000000
_symmetry_Int_Tables_number   1
_chemical_formula_structural   Mg3As4W3O16
_chemical_formula_sum   'Mg6 As8 W6 O32'
_cell_volume   862.58617693
_cell_formula_units_Z   2
loop_
 _symmetry_equiv_pos_site_id
 _symmetry_equiv_pos_as_xyz
  1  'x, y, z'
loop_
 _atom_site_type_symbol
 _atom_site_label
 _atom_site_symmetry_multiplicity
 _atom_site_fract_x
 _atom_site_fract_y
 _atom_site_fract_z
 _atom_site_occupancy
  Mg  Mg0  1  0.37715000  0.29422800  0.21938200  1
  Mg  Mg1  1  0.87715000  0.70577200  0.28061800  1
  Mg  Mg2  1  0.62285000  0.70577200  0.78061800  1
  Mg  Mg3  1  0.12285000  0.29422800  0.71938200  1
  Mg  Mg4  1  0.50000000  0.00000000  0.50000000  1
  Mg  Mg5  1  0.00000000  0.00000000  0.00000000  1
  As  As6  1  0.98115900  0.10822500  0.34612200  1
  As  As7  1  0.33043300  0.34436800  0.42221200  1
  As  As8  1  0.83043300  0.65563200  0.07778800  1
  As  As9  1  0.16956700  0.34436800  0.92221200  1
  As  As10  1  0.01884100  0.89177500  0.65387800  1
  As  As11  1  0.66956700  0.65563200  0.57778800  1
  As  As12  1  0.51884100  0.10822500  0.84612200  1
  As  As13  1  0.48115900  0.89177500  0.15387800  1
  W  W14  1  0.62173700  0.19517400  0.61472300  1
  W  W15  1  0.37826300  0.80482600  0.38527700  1
  W  W16  1  0.12173700  0.80482600  0.88527700  1
  W  W17  1  0.87826300  0.19517400  0.11472300  1
  W  W18  1  0.00000000  0.50000000  0.50000000  1
  W  W19  1  0.50000000  0.50000000  0.00000000  1
  O  O20  1  0.18045900  0.79717600  0.29389700  1
  O  O21  1  0.88889800  0.81013100  0.99328800  1
  O  O22  1  0.19643100  0.26601100  0.33732500  1
  O  O23  1  0.15405900  0.17885700  0.17704900  1
  O  O24  1  0.80356900  0.73398900  0.66267500  1
  O  O25  1  0.31954100  0.79717600  0.79389700  1
  O  O26  1  0.69643100  0.73398900  0.16267500  1
  O  O27  1  0.61838800  0.55152300  0.88499400  1
  O  O28  1  0.70255300  0.11129600  0.92920500  1
  O  O29  1  0.81954100  0.20282400  0.70610300  1
  O  O30  1  0.34594100  0.17885700  0.67704900  1
  O  O31  1  0.38161200  0.44847700  0.11500600  1
  O  O32  1  0.28119700  0.63799300  0.46110800  1
  O  O33  1  0.29744700  0.88870400  0.07079500  1
  O  O34  1  0.71156000  0.02208400  0.60480600  1
  O  O35  1  0.21156000  0.97791600  0.89519400  1
  O  O36  1  0.78119700  0.36200700  0.03889200  1
  O  O37  1  0.30356900  0.26601100  0.83732500  1
  O  O38  1  0.20255300  0.88870400  0.57079500  1
  O  O39  1  0.11838800  0.44847700  0.61500600  1
  O  O40  1  0.78844000  0.02208400  0.10480600  1
  O  O41  1  0.28844000  0.97791600  0.39519400  1
  O  O42  1  0.11110200  0.18986900  0.00671200  1
  O  O43  1  0.38889800  0.18986900  0.50671200  1
  O  O44  1  0.71880300  0.36200700  0.53889200  1
  O  O45  1  0.68045900  0.20282400  0.20610300  1
  O  O46  1  0.84594100  0.82114300  0.82295100  1
  O  O47  1  0.79744700  0.11129600  0.42920500  1
  O  O48  1  0.61110200  0.81013100  0.49328800  1
  O  O49  1  0.88161200  0.55152300  0.38499400  1
  O  O50  1  0.21880300  0.63799300  0.96110800  1
  O  O51  1  0.65405900  0.82114300  0.32295100  1
