# generated using pymatgen
data_Mg(CoO2)2
_symmetry_space_group_name_H-M   'P 1'
_cell_length_a   5.05896875
_cell_length_b   5.05896875
_cell_length_c   9.64179600
_cell_angle_alpha   90.00000000
_cell_angle_beta   90.00000000
_cell_angle_gamma   146.44019389
_symmetry_Int_Tables_number   1
_chemical_formula_structural   Mg(CoO2)2
_chemical_formula_sum   'Mg2 Co4 O8'
_cell_volume   136.41293346
_cell_formula_units_Z   2
loop_
 _symmetry_equiv_pos_site_id
 _symmetry_equiv_pos_as_xyz
  1  'x, y, z'
loop_
 _atom_site_type_symbol
 _atom_site_label
 _atom_site_symmetry_multiplicity
 _atom_site_fract_x
 _atom_site_fract_y
 _atom_site_fract_z
 _atom_site_occupancy
  Mg  Mg0  1  0.61216800  0.38783200  0.75000000  1
  Mg  Mg1  1  0.38783200  0.61216800  0.25000000  1
  Co  Co2  1  0.13324300  0.86675700  0.07212100  1
  Co  Co3  1  0.86675700  0.13324300  0.92787900  1
  Co  Co4  1  0.13324300  0.86675700  0.42787900  1
  Co  Co5  1  0.86675700  0.13324300  0.57212100  1
  O  O6  1  0.77603600  0.22396400  0.38610100  1
  O  O7  1  0.22396400  0.77603600  0.61389900  1
  O  O8  1  0.22396400  0.77603600  0.88610100  1
  O  O9  1  0.77603600  0.22396400  0.11389900  1
  O  O10  1  0.04211800  0.95788200  0.25000000  1
  O  O11  1  0.95788200  0.04211800  0.75000000  1
  O  O12  1  0.50000000  0.50000000  0.00000000  1
  O  O13  1  0.50000000  0.50000000  0.50000000  1
