# generated using pymatgen
data_MgV2CuO7
_symmetry_space_group_name_H-M   'P 1'
_cell_length_a   8.37894100
_cell_length_b   10.19836500
_cell_length_c   10.23669861
_cell_angle_alpha   87.11229952
_cell_angle_beta   90.00000000
_cell_angle_gamma   90.00000000
_symmetry_Int_Tables_number   1
_chemical_formula_structural   MgV2CuO7
_chemical_formula_sum   'Mg6 V12 Cu6 O42'
_cell_volume   873.63048656
_cell_formula_units_Z   6
loop_
 _symmetry_equiv_pos_site_id
 _symmetry_equiv_pos_as_xyz
  1  'x, y, z'
loop_
 _atom_site_type_symbol
 _atom_site_label
 _atom_site_symmetry_multiplicity
 _atom_site_fract_x
 _atom_site_fract_y
 _atom_site_fract_z
 _atom_site_occupancy
  Mg  Mg0  1  0.43358100  0.84660400  0.57714500  1
  Mg  Mg1  1  0.93343800  0.50000000  0.75000000  1
  Mg  Mg2  1  0.43358100  0.15339600  0.92285500  1
  Mg  Mg3  1  0.06656200  0.50000000  0.25000000  1
  Mg  Mg4  1  0.56641900  0.15339600  0.42285500  1
  Mg  Mg5  1  0.56641900  0.84660400  0.07714500  1
  V  V6  1  0.21428500  0.83328700  0.28557500  1
  V  V7  1  0.73845000  0.83686300  0.38169000  1
  V  V8  1  0.26155000  0.83686300  0.88169000  1
  V  V9  1  0.78571500  0.83328700  0.78557500  1
  V  V10  1  0.28523800  0.52338500  0.95746400  1
  V  V11  1  0.73845000  0.16313700  0.11831000  1
  V  V12  1  0.71476200  0.52338500  0.45746400  1
  V  V13  1  0.26155000  0.16313700  0.61831000  1
  V  V14  1  0.28523800  0.47661500  0.54253600  1
  V  V15  1  0.71476200  0.47661500  0.04253600  1
  V  V16  1  0.78571500  0.16671300  0.71442500  1
  V  V17  1  0.21428500  0.16671300  0.21442500  1
  Cu  Cu18  1  0.92748700  0.19833400  0.41092200  1
  Cu  Cu19  1  0.07251300  0.80166600  0.58907800  1
  Cu  Cu20  1  0.43429400  0.50000000  0.25000000  1
  Cu  Cu21  1  0.92748700  0.80166600  0.08907800  1
  Cu  Cu22  1  0.56570600  0.50000000  0.75000000  1
  Cu  Cu23  1  0.07251300  0.19833400  0.91092200  1
  O  O24  1  0.75531000  0.80767600  0.95635000  1
  O  O25  1  0.75763900  0.17004600  0.28943600  1
  O  O26  1  0.85221500  0.00000000  0.75000000  1
  O  O27  1  0.89440300  0.48716700  0.11267000  1
  O  O28  1  0.39561600  0.04714100  0.57422700  1
  O  O29  1  0.92574900  0.72575600  0.72127700  1
  O  O30  1  0.36148700  0.69012500  0.94064600  1
  O  O31  1  0.10559700  0.48716700  0.61267000  1
  O  O32  1  0.73940400  0.51636100  0.87397800  1
  O  O33  1  0.39561600  0.95285900  0.92577300  1
  O  O34  1  0.73940400  0.48363900  0.62602200  1
  O  O35  1  0.41993500  0.42393600  0.88042700  1
  O  O36  1  0.91566900  0.14969800  0.03854500  1
  O  O37  1  0.07425100  0.72575600  0.22127700  1
  O  O38  1  0.63851300  0.30987500  0.05935400  1
  O  O39  1  0.36148700  0.30987500  0.55935400  1
  O  O40  1  0.92574900  0.27424400  0.77872300  1
  O  O41  1  0.60438400  0.95285900  0.42577300  1
  O  O42  1  0.24469000  0.80767600  0.45635000  1
  O  O43  1  0.58006500  0.57606400  0.11957300  1
  O  O44  1  0.39101400  0.18484900  0.28938600  1
  O  O45  1  0.26059600  0.48363900  0.12602200  1
  O  O46  1  0.08433100  0.14969800  0.53854500  1
  O  O47  1  0.26059600  0.51636100  0.37397800  1
  O  O48  1  0.89440300  0.51283300  0.38733000  1
  O  O49  1  0.58006500  0.42393600  0.38042700  1
  O  O50  1  0.10559700  0.51283300  0.88733000  1
  O  O51  1  0.60898600  0.18484900  0.78938600  1
  O  O52  1  0.60898600  0.81515100  0.71061400  1
  O  O53  1  0.08433100  0.85030200  0.96145500  1
  O  O54  1  0.07425100  0.27424400  0.27872300  1
  O  O55  1  0.75531000  0.19232400  0.54365000  1
  O  O56  1  0.14778500  0.00000000  0.25000000  1
  O  O57  1  0.24236100  0.17004600  0.78943600  1
  O  O58  1  0.60438400  0.04714100  0.07422700  1
  O  O59  1  0.91566900  0.85030200  0.46145500  1
  O  O60  1  0.24469000  0.19232400  0.04365000  1
  O  O61  1  0.75763900  0.82995400  0.21056400  1
  O  O62  1  0.41993500  0.57606400  0.61957300  1
  O  O63  1  0.63851300  0.69012500  0.44064600  1
  O  O64  1  0.24236100  0.82995400  0.71056400  1
  O  O65  1  0.39101400  0.81515100  0.21061400  1
