# generated using pymatgen
data_Mg(WO2)2
_symmetry_space_group_name_H-M   'P 1'
_cell_length_a   6.32068657
_cell_length_b   6.32068657
_cell_length_c   21.00593709
_cell_angle_alpha   81.67728087
_cell_angle_beta   81.67728087
_cell_angle_gamma   61.77808478
_symmetry_Int_Tables_number   1
_chemical_formula_structural   Mg(WO2)2
_chemical_formula_sum   'Mg8 W16 O32'
_cell_volume   728.85210673
_cell_formula_units_Z   8
loop_
 _symmetry_equiv_pos_site_id
 _symmetry_equiv_pos_as_xyz
  1  'x, y, z'
loop_
 _atom_site_type_symbol
 _atom_site_label
 _atom_site_symmetry_multiplicity
 _atom_site_fract_x
 _atom_site_fract_y
 _atom_site_fract_z
 _atom_site_occupancy
  Mg  Mg0  1  0.63629500  0.63629500  0.02978000  1
  Mg  Mg1  1  0.11272200  0.11272200  0.12666500  1
  Mg  Mg2  1  0.91021400  0.91021400  0.28097200  1
  Mg  Mg3  1  0.38977000  0.38977000  0.37450500  1
  Mg  Mg4  1  0.62064100  0.62064100  0.62304700  1
  Mg  Mg5  1  0.51713000  0.51713000  0.49509200  1
  Mg  Mg6  1  0.86840400  0.86840400  0.87673800  1
  Mg  Mg7  1  0.74780500  0.74780500  0.74867700  1
  W  W8  1  0.61391700  0.11311300  0.12323200  1
  W  W9  1  0.25336800  0.25336800  0.25143100  1
  W  W10  1  0.11311300  0.61391700  0.12323200  1
  W  W11  1  0.14136700  0.14136700  0.54322300  1
  W  W12  1  0.89719400  0.39658100  0.37903500  1
  W  W13  1  0.59478700  0.59478700  0.22389800  1
  W  W14  1  0.38799900  0.38799900  0.81221400  1
  W  W15  1  0.39658100  0.89719400  0.37903500  1
  W  W16  1  0.12868000  0.62214200  0.61880900  1
  W  W17  1  0.89033900  0.89033900  0.47141300  1
  W  W18  1  0.62214200  0.12868000  0.61880900  1
  W  W19  1  0.87078900  0.36755900  0.87772700  1
  W  W20  1  0.36755900  0.87078900  0.87772700  1
  W  W21  1  0.10376700  0.10376700  0.68567500  1
  W  W22  1  0.98230400  0.98230400  0.00861700  1
  W  W23  1  0.34153300  0.34153300  0.95894700  1
  O  O24  1  0.28100600  0.81728000  0.06469400  1
  O  O25  1  0.92864500  0.92864500  0.18025500  1
  O  O26  1  0.81728000  0.28100600  0.06469400  1
  O  O27  1  0.80146600  0.80146600  0.06475100  1
  O  O28  1  0.42552000  0.42552000  0.17748600  1
  O  O29  1  0.55121100  0.09987300  0.31267600  1
  O  O30  1  0.40443700  0.95641800  0.18742600  1
  O  O31  1  0.21101400  0.21101400  0.43326200  1
  O  O32  1  0.09987300  0.55121100  0.31267600  1
  O  O33  1  0.29498200  0.29498200  0.06937100  1
  O  O34  1  0.07898600  0.07898600  0.31999300  1
  O  O35  1  0.95641800  0.40443700  0.18742600  1
  O  O36  1  0.77910200  0.34580400  0.55857600  1
  O  O37  1  0.70308700  0.70308700  0.43698000  1
  O  O38  1  0.68444900  0.22689800  0.43344600  1
  O  O39  1  0.43910400  0.43910400  0.66989100  1
  O  O40  1  0.34580400  0.77910200  0.55857600  1
  O  O41  1  0.58179600  0.58179600  0.32409900  1
  O  O42  1  0.32977500  0.32977500  0.55315400  1
  O  O43  1  0.22689800  0.68444900  0.43344600  1
  O  O44  1  0.91791200  0.91791200  0.68272300  1
  O  O45  1  0.02675500  0.57744300  0.81341600  1
  O  O46  1  0.91896700  0.46643600  0.68296900  1
  O  O47  1  0.68814500  0.68814500  0.93277200  1
  O  O48  1  0.57744300  0.02675500  0.81341600  1
  O  O49  1  0.80168600  0.80168600  0.56390800  1
  O  O50  1  0.57507000  0.57507000  0.81393200  1
  O  O51  1  0.46643600  0.91896700  0.68296900  1
  O  O52  1  0.14994700  0.14994700  0.94590600  1
  O  O53  1  0.15915800  0.72068100  0.94405000  1
  O  O54  1  0.04847400  0.04847400  0.82850300  1
  O  O55  1  0.72068100  0.15915800  0.94405000  1
