# generated using pymatgen
data_Cr3(AsO4)4
_symmetry_space_group_name_H-M   'P 1'
_cell_length_a   5.00132500
_cell_length_b   8.67188900
_cell_length_c   15.80863223
_cell_angle_alpha   67.72828747
_cell_angle_beta   90.00000000
_cell_angle_gamma   90.00000000
_symmetry_Int_Tables_number   1
_chemical_formula_structural   Cr3(AsO4)4
_chemical_formula_sum   'Cr6 As8 O32'
_cell_volume   634.48468826
_cell_formula_units_Z   2
loop_
 _symmetry_equiv_pos_site_id
 _symmetry_equiv_pos_as_xyz
  1  'x, y, z'
loop_
 _atom_site_type_symbol
 _atom_site_label
 _atom_site_symmetry_multiplicity
 _atom_site_fract_x
 _atom_site_fract_y
 _atom_site_fract_z
 _atom_site_occupancy
  Cr  Cr0  1  0.43434000  0.22242800  0.63030000  1
  Cr  Cr1  1  0.56566000  0.77757200  0.36970000  1
  Cr  Cr2  1  0.93434000  0.77757200  0.86970000  1
  Cr  Cr3  1  0.06566000  0.22242800  0.13030000  1
  Cr  Cr4  1  0.00000000  0.50000000  0.50000000  1
  Cr  Cr5  1  0.50000000  0.50000000  0.00000000  1
  As  As6  1  0.06670800  0.04175100  0.35431400  1
  As  As7  1  0.43341600  0.42961400  0.39639500  1
  As  As8  1  0.93341600  0.57038600  0.10360500  1
  As  As9  1  0.06658400  0.42961400  0.89639500  1
  As  As10  1  0.93329200  0.95824900  0.64568600  1
  As  As11  1  0.56658400  0.57038600  0.60360500  1
  As  As12  1  0.43329200  0.04175100  0.85431400  1
  As  As13  1  0.56670800  0.95824900  0.14568600  1
  O  O14  1  0.50656800  0.79474900  0.25082800  1
  O  O15  1  0.78015800  0.68894200  0.99516500  1
  O  O16  1  0.37686400  0.34910200  0.31953800  1
  O  O17  1  0.40174100  0.11559900  0.16479600  1
  O  O18  1  0.62313600  0.65089800  0.68046200  1
  O  O19  1  0.99343200  0.79474900  0.75082800  1
  O  O20  1  0.87686400  0.65089800  0.18046200  1
  O  O21  1  0.74540900  0.50894000  0.89740000  1
  O  O22  1  0.54722800  0.10716100  0.93721300  1
  O  O23  1  0.49343200  0.20525100  0.74917200  1
  O  O24  1  0.09825900  0.11559900  0.66479600  1
  O  O25  1  0.25459100  0.49106000  0.10260000  1
  O  O26  1  0.26299500  0.61272900  0.39884200  1
  O  O27  1  0.45277200  0.89283900  0.06278700  1
  O  O28  1  0.60289500  0.03588400  0.62531700  1
  O  O29  1  0.10289500  0.96411600  0.87468300  1
  O  O30  1  0.76299500  0.38727100  0.10115800  1
  O  O31  1  0.12313600  0.34910200  0.81953800  1
  O  O32  1  0.04722800  0.89283900  0.56278700  1
  O  O33  1  0.24540900  0.49106000  0.60260000  1
  O  O34  1  0.89710500  0.03588400  0.12531700  1
  O  O35  1  0.39710500  0.96411600  0.37468300  1
  O  O36  1  0.21984200  0.31105800  0.00483500  1
  O  O37  1  0.28015800  0.31105800  0.50483500  1
  O  O38  1  0.73700500  0.38727100  0.60115800  1
  O  O39  1  0.00656800  0.20525100  0.24917200  1
  O  O40  1  0.59825900  0.88440100  0.83520400  1
  O  O41  1  0.95277200  0.10716100  0.43721300  1
  O  O42  1  0.71984200  0.68894200  0.49516500  1
  O  O43  1  0.75459100  0.50894000  0.39740000  1
  O  O44  1  0.23700500  0.61272900  0.89884200  1
  O  O45  1  0.90174100  0.88440100  0.33520400  1
