# generated using pymatgen
data_Ca3As4W3O16
_symmetry_space_group_name_H-M   'P 1'
_cell_length_a   5.21454100
_cell_length_b   10.50540200
_cell_length_c   17.60433326
_cell_angle_alpha   59.22077021
_cell_angle_beta   90.00000000
_cell_angle_gamma   90.00000000
_symmetry_Int_Tables_number   1
_chemical_formula_structural   Ca3As4W3O16
_chemical_formula_sum   'Ca6 As8 W6 O32'
_cell_volume   828.54298241
_cell_formula_units_Z   2
loop_
 _symmetry_equiv_pos_site_id
 _symmetry_equiv_pos_as_xyz
  1  'x, y, z'
loop_
 _atom_site_type_symbol
 _atom_site_label
 _atom_site_symmetry_multiplicity
 _atom_site_fract_x
 _atom_site_fract_y
 _atom_site_fract_z
 _atom_site_occupancy
  Ca  Ca0  1  0.02790700  0.72925000  0.26785500  1
  Ca  Ca1  1  0.52790700  0.27075000  0.23214500  1
  Ca  Ca2  1  0.97209300  0.27075000  0.73214500  1
  Ca  Ca3  1  0.47209300  0.72925000  0.76785500  1
  Ca  Ca4  1  0.00000000  0.00000000  0.00000000  1
  Ca  Ca5  1  0.50000000  0.00000000  0.50000000  1
  As  As6  1  0.51066200  0.95409800  0.16457200  1
  As  As7  1  0.88708800  0.59840800  0.11690200  1
  As  As8  1  0.38708800  0.40159200  0.38309800  1
  As  As9  1  0.61291200  0.59840800  0.61690200  1
  As  As10  1  0.48933800  0.04590200  0.83542800  1
  As  As11  1  0.11291200  0.40159200  0.88309800  1
  As  As12  1  0.98933800  0.95409800  0.66457200  1
  As  As13  1  0.01066200  0.04590200  0.33542800  1
  W  W14  1  0.95684300  0.78784400  0.89722900  1
  W  W15  1  0.04315700  0.21215600  0.10277100  1
  W  W16  1  0.45684300  0.21215600  0.60277100  1
  W  W17  1  0.54315700  0.78784400  0.39722900  1
  W  W18  1  0.50000000  0.50000000  0.00000000  1
  W  W19  1  0.00000000  0.50000000  0.50000000  1
  O  O20  1  0.98749700  0.20028900  0.22699000  1
  O  O21  1  0.35255600  0.22107500  0.49094100  1
  O  O22  1  0.82174100  0.66731900  0.18499900  1
  O  O23  1  0.88036800  0.89929800  0.32846000  1
  O  O24  1  0.17825900  0.33268100  0.81500100  1
  O  O25  1  0.51250300  0.20028900  0.72699000  1
  O  O26  1  0.32174100  0.33268100  0.31500100  1
  O  O27  1  0.92500200  0.51561700  0.61083800  1
  O  O28  1  0.17354200  0.90331400  0.60595900  1
  O  O29  1  0.01250300  0.79971100  0.77301000  1
  O  O30  1  0.61963200  0.89929800  0.82846000  1
  O  O31  1  0.07499800  0.48438300  0.38916200  1
  O  O32  1  0.72832000  0.32248500  0.05674300  1
  O  O33  1  0.82645800  0.09668600  0.39404100  1
  O  O34  1  0.16962500  0.00208000  0.86584700  1
  O  O35  1  0.66962500  0.99792000  0.63415300  1
  O  O36  1  0.22832000  0.67751500  0.44325700  1
  O  O37  1  0.67825900  0.66731900  0.68499900  1
  O  O38  1  0.67354200  0.09668600  0.89404100  1
  O  O39  1  0.42500200  0.48438300  0.88916200  1
  O  O40  1  0.33037500  0.00208000  0.36584700  1
  O  O41  1  0.83037500  0.99792000  0.13415300  1
  O  O42  1  0.64744400  0.77892500  0.50905900  1
  O  O43  1  0.85255600  0.77892500  0.00905900  1
  O  O44  1  0.27168000  0.67751500  0.94325700  1
  O  O45  1  0.48749700  0.79971100  0.27301000  1
  O  O46  1  0.11963200  0.10070200  0.67154000  1
  O  O47  1  0.32645800  0.90331400  0.10595900  1
  O  O48  1  0.14744400  0.22107500  0.99094100  1
  O  O49  1  0.57499800  0.51561700  0.11083800  1
  O  O50  1  0.77168000  0.32248500  0.55674300  1
  O  O51  1  0.38036800  0.10070200  0.17154000  1
