# generated using pymatgen
data_Zn(FeO2)2
_symmetry_space_group_name_H-M   'P 1'
_cell_length_a   2.94995600
_cell_length_b   9.73639700
_cell_length_c   10.06987400
_cell_angle_alpha   90.00000000
_cell_angle_beta   90.00000000
_cell_angle_gamma   90.00000000
_symmetry_Int_Tables_number   1
_chemical_formula_structural   Zn(FeO2)2
_chemical_formula_sum   'Zn4 Fe8 O16'
_cell_volume   289.22634451
_cell_formula_units_Z   4
loop_
 _symmetry_equiv_pos_site_id
 _symmetry_equiv_pos_as_xyz
  1  'x, y, z'
loop_
 _atom_site_type_symbol
 _atom_site_label
 _atom_site_symmetry_multiplicity
 _atom_site_fract_x
 _atom_site_fract_y
 _atom_site_fract_z
 _atom_site_occupancy
  Zn  Zn0  1  0.19899700  0.36164700  0.25000000  1
  Zn  Zn1  1  0.19899700  0.13835300  0.75000000  1
  Zn  Zn2  1  0.80100300  0.86164700  0.25000000  1
  Zn  Zn3  1  0.80100300  0.63835300  0.75000000  1
  Fe  Fe4  1  0.73624800  0.11842600  0.42582000  1
  Fe  Fe5  1  0.73624800  0.38157400  0.92582000  1
  Fe  Fe6  1  0.26375200  0.88157400  0.92582000  1
  Fe  Fe7  1  0.73624800  0.38157400  0.57418000  1
  Fe  Fe8  1  0.26375200  0.88157400  0.57418000  1
  Fe  Fe9  1  0.73624800  0.11842600  0.07418000  1
  Fe  Fe10  1  0.26375200  0.61842600  0.07418000  1
  Fe  Fe11  1  0.26375200  0.61842600  0.42582000  1
  O  O12  1  0.23917500  0.98040000  0.11322500  1
  O  O13  1  0.76082500  0.01960000  0.88677500  1
  O  O14  1  0.23508100  0.25000000  0.00000000  1
  O  O15  1  0.76082500  0.48040000  0.11322500  1
  O  O16  1  0.76082500  0.48040000  0.38677500  1
  O  O17  1  0.70615200  0.28515900  0.75000000  1
  O  O18  1  0.23917500  0.51960000  0.88677500  1
  O  O19  1  0.29384800  0.78515900  0.75000000  1
  O  O20  1  0.23508100  0.25000000  0.50000000  1
  O  O21  1  0.76491900  0.75000000  0.00000000  1
  O  O22  1  0.23917500  0.98040000  0.38677500  1
  O  O23  1  0.29384800  0.71484100  0.25000000  1
  O  O24  1  0.70615200  0.21484100  0.25000000  1
  O  O25  1  0.76491900  0.75000000  0.50000000  1
  O  O26  1  0.23917500  0.51960000  0.61322500  1
  O  O27  1  0.76082500  0.01960000  0.61322500  1
