# generated using pymatgen
data_WS2
_symmetry_space_group_name_H-M   'P 1'
_cell_length_a   6.26827601
_cell_length_b   6.26827601
_cell_length_c   6.26827601
_cell_angle_alpha   129.06264598
_cell_angle_beta   129.06264598
_cell_angle_gamma   74.90979462
_symmetry_Int_Tables_number   1
_chemical_formula_structural   WS2
_chemical_formula_sum   'W2 S4'
_cell_volume   144.61240701
_cell_formula_units_Z   2
loop_
 _symmetry_equiv_pos_site_id
 _symmetry_equiv_pos_as_xyz
  1  'x, y, z'
loop_
 _atom_site_type_symbol
 _atom_site_label
 _atom_site_symmetry_multiplicity
 _atom_site_fract_x
 _atom_site_fract_y
 _atom_site_fract_z
 _atom_site_occupancy
  W  W0  1  0.75000000  0.25000000  0.50000000  1
  W  W1  1  0.00000000  0.00000000  0.00000000  1
  S  S2  1  0.87500000  0.87539500  0.50039500  1
  S  S3  1  0.12460500  0.62500000  0.99960500  1
  S  S4  1  0.37500000  0.37460500  0.49960500  1
  S  S5  1  0.62539500  0.12500000  0.00039500  1
