# generated using pymatgen
data_ZnBi2O5
_symmetry_space_group_name_H-M   'P 1'
_cell_length_a   5.62707000
_cell_length_b   10.24730000
_cell_length_c   16.41202400
_cell_angle_alpha   90.00000000
_cell_angle_beta   90.00000000
_cell_angle_gamma   90.00000000
_symmetry_Int_Tables_number   1
_chemical_formula_structural   ZnBi2O5
_chemical_formula_sum   'Zn8 Bi16 O40'
_cell_volume   946.35463153
_cell_formula_units_Z   8
loop_
 _symmetry_equiv_pos_site_id
 _symmetry_equiv_pos_as_xyz
  1  'x, y, z'
loop_
 _atom_site_type_symbol
 _atom_site_label
 _atom_site_symmetry_multiplicity
 _atom_site_fract_x
 _atom_site_fract_y
 _atom_site_fract_z
 _atom_site_occupancy
  Zn  Zn0  1  0.45939400  0.39004900  0.59604100  1
  Zn  Zn1  1  0.95939400  0.10995100  0.59604100  1
  Zn  Zn2  1  0.95939400  0.60995100  0.90395900  1
  Zn  Zn3  1  0.04060600  0.39004900  0.09604100  1
  Zn  Zn4  1  0.54060600  0.10995100  0.09604100  1
  Zn  Zn5  1  0.04060600  0.89004900  0.40395900  1
  Zn  Zn6  1  0.54060600  0.60995100  0.40395900  1
  Zn  Zn7  1  0.45939400  0.89004900  0.90395900  1
  Bi  Bi8  1  0.09672200  0.37293400  0.43769800  1
  Bi  Bi9  1  0.40327800  0.87293400  0.56230200  1
  Bi  Bi10  1  0.90327800  0.62706600  0.56230200  1
  Bi  Bi11  1  0.59672200  0.12706600  0.43769800  1
  Bi  Bi12  1  0.90327800  0.12706600  0.93769800  1
  Bi  Bi13  1  0.09672200  0.87293400  0.06230200  1
  Bi  Bi14  1  0.40327800  0.37293400  0.93769800  1
  Bi  Bi15  1  0.59672200  0.62706600  0.06230200  1
  Bi  Bi16  1  0.95844300  0.85777800  0.74717800  1
  Bi  Bi17  1  0.04155700  0.14222200  0.25282200  1
  Bi  Bi18  1  0.54155700  0.35777800  0.25282200  1
  Bi  Bi19  1  0.04155700  0.64222200  0.24717800  1
  Bi  Bi20  1  0.45844300  0.14222200  0.75282200  1
  Bi  Bi21  1  0.45844300  0.64222200  0.74717800  1
  Bi  Bi22  1  0.54155700  0.85777800  0.24717800  1
  Bi  Bi23  1  0.95844300  0.35777800  0.75282200  1
  O  O24  1  0.88714500  0.29344500  0.33701300  1
  O  O25  1  0.19574500  0.99299500  0.95577900  1
  O  O26  1  0.30425500  0.49299500  0.04422100  1
  O  O27  1  0.28728300  0.80234300  0.81350600  1
  O  O28  1  0.21271700  0.30234300  0.18649400  1
  O  O29  1  0.88714500  0.79344500  0.16298700  1
  O  O30  1  0.21271700  0.80234300  0.31350600  1
  O  O31  1  0.61285500  0.79344500  0.66298700  1
  O  O32  1  0.19574500  0.49299500  0.54422100  1
  O  O33  1  0.11285500  0.70655500  0.66298700  1
  O  O34  1  0.61285500  0.29344500  0.83701300  1
  O  O35  1  0.90566100  0.22023600  0.49877100  1
  O  O36  1  0.69574500  0.00700500  0.54422100  1
  O  O37  1  0.71271700  0.69765700  0.31350600  1
  O  O38  1  0.29235100  0.99739800  0.14104100  1
  O  O39  1  0.69574500  0.50700500  0.95577900  1
  O  O40  1  0.11285500  0.20655500  0.83701300  1
  O  O41  1  0.78728300  0.19765700  0.68649400  1
  O  O42  1  0.40566100  0.77976400  0.00122900  1
  O  O43  1  0.30425500  0.99299500  0.45577900  1
  O  O44  1  0.09433900  0.77976400  0.50122900  1
  O  O45  1  0.70764900  0.00260200  0.85895900  1
  O  O46  1  0.71271700  0.19765700  0.18649400  1
  O  O47  1  0.79235100  0.00260200  0.35895900  1
  O  O48  1  0.09433900  0.27976400  0.99877100  1
  O  O49  1  0.40566100  0.27976400  0.49877100  1
  O  O50  1  0.80425500  0.50700500  0.45577900  1
  O  O51  1  0.80425500  0.00700500  0.04422100  1
  O  O52  1  0.79235100  0.50260200  0.14104100  1
  O  O53  1  0.59433900  0.72023600  0.50122900  1
  O  O54  1  0.59433900  0.22023600  0.99877100  1
  O  O55  1  0.90566100  0.72023600  0.00122900  1
  O  O56  1  0.70764900  0.50260200  0.64104100  1
  O  O57  1  0.78728300  0.69765700  0.81350600  1
  O  O58  1  0.28728300  0.30234300  0.68649400  1
  O  O59  1  0.29235100  0.49739800  0.35895900  1
  O  O60  1  0.20764900  0.49739800  0.85895900  1
  O  O61  1  0.38714500  0.20655500  0.33701300  1
  O  O62  1  0.20764900  0.99739800  0.64104100  1
  O  O63  1  0.38714500  0.70655500  0.16298700  1
