# generated using pymatgen
data_BaAlCrCuO5
_symmetry_space_group_name_H-M   'P 1'
_cell_length_a   3.76215700
_cell_length_b   3.76215700
_cell_length_c   7.84250300
_cell_angle_alpha   90.00000000
_cell_angle_beta   90.00000000
_cell_angle_gamma   90.00000000
_symmetry_Int_Tables_number   1
_chemical_formula_structural   BaAlCrCuO5
_chemical_formula_sum   'Ba1 Al1 Cr1 Cu1 O5'
_cell_volume   111.00141732
_cell_formula_units_Z   1
loop_
 _symmetry_equiv_pos_site_id
 _symmetry_equiv_pos_as_xyz
  1  'x, y, z'
loop_
 _atom_site_type_symbol
 _atom_site_label
 _atom_site_symmetry_multiplicity
 _atom_site_fract_x
 _atom_site_fract_y
 _atom_site_fract_z
 _atom_site_occupancy
  Ba  Ba0  1  0.00000000  0.00000000  0.99840400  1
  Al  Al1  1  0.00000000  0.00000000  0.46763500  1
  Cr  Cr2  1  0.50000000  0.50000000  0.68221600  1
  Cu  Cu3  1  0.50000000  0.50000000  0.27072200  1
  O  O4  1  0.00000000  0.50000000  0.61793500  1
  O  O5  1  0.50000000  0.00000000  0.61793500  1
  O  O6  1  0.00000000  0.50000000  0.30256500  1
  O  O7  1  0.50000000  0.00000000  0.30256500  1
  O  O8  1  0.50000000  0.50000000  0.92793900  1
