# generated using pymatgen
data_Mg(MoO2)2
_symmetry_space_group_name_H-M   'P 1'
_cell_length_a   5.51460800
_cell_length_b   6.37380600
_cell_length_c   10.54999400
_cell_angle_alpha   90.00000000
_cell_angle_beta   90.00000000
_cell_angle_gamma   90.00000000
_symmetry_Int_Tables_number   1
_chemical_formula_structural   Mg(MoO2)2
_chemical_formula_sum   'Mg4 Mo8 O16'
_cell_volume   370.82217754
_cell_formula_units_Z   4
loop_
 _symmetry_equiv_pos_site_id
 _symmetry_equiv_pos_as_xyz
  1  'x, y, z'
loop_
 _atom_site_type_symbol
 _atom_site_label
 _atom_site_symmetry_multiplicity
 _atom_site_fract_x
 _atom_site_fract_y
 _atom_site_fract_z
 _atom_site_occupancy
  Mg  Mg0  1  0.64130500  0.00000000  0.00000000  1
  Mg  Mg1  1  0.35869500  0.50000000  0.50000000  1
  Mg  Mg2  1  0.96635800  0.00000000  0.50000000  1
  Mg  Mg3  1  0.03364200  0.50000000  0.00000000  1
  Mo  Mo4  1  0.98098900  0.50000000  0.27088200  1
  Mo  Mo5  1  0.98098900  0.50000000  0.72911800  1
  Mo  Mo6  1  0.01901100  0.00000000  0.22911800  1
  Mo  Mo7  1  0.01901100  0.00000000  0.77088200  1
  Mo  Mo8  1  0.50000000  0.25000000  0.25000000  1
  Mo  Mo9  1  0.50000000  0.75000000  0.75000000  1
  Mo  Mo10  1  0.50000000  0.75000000  0.25000000  1
  Mo  Mo11  1  0.50000000  0.25000000  0.75000000  1
  O  O12  1  0.62671700  0.50000000  0.36543800  1
  O  O13  1  0.62671700  0.50000000  0.63456200  1
  O  O14  1  0.37328300  0.00000000  0.13456200  1
  O  O15  1  0.37328300  0.00000000  0.86543800  1
  O  O16  1  0.29347500  0.50000000  0.15220000  1
  O  O17  1  0.29347500  0.50000000  0.84780000  1
  O  O18  1  0.70652500  0.00000000  0.34780000  1
  O  O19  1  0.70652500  0.00000000  0.65220000  1
  O  O20  1  0.83556300  0.25124100  0.13461300  1
  O  O21  1  0.83556300  0.74875900  0.86538700  1
  O  O22  1  0.16443700  0.75124100  0.36538700  1
  O  O23  1  0.16443700  0.24875900  0.63461300  1
  O  O24  1  0.16443700  0.24875900  0.36538700  1
  O  O25  1  0.16443700  0.75124100  0.63461300  1
  O  O26  1  0.83556300  0.74875900  0.13461300  1
  O  O27  1  0.83556300  0.25124100  0.86538700  1
