# generated using pymatgen
data_CoSb2O7
_symmetry_space_group_name_H-M   'P 1'
_cell_length_a   14.92614200
_cell_length_b   7.71941000
_cell_length_c   10.62705450
_cell_angle_alpha   68.97452816
_cell_angle_beta   90.00000000
_cell_angle_gamma   90.00000000
_symmetry_Int_Tables_number   1
_chemical_formula_structural   CoSb2O7
_chemical_formula_sum   'Co8 Sb16 O56'
_cell_volume   1142.93665041
_cell_formula_units_Z   8
loop_
 _symmetry_equiv_pos_site_id
 _symmetry_equiv_pos_as_xyz
  1  'x, y, z'
loop_
 _atom_site_type_symbol
 _atom_site_label
 _atom_site_symmetry_multiplicity
 _atom_site_fract_x
 _atom_site_fract_y
 _atom_site_fract_z
 _atom_site_occupancy
  Co  Co0  1  0.65553900  0.35172600  0.07460800  1
  Co  Co1  1  0.15553900  0.64827400  0.42539200  1
  Co  Co2  1  0.34446100  0.64827400  0.92539200  1
  Co  Co3  1  0.84446100  0.35172600  0.57460800  1
  Co  Co4  1  0.77883500  0.00491000  0.26957100  1
  Co  Co5  1  0.27883500  0.99509000  0.23042900  1
  Co  Co6  1  0.22116500  0.99509000  0.73042900  1
  Co  Co7  1  0.72116500  0.00491000  0.76957100  1
  Sb  Sb8  1  0.83713500  0.18454900  0.94771700  1
  Sb  Sb9  1  0.00019300  0.50519700  0.74890700  1
  Sb  Sb10  1  0.49980700  0.50519700  0.24890700  1
  Sb  Sb11  1  0.99980700  0.49480300  0.25109300  1
  Sb  Sb12  1  0.70997200  0.51472200  0.75275300  1
  Sb  Sb13  1  0.20997200  0.48527800  0.74724700  1
  Sb  Sb14  1  0.29002800  0.48527800  0.24724700  1
  Sb  Sb15  1  0.79002800  0.51472200  0.25275300  1
  Sb  Sb16  1  0.50019300  0.49480300  0.75109300  1
  Sb  Sb17  1  0.16350500  0.14955500  0.42451600  1
  Sb  Sb18  1  0.66350500  0.85044500  0.07548400  1
  Sb  Sb19  1  0.83649500  0.85044500  0.57548400  1
  Sb  Sb20  1  0.33713500  0.81545100  0.55228300  1
  Sb  Sb21  1  0.66286500  0.18454900  0.44771700  1
  Sb  Sb22  1  0.16286500  0.81545100  0.05228300  1
  Sb  Sb23  1  0.33649500  0.14955500  0.92451600  1
  O  O24  1  0.95738600  0.25717500  0.89735900  1
  O  O25  1  0.45738600  0.74282500  0.60264100  1
  O  O26  1  0.04261400  0.74282500  0.10264100  1
  O  O27  1  0.54261400  0.25717500  0.39735900  1
  O  O28  1  0.78670900  0.94797000  0.94250600  1
  O  O29  1  0.28670900  0.05203000  0.55749400  1
  O  O30  1  0.21329100  0.05203000  0.05749400  1
  O  O31  1  0.71329100  0.94797000  0.44250600  1
  O  O32  1  0.86311400  0.08916200  0.13979600  1
  O  O33  1  0.36311400  0.91083800  0.36020400  1
  O  O34  1  0.13688600  0.91083800  0.86020400  1
  O  O35  1  0.63688600  0.08916200  0.63979600  1
  O  O36  1  0.29808400  0.40591800  0.90512400  1
  O  O37  1  0.79808400  0.59408200  0.59487600  1
  O  O38  1  0.70191600  0.59408200  0.09487600  1
  O  O39  1  0.20191600  0.40591800  0.40512400  1
  O  O40  1  0.37222400  0.05562200  0.11850500  1
  O  O41  1  0.87222400  0.94437800  0.38149500  1
  O  O42  1  0.62777600  0.94437800  0.88149500  1
  O  O43  1  0.12777600  0.05562200  0.61850500  1
  O  O44  1  0.32073600  0.92307800  0.88042800  1
  O  O45  1  0.45046500  0.63543900  0.85853200  1
  O  O46  1  0.82073600  0.07692200  0.61957200  1
  O  O47  1  0.17926400  0.92307800  0.38042800  1
  O  O48  1  0.42345400  0.35827500  0.67321800  1
  O  O49  1  0.92345400  0.64172500  0.82678200  1
  O  O50  1  0.57654600  0.64172500  0.32678200  1
  O  O51  1  0.07654600  0.35827500  0.17321800  1
  O  O52  1  0.46328100  0.22326300  0.88969500  1
  O  O53  1  0.96328100  0.77673700  0.61030500  1
  O  O54  1  0.53671900  0.77673700  0.11030500  1
  O  O55  1  0.03671900  0.22326300  0.38969500  1
  O  O56  1  0.89209100  0.54504800  0.12997000  1
  O  O57  1  0.39209100  0.45495200  0.37003000  1
  O  O58  1  0.10790900  0.45495200  0.87003000  1
  O  O59  1  0.60790900  0.54504800  0.62997000  1
  O  O60  1  0.73346900  0.26818000  0.25674300  1
  O  O61  1  0.23346900  0.73182000  0.24325700  1
  O  O62  1  0.26653100  0.73182000  0.74325700  1
  O  O63  1  0.76653100  0.26818000  0.75674300  1
  O  O64  1  0.73170400  0.40419300  0.44381100  1
  O  O65  1  0.23170400  0.59580700  0.05618900  1
  O  O66  1  0.26829600  0.59580700  0.55618900  1
  O  O67  1  0.76829600  0.40419300  0.94381100  1
  O  O68  1  0.75296400  0.77054500  0.23894000  1
  O  O69  1  0.25296400  0.22945500  0.26106000  1
  O  O70  1  0.24703600  0.22945500  0.76106000  1
  O  O71  1  0.74703600  0.77054500  0.73894000  1
  O  O72  1  0.89296300  0.45224200  0.38119400  1
  O  O73  1  0.39296300  0.54775800  0.11880600  1
  O  O74  1  0.10703700  0.54775800  0.61880600  1
  O  O75  1  0.60703700  0.45224200  0.88119400  1
  O  O76  1  0.04953500  0.63543900  0.35853200  1
  O  O77  1  0.54953500  0.36456100  0.14146800  1
  O  O78  1  0.95046500  0.36456100  0.64146800  1
  O  O79  1  0.67926400  0.07692200  0.11957200  1
