# generated using pymatgen
data_CaCoSb2O7
_symmetry_space_group_name_H-M   'P 1'
_cell_length_a   15.02376300
_cell_length_b   7.37914700
_cell_length_c   11.57658755
_cell_angle_alpha   76.08292403
_cell_angle_beta   90.00000000
_cell_angle_gamma   90.00000000
_symmetry_Int_Tables_number   1
_chemical_formula_structural   CaCoSb2O7
_chemical_formula_sum   'Ca8 Co8 Sb16 O56'
_cell_volume   1245.73537674
_cell_formula_units_Z   8
loop_
 _symmetry_equiv_pos_site_id
 _symmetry_equiv_pos_as_xyz
  1  'x, y, z'
loop_
 _atom_site_type_symbol
 _atom_site_label
 _atom_site_symmetry_multiplicity
 _atom_site_fract_x
 _atom_site_fract_y
 _atom_site_fract_z
 _atom_site_occupancy
  Ca  Ca0  1  0.50731900  0.93996800  0.73717600  1
  Ca  Ca1  1  0.87645900  0.68002900  0.96913600  1
  Ca  Ca2  1  0.37645900  0.31997100  0.53086400  1
  Ca  Ca3  1  0.12354100  0.31997100  0.03086400  1
  Ca  Ca4  1  0.62354100  0.68002900  0.46913600  1
  Ca  Ca5  1  0.99268100  0.93996800  0.23717600  1
  Ca  Ca6  1  0.49268100  0.06003200  0.26282400  1
  Ca  Ca7  1  0.00731900  0.06003200  0.76282400  1
  Co  Co8  1  0.65718600  0.35087900  0.08132300  1
  Co  Co9  1  0.15718600  0.64912100  0.41867700  1
  Co  Co10  1  0.34281400  0.64912100  0.91867700  1
  Co  Co11  1  0.84281400  0.35087900  0.58132300  1
  Co  Co12  1  0.75374600  0.00748600  0.25358400  1
  Co  Co13  1  0.25374600  0.99251400  0.24641600  1
  Co  Co14  1  0.24625400  0.99251400  0.74641600  1
  Co  Co15  1  0.74625400  0.00748600  0.75358400  1
  Sb  Sb16  1  0.87537200  0.16043500  0.97820700  1
  Sb  Sb17  1  0.02154200  0.57860300  0.69874900  1
  Sb  Sb18  1  0.47845800  0.57860300  0.19874900  1
  Sb  Sb19  1  0.97845800  0.42139700  0.30125100  1
  Sb  Sb20  1  0.72708300  0.50509700  0.77749000  1
  Sb  Sb21  1  0.22708300  0.49490300  0.72251000  1
  Sb  Sb22  1  0.27291700  0.49490300  0.22251000  1
  Sb  Sb23  1  0.77291700  0.50509700  0.27749000  1
  Sb  Sb24  1  0.52154200  0.42139700  0.80125100  1
  Sb  Sb25  1  0.14248800  0.13854500  0.46766100  1
  Sb  Sb26  1  0.64248800  0.86145500  0.03233900  1
  Sb  Sb27  1  0.85751200  0.86145500  0.53233900  1
  Sb  Sb28  1  0.37537200  0.83956500  0.52179300  1
  Sb  Sb29  1  0.62462800  0.16043500  0.47820700  1
  Sb  Sb30  1  0.12462800  0.83956500  0.02179300  1
  Sb  Sb31  1  0.35751200  0.13854500  0.96766100  1
  O  O32  1  0.99609600  0.21354400  0.94599700  1
  O  O33  1  0.49609600  0.78645600  0.55400300  1
  O  O34  1  0.00390400  0.78645600  0.05400300  1
  O  O35  1  0.50390400  0.21354400  0.44599700  1
  O  O36  1  0.85169200  0.99759100  0.87702200  1
  O  O37  1  0.35169200  0.00240900  0.62297800  1
  O  O38  1  0.14830800  0.00240900  0.12297800  1
  O  O39  1  0.64830800  0.99759100  0.37702200  1
  O  O40  1  0.85539400  0.00804600  0.13264800  1
  O  O41  1  0.35539400  0.99195400  0.36735200  1
  O  O42  1  0.14460600  0.99195400  0.86735200  1
  O  O43  1  0.64460600  0.00804600  0.63264800  1
  O  O44  1  0.28243000  0.35593400  0.92298700  1
  O  O45  1  0.78243000  0.64406600  0.57701300  1
  O  O46  1  0.71757000  0.64406600  0.07701300  1
  O  O47  1  0.21757000  0.35593400  0.42298700  1
  O  O48  1  0.36412700  0.03148700  0.13283500  1
  O  O49  1  0.86412700  0.96851300  0.36716500  1
  O  O50  1  0.63587300  0.96851300  0.86716500  1
  O  O51  1  0.13587300  0.03148700  0.63283500  1
  O  O52  1  0.34552100  0.94713000  0.88213600  1
  O  O53  1  0.45183900  0.63022300  0.82025800  1
  O  O54  1  0.84552100  0.05287000  0.61786400  1
  O  O55  1  0.15447900  0.94713000  0.38213600  1
  O  O56  1  0.48368100  0.27437300  0.69558400  1
  O  O57  1  0.98368100  0.72562700  0.80441600  1
  O  O58  1  0.51631900  0.72562700  0.30441600  1
  O  O59  1  0.01631900  0.27437300  0.19558400  1
  O  O60  1  0.47748500  0.23202100  0.94562200  1
  O  O61  1  0.97748500  0.76797900  0.55437800  1
  O  O62  1  0.52251500  0.76797900  0.05437800  1
  O  O63  1  0.02251500  0.23202100  0.44562200  1
  O  O64  1  0.88599200  0.56382200  0.18594300  1
  O  O65  1  0.38599200  0.43617800  0.31405700  1
  O  O66  1  0.11400800  0.43617800  0.81405700  1
  O  O67  1  0.61400800  0.56382200  0.68594300  1
  O  O68  1  0.74329200  0.29597000  0.21338600  1
  O  O69  1  0.24329200  0.70403000  0.28661400  1
  O  O70  1  0.25670800  0.70403000  0.78661400  1
  O  O71  1  0.75670800  0.29597000  0.71338600  1
  O  O72  1  0.69301400  0.38862400  0.43882000  1
  O  O73  1  0.19301400  0.61137600  0.06118000  1
  O  O74  1  0.30698600  0.61137600  0.56118000  1
  O  O75  1  0.80698600  0.38862400  0.93882000  1
  O  O76  1  0.72544300  0.72758300  0.30499100  1
  O  O77  1  0.22544300  0.27241700  0.19500900  1
  O  O78  1  0.27455700  0.27241700  0.69500900  1
  O  O79  1  0.77455700  0.72758300  0.80499100  1
  O  O80  1  0.86819400  0.41254900  0.40345000  1
  O  O81  1  0.36819400  0.58745100  0.09655000  1
  O  O82  1  0.13180600  0.58745100  0.59655000  1
  O  O83  1  0.63180600  0.41254900  0.90345000  1
  O  O84  1  0.04816100  0.63022300  0.32025800  1
  O  O85  1  0.54816100  0.36977700  0.17974200  1
  O  O86  1  0.95183900  0.36977700  0.67974200  1
  O  O87  1  0.65447900  0.05287000  0.11786400  1
