# generated using pymatgen
data_CaBiSbO5
_symmetry_space_group_name_H-M   'P 1'
_cell_length_a   5.66711600
_cell_length_b   11.60574000
_cell_length_c   16.36996600
_cell_angle_alpha   90.00000000
_cell_angle_beta   90.00000000
_cell_angle_gamma   90.00000000
_symmetry_Int_Tables_number   1
_chemical_formula_structural   CaBiSbO5
_chemical_formula_sum   'Ca8 Bi8 Sb8 O40'
_cell_volume   1076.67025901
_cell_formula_units_Z   8
loop_
 _symmetry_equiv_pos_site_id
 _symmetry_equiv_pos_as_xyz
  1  'x, y, z'
loop_
 _atom_site_type_symbol
 _atom_site_label
 _atom_site_symmetry_multiplicity
 _atom_site_fract_x
 _atom_site_fract_y
 _atom_site_fract_z
 _atom_site_occupancy
  Ca  Ca0  1  0.49942400  0.35975700  0.55277700  1
  Ca  Ca1  1  0.99942400  0.14024300  0.55277700  1
  Ca  Ca2  1  0.99942400  0.64024300  0.94722300  1
  Ca  Ca3  1  0.00057600  0.35975700  0.05277700  1
  Ca  Ca4  1  0.50057600  0.14024300  0.05277700  1
  Ca  Ca5  1  0.00057600  0.85975700  0.44722300  1
  Ca  Ca6  1  0.50057600  0.64024300  0.44722300  1
  Ca  Ca7  1  0.49942400  0.85975700  0.94722300  1
  Bi  Bi8  1  0.95032900  0.84240400  0.77293300  1
  Bi  Bi9  1  0.04967100  0.15759600  0.22706700  1
  Bi  Bi10  1  0.54967100  0.34240400  0.22706700  1
  Bi  Bi11  1  0.04967100  0.65759600  0.27293300  1
  Bi  Bi12  1  0.45032900  0.15759600  0.72706700  1
  Bi  Bi13  1  0.45032900  0.65759600  0.77293300  1
  Bi  Bi14  1  0.54967100  0.84240400  0.27293300  1
  Bi  Bi15  1  0.95032900  0.34240400  0.72706700  1
  Sb  Sb16  1  0.98467300  0.40091100  0.40405500  1
  Sb  Sb17  1  0.51532700  0.90091100  0.59594500  1
  Sb  Sb18  1  0.01532700  0.59908900  0.59594500  1
  Sb  Sb19  1  0.48467300  0.09908900  0.40405500  1
  Sb  Sb20  1  0.01532700  0.09908900  0.90405500  1
  Sb  Sb21  1  0.98467300  0.90091100  0.09594500  1
  Sb  Sb22  1  0.51532700  0.40091100  0.90405500  1
  Sb  Sb23  1  0.48467300  0.59908900  0.09594500  1
  O  O24  1  0.93023300  0.32546300  0.30065700  1
  O  O25  1  0.31142400  0.04349500  0.93976400  1
  O  O26  1  0.18857600  0.54349500  0.06023600  1
  O  O27  1  0.24052400  0.76798200  0.84718800  1
  O  O28  1  0.25947600  0.26798200  0.15281200  1
  O  O29  1  0.93023300  0.82546300  0.19934300  1
  O  O30  1  0.25947600  0.76798200  0.34718800  1
  O  O31  1  0.56976700  0.82546300  0.69934300  1
  O  O32  1  0.31142400  0.54349500  0.56023600  1
  O  O33  1  0.06976700  0.67453700  0.69934300  1
  O  O34  1  0.56976700  0.32546300  0.80065700  1
  O  O35  1  0.64865300  0.19318700  0.47933100  1
  O  O36  1  0.81142400  0.95650500  0.56023600  1
  O  O37  1  0.75947600  0.73201800  0.34718800  1
  O  O38  1  0.17674500  0.03082300  0.12703400  1
  O  O39  1  0.81142400  0.45650500  0.93976400  1
  O  O40  1  0.06976700  0.17453700  0.80065700  1
  O  O41  1  0.74052400  0.23201800  0.65281200  1
  O  O42  1  0.14865300  0.80681300  0.02066900  1
  O  O43  1  0.18857600  0.04349500  0.43976400  1
  O  O44  1  0.35134700  0.80681300  0.52066900  1
  O  O45  1  0.82325500  0.96917700  0.87296600  1
  O  O46  1  0.75947600  0.23201800  0.15281200  1
  O  O47  1  0.67674500  0.96917700  0.37296600  1
  O  O48  1  0.35134700  0.30681300  0.97933100  1
  O  O49  1  0.14865300  0.30681300  0.47933100  1
  O  O50  1  0.68857600  0.45650500  0.43976400  1
  O  O51  1  0.68857600  0.95650500  0.06023600  1
  O  O52  1  0.67674500  0.46917700  0.12703400  1
  O  O53  1  0.85134700  0.69318700  0.52066900  1
  O  O54  1  0.85134700  0.19318700  0.97933100  1
  O  O55  1  0.64865300  0.69318700  0.02066900  1
  O  O56  1  0.82325500  0.46917700  0.62703400  1
  O  O57  1  0.74052400  0.73201800  0.84718800  1
  O  O58  1  0.24052400  0.26798200  0.65281200  1
  O  O59  1  0.17674500  0.53082300  0.37296600  1
  O  O60  1  0.32325500  0.53082300  0.87296600  1
  O  O61  1  0.43023300  0.17453700  0.30065700  1
  O  O62  1  0.32325500  0.03082300  0.62703400  1
  O  O63  1  0.43023300  0.67453700  0.19934300  1
