# generated using pymatgen
data_V14Fe5O32
_symmetry_space_group_name_H-M   'P 1'
_cell_length_a   5.91831600
_cell_length_b   5.92367110
_cell_length_c   18.87043422
_cell_angle_alpha   90.31992150
_cell_angle_beta   90.09230879
_cell_angle_gamma   118.93066467
_symmetry_Int_Tables_number   1
_chemical_formula_structural   V14Fe5O32
_chemical_formula_sum   'V14 Fe5 O32'
_cell_volume   578.98738391
_cell_formula_units_Z   1
loop_
 _symmetry_equiv_pos_site_id
 _symmetry_equiv_pos_as_xyz
  1  'x, y, z'
loop_
 _atom_site_type_symbol
 _atom_site_label
 _atom_site_symmetry_multiplicity
 _atom_site_fract_x
 _atom_site_fract_y
 _atom_site_fract_z
 _atom_site_occupancy
  V  V0  1  0.83633600  0.16183000  0.81484700  1
  V  V1  1  0.66721600  0.33177400  0.17748400  1
  V  V2  1  0.82873600  0.69072500  0.32711100  1
  V  V3  1  0.83869000  0.68127400  0.81640100  1
  V  V4  1  0.31820400  0.15762300  0.31524000  1
  V  V5  1  0.31916000  0.16152900  0.81611700  1
  V  V6  1  0.68286400  0.83933100  0.06994000  1
  V  V7  1  0.67565900  0.83371000  0.56959100  1
  V  V8  1  0.16496500  0.32456300  0.06867200  1
  V  V9  1  0.32205500  0.67585300  0.23024000  1
  V  V10  1  0.16551400  0.32422700  0.57023100  1
  V  V11  1  0.31835900  0.64090600  0.42575600  1
  V  V12  1  0.16586500  0.83890800  0.06903000  1
  V  V13  1  0.15967900  0.83782300  0.56585000  1
  Fe  Fe14  1  0.66615100  0.33316900  0.67569400  1
  Fe  Fe15  1  0.66206300  0.32224200  0.47144600  1
  Fe  Fe16  1  0.66758800  0.33017100  0.97668600  1
  Fe  Fe17  1  0.32961800  0.66581300  0.72890000  1
  Fe  Fe18  1  0.33785300  0.66771100  0.92359100  1
  O  O19  1  0.82898800  0.17058600  0.11927000  1
  O  O20  1  0.82981500  0.17054800  0.61650100  1
  O  O21  1  0.98621400  0.52228600  0.24309900  1
  O  O22  1  0.95272700  0.48048000  0.75369000  1
  O  O23  1  0.65222600  0.34020700  0.37153300  1
  O  O24  1  0.66648300  0.33540600  0.87567000  1
  O  O25  1  0.01128400  0.98721700  0.51342100  1
  O  O26  1  0.99234300  0.00654400  0.01483500  1
  O  O27  1  0.02569800  0.01068300  0.27053800  1
  O  O28  1  0.00518100  0.99043800  0.76054900  1
  O  O29  1  0.81990800  0.66801900  0.11952500  1
  O  O30  1  0.83336300  0.66283800  0.61952500  1
  O  O31  1  0.48815900  0.01813800  0.24503200  1
  O  O32  1  0.51628300  0.04510000  0.75315800  1
  O  O33  1  0.51451400  0.49059500  0.25243300  1
  O  O34  1  0.52070200  0.47859800  0.75175700  1
  O  O35  1  0.33664700  0.16627200  0.61979100  1
  O  O36  1  0.33832000  0.18003300  0.12020100  1
  O  O37  1  0.65273500  0.79870600  0.37483100  1
  O  O38  1  0.67389300  0.82303200  0.86662900  1
  O  O39  1  0.49175900  0.51442800  0.00610800  1
  O  O40  1  0.48305200  0.50975800  0.50193500  1
  O  O41  1  0.49315800  0.97377900  0.00813500  1
  O  O42  1  0.48248600  0.96115800  0.49832200  1
  O  O43  1  0.33811000  0.66501500  0.12775100  1
  O  O44  1  0.20995000  0.36258700  0.37682800  1
  O  O45  1  0.17730300  0.32431700  0.86606200  1
  O  O46  1  0.32642700  0.67767300  0.61905400  1
  O  O47  1  0.02668200  0.50993100  0.00696600  1
  O  O48  1  0.02639700  0.51164400  0.49899000  1
  O  O49  1  0.17168000  0.82496200  0.37023600  1
  O  O50  1  0.16771900  0.83246300  0.86372500  1
