# generated using pymatgen
data_ZnAgBiO5
_symmetry_space_group_name_H-M   'P 1'
_cell_length_a   5.33596000
_cell_length_b   10.32952500
_cell_length_c   15.44322800
_cell_angle_alpha   90.00000000
_cell_angle_beta   90.00000000
_cell_angle_gamma   90.00000000
_symmetry_Int_Tables_number   1
_chemical_formula_structural   ZnAgBiO5
_chemical_formula_sum   'Zn8 Ag8 Bi8 O40'
_cell_volume   851.19879415
_cell_formula_units_Z   8
loop_
 _symmetry_equiv_pos_site_id
 _symmetry_equiv_pos_as_xyz
  1  'x, y, z'
loop_
 _atom_site_type_symbol
 _atom_site_label
 _atom_site_symmetry_multiplicity
 _atom_site_fract_x
 _atom_site_fract_y
 _atom_site_fract_z
 _atom_site_occupancy
  Zn  Zn0  1  0.54998200  0.37127100  0.55914700  1
  Zn  Zn1  1  0.04998200  0.12872900  0.55914700  1
  Zn  Zn2  1  0.04998200  0.62872900  0.94085300  1
  Zn  Zn3  1  0.95001800  0.37127100  0.05914700  1
  Zn  Zn4  1  0.45001800  0.12872900  0.05914700  1
  Zn  Zn5  1  0.95001800  0.87127100  0.44085300  1
  Zn  Zn6  1  0.45001800  0.62872900  0.44085300  1
  Zn  Zn7  1  0.54998200  0.87127100  0.94085300  1
  Ag  Ag8  1  0.02944100  0.38498700  0.41949700  1
  Ag  Ag9  1  0.47055900  0.88498700  0.58050300  1
  Ag  Ag10  1  0.97055900  0.61501300  0.58050300  1
  Ag  Ag11  1  0.52944100  0.11501300  0.41949700  1
  Ag  Ag12  1  0.97055900  0.11501300  0.91949700  1
  Ag  Ag13  1  0.02944100  0.88498700  0.08050300  1
  Ag  Ag14  1  0.47055900  0.38498700  0.91949700  1
  Ag  Ag15  1  0.52944100  0.61501300  0.08050300  1
  Bi  Bi16  1  0.03881600  0.85559800  0.75466500  1
  Bi  Bi17  1  0.96118400  0.14440200  0.24533500  1
  Bi  Bi18  1  0.46118400  0.35559800  0.24533500  1
  Bi  Bi19  1  0.96118400  0.64440200  0.25466500  1
  Bi  Bi20  1  0.53881600  0.14440200  0.74533500  1
  Bi  Bi21  1  0.53881600  0.64440200  0.75466500  1
  Bi  Bi22  1  0.46118400  0.85559800  0.25466500  1
  Bi  Bi23  1  0.03881600  0.35559800  0.74533500  1
  O  O24  1  0.78730100  0.30090400  0.32807100  1
  O  O25  1  0.26950400  0.97557200  0.99534500  1
  O  O26  1  0.23049600  0.47557200  0.00465500  1
  O  O27  1  0.37658700  0.80968200  0.82739200  1
  O  O28  1  0.12341300  0.30968200  0.17260800  1
  O  O29  1  0.78730100  0.80090400  0.17192900  1
  O  O30  1  0.12341300  0.80968200  0.32739200  1
  O  O31  1  0.71269900  0.80090400  0.67192900  1
  O  O32  1  0.26950400  0.47557200  0.50465500  1
  O  O33  1  0.21269900  0.69909600  0.67192900  1
  O  O34  1  0.71269900  0.30090400  0.82807100  1
  O  O35  1  0.85444000  0.28073000  0.51045300  1
  O  O36  1  0.76950400  0.02442800  0.50465500  1
  O  O37  1  0.62341300  0.69031800  0.32739200  1
  O  O38  1  0.21474900  0.00006300  0.17121800  1
  O  O39  1  0.76950400  0.52442800  0.99534500  1
  O  O40  1  0.21269900  0.19909600  0.82807100  1
  O  O41  1  0.87658700  0.19031800  0.67260800  1
  O  O42  1  0.35444000  0.71927000  0.98954700  1
  O  O43  1  0.23049600  0.97557200  0.49534500  1
  O  O44  1  0.14556000  0.71927000  0.48954700  1
  O  O45  1  0.78525100  0.99993700  0.82878200  1
  O  O46  1  0.62341300  0.19031800  0.17260800  1
  O  O47  1  0.71474900  0.99993700  0.32878200  1
  O  O48  1  0.14556000  0.21927000  0.01045300  1
  O  O49  1  0.35444000  0.21927000  0.51045300  1
  O  O50  1  0.73049600  0.52442800  0.49534500  1
  O  O51  1  0.73049600  0.02442800  0.00465500  1
  O  O52  1  0.71474900  0.49993700  0.17121800  1
  O  O53  1  0.64556000  0.78073000  0.48954700  1
  O  O54  1  0.64556000  0.28073000  0.01045300  1
  O  O55  1  0.85444000  0.78073000  0.98954700  1
  O  O56  1  0.78525100  0.49993700  0.67121800  1
  O  O57  1  0.87658700  0.69031800  0.82739200  1
  O  O58  1  0.37658700  0.30968200  0.67260800  1
  O  O59  1  0.21474900  0.50006300  0.32878200  1
  O  O60  1  0.28525100  0.50006300  0.82878200  1
  O  O61  1  0.28730100  0.19909600  0.32807100  1
  O  O62  1  0.28525100  0.00006300  0.67121800  1
  O  O63  1  0.28730100  0.69909600  0.17192900  1
