# generated using pymatgen
data_YMo(WO4)2
_symmetry_space_group_name_H-M   'P 1'
_cell_length_a   5.82203500
_cell_length_b   5.38522300
_cell_length_c   11.10792828
_cell_angle_alpha   63.53074678
_cell_angle_beta   90.00000000
_cell_angle_gamma   90.00000000
_symmetry_Int_Tables_number   1
_chemical_formula_structural   YMo(WO4)2
_chemical_formula_sum   'Y2 Mo2 W4 O16'
_cell_volume   311.75890965
_cell_formula_units_Z   2
loop_
 _symmetry_equiv_pos_site_id
 _symmetry_equiv_pos_as_xyz
  1  'x, y, z'
loop_
 _atom_site_type_symbol
 _atom_site_label
 _atom_site_symmetry_multiplicity
 _atom_site_fract_x
 _atom_site_fract_y
 _atom_site_fract_z
 _atom_site_occupancy
  Y  Y0  1  0.66954700  0.50000000  0.25000000  1
  Y  Y1  1  0.33045300  0.50000000  0.75000000  1
  Mo  Mo2  1  0.33987800  0.00000000  0.25000000  1
  Mo  Mo3  1  0.66012200  0.00000000  0.75000000  1
  W  W4  1  0.15603000  0.74398100  0.00339700  1
  W  W5  1  0.15603000  0.25601900  0.49660300  1
  W  W6  1  0.84397000  0.25601900  0.99660300  1
  W  W7  1  0.84397000  0.74398100  0.50339700  1
  O  O8  1  0.36430000  0.23232500  0.36275400  1
  O  O9  1  0.36430000  0.76767500  0.13724600  1
  O  O10  1  0.63570000  0.76767500  0.63724600  1
  O  O11  1  0.63570000  0.23232500  0.86275400  1
  O  O12  1  0.89352000  0.67183600  0.88955400  1
  O  O13  1  0.89352000  0.32816400  0.61044600  1
  O  O14  1  0.10648000  0.32816400  0.11044600  1
  O  O15  1  0.10648000  0.67183600  0.38955400  1
  O  O16  1  0.62568200  0.74871700  0.37380800  1
  O  O17  1  0.62568200  0.25128300  0.12619200  1
  O  O18  1  0.37431800  0.25128300  0.62619200  1
  O  O19  1  0.37431800  0.74871700  0.87380800  1
  O  O20  1  0.88822800  0.17440900  0.40302100  1
  O  O21  1  0.11177200  0.82559100  0.59697900  1
  O  O22  1  0.88822800  0.82559100  0.09697900  1
  O  O23  1  0.11177200  0.17440900  0.90302100  1
