# generated using pymatgen
data_MgCoSb2O7
_symmetry_space_group_name_H-M   'P 1'
_cell_length_a   15.42105700
_cell_length_b   7.03283200
_cell_length_c   11.47611584
_cell_angle_alpha   74.96805664
_cell_angle_beta   90.00000000
_cell_angle_gamma   90.00000000
_symmetry_Int_Tables_number   1
_chemical_formula_structural   MgCoSb2O7
_chemical_formula_sum   'Mg8 Co8 Sb16 O56'
_cell_volume   1202.03783404
_cell_formula_units_Z   8
loop_
 _symmetry_equiv_pos_site_id
 _symmetry_equiv_pos_as_xyz
  1  'x, y, z'
loop_
 _atom_site_type_symbol
 _atom_site_label
 _atom_site_symmetry_multiplicity
 _atom_site_fract_x
 _atom_site_fract_y
 _atom_site_fract_z
 _atom_site_occupancy
  Mg  Mg0  1  0.52265400  0.95905300  0.74258600  1
  Mg  Mg1  1  0.89778200  0.70794100  0.90534100  1
  Mg  Mg2  1  0.39778200  0.29205900  0.59465900  1
  Mg  Mg3  1  0.10221800  0.29205900  0.09465900  1
  Mg  Mg4  1  0.60221800  0.70794100  0.40534100  1
  Mg  Mg5  1  0.97734600  0.95905300  0.24258600  1
  Mg  Mg6  1  0.47734600  0.04094700  0.25741400  1
  Mg  Mg7  1  0.02265400  0.04094700  0.75741400  1
  Co  Co8  1  0.63324900  0.31571400  0.09831600  1
  Co  Co9  1  0.13324900  0.68428600  0.40168400  1
  Co  Co10  1  0.36675100  0.68428600  0.90168400  1
  Co  Co11  1  0.86675100  0.31571400  0.59831600  1
  Co  Co12  1  0.77636800  0.00590300  0.23778900  1
  Co  Co13  1  0.27636800  0.99409700  0.26221100  1
  Co  Co14  1  0.22363200  0.99409700  0.76221100  1
  Co  Co15  1  0.72363200  0.00590300  0.73778900  1
  Sb  Sb16  1  0.91119700  0.19025000  0.96395100  1
  Sb  Sb17  1  0.04855200  0.56333100  0.69739600  1
  Sb  Sb18  1  0.45144800  0.56333100  0.19739600  1
  Sb  Sb19  1  0.95144800  0.43666900  0.30260400  1
  Sb  Sb20  1  0.74916500  0.50401300  0.77816800  1
  Sb  Sb21  1  0.24916500  0.49598700  0.72183200  1
  Sb  Sb22  1  0.25083500  0.49598700  0.22183200  1
  Sb  Sb23  1  0.75083500  0.50401300  0.27816800  1
  Sb  Sb24  1  0.54855200  0.43666900  0.80260400  1
  Sb  Sb25  1  0.11514600  0.15647500  0.46591500  1
  Sb  Sb26  1  0.61514600  0.84352500  0.03408500  1
  Sb  Sb27  1  0.88485400  0.84352500  0.53408500  1
  Sb  Sb28  1  0.41119700  0.80975000  0.53604900  1
  Sb  Sb29  1  0.58880300  0.19025000  0.46395100  1
  Sb  Sb30  1  0.08880300  0.80975000  0.03604900  1
  Sb  Sb31  1  0.38485400  0.15647500  0.96591500  1
  O  O32  1  0.01736300  0.31770400  0.95968400  1
  O  O33  1  0.51736300  0.68229600  0.54031600  1
  O  O34  1  0.98263700  0.68229600  0.04031600  1
  O  O35  1  0.48263700  0.31770400  0.45968400  1
  O  O36  1  0.91494700  0.00953800  0.86622500  1
  O  O37  1  0.41494700  0.99046200  0.63377500  1
  O  O38  1  0.08505300  0.99046200  0.13377500  1
  O  O39  1  0.58505300  0.00953800  0.36622500  1
  O  O40  1  0.87600200  0.03831500  0.12102000  1
  O  O41  1  0.37600200  0.96168500  0.37898000  1
  O  O42  1  0.12399800  0.96168500  0.87898000  1
  O  O43  1  0.62399800  0.03831500  0.62102000  1
  O  O44  1  0.32477800  0.39799300  0.88792800  1
  O  O45  1  0.82477800  0.60200700  0.61207200  1
  O  O46  1  0.67522200  0.60200700  0.11207200  1
  O  O47  1  0.17522200  0.39799300  0.38792800  1
  O  O48  1  0.37798800  0.05356000  0.13727600  1
  O  O49  1  0.87798800  0.94644000  0.36272400  1
  O  O50  1  0.62201200  0.94644000  0.86272400  1
  O  O51  1  0.12201200  0.05356000  0.63727600  1
  O  O52  1  0.34028900  0.96454400  0.89291000  1
  O  O53  1  0.48155200  0.66607200  0.80599800  1
  O  O54  1  0.84028900  0.03545600  0.60709000  1
  O  O55  1  0.15971100  0.96454400  0.39291000  1
  O  O56  1  0.48760400  0.25387800  0.73202800  1
  O  O57  1  0.98760400  0.74612200  0.76797200  1
  O  O58  1  0.51239600  0.74612200  0.26797200  1
  O  O59  1  0.01239600  0.25387800  0.23202800  1
  O  O60  1  0.50386100  0.25135600  0.96297200  1
  O  O61  1  0.00386100  0.74864400  0.53702800  1
  O  O62  1  0.49613900  0.74864400  0.03702800  1
  O  O63  1  0.99613900  0.25135600  0.46297200  1
  O  O64  1  0.85939200  0.55204300  0.18187600  1
  O  O65  1  0.35939200  0.44795700  0.31812400  1
  O  O66  1  0.14060800  0.44795700  0.81812400  1
  O  O67  1  0.64060800  0.55204300  0.68187600  1
  O  O68  1  0.72239400  0.26016500  0.23525400  1
  O  O69  1  0.22239400  0.73983500  0.26474600  1
  O  O70  1  0.27760600  0.73983500  0.76474600  1
  O  O71  1  0.77760600  0.26016500  0.73525400  1
  O  O72  1  0.65838300  0.42647300  0.41214400  1
  O  O73  1  0.15838300  0.57352700  0.08785600  1
  O  O74  1  0.34161700  0.57352700  0.58785600  1
  O  O75  1  0.84161700  0.42647300  0.91214400  1
  O  O76  1  0.72335500  0.75112000  0.31587900  1
  O  O77  1  0.22335500  0.24888000  0.18412100  1
  O  O78  1  0.27664500  0.24888000  0.68412100  1
  O  O79  1  0.77664500  0.75112000  0.81587900  1
  O  O80  1  0.84587300  0.41004300  0.40996100  1
  O  O81  1  0.34587300  0.58995700  0.09003900  1
  O  O82  1  0.15412700  0.58995700  0.59003900  1
  O  O83  1  0.65412700  0.41004300  0.90996100  1
  O  O84  1  0.01844800  0.66607200  0.30599800  1
  O  O85  1  0.51844800  0.33392800  0.19400200  1
  O  O86  1  0.98155200  0.33392800  0.69400200  1
  O  O87  1  0.65971100  0.03545600  0.10709000  1
