# generated using pymatgen
data_Zn(MoO2)2
_symmetry_space_group_name_H-M   'P 1'
_cell_length_a   6.46042062
_cell_length_b   6.46042062
_cell_length_c   6.46042062
_cell_angle_alpha   124.38018523
_cell_angle_beta   123.06720580
_cell_angle_gamma   83.66715944
_symmetry_Int_Tables_number   1
_chemical_formula_structural   Zn(MoO2)2
_chemical_formula_sum   'Zn2 Mo4 O8'
_cell_volume   178.70236502
_cell_formula_units_Z   2
loop_
 _symmetry_equiv_pos_site_id
 _symmetry_equiv_pos_as_xyz
  1  'x, y, z'
loop_
 _atom_site_type_symbol
 _atom_site_label
 _atom_site_symmetry_multiplicity
 _atom_site_fract_x
 _atom_site_fract_y
 _atom_site_fract_z
 _atom_site_occupancy
  Zn  Zn0  1  0.00000000  0.50000000  0.00000000  1
  Zn  Zn1  1  0.00000000  0.00000000  0.50000000  1
  Mo  Mo2  1  0.62069800  0.87069800  0.75000000  1
  Mo  Mo3  1  0.37930200  0.12930200  0.25000000  1
  Mo  Mo4  1  0.00000000  0.50000000  0.50000000  1
  Mo  Mo5  1  0.50000000  0.50000000  0.00000000  1
  O  O6  1  0.77533800  0.27598200  0.49935600  1
  O  O7  1  0.22471000  0.72640500  0.00169400  1
  O  O8  1  0.27662700  0.27598200  0.00064400  1
  O  O9  1  0.22471000  0.22301600  0.49830600  1
  O  O10  1  0.77529000  0.77698400  0.50169400  1
  O  O11  1  0.77529000  0.27359500  0.99830600  1
  O  O12  1  0.72337300  0.72401800  0.99935600  1
  O  O13  1  0.22466200  0.72401800  0.50064400  1
