# generated using pymatgen
data_Zn2CuWO6
_symmetry_space_group_name_H-M   'P 1'
_cell_length_a   4.99057600
_cell_length_b   5.37711745
_cell_length_c   5.42579937
_cell_angle_alpha   114.93980258
_cell_angle_beta   116.11797294
_cell_angle_gamma   89.82371542
_symmetry_Int_Tables_number   1
_chemical_formula_structural   Zn2CuWO6
_chemical_formula_sum   'Zn2 Cu1 W1 O6'
_cell_volume   115.52456000
_cell_formula_units_Z   1
loop_
 _symmetry_equiv_pos_site_id
 _symmetry_equiv_pos_as_xyz
  1  'x, y, z'
loop_
 _atom_site_type_symbol
 _atom_site_label
 _atom_site_symmetry_multiplicity
 _atom_site_fract_x
 _atom_site_fract_y
 _atom_site_fract_z
 _atom_site_occupancy
  Zn  Zn0  1  0.28807300  0.81928300  0.53682600  1
  Zn  Zn1  1  0.73012000  0.34217700  0.52926700  1
  Cu  Cu2  1  0.48179700  0.48327400  0.98335800  1
  W  W3  1  0.99156400  0.98092700  0.98821000  1
  O  O4  1  0.69413900  0.18758700  0.81103000  1
  O  O5  1  0.24541900  0.73963600  0.13269300  1
  O  O6  1  0.99860200  0.14459900  0.37509200  1
  O  O7  1  0.34269100  0.23433400  0.10732000  1
  O  O8  1  0.60362400  0.67803500  0.80457000  1
  O  O9  1  0.93522600  0.73075100  0.57569500  1
