# generated using pymatgen
data_Ca(SnO2)2
_symmetry_space_group_name_H-M   'P 1'
_cell_length_a   6.34086500
_cell_length_b   6.94090100
_cell_length_c   11.95796300
_cell_angle_alpha   90.00000000
_cell_angle_beta   90.00000000
_cell_angle_gamma   90.00000000
_symmetry_Int_Tables_number   1
_chemical_formula_structural   Ca(SnO2)2
_chemical_formula_sum   'Ca4 Sn8 O16'
_cell_volume   526.28569093
_cell_formula_units_Z   4
loop_
 _symmetry_equiv_pos_site_id
 _symmetry_equiv_pos_as_xyz
  1  'x, y, z'
loop_
 _atom_site_type_symbol
 _atom_site_label
 _atom_site_symmetry_multiplicity
 _atom_site_fract_x
 _atom_site_fract_y
 _atom_site_fract_z
 _atom_site_occupancy
  Ca  Ca0  1  0.50000000  0.44734500  0.00000000  1
  Ca  Ca1  1  0.00000000  0.55265500  0.50000000  1
  Ca  Ca2  1  0.50000000  0.79778400  0.50000000  1
  Ca  Ca3  1  0.00000000  0.20221600  0.00000000  1
  Sn  Sn4  1  0.00000000  0.89876100  0.29486300  1
  Sn  Sn5  1  0.00000000  0.89876100  0.70513700  1
  Sn  Sn6  1  0.50000000  0.10123900  0.20513700  1
  Sn  Sn7  1  0.50000000  0.10123900  0.79486300  1
  Sn  Sn8  1  0.25000000  0.50000000  0.25000000  1
  Sn  Sn9  1  0.75000000  0.50000000  0.75000000  1
  Sn  Sn10  1  0.75000000  0.50000000  0.25000000  1
  Sn  Sn11  1  0.25000000  0.50000000  0.75000000  1
  O  O12  1  0.00000000  0.37353200  0.33595900  1
  O  O13  1  0.00000000  0.37353200  0.66404100  1
  O  O14  1  0.50000000  0.62646800  0.16404100  1
  O  O15  1  0.50000000  0.62646800  0.83595900  1
  O  O16  1  0.00000000  0.66257300  0.17441400  1
  O  O17  1  0.00000000  0.66257300  0.82558600  1
  O  O18  1  0.50000000  0.33742700  0.32558600  1
  O  O19  1  0.50000000  0.33742700  0.67441400  1
  O  O20  1  0.26297400  0.27705000  0.12542800  1
  O  O21  1  0.73702600  0.27705000  0.87457200  1
  O  O22  1  0.76297400  0.72295000  0.37457200  1
  O  O23  1  0.23702600  0.72295000  0.62542800  1
  O  O24  1  0.23702600  0.72295000  0.37457200  1
  O  O25  1  0.76297400  0.72295000  0.62542800  1
  O  O26  1  0.73702600  0.27705000  0.12542800  1
  O  O27  1  0.26297400  0.27705000  0.87457200  1
