# generated using pymatgen
data_Cr(WO4)2
_symmetry_space_group_name_H-M   'P 1'
_cell_length_a   5.05224100
_cell_length_b   5.15144589
_cell_length_c   6.93585534
_cell_angle_alpha   108.17888329
_cell_angle_beta   92.05821854
_cell_angle_gamma   105.00157398
_symmetry_Int_Tables_number   1
_chemical_formula_structural   Cr(WO4)2
_chemical_formula_sum   'Cr1 W2 O8'
_cell_volume   164.31561984
_cell_formula_units_Z   1
loop_
 _symmetry_equiv_pos_site_id
 _symmetry_equiv_pos_as_xyz
  1  'x, y, z'
loop_
 _atom_site_type_symbol
 _atom_site_label
 _atom_site_symmetry_multiplicity
 _atom_site_fract_x
 _atom_site_fract_y
 _atom_site_fract_z
 _atom_site_occupancy
  Cr  Cr0  1  0.50000000  0.00000000  0.00000000  1
  W  W1  1  0.24037300  0.52102200  0.17724900  1
  W  W2  1  0.75962700  0.47897800  0.82275100  1
  O  O3  1  0.17751100  0.70967100  0.41594000  1
  O  O4  1  0.37623400  0.24428300  0.22769600  1
  O  O5  1  0.13260700  0.71171600  0.96658800  1
  O  O6  1  0.41231000  0.22677700  0.85084400  1
  O  O7  1  0.62376600  0.75571700  0.77230400  1
  O  O8  1  0.82248900  0.29032900  0.58406000  1
  O  O9  1  0.86739300  0.28828400  0.03341200  1
  O  O10  1  0.58769000  0.77322300  0.14915600  1
