# generated using pymatgen
data_Bi2O5
_symmetry_space_group_name_H-M   'P 1'
_cell_length_a   5.37087700
_cell_length_b   10.36805700
_cell_length_c   14.79313400
_cell_angle_alpha   90.00000000
_cell_angle_beta   90.00000000
_cell_angle_gamma   90.00000000
_symmetry_Int_Tables_number   1
_chemical_formula_structural   Bi2O5
_chemical_formula_sum   'Bi16 O40'
_cell_volume   823.76393432
_cell_formula_units_Z   8
loop_
 _symmetry_equiv_pos_site_id
 _symmetry_equiv_pos_as_xyz
  1  'x, y, z'
loop_
 _atom_site_type_symbol
 _atom_site_label
 _atom_site_symmetry_multiplicity
 _atom_site_fract_x
 _atom_site_fract_y
 _atom_site_fract_z
 _atom_site_occupancy
  Bi  Bi0  1  0.09446900  0.35672400  0.42282800  1
  Bi  Bi1  1  0.40553100  0.85672400  0.57717200  1
  Bi  Bi2  1  0.90553100  0.64327600  0.57717200  1
  Bi  Bi3  1  0.59446900  0.14327600  0.42282800  1
  Bi  Bi4  1  0.90553100  0.14327600  0.92282800  1
  Bi  Bi5  1  0.09446900  0.85672400  0.07717200  1
  Bi  Bi6  1  0.40553100  0.35672400  0.92282800  1
  Bi  Bi7  1  0.59446900  0.64327600  0.07717200  1
  Bi  Bi8  1  0.99200100  0.86395200  0.78473900  1
  Bi  Bi9  1  0.00799900  0.13604800  0.21526100  1
  Bi  Bi10  1  0.50799900  0.36395200  0.21526100  1
  Bi  Bi11  1  0.00799900  0.63604800  0.28473900  1
  Bi  Bi12  1  0.49200100  0.13604800  0.71526100  1
  Bi  Bi13  1  0.49200100  0.63604800  0.78473900  1
  Bi  Bi14  1  0.50799900  0.86395200  0.28473900  1
  Bi  Bi15  1  0.99200100  0.36395200  0.71526100  1
  O  O16  1  0.79093400  0.29613200  0.32368500  1
  O  O17  1  0.05813200  0.95425300  0.92222800  1
  O  O18  1  0.44186800  0.45425300  0.07777200  1
  O  O19  1  0.32814300  0.79505100  0.84481400  1
  O  O20  1  0.17185700  0.29505100  0.15518600  1
  O  O21  1  0.79093400  0.79613200  0.17631500  1
  O  O22  1  0.17185700  0.79505100  0.34481400  1
  O  O23  1  0.70906600  0.79613200  0.67631500  1
  O  O24  1  0.05813200  0.45425300  0.57777200  1
  O  O25  1  0.20906600  0.70386800  0.67631500  1
  O  O26  1  0.70906600  0.29613200  0.82368500  1
  O  O27  1  0.94781500  0.18285600  0.47918800  1
  O  O28  1  0.55813200  0.04574700  0.57777200  1
  O  O29  1  0.67185700  0.70494900  0.34481400  1
  O  O30  1  0.27993300  0.97428000  0.19250400  1
  O  O31  1  0.55813200  0.54574700  0.92222800  1
  O  O32  1  0.20906600  0.20386800  0.82368500  1
  O  O33  1  0.82814300  0.20494900  0.65518600  1
  O  O34  1  0.44781500  0.81714400  0.02081200  1
  O  O35  1  0.44186800  0.95425300  0.42222800  1
  O  O36  1  0.05218500  0.81714400  0.52081200  1
  O  O37  1  0.72006700  0.02572000  0.80749600  1
  O  O38  1  0.67185700  0.20494900  0.15518600  1
  O  O39  1  0.77993300  0.02572000  0.30749600  1
  O  O40  1  0.05218500  0.31714400  0.97918800  1
  O  O41  1  0.44781500  0.31714400  0.47918800  1
  O  O42  1  0.94186800  0.54574700  0.42222800  1
  O  O43  1  0.94186800  0.04574700  0.07777200  1
  O  O44  1  0.77993300  0.52572000  0.19250400  1
  O  O45  1  0.55218500  0.68285600  0.52081200  1
  O  O46  1  0.55218500  0.18285600  0.97918800  1
  O  O47  1  0.94781500  0.68285600  0.02081200  1
  O  O48  1  0.72006700  0.52572000  0.69250400  1
  O  O49  1  0.82814300  0.70494900  0.84481400  1
  O  O50  1  0.32814300  0.29505100  0.65518600  1
  O  O51  1  0.27993300  0.47428000  0.30749600  1
  O  O52  1  0.22006700  0.47428000  0.80749600  1
  O  O53  1  0.29093400  0.20386800  0.32368500  1
  O  O54  1  0.22006700  0.97428000  0.69250400  1
  O  O55  1  0.29093400  0.70386800  0.17631500  1
