# generated using pymatgen
data_Si2SnO6
_symmetry_space_group_name_H-M   'P 1'
_cell_length_a   5.14179000
_cell_length_b   10.89766600
_cell_length_c   19.13784600
_cell_angle_alpha   90.00000000
_cell_angle_beta   90.00000000
_cell_angle_gamma   90.00000000
_symmetry_Int_Tables_number   1
_chemical_formula_structural   Si2SnO6
_chemical_formula_sum   'Si16 Sn8 O48'
_cell_volume   1072.36068641
_cell_formula_units_Z   8
loop_
 _symmetry_equiv_pos_site_id
 _symmetry_equiv_pos_as_xyz
  1  'x, y, z'
loop_
 _atom_site_type_symbol
 _atom_site_label
 _atom_site_symmetry_multiplicity
 _atom_site_fract_x
 _atom_site_fract_y
 _atom_site_fract_z
 _atom_site_occupancy
  Si  Si0  1  0.62113400  0.17047600  0.27635200  1
  Si  Si1  1  0.75895200  0.32811400  0.97370400  1
  Si  Si2  1  0.74104800  0.32811400  0.47370400  1
  Si  Si3  1  0.87886600  0.67047600  0.72364800  1
  Si  Si4  1  0.12113400  0.82952400  0.22364800  1
  Si  Si5  1  0.37886600  0.32952400  0.77635200  1
  Si  Si6  1  0.25895200  0.17188600  0.97370400  1
  Si  Si7  1  0.75895200  0.82811400  0.52629600  1
  Si  Si8  1  0.74104800  0.82811400  0.02629600  1
  Si  Si9  1  0.87886600  0.17047600  0.77635200  1
  Si  Si10  1  0.37886600  0.82952400  0.72364800  1
  Si  Si11  1  0.62113400  0.67047600  0.22364800  1
  Si  Si12  1  0.24104800  0.67188600  0.02629600  1
  Si  Si13  1  0.12113400  0.32952400  0.27635200  1
  Si  Si14  1  0.24104800  0.17188600  0.47370400  1
  Si  Si15  1  0.25895200  0.67188600  0.52629600  1
  Sn  Sn16  1  0.43666400  0.54545300  0.37405200  1
  Sn  Sn17  1  0.56333600  0.45454700  0.62594800  1
  Sn  Sn18  1  0.93666400  0.45454700  0.12594800  1
  Sn  Sn19  1  0.06333600  0.54545300  0.87405200  1
  Sn  Sn20  1  0.43666400  0.04545300  0.12594800  1
  Sn  Sn21  1  0.56333600  0.95454700  0.87405200  1
  Sn  Sn22  1  0.93666400  0.95454700  0.37405200  1
  Sn  Sn23  1  0.06333600  0.04545300  0.62594800  1
  O  O24  1  0.82249500  0.04531400  0.82005200  1
  O  O25  1  0.31413700  0.54712200  0.57021500  1
  O  O26  1  0.17750500  0.95468600  0.17994800  1
  O  O27  1  0.75932300  0.85117100  0.44172600  1
  O  O28  1  0.25932300  0.64882900  0.44172600  1
  O  O29  1  0.96789400  0.72035200  0.54671700  1
  O  O30  1  0.86457500  0.14516400  0.69190400  1
  O  O31  1  0.13542500  0.35483600  0.19190400  1
  O  O32  1  0.75932300  0.35117100  0.05827400  1
  O  O33  1  0.86457500  0.64516400  0.80809600  1
  O  O34  1  0.32249500  0.95468600  0.67994800  1
  O  O35  1  0.74067700  0.85117100  0.94172600  1
  O  O36  1  0.68586300  0.45287800  0.42978500  1
  O  O37  1  0.36457500  0.35483600  0.69190400  1
  O  O38  1  0.67750500  0.54531400  0.17994800  1
  O  O39  1  0.31413700  0.04712200  0.92978500  1
  O  O40  1  0.32249500  0.45468600  0.82005200  1
  O  O41  1  0.16914300  0.22160000  0.79588700  1
  O  O42  1  0.33085700  0.22160000  0.29588700  1
  O  O43  1  0.53210600  0.22035200  0.45328300  1
  O  O44  1  0.74067700  0.35117100  0.55827400  1
  O  O45  1  0.63542500  0.14516400  0.19190400  1
  O  O46  1  0.81413700  0.95287800  0.57021500  1
  O  O47  1  0.16914300  0.72160000  0.70411300  1
  O  O48  1  0.24067700  0.64882900  0.94172600  1
  O  O49  1  0.63542500  0.64516400  0.30809600  1
  O  O50  1  0.68586300  0.95287800  0.07021500  1
  O  O51  1  0.25932300  0.14882900  0.05827400  1
  O  O52  1  0.18586300  0.04712200  0.42978500  1
  O  O53  1  0.66914300  0.27840000  0.79588700  1
  O  O54  1  0.17750500  0.45468600  0.32005200  1
  O  O55  1  0.83085700  0.27840000  0.29588700  1
  O  O56  1  0.83085700  0.77840000  0.20411300  1
  O  O57  1  0.81413700  0.45287800  0.92978500  1
  O  O58  1  0.24067700  0.14882900  0.55827400  1
  O  O59  1  0.18586300  0.54712200  0.07021500  1
  O  O60  1  0.33085700  0.72160000  0.20411300  1
  O  O61  1  0.03210600  0.27964800  0.45328300  1
  O  O62  1  0.46789400  0.27964800  0.95328300  1
  O  O63  1  0.66914300  0.77840000  0.70411300  1
  O  O64  1  0.46789400  0.77964800  0.54671700  1
  O  O65  1  0.53210600  0.72035200  0.04671700  1
  O  O66  1  0.03210600  0.77964800  0.04671700  1
  O  O67  1  0.36457500  0.85483600  0.80809600  1
  O  O68  1  0.67750500  0.04531400  0.32005200  1
  O  O69  1  0.96789400  0.22035200  0.95328300  1
  O  O70  1  0.13542500  0.85483600  0.30809600  1
  O  O71  1  0.82249500  0.54531400  0.67994800  1
