# generated using pymatgen
data_V2OF5
_symmetry_space_group_name_H-M   'P 1'
_cell_length_a   5.27210664
_cell_length_b   5.42093702
_cell_length_c   17.40400014
_cell_angle_alpha   91.72062376
_cell_angle_beta   98.45997220
_cell_angle_gamma   60.90718669
_symmetry_Int_Tables_number   1
_chemical_formula_structural   V2OF5
_chemical_formula_sum   'V8 O4 F20'
_cell_volume   429.42104322
_cell_formula_units_Z   4
loop_
 _symmetry_equiv_pos_site_id
 _symmetry_equiv_pos_as_xyz
  1  'x, y, z'
loop_
 _atom_site_type_symbol
 _atom_site_label
 _atom_site_symmetry_multiplicity
 _atom_site_fract_x
 _atom_site_fract_y
 _atom_site_fract_z
 _atom_site_occupancy
  V  V0  1  0.76787600  0.60653000  0.12087100  1
  V  V1  1  0.75283100  0.10928300  0.62382300  1
  V  V2  1  0.49999500  0.25500200  0.25094500  1
  V  V3  1  0.49588000  0.73277300  0.75675000  1
  V  V4  1  0.26881900  0.85171500  0.37094300  1
  V  V5  1  0.25319400  0.38210000  0.87366000  1
  V  V6  1  0.99946100  0.01272900  0.00156600  1
  V  V7  1  0.99994200  0.51662100  0.50376900  1
  O  O8  1  0.94985100  0.33048000  0.06608300  1
  O  O9  1  0.95861100  0.78875000  0.55947400  1
  O  O10  1  0.44530400  0.58031100  0.31555200  1
  O  O11  1  0.42383700  0.59128000  0.82976800  1
  F  F12  1  0.92729000  0.84066800  0.09039200  1
  F  F13  1  0.54075100  0.92741100  0.18640700  1
  F  F14  1  0.92172000  0.05038400  0.28942700  1
  F  F15  1  0.93204700  0.31740900  0.58445400  1
  F  F16  1  0.92495200  0.53762900  0.78598000  1
  F  F17  1  0.42423300  0.80085200  0.03858300  1
  F  F18  1  0.56431600  0.42559500  0.16294600  1
  F  F19  1  0.57763800  0.90621400  0.66769500  1
  F  F20  1  0.57427600  0.70040200  0.46253100  1
  F  F21  1  0.52135500  0.44415300  0.68422200  1
  F  F22  1  0.42760700  0.08790300  0.33857800  1
  F  F23  1  0.42672700  0.28136000  0.53656100  1
  F  F24  1  0.57509600  0.21731900  0.96288200  1
  F  F25  1  0.06404000  0.67243300  0.41223300  1
  F  F26  1  0.07261400  0.46259800  0.21296400  1
  F  F27  1  0.07723500  0.96607000  0.71132900  1
  F  F28  1  0.48457500  0.05940400  0.81250100  1
  F  F29  1  0.02656200  0.69128500  0.93838800  1
  F  F30  1  0.04577600  0.18615600  0.43705800  1
  F  F31  1  0.07558500  0.16717900  0.91166900  1
