# generated using pymatgen
data_ZnCu(GeO3)2
_symmetry_space_group_name_H-M   'P 1'
_cell_length_a   7.03828579
_cell_length_b   7.03828579
_cell_length_c   5.40642753
_cell_angle_alpha   74.81138959
_cell_angle_beta   74.81138959
_cell_angle_gamma   86.09152152
_symmetry_Int_Tables_number   1
_chemical_formula_structural   ZnCu(GeO3)2
_chemical_formula_sum   'Zn2 Cu2 Ge4 O12'
_cell_volume   249.43677853
_cell_formula_units_Z   2
loop_
 _symmetry_equiv_pos_site_id
 _symmetry_equiv_pos_as_xyz
  1  'x, y, z'
loop_
 _atom_site_type_symbol
 _atom_site_label
 _atom_site_symmetry_multiplicity
 _atom_site_fract_x
 _atom_site_fract_y
 _atom_site_fract_z
 _atom_site_occupancy
  Zn  Zn0  1  0.76258800  0.23741200  0.75000000  1
  Zn  Zn1  1  0.23741200  0.76258800  0.25000000  1
  Cu  Cu2  1  0.10702700  0.89297300  0.75000000  1
  Cu  Cu3  1  0.89297300  0.10702700  0.25000000  1
  Ge  Ge4  1  0.20874200  0.38650400  0.75685800  1
  Ge  Ge5  1  0.61349600  0.79125800  0.74314200  1
  Ge  Ge6  1  0.79125800  0.61349600  0.24314200  1
  Ge  Ge7  1  0.38650400  0.20874200  0.25685800  1
  O  O8  1  0.40444700  0.30375600  0.52405800  1
  O  O9  1  0.69624400  0.59555300  0.97594200  1
  O  O10  1  0.59555300  0.69624400  0.47594200  1
  O  O11  1  0.30375600  0.40444700  0.02405800  1
  O  O12  1  0.62291100  0.13365700  0.11502200  1
  O  O13  1  0.86634300  0.37708900  0.38497800  1
  O  O14  1  0.37708900  0.86634300  0.88497800  1
  O  O15  1  0.13365700  0.62291100  0.61502200  1
  O  O16  1  0.02143100  0.20164100  0.87966900  1
  O  O17  1  0.79835900  0.97856900  0.62033100  1
  O  O18  1  0.97856900  0.79835900  0.12033100  1
  O  O19  1  0.20164100  0.02143100  0.37966900  1
