# generated using pymatgen
data_CaTi(GeO3)2
_symmetry_space_group_name_H-M   'P 1'
_cell_length_a   8.69475100
_cell_length_b   5.41733800
_cell_length_c   12.18759108
_cell_angle_alpha   77.25828107
_cell_angle_beta   90.00000000
_cell_angle_gamma   90.00000000
_symmetry_Int_Tables_number   1
_chemical_formula_structural   CaTi(GeO3)2
_chemical_formula_sum   'Ca4 Ti4 Ge8 O24'
_cell_volume   559.92804946
_cell_formula_units_Z   4
loop_
 _symmetry_equiv_pos_site_id
 _symmetry_equiv_pos_as_xyz
  1  'x, y, z'
loop_
 _atom_site_type_symbol
 _atom_site_label
 _atom_site_symmetry_multiplicity
 _atom_site_fract_x
 _atom_site_fract_y
 _atom_site_fract_z
 _atom_site_occupancy
  Ca  Ca0  1  0.41764200  0.52087300  0.26235900  1
  Ca  Ca1  1  0.91764200  0.97912700  0.73764100  1
  Ca  Ca2  1  0.58235800  0.47912700  0.73764100  1
  Ca  Ca3  1  0.08235800  0.02087300  0.26235900  1
  Ti  Ti4  1  0.66426300  0.01878800  0.27985800  1
  Ti  Ti5  1  0.16426300  0.48121200  0.72014200  1
  Ti  Ti6  1  0.33573700  0.98121200  0.72014200  1
  Ti  Ti7  1  0.83573700  0.51878800  0.27985800  1
  Ge  Ge8  1  0.36742900  0.16730400  0.06995800  1
  Ge  Ge9  1  0.86742900  0.33269600  0.93004200  1
  Ge  Ge10  1  0.63257100  0.83269600  0.93004200  1
  Ge  Ge11  1  0.13257100  0.66730400  0.06995800  1
  Ge  Ge12  1  0.35245500  0.87520700  0.47789300  1
  Ge  Ge13  1  0.85245500  0.62479300  0.52210700  1
  Ge  Ge14  1  0.64754500  0.12479300  0.52210700  1
  Ge  Ge15  1  0.14754500  0.37520700  0.47789300  1
  O  O16  1  0.25279500  0.65138300  0.40278100  1
  O  O17  1  0.75279500  0.84861700  0.59721900  1
  O  O18  1  0.74720500  0.34861700  0.59721900  1
  O  O19  1  0.24720500  0.15138300  0.40278100  1
  O  O20  1  0.27815000  0.85456200  0.14605700  1
  O  O21  1  0.77815000  0.64543800  0.85394300  1
  O  O22  1  0.72185000  0.14543800  0.85394300  1
  O  O23  1  0.22185000  0.35456200  0.14605700  1
  O  O24  1  0.95986000  0.35919800  0.42402300  1
  O  O25  1  0.45986000  0.14080200  0.57597700  1
  O  O26  1  0.04014000  0.64080200  0.57597700  1
  O  O27  1  0.54014000  0.85919800  0.42402300  1
  O  O28  1  0.99294400  0.67654100  0.19496300  1
  O  O29  1  0.49294400  0.82345900  0.80503700  1
  O  O30  1  0.00705600  0.32345900  0.80503700  1
  O  O31  1  0.50705600  0.17654100  0.19496300  1
  O  O32  1  0.33517200  0.27482100  0.77941300  1
  O  O33  1  0.83517200  0.22517900  0.22058700  1
  O  O34  1  0.66482800  0.72517900  0.22058700  1
  O  O35  1  0.16482800  0.77482100  0.77941300  1
  O  O36  1  0.34098000  0.70020400  0.61884100  1
  O  O37  1  0.84098000  0.79979600  0.38115900  1
  O  O38  1  0.65902000  0.29979600  0.38115900  1
  O  O39  1  0.15902000  0.20020400  0.61884100  1
