# generated using pymatgen
data_Ta6Zn3(FeO6)4
_symmetry_space_group_name_H-M   'P 1'
_cell_length_a   7.03418700
_cell_length_b   8.27088120
_cell_length_c   10.31100842
_cell_angle_alpha   106.66629141
_cell_angle_beta   103.32823269
_cell_angle_gamma   102.17462603
_symmetry_Int_Tables_number   1
_chemical_formula_structural   Ta6Zn3(FeO6)4
_chemical_formula_sum   'Ta6 Zn3 Fe4 O24'
_cell_volume   533.94409891
_cell_formula_units_Z   1
loop_
 _symmetry_equiv_pos_site_id
 _symmetry_equiv_pos_as_xyz
  1  'x, y, z'
loop_
 _atom_site_type_symbol
 _atom_site_label
 _atom_site_symmetry_multiplicity
 _atom_site_fract_x
 _atom_site_fract_y
 _atom_site_fract_z
 _atom_site_occupancy
  Ta  Ta0  1  0.77846700  0.33142700  0.72892200  1
  Ta  Ta1  1  0.22153300  0.66857300  0.27107800  1
  Ta  Ta2  1  0.89546500  0.90973300  0.66785500  1
  Ta  Ta3  1  0.40770500  0.73219800  0.87813700  1
  Ta  Ta4  1  0.10453500  0.09026700  0.33214500  1
  Ta  Ta5  1  0.59229500  0.26780200  0.12186300  1
  Zn  Zn6  1  0.00000000  0.50000000  0.50000000  1
  Zn  Zn7  1  0.28521900  0.28352900  0.79833900  1
  Zn  Zn8  1  0.71478100  0.71647100  0.20166100  1
  Fe  Fe9  1  0.37982800  0.95195000  0.60865700  1
  Fe  Fe10  1  0.62017200  0.04805000  0.39134300  1
  Fe  Fe11  1  0.04176900  0.20432900  0.01192500  1
  Fe  Fe12  1  0.95823100  0.79567100  0.98807500  1
  O  O13  1  0.87975300  0.67965900  0.58108600  1
  O  O14  1  0.12024700  0.32034100  0.41891400  1
  O  O15  1  0.27622700  0.49912800  0.75893400  1
  O  O16  1  0.72377300  0.50087200  0.24106600  1
  O  O17  1  0.78151000  0.29699300  0.53949400  1
  O  O18  1  0.21849000  0.70300700  0.46050600  1
  O  O19  1  0.66183700  0.96905300  0.57588300  1
  O  O20  1  0.33816300  0.03094700  0.42411700  1
  O  O21  1  0.66024100  0.75681500  0.01217300  1
  O  O22  1  0.33975900  0.24318500  0.98782700  1
  O  O23  1  0.48194900  0.77956500  0.27027400  1
  O  O24  1  0.51805100  0.22043500  0.72972600  1
  O  O25  1  0.13827400  0.02773700  0.64573700  1
  O  O26  1  0.07182300  0.06184300  0.13891600  1
  O  O27  1  0.92817700  0.93815700  0.86108400  1
  O  O28  1  0.56421800  0.13501500  0.23864300  1
  O  O29  1  0.43578200  0.86498500  0.76135700  1
  O  O30  1  0.16586200  0.43513400  0.16641100  1
  O  O31  1  0.83413800  0.56486600  0.83358900  1
  O  O32  1  0.97946500  0.24560300  0.82221300  1
  O  O33  1  0.02053500  0.75439700  0.17778700  1
  O  O34  1  0.23081000  0.79406500  0.97628800  1
  O  O35  1  0.76919000  0.20593500  0.02371200  1
  O  O36  1  0.86172600  0.97226300  0.35426300  1
