# generated using pymatgen
data_TmGaO3
_symmetry_space_group_name_H-M   'P 1'
_cell_length_a   3.49447824
_cell_length_b   3.49447824
_cell_length_c   11.70390400
_cell_angle_alpha   90.00000000
_cell_angle_beta   90.00000000
_cell_angle_gamma   120.00000458
_symmetry_Int_Tables_number   1
_chemical_formula_structural   TmGaO3
_chemical_formula_sum   'Tm2 Ga2 O6'
_cell_volume   123.77303604
_cell_formula_units_Z   2
loop_
 _symmetry_equiv_pos_site_id
 _symmetry_equiv_pos_as_xyz
  1  'x, y, z'
loop_
 _atom_site_type_symbol
 _atom_site_label
 _atom_site_symmetry_multiplicity
 _atom_site_fract_x
 _atom_site_fract_y
 _atom_site_fract_z
 _atom_site_occupancy
  Tm  Tm0  1  0.00000000  0.00000000  0.00000000  1
  Tm  Tm1  1  0.00000000  0.00000000  0.50000000  1
  Ga  Ga2  1  0.33333300  0.66666700  0.25000000  1
  Ga  Ga3  1  0.66666700  0.33333300  0.75000000  1
  O  O4  1  0.33333300  0.66666700  0.08603100  1
  O  O5  1  0.00000000  0.00000000  0.25000000  1
  O  O6  1  0.33333300  0.66666700  0.41396900  1
  O  O7  1  0.00000000  0.00000000  0.75000000  1
  O  O8  1  0.66666700  0.33333300  0.91396900  1
  O  O9  1  0.66666700  0.33333300  0.58603100  1
