# generated using pymatgen
data_ZnW2O5
_symmetry_space_group_name_H-M   'P 1'
_cell_length_a   6.03125852
_cell_length_b   6.03125852
_cell_length_c   10.93104500
_cell_angle_alpha   90.00000000
_cell_angle_beta   90.00000000
_cell_angle_gamma   143.30834782
_symmetry_Int_Tables_number   1
_chemical_formula_structural   ZnW2O5
_chemical_formula_sum   'Zn2 W4 O10'
_cell_volume   237.58637451
_cell_formula_units_Z   2
loop_
 _symmetry_equiv_pos_site_id
 _symmetry_equiv_pos_as_xyz
  1  'x, y, z'
loop_
 _atom_site_type_symbol
 _atom_site_label
 _atom_site_symmetry_multiplicity
 _atom_site_fract_x
 _atom_site_fract_y
 _atom_site_fract_z
 _atom_site_occupancy
  Zn  Zn0  1  0.09087800  0.90912200  0.75000000  1
  Zn  Zn1  1  0.90912200  0.09087800  0.25000000  1
  W  W2  1  0.81024600  0.18975400  0.62309500  1
  W  W3  1  0.18975400  0.81024600  0.37690500  1
  W  W4  1  0.18975400  0.81024600  0.12309500  1
  W  W5  1  0.81024600  0.18975400  0.87690500  1
  O  O6  1  0.33604100  0.66395900  0.25000000  1
  O  O7  1  0.66395900  0.33604100  0.75000000  1
  O  O8  1  0.74189600  0.25810400  0.08778800  1
  O  O9  1  0.25810400  0.74189600  0.91221200  1
  O  O10  1  0.25810400  0.74189600  0.58778800  1
  O  O11  1  0.74189600  0.25810400  0.41221200  1
  O  O12  1  0.96685700  0.03314300  0.62022200  1
  O  O13  1  0.03314300  0.96685700  0.37977800  1
  O  O14  1  0.96685700  0.03314300  0.87977800  1
  O  O15  1  0.03314300  0.96685700  0.12022200  1
