# generated using pymatgen
data_Zn3Fe4(MoO4)6
_symmetry_space_group_name_H-M   'P 1'
_cell_length_a   7.09255728
_cell_length_b   8.30332576
_cell_length_c   10.32573235
_cell_angle_alpha   104.44278151
_cell_angle_beta   104.54093124
_cell_angle_gamma   102.72918088
_symmetry_Int_Tables_number   1
_chemical_formula_structural   Zn3Fe4(MoO4)6
_chemical_formula_sum   'Zn3 Fe4 Mo6 O24'
_cell_volume   543.42915935
_cell_formula_units_Z   1
loop_
 _symmetry_equiv_pos_site_id
 _symmetry_equiv_pos_as_xyz
  1  'x, y, z'
loop_
 _atom_site_type_symbol
 _atom_site_label
 _atom_site_symmetry_multiplicity
 _atom_site_fract_x
 _atom_site_fract_y
 _atom_site_fract_z
 _atom_site_occupancy
  Zn  Zn0  1  0.00000000  0.50000000  0.50000000  1
  Zn  Zn1  1  0.28575000  0.28486900  0.79064600  1
  Zn  Zn2  1  0.71425000  0.71513100  0.20935400  1
  Fe  Fe3  1  0.37736100  0.95681000  0.60756300  1
  Fe  Fe4  1  0.62263900  0.04319000  0.39243700  1
  Fe  Fe5  1  0.04827600  0.21394300  0.00759300  1
  Fe  Fe6  1  0.95172400  0.78605700  0.99240700  1
  Mo  Mo7  1  0.77867500  0.33988300  0.72257500  1
  Mo  Mo8  1  0.22132500  0.66011700  0.27742500  1
  Mo  Mo9  1  0.89493600  0.90530100  0.67059500  1
  Mo  Mo10  1  0.40440100  0.72693400  0.87877800  1
  Mo  Mo11  1  0.10506400  0.09469900  0.32940500  1
  Mo  Mo12  1  0.59559900  0.27306600  0.12122200  1
  O  O13  1  0.87636300  0.68618700  0.58410700  1
  O  O14  1  0.12363700  0.31381300  0.41589300  1
  O  O15  1  0.27819000  0.50810300  0.75330500  1
  O  O16  1  0.72181000  0.49189700  0.24669500  1
  O  O17  1  0.79826800  0.30403800  0.53671900  1
  O  O18  1  0.20173200  0.69596200  0.46328100  1
  O  O19  1  0.67269600  0.96134000  0.58233700  1
  O  O20  1  0.32730400  0.03866000  0.41766300  1
  O  O21  1  0.64005900  0.74219500  0.01263300  1
  O  O22  1  0.35994100  0.25780500  0.98736700  1
  O  O23  1  0.48813800  0.77444200  0.28059600  1
  O  O24  1  0.51186200  0.22555800  0.71940400  1
  O  O25  1  0.12541100  0.03117900  0.65320200  1
  O  O26  1  0.07846100  0.06753400  0.14643000  1
  O  O27  1  0.92153900  0.93246600  0.85357000  1
  O  O28  1  0.55224500  0.13556300  0.22404800  1
  O  O29  1  0.44775500  0.86443700  0.77595200  1
  O  O30  1  0.18316200  0.44260200  0.17187900  1
  O  O31  1  0.81683800  0.55739800  0.82812100  1
  O  O32  1  0.99230100  0.26523200  0.81970400  1
  O  O33  1  0.00769900  0.73476800  0.18029600  1
  O  O34  1  0.23707500  0.78822200  0.96833000  1
  O  O35  1  0.76292500  0.21177800  0.03167000  1
  O  O36  1  0.87458900  0.96882100  0.34679800  1
