# generated using pymatgen
data_Ca2Mn3O8
_symmetry_space_group_name_H-M   'P 1'
_cell_length_a   5.98283100
_cell_length_b   5.98283107
_cell_length_c   10.54223900
_cell_angle_alpha   90.00000000
_cell_angle_beta   90.00000000
_cell_angle_gamma   119.99999409
_symmetry_Int_Tables_number   1
_chemical_formula_structural   Ca2Mn3O8
_chemical_formula_sum   'Ca4 Mn6 O16'
_cell_volume   326.79619467
_cell_formula_units_Z   2
loop_
 _symmetry_equiv_pos_site_id
 _symmetry_equiv_pos_as_xyz
  1  'x, y, z'
loop_
 _atom_site_type_symbol
 _atom_site_label
 _atom_site_symmetry_multiplicity
 _atom_site_fract_x
 _atom_site_fract_y
 _atom_site_fract_z
 _atom_site_occupancy
  Ca  Ca0  1  0.66666700  0.33333400  0.02666100  1
  Ca  Ca1  1  0.33333300  0.66666600  0.52666200  1
  Ca  Ca2  1  0.66666700  0.33333400  0.43067700  1
  Ca  Ca3  1  0.33333300  0.66666600  0.93067800  1
  Mn  Mn4  1  0.67118600  0.83559300  0.24587000  1
  Mn  Mn5  1  0.83559400  0.16440800  0.74587000  1
  Mn  Mn6  1  0.16440800  0.32881500  0.24587000  1
  Mn  Mn7  1  0.83559200  0.67118600  0.74587000  1
  Mn  Mn8  1  0.32881500  0.16440800  0.74587000  1
  Mn  Mn9  1  0.16440800  0.83559300  0.24587000  1
  O  O10  1  0.84560800  0.15439300  0.15515100  1
  O  O11  1  0.69121500  0.84560800  0.65515000  1
  O  O12  1  0.15439300  0.30878600  0.65515000  1
  O  O13  1  0.84560700  0.69121500  0.15515100  1
  O  O14  1  0.30878500  0.15439300  0.15515100  1
  O  O15  1  0.15439300  0.84560800  0.65515000  1
  O  O16  1  0.52211700  0.47788200  0.84752600  1
  O  O17  1  0.04423500  0.52211700  0.34752500  1
  O  O18  1  0.47788300  0.95576600  0.34752500  1
  O  O19  1  0.52211700  0.04423500  0.84752600  1
  O  O20  1  0.00000000  0.00000000  0.34142900  1
  O  O21  1  0.00000000  0.00000000  0.84142900  1
  O  O22  1  0.33333300  0.66666600  0.14909500  1
  O  O23  1  0.95576400  0.47788200  0.84752600  1
  O  O24  1  0.47788200  0.52211700  0.34752500  1
  O  O25  1  0.66666700  0.33333400  0.64909500  1
