# generated using pymatgen
data_Mn3Zn2O8
_symmetry_space_group_name_H-M   'P 1'
_cell_length_a   5.85975638
_cell_length_b   5.85975638
_cell_length_c   9.38420700
_cell_angle_alpha   90.00000000
_cell_angle_beta   90.00000000
_cell_angle_gamma   120.00000434
_symmetry_Int_Tables_number   1
_chemical_formula_structural   Mn3Zn2O8
_chemical_formula_sum   'Mn6 Zn4 O16'
_cell_volume   279.05339689
_cell_formula_units_Z   2
loop_
 _symmetry_equiv_pos_site_id
 _symmetry_equiv_pos_as_xyz
  1  'x, y, z'
loop_
 _atom_site_type_symbol
 _atom_site_label
 _atom_site_symmetry_multiplicity
 _atom_site_fract_x
 _atom_site_fract_y
 _atom_site_fract_z
 _atom_site_occupancy
  Mn  Mn0  1  0.67187100  0.83593500  0.24501400  1
  Mn  Mn1  1  0.83593500  0.16406500  0.74501400  1
  Mn  Mn2  1  0.16406500  0.32812900  0.24501400  1
  Mn  Mn3  1  0.83593500  0.67187100  0.74501400  1
  Mn  Mn4  1  0.32812900  0.16406500  0.74501400  1
  Mn  Mn5  1  0.16406500  0.83593500  0.24501400  1
  Zn  Zn6  1  0.66666700  0.33333300  0.03321800  1
  Zn  Zn7  1  0.33333300  0.66666700  0.53321800  1
  Zn  Zn8  1  0.66666700  0.33333300  0.41524900  1
  Zn  Zn9  1  0.33333300  0.66666700  0.91524900  1
  O  O10  1  0.84081900  0.15918100  0.14370600  1
  O  O11  1  0.68163800  0.84081900  0.64370600  1
  O  O12  1  0.15918100  0.31836200  0.64370600  1
  O  O13  1  0.84081900  0.68163800  0.14370600  1
  O  O14  1  0.31836200  0.15918100  0.14370600  1
  O  O15  1  0.15918100  0.84081900  0.64370600  1
  O  O16  1  0.51857200  0.48142800  0.86413100  1
  O  O17  1  0.03714300  0.51857200  0.36413100  1
  O  O18  1  0.48142800  0.96285700  0.36413100  1
  O  O19  1  0.51857200  0.03714300  0.86413100  1
  O  O20  1  0.00000000  0.00000000  0.34971700  1
  O  O21  1  0.00000000  0.00000000  0.84971700  1
  O  O22  1  0.33333300  0.66666700  0.13676200  1
  O  O23  1  0.96285700  0.48142800  0.86413100  1
  O  O24  1  0.48142800  0.51857200  0.36413100  1
  O  O25  1  0.66666700  0.33333300  0.63676200  1
