# generated using pymatgen
data_Zn3Fe4(WO4)6
_symmetry_space_group_name_H-M   'P 1'
_cell_length_a   7.21697500
_cell_length_b   8.41068556
_cell_length_c   10.33678072
_cell_angle_alpha   105.07654553
_cell_angle_beta   104.32145365
_cell_angle_gamma   101.26237508
_symmetry_Int_Tables_number   1
_chemical_formula_structural   Zn3Fe4(WO4)6
_chemical_formula_sum   'Zn3 Fe4 W6 O24'
_cell_volume   563.95629797
_cell_formula_units_Z   1
loop_
 _symmetry_equiv_pos_site_id
 _symmetry_equiv_pos_as_xyz
  1  'x, y, z'
loop_
 _atom_site_type_symbol
 _atom_site_label
 _atom_site_symmetry_multiplicity
 _atom_site_fract_x
 _atom_site_fract_y
 _atom_site_fract_z
 _atom_site_occupancy
  Zn  Zn0  1  0.00000000  0.50000000  0.50000000  1
  Zn  Zn1  1  0.27682400  0.26736200  0.78810100  1
  Zn  Zn2  1  0.72317600  0.73263800  0.21189900  1
  Fe  Fe3  1  0.38535900  0.95138300  0.60412900  1
  Fe  Fe4  1  0.61464100  0.04861700  0.39587100  1
  Fe  Fe5  1  0.04171500  0.19854300  0.01214300  1
  Fe  Fe6  1  0.95828500  0.80145700  0.98785700  1
  W  W7  1  0.77515100  0.34027800  0.73198500  1
  W  W8  1  0.22484900  0.65972200  0.26801500  1
  W  W9  1  0.90149700  0.90086500  0.66187000  1
  W  W10  1  0.41180800  0.72303000  0.88192700  1
  W  W11  1  0.09850300  0.09913500  0.33813000  1
  W  W12  1  0.58819200  0.27697000  0.11807300  1
  O  O13  1  0.88989300  0.68207200  0.55463700  1
  O  O14  1  0.11010700  0.31792800  0.44536300  1
  O  O15  1  0.29790600  0.49819200  0.77420000  1
  O  O16  1  0.70209400  0.50180800  0.22580000  1
  O  O17  1  0.78058800  0.31534400  0.55189500  1
  O  O18  1  0.21941200  0.68465600  0.44810500  1
  O  O19  1  0.67067900  0.96649100  0.58234500  1
  O  O20  1  0.32932100  0.03350900  0.41765500  1
  O  O21  1  0.65153300  0.75100000  0.01509900  1
  O  O22  1  0.34846700  0.24900000  0.98490100  1
  O  O23  1  0.46904900  0.76595300  0.26393800  1
  O  O24  1  0.53095100  0.23404700  0.73606200  1
  O  O25  1  0.14755400  0.03098700  0.65559300  1
  O  O26  1  0.06791300  0.05096900  0.14449400  1
  O  O27  1  0.93208700  0.94903100  0.85550600  1
  O  O28  1  0.55795500  0.15399900  0.23352100  1
  O  O29  1  0.44204500  0.84600100  0.76647900  1
  O  O30  1  0.17605700  0.43578500  0.17729000  1
  O  O31  1  0.82394300  0.56421500  0.82271000  1
  O  O32  1  0.98131600  0.27305600  0.82609000  1
  O  O33  1  0.01868400  0.72694400  0.17391000  1
  O  O34  1  0.24296600  0.78804900  0.97127700  1
  O  O35  1  0.75703400  0.21195100  0.02872300  1
  O  O36  1  0.85244600  0.96901300  0.34440700  1
