# generated using pymatgen
data_Ca3Cr6(FeO6)4
_symmetry_space_group_name_H-M   'P 1'
_cell_length_a   6.84175300
_cell_length_b   8.62299499
_cell_length_c   9.99860071
_cell_angle_alpha   104.86262126
_cell_angle_beta   106.98856760
_cell_angle_gamma   103.39723360
_symmetry_Int_Tables_number   1
_chemical_formula_structural   Ca3Cr6(FeO6)4
_chemical_formula_sum   'Ca3 Cr6 Fe4 O24'
_cell_volume   514.38945590
_cell_formula_units_Z   1
loop_
 _symmetry_equiv_pos_site_id
 _symmetry_equiv_pos_as_xyz
  1  'x, y, z'
loop_
 _atom_site_type_symbol
 _atom_site_label
 _atom_site_symmetry_multiplicity
 _atom_site_fract_x
 _atom_site_fract_y
 _atom_site_fract_z
 _atom_site_occupancy
  Ca  Ca0  1  0.00000000  0.50000000  0.50000000  1
  Ca  Ca1  1  0.28506300  0.30272600  0.78977000  1
  Ca  Ca2  1  0.71493700  0.69727400  0.21023000  1
  Cr  Cr3  1  0.78067200  0.34201900  0.73557600  1
  Cr  Cr4  1  0.21932800  0.65798100  0.26442400  1
  Cr  Cr5  1  0.89416500  0.90315700  0.66892600  1
  Cr  Cr6  1  0.39763400  0.74094500  0.86521800  1
  Cr  Cr7  1  0.10583500  0.09684300  0.33107400  1
  Cr  Cr8  1  0.60236600  0.25905500  0.13478200  1
  Fe  Fe9  1  0.37943000  0.95496500  0.60317300  1
  Fe  Fe10  1  0.62057000  0.04503500  0.39682700  1
  Fe  Fe11  1  0.04220800  0.21123800  0.02480800  1
  Fe  Fe12  1  0.95779200  0.78876200  0.97519200  1
  O  O13  1  0.84248400  0.69956500  0.57953100  1
  O  O14  1  0.15751600  0.30043500  0.42046900  1
  O  O15  1  0.25680700  0.53795900  0.73561300  1
  O  O16  1  0.74319300  0.46204100  0.26438700  1
  O  O17  1  0.78082900  0.28539400  0.55331100  1
  O  O18  1  0.21917100  0.71460600  0.44668900  1
  O  O19  1  0.66894700  0.96107400  0.57655500  1
  O  O20  1  0.33105300  0.03892600  0.42344500  1
  O  O21  1  0.64842300  0.74193400  0.98081500  1
  O  O22  1  0.35157700  0.25806600  0.01918500  1
  O  O23  1  0.46398700  0.78689700  0.27902300  1
  O  O24  1  0.53601300  0.21310300  0.72097700  1
  O  O25  1  0.12784000  0.01553900  0.65031700  1
  O  O26  1  0.06538500  0.04642600  0.14078300  1
  O  O27  1  0.93461500  0.95357400  0.85921700  1
  O  O28  1  0.56234800  0.12395900  0.23086600  1
  O  O29  1  0.43765200  0.87604100  0.76913400  1
  O  O30  1  0.17688000  0.44962700  0.18217800  1
  O  O31  1  0.82312000  0.55037300  0.81782200  1
  O  O32  1  0.98527900  0.28762300  0.85001800  1
  O  O33  1  0.01472100  0.71237700  0.14998200  1
  O  O34  1  0.23824700  0.78979200  0.96220200  1
  O  O35  1  0.76175300  0.21020800  0.03779800  1
  O  O36  1  0.87216000  0.98446100  0.34968300  1
