# generated using pymatgen
data_CaV(GeO3)2
_symmetry_space_group_name_H-M   'P 1'
_cell_length_a   9.30298700
_cell_length_b   5.42322800
_cell_length_c   10.34877512
_cell_angle_alpha   75.55404795
_cell_angle_beta   90.00000000
_cell_angle_gamma   90.00000000
_symmetry_Int_Tables_number   1
_chemical_formula_structural   CaV(GeO3)2
_chemical_formula_sum   'Ca4 V4 Ge8 O24'
_cell_volume   505.61105562
_cell_formula_units_Z   4
loop_
 _symmetry_equiv_pos_site_id
 _symmetry_equiv_pos_as_xyz
  1  'x, y, z'
loop_
 _atom_site_type_symbol
 _atom_site_label
 _atom_site_symmetry_multiplicity
 _atom_site_fract_x
 _atom_site_fract_y
 _atom_site_fract_z
 _atom_site_occupancy
  Ca  Ca0  1  0.54670900  0.20896200  0.26561500  1
  Ca  Ca1  1  0.04670900  0.29103800  0.73438500  1
  Ca  Ca2  1  0.45329100  0.79103800  0.73438500  1
  Ca  Ca3  1  0.95329100  0.70896200  0.26561500  1
  V  V4  1  0.34194300  0.73168800  0.24433400  1
  V  V5  1  0.84194300  0.76831200  0.75566600  1
  V  V6  1  0.65805700  0.26831200  0.75566600  1
  V  V7  1  0.15805700  0.23168800  0.24433400  1
  Ge  Ge8  1  0.65506800  0.77649800  0.04137800  1
  Ge  Ge9  1  0.15506800  0.72350200  0.95862200  1
  Ge  Ge10  1  0.34493200  0.22350200  0.95862200  1
  Ge  Ge11  1  0.84493200  0.27649800  0.04137800  1
  Ge  Ge12  1  0.65215100  0.66669600  0.47102800  1
  Ge  Ge13  1  0.15215100  0.83330400  0.52897200  1
  Ge  Ge14  1  0.34784900  0.33330400  0.52897200  1
  Ge  Ge15  1  0.84784900  0.16669600  0.47102800  1
  O  O16  1  0.76543300  0.94391300  0.38998800  1
  O  O17  1  0.26543300  0.55608700  0.61001200  1
  O  O18  1  0.23456700  0.05608700  0.61001200  1
  O  O19  1  0.73456700  0.44391300  0.38998800  1
  O  O20  1  0.69306300  0.06151900  0.09915200  1
  O  O21  1  0.19306300  0.43848100  0.90084800  1
  O  O22  1  0.30693700  0.93848100  0.90084800  1
  O  O23  1  0.80693700  0.56151900  0.09915200  1
  O  O24  1  0.01586100  0.27075200  0.40404400  1
  O  O25  1  0.51586100  0.22924800  0.59595600  1
  O  O26  1  0.98413900  0.72924800  0.59595600  1
  O  O27  1  0.48413900  0.77075200  0.40404400  1
  O  O28  1  0.98791600  0.11988900  0.13236100  1
  O  O29  1  0.48791600  0.38011100  0.86763900  1
  O  O30  1  0.01208400  0.88011100  0.86763900  1
  O  O31  1  0.51208400  0.61988900  0.13236100  1
  O  O32  1  0.65526100  0.87014300  0.86581400  1
  O  O33  1  0.15526100  0.62985700  0.13418600  1
  O  O34  1  0.34473900  0.12985700  0.13418600  1
  O  O35  1  0.84473900  0.37014300  0.86581400  1
  O  O36  1  0.66549000  0.65396200  0.64172800  1
  O  O37  1  0.16549000  0.84603800  0.35827200  1
  O  O38  1  0.33451000  0.34603800  0.35827200  1
  O  O39  1  0.83451000  0.15396200  0.64172800  1
