# generated using pymatgen
data_ZnCoSn2O7
_symmetry_space_group_name_H-M   'P 1'
_cell_length_a   14.36546300
_cell_length_b   7.09539900
_cell_length_c   11.50772571
_cell_angle_alpha   71.83433929
_cell_angle_beta   90.00000000
_cell_angle_gamma   90.00000000
_symmetry_Int_Tables_number   1
_chemical_formula_structural   ZnCoSn2O7
_chemical_formula_sum   'Zn8 Co8 Sn16 O56'
_cell_volume   1114.50564407
_cell_formula_units_Z   8
loop_
 _symmetry_equiv_pos_site_id
 _symmetry_equiv_pos_as_xyz
  1  'x, y, z'
loop_
 _atom_site_type_symbol
 _atom_site_label
 _atom_site_symmetry_multiplicity
 _atom_site_fract_x
 _atom_site_fract_y
 _atom_site_fract_z
 _atom_site_occupancy
  Zn  Zn0  1  0.50092200  0.93103300  0.84060900  1
  Zn  Zn1  1  0.89430800  0.68237500  0.92274400  1
  Zn  Zn2  1  0.39430800  0.31762500  0.57725600  1
  Zn  Zn3  1  0.10569200  0.31762500  0.07725600  1
  Zn  Zn4  1  0.60569200  0.68237500  0.42274400  1
  Zn  Zn5  1  0.99907800  0.93103300  0.34060900  1
  Zn  Zn6  1  0.49907800  0.06896700  0.15939100  1
  Zn  Zn7  1  0.00092200  0.06896700  0.65939100  1
  Co  Co8  1  0.65484400  0.35858300  0.09616300  1
  Co  Co9  1  0.15484400  0.64141700  0.40383700  1
  Co  Co10  1  0.34515600  0.64141700  0.90383700  1
  Co  Co11  1  0.84515600  0.35858300  0.59616300  1
  Co  Co12  1  0.75826700  0.01357900  0.27088000  1
  Co  Co13  1  0.25826700  0.98642100  0.22912000  1
  Co  Co14  1  0.24173300  0.98642100  0.72912000  1
  Co  Co15  1  0.74173300  0.01357900  0.77088000  1
  Sn  Sn16  1  0.90069400  0.11971800  0.00589100  1
  Sn  Sn17  1  0.01854100  0.60248700  0.67764400  1
  Sn  Sn18  1  0.48145900  0.60248700  0.17764400  1
  Sn  Sn19  1  0.98145900  0.39751300  0.32235600  1
  Sn  Sn20  1  0.74001500  0.50344700  0.79518200  1
  Sn  Sn21  1  0.24001500  0.49655300  0.70481800  1
  Sn  Sn22  1  0.25998500  0.49655300  0.20481800  1
  Sn  Sn23  1  0.75998500  0.50344700  0.29518200  1
  Sn  Sn24  1  0.51854100  0.39751300  0.82235600  1
  Sn  Sn25  1  0.17751400  0.09776800  0.46767600  1
  Sn  Sn26  1  0.67751400  0.90223200  0.03232400  1
  Sn  Sn27  1  0.82248600  0.90223200  0.53232400  1
  Sn  Sn28  1  0.40069400  0.88028200  0.49410900  1
  Sn  Sn29  1  0.59930600  0.11971800  0.50589100  1
  Sn  Sn30  1  0.09930600  0.88028200  0.99410900  1
  Sn  Sn31  1  0.32248600  0.09776800  0.96767600  1
  O  O32  1  0.03930300  0.16746100  0.98662500  1
  O  O33  1  0.53930300  0.83253900  0.51337500  1
  O  O34  1  0.96069700  0.83253900  0.01337500  1
  O  O35  1  0.46069700  0.16746100  0.48662500  1
  O  O36  1  0.79279200  0.02871000  0.91951800  1
  O  O37  1  0.29279200  0.97129000  0.58048200  1
  O  O38  1  0.20720800  0.97129000  0.08048200  1
  O  O39  1  0.70720800  0.02871000  0.41951800  1
  O  O40  1  0.81950500  0.96042700  0.14622900  1
  O  O41  1  0.31950500  0.03957300  0.35377100  1
  O  O42  1  0.18049500  0.03957300  0.85377100  1
  O  O43  1  0.68049500  0.96042700  0.64622900  1
  O  O44  1  0.31283600  0.38355500  0.86758900  1
  O  O45  1  0.81283600  0.61644500  0.63241100  1
  O  O46  1  0.68716400  0.61644500  0.13241100  1
  O  O47  1  0.18716400  0.38355500  0.36758900  1
  O  O48  1  0.36657000  0.98567200  0.14623600  1
  O  O49  1  0.86657000  0.01432800  0.35376400  1
  O  O50  1  0.63343000  0.01432800  0.85376400  1
  O  O51  1  0.13343000  0.98567200  0.64623600  1
  O  O52  1  0.35393200  0.94930000  0.84586000  1
  O  O53  1  0.46181700  0.65844700  0.82443700  1
  O  O54  1  0.85393200  0.05070000  0.65414000  1
  O  O55  1  0.14606800  0.94930000  0.34586000  1
  O  O56  1  0.49021900  0.22480100  0.71373000  1
  O  O57  1  0.99021900  0.77519900  0.78627000  1
  O  O58  1  0.50978100  0.77519900  0.28627000  1
  O  O59  1  0.00978100  0.22480100  0.21373000  1
  O  O60  1  0.46583000  0.18823000  0.96940500  1
  O  O61  1  0.96583000  0.81177000  0.53059500  1
  O  O62  1  0.53417000  0.81177000  0.03059500  1
  O  O63  1  0.03417000  0.18823000  0.46940500  1
  O  O64  1  0.88445600  0.53762400  0.19256500  1
  O  O65  1  0.38445600  0.46237600  0.30743500  1
  O  O66  1  0.11554400  0.46237600  0.80743500  1
  O  O67  1  0.61554400  0.53762400  0.69256500  1
  O  O68  1  0.75361300  0.28079700  0.21106600  1
  O  O69  1  0.25361300  0.71920300  0.28893400  1
  O  O70  1  0.24638700  0.71920300  0.78893400  1
  O  O71  1  0.74638700  0.28079700  0.71106600  1
  O  O72  1  0.64415100  0.40658700  0.42102700  1
  O  O73  1  0.14415100  0.59341300  0.07897300  1
  O  O74  1  0.35584900  0.59341300  0.57897300  1
  O  O75  1  0.85584900  0.40658700  0.92102700  1
  O  O76  1  0.73466900  0.74451500  0.34984000  1
  O  O77  1  0.23466900  0.25548500  0.15016000  1
  O  O78  1  0.26533100  0.25548500  0.65016000  1
  O  O79  1  0.76533100  0.74451500  0.84984000  1
  O  O80  1  0.85896700  0.39466900  0.43297200  1
  O  O81  1  0.35896700  0.60533100  0.06702800  1
  O  O82  1  0.14103300  0.60533100  0.56702800  1
  O  O83  1  0.64103300  0.39466900  0.93297200  1
  O  O84  1  0.03818300  0.65844700  0.32443700  1
  O  O85  1  0.53818300  0.34155300  0.17556300  1
  O  O86  1  0.96181700  0.34155300  0.67556300  1
  O  O87  1  0.64606800  0.05070000  0.15414000  1
