# generated using pymatgen
data_MgSn(GeO3)2
_symmetry_space_group_name_H-M   'P 1'
_cell_length_a   10.21183300
_cell_length_b   5.47424500
_cell_length_c   10.50980966
_cell_angle_alpha   76.31888033
_cell_angle_beta   90.00000000
_cell_angle_gamma   90.00000000
_symmetry_Int_Tables_number   1
_chemical_formula_structural   MgSn(GeO3)2
_chemical_formula_sum   'Mg4 Sn4 Ge8 O24'
_cell_volume   570.85053107
_cell_formula_units_Z   4
loop_
 _symmetry_equiv_pos_site_id
 _symmetry_equiv_pos_as_xyz
  1  'x, y, z'
loop_
 _atom_site_type_symbol
 _atom_site_label
 _atom_site_symmetry_multiplicity
 _atom_site_fract_x
 _atom_site_fract_y
 _atom_site_fract_z
 _atom_site_occupancy
  Mg  Mg0  1  0.52584200  0.22364300  0.22490700  1
  Mg  Mg1  1  0.02584200  0.27635700  0.77509300  1
  Mg  Mg2  1  0.47415800  0.77635700  0.77509300  1
  Mg  Mg3  1  0.97415800  0.72364300  0.22490700  1
  Sn  Sn4  1  0.37534200  0.71079100  0.26195100  1
  Sn  Sn5  1  0.87534200  0.78920900  0.73804900  1
  Sn  Sn6  1  0.62465800  0.28920900  0.73804900  1
  Sn  Sn7  1  0.12465800  0.21079100  0.26195100  1
  Ge  Ge8  1  0.65920700  0.77722900  0.05455900  1
  Ge  Ge9  1  0.15920700  0.72277100  0.94544100  1
  Ge  Ge10  1  0.34079300  0.22277100  0.94544100  1
  Ge  Ge11  1  0.84079300  0.27722900  0.05455900  1
  Ge  Ge12  1  0.65117100  0.75684900  0.46858200  1
  Ge  Ge13  1  0.15117100  0.74315100  0.53141800  1
  Ge  Ge14  1  0.34882900  0.24315100  0.53141800  1
  Ge  Ge15  1  0.84882900  0.25684900  0.46858200  1
  O  O16  1  0.78937500  0.96214900  0.44407100  1
  O  O17  1  0.28937500  0.53785100  0.55592900  1
  O  O18  1  0.21062500  0.03785100  0.55592900  1
  O  O19  1  0.71062500  0.46214900  0.44407100  1
  O  O20  1  0.69316900  0.07918100  0.09921600  1
  O  O21  1  0.19316900  0.42081900  0.90078400  1
  O  O22  1  0.30683100  0.92081900  0.90078400  1
  O  O23  1  0.80683100  0.57918100  0.09921600  1
  O  O24  1  0.95963700  0.38083300  0.34288200  1
  O  O25  1  0.45963700  0.11916700  0.65711800  1
  O  O26  1  0.04036300  0.61916700  0.65711800  1
  O  O27  1  0.54036300  0.88083300  0.34288200  1
  O  O28  1  0.96154600  0.09444200  0.15191900  1
  O  O29  1  0.46154600  0.40555800  0.84808100  1
  O  O30  1  0.03845400  0.90555800  0.84808100  1
  O  O31  1  0.53845400  0.59444200  0.15191900  1
  O  O32  1  0.61640600  0.85227200  0.89070900  1
  O  O33  1  0.11640600  0.64772800  0.10929100  1
  O  O34  1  0.38359400  0.14772800  0.10929100  1
  O  O35  1  0.88359400  0.35227200  0.89070900  1
  O  O36  1  0.58046900  0.68007500  0.62499700  1
  O  O37  1  0.08046900  0.81992500  0.37500300  1
  O  O38  1  0.41953100  0.31992500  0.37500300  1
  O  O39  1  0.91953100  0.18007500  0.62499700  1
