# generated using pymatgen
data_V3(P2O7)2
_symmetry_space_group_name_H-M   'P 1'
_cell_length_a   5.27209400
_cell_length_b   6.60168829
_cell_length_c   15.70143034
_cell_angle_alpha   81.64809046
_cell_angle_beta   82.45649319
_cell_angle_gamma   73.15073705
_symmetry_Int_Tables_number   1
_chemical_formula_structural   V3(P2O7)2
_chemical_formula_sum   'V6 P8 O28'
_cell_volume   515.17694774
_cell_formula_units_Z   2
loop_
 _symmetry_equiv_pos_site_id
 _symmetry_equiv_pos_as_xyz
  1  'x, y, z'
loop_
 _atom_site_type_symbol
 _atom_site_label
 _atom_site_symmetry_multiplicity
 _atom_site_fract_x
 _atom_site_fract_y
 _atom_site_fract_z
 _atom_site_occupancy
  V  V0  1  0.16374300  0.28458900  0.58167500  1
  V  V1  1  0.03734300  0.61699800  0.82861400  1
  V  V2  1  0.25262900  0.96492300  0.32348300  1
  V  V3  1  0.74737100  0.03507700  0.67651700  1
  V  V4  1  0.96265700  0.38300200  0.17138600  1
  V  V5  1  0.83625700  0.71541100  0.41832500  1
  P  P6  1  0.17422400  0.10313400  0.79132300  1
  P  P7  1  0.39138900  0.43242100  0.31755700  1
  P  P8  1  0.56801700  0.23901100  0.06762100  1
  P  P9  1  0.27454500  0.78572400  0.53921800  1
  P  P10  1  0.72545500  0.21427600  0.46078200  1
  P  P11  1  0.43198300  0.76098900  0.93237900  1
  P  P12  1  0.60861100  0.56757900  0.68244300  1
  P  P13  1  0.82577600  0.89686600  0.20867700  1
  O  O14  1  0.01723000  0.02930900  0.22624900  1
  O  O15  1  0.26834100  0.33438100  0.09004100  1
  O  O16  1  0.02669900  0.31117100  0.82351700  1
  O  O17  1  0.23180500  0.29622400  0.28855200  1
  O  O18  1  0.12565400  0.62124000  0.53488300  1
  O  O19  1  0.20809900  0.65409200  0.33802200  1
  O  O20  1  0.33290100  0.84437900  0.01541000  1
  O  O21  1  0.35054900  0.13650400  0.70177200  1
  O  O22  1  0.61278500  0.04020100  0.15140600  1
  O  O23  1  0.09794700  0.97141900  0.58891100  1
  O  O24  1  0.45954500  0.31602000  0.41423100  1
  O  O25  1  0.59983000  0.13635400  0.54954500  1
  O  O26  1  0.28816700  0.60893500  0.90464100  1
  O  O27  1  0.34930400  0.55980700  0.73155600  1
  O  O28  1  0.65069600  0.44019300  0.26844400  1
  O  O29  1  0.71183300  0.39106500  0.09535900  1
  O  O30  1  0.40017000  0.86364600  0.45045500  1
  O  O31  1  0.54045500  0.68398000  0.58576900  1
  O  O32  1  0.90205300  0.02858100  0.41108900  1
  O  O33  1  0.38721500  0.95979900  0.84859400  1
  O  O34  1  0.64945100  0.86349600  0.29822800  1
  O  O35  1  0.66709900  0.15562100  0.98459000  1
  O  O36  1  0.79190100  0.34590800  0.66197800  1
  O  O37  1  0.87434600  0.37876000  0.46511700  1
  O  O38  1  0.76819500  0.70377600  0.71144800  1
  O  O39  1  0.97330100  0.68882900  0.17648300  1
  O  O40  1  0.73165900  0.66561900  0.90995900  1
  O  O41  1  0.98277000  0.97069100  0.77375100  1
