# generated using pymatgen
data_ZnCoBiO5
_symmetry_space_group_name_H-M   'P 1'
_cell_length_a   5.65272100
_cell_length_b   10.76354200
_cell_length_c   15.07638700
_cell_angle_alpha   90.00000000
_cell_angle_beta   90.00000000
_cell_angle_gamma   90.00000000
_symmetry_Int_Tables_number   1
_chemical_formula_structural   ZnCoBiO5
_chemical_formula_sum   'Zn8 Co8 Bi8 O40'
_cell_volume   917.29713562
_cell_formula_units_Z   8
loop_
 _symmetry_equiv_pos_site_id
 _symmetry_equiv_pos_as_xyz
  1  'x, y, z'
loop_
 _atom_site_type_symbol
 _atom_site_label
 _atom_site_symmetry_multiplicity
 _atom_site_fract_x
 _atom_site_fract_y
 _atom_site_fract_z
 _atom_site_occupancy
  Zn  Zn0  1  0.42140100  0.35828200  0.52601800  1
  Zn  Zn1  1  0.92140100  0.14171800  0.52601800  1
  Zn  Zn2  1  0.92140100  0.64171800  0.97398200  1
  Zn  Zn3  1  0.07859900  0.35828200  0.02601800  1
  Zn  Zn4  1  0.57859900  0.14171800  0.02601800  1
  Zn  Zn5  1  0.07859900  0.85828200  0.47398200  1
  Zn  Zn6  1  0.57859900  0.64171800  0.47398200  1
  Zn  Zn7  1  0.42140100  0.85828200  0.97398200  1
  Co  Co8  1  0.92097800  0.38876800  0.40461400  1
  Co  Co9  1  0.57902200  0.88876800  0.59538600  1
  Co  Co10  1  0.07902200  0.61123200  0.59538600  1
  Co  Co11  1  0.42097800  0.11123200  0.40461400  1
  Co  Co12  1  0.07902200  0.11123200  0.90461400  1
  Co  Co13  1  0.92097800  0.88876800  0.09538600  1
  Co  Co14  1  0.57902200  0.38876800  0.90461400  1
  Co  Co15  1  0.42097800  0.61123200  0.09538600  1
  Bi  Bi16  1  0.02944500  0.84311900  0.77359200  1
  Bi  Bi17  1  0.97055500  0.15688100  0.22640800  1
  Bi  Bi18  1  0.47055500  0.34311900  0.22640800  1
  Bi  Bi19  1  0.97055500  0.65688100  0.27359200  1
  Bi  Bi20  1  0.52944500  0.15688100  0.72640800  1
  Bi  Bi21  1  0.52944500  0.65688100  0.77359200  1
  Bi  Bi22  1  0.47055500  0.84311900  0.27359200  1
  Bi  Bi23  1  0.02944500  0.34311900  0.72640800  1
  O  O24  1  0.79534200  0.29742800  0.31355600  1
  O  O25  1  0.33323400  0.04304900  0.95300200  1
  O  O26  1  0.16676600  0.54304900  0.04699800  1
  O  O27  1  0.35703100  0.80228900  0.84797000  1
  O  O28  1  0.14296900  0.30228900  0.15203000  1
  O  O29  1  0.79534200  0.79742800  0.18644400  1
  O  O30  1  0.14296900  0.80228900  0.34797000  1
  O  O31  1  0.70465800  0.79742800  0.68644400  1
  O  O32  1  0.33323400  0.54304900  0.54699800  1
  O  O33  1  0.20465800  0.70257200  0.68644400  1
  O  O34  1  0.70465800  0.29742800  0.81355600  1
  O  O35  1  0.58559100  0.19682200  0.48391700  1
  O  O36  1  0.83323400  0.95695100  0.54699800  1
  O  O37  1  0.64296900  0.69771100  0.34797000  1
  O  O38  1  0.10854500  0.99324100  0.15348000  1
  O  O39  1  0.83323400  0.45695100  0.95300200  1
  O  O40  1  0.20465800  0.20257200  0.81355600  1
  O  O41  1  0.85703100  0.19771100  0.65203000  1
  O  O42  1  0.08559100  0.80317800  0.01608300  1
  O  O43  1  0.16676600  0.04304900  0.45300200  1
  O  O44  1  0.41440900  0.80317800  0.51608300  1
  O  O45  1  0.89145500  0.00675900  0.84652000  1
  O  O46  1  0.64296900  0.19771100  0.15203000  1
  O  O47  1  0.60854500  0.00675900  0.34652000  1
  O  O48  1  0.41440900  0.30317800  0.98391700  1
  O  O49  1  0.08559100  0.30317800  0.48391700  1
  O  O50  1  0.66676600  0.45695100  0.45300200  1
  O  O51  1  0.66676600  0.95695100  0.04699800  1
  O  O52  1  0.60854500  0.50675900  0.15348000  1
  O  O53  1  0.91440900  0.69682200  0.51608300  1
  O  O54  1  0.91440900  0.19682200  0.98391700  1
  O  O55  1  0.58559100  0.69682200  0.01608300  1
  O  O56  1  0.89145500  0.50675900  0.65348000  1
  O  O57  1  0.85703100  0.69771100  0.84797000  1
  O  O58  1  0.35703100  0.30228900  0.65203000  1
  O  O59  1  0.10854500  0.49324100  0.34652000  1
  O  O60  1  0.39145500  0.49324100  0.84652000  1
  O  O61  1  0.29534200  0.20257200  0.31355600  1
  O  O62  1  0.39145500  0.99324100  0.65348000  1
  O  O63  1  0.29534200  0.70257200  0.18644400  1
