# generated using pymatgen
data_ZnNiAs2O7
_symmetry_space_group_name_H-M   'P 1'
_cell_length_a   8.65943300
_cell_length_b   7.26229600
_cell_length_c   9.69107422
_cell_angle_alpha   66.89544352
_cell_angle_beta   90.00000000
_cell_angle_gamma   90.00000000
_symmetry_Int_Tables_number   1
_chemical_formula_structural   ZnNiAs2O7
_chemical_formula_sum   'Zn4 Ni4 As8 O28'
_cell_volume   560.56263278
_cell_formula_units_Z   4
loop_
 _symmetry_equiv_pos_site_id
 _symmetry_equiv_pos_as_xyz
  1  'x, y, z'
loop_
 _atom_site_type_symbol
 _atom_site_label
 _atom_site_symmetry_multiplicity
 _atom_site_fract_x
 _atom_site_fract_y
 _atom_site_fract_z
 _atom_site_occupancy
  Zn  Zn0  1  0.07729600  0.72618100  0.89033000  1
  Zn  Zn1  1  0.57729600  0.27381900  0.60967000  1
  Zn  Zn2  1  0.92270400  0.27381900  0.10967000  1
  Zn  Zn3  1  0.42270400  0.72618100  0.39033000  1
  Ni  Ni4  1  0.94085900  0.18274300  0.68713000  1
  Ni  Ni5  1  0.44085900  0.81725700  0.81287000  1
  Ni  Ni6  1  0.05914100  0.81725700  0.31287000  1
  Ni  Ni7  1  0.55914100  0.18274300  0.18713000  1
  As  As8  1  0.77217200  0.56749200  0.75149100  1
  As  As9  1  0.27217200  0.43250800  0.74850900  1
  As  As10  1  0.22782800  0.43250800  0.24850900  1
  As  As11  1  0.72782800  0.56749200  0.25149100  1
  As  As12  1  0.72112000  0.98111200  0.95869800  1
  As  As13  1  0.22112000  0.01888800  0.54130200  1
  As  As14  1  0.27888000  0.01888800  0.04130200  1
  As  As15  1  0.77888000  0.98111200  0.45869800  1
  O  O16  1  0.72994300  0.13911600  0.05192200  1
  O  O17  1  0.22994300  0.86088400  0.44807800  1
  O  O18  1  0.27005700  0.86088400  0.94807800  1
  O  O19  1  0.77005700  0.13911600  0.55192200  1
  O  O20  1  0.59497000  0.64174200  0.77454100  1
  O  O21  1  0.09497000  0.35825800  0.72545900  1
  O  O22  1  0.40503000  0.35825800  0.22545900  1
  O  O23  1  0.90503000  0.64174200  0.27454100  1
  O  O24  1  0.90072800  0.53855500  0.89352700  1
  O  O25  1  0.40072800  0.46144500  0.60647300  1
  O  O26  1  0.09927200  0.46144500  0.10647300  1
  O  O27  1  0.59927200  0.53855500  0.39352700  1
  O  O28  1  0.85329300  0.74526300  0.58189100  1
  O  O29  1  0.35329300  0.25473700  0.91810900  1
  O  O30  1  0.14670700  0.25473700  0.41810900  1
  O  O31  1  0.64670700  0.74526300  0.08189100  1
  O  O32  1  0.92329900  0.03179200  0.32874900  1
  O  O33  1  0.42329900  0.96820800  0.17125100  1
  O  O34  1  0.07670100  0.96820800  0.67125100  1
  O  O35  1  0.57670100  0.03179200  0.82874900  1
  O  O36  1  0.73387900  0.35848500  0.21065900  1
  O  O37  1  0.23387900  0.64151500  0.28934100  1
  O  O38  1  0.26612100  0.64151500  0.78934100  1
  O  O39  1  0.76612100  0.35848500  0.71065900  1
  O  O40  1  0.60338200  0.95596500  0.38862000  1
  O  O41  1  0.10338200  0.04403500  0.11138000  1
  O  O42  1  0.39661800  0.04403500  0.61138000  1
  O  O43  1  0.89661800  0.95596500  0.88862000  1
