# generated using pymatgen
data_MgTiNiP2O9
_symmetry_space_group_name_H-M   'P 1'
_cell_length_a   6.30816600
_cell_length_b   7.33307800
_cell_length_c   14.22579300
_cell_angle_alpha   90.00000000
_cell_angle_beta   90.00000000
_cell_angle_gamma   90.00000000
_symmetry_Int_Tables_number   1
_chemical_formula_structural   MgTiNiP2O9
_chemical_formula_sum   'Mg4 Ti4 Ni4 P8 O36'
_cell_volume   658.06062072
_cell_formula_units_Z   4
loop_
 _symmetry_equiv_pos_site_id
 _symmetry_equiv_pos_as_xyz
  1  'x, y, z'
loop_
 _atom_site_type_symbol
 _atom_site_label
 _atom_site_symmetry_multiplicity
 _atom_site_fract_x
 _atom_site_fract_y
 _atom_site_fract_z
 _atom_site_occupancy
  Mg  Mg0  1  0.75000000  0.88882900  0.77794600  1
  Mg  Mg1  1  0.75000000  0.61117100  0.27794600  1
  Mg  Mg2  1  0.25000000  0.11117100  0.22205400  1
  Mg  Mg3  1  0.25000000  0.38882900  0.72205400  1
  Ti  Ti4  1  0.75000000  0.34728700  0.88374700  1
  Ti  Ti5  1  0.25000000  0.65271300  0.11625300  1
  Ti  Ti6  1  0.25000000  0.84728700  0.61625300  1
  Ti  Ti7  1  0.75000000  0.15271300  0.38374700  1
  Ni  Ni8  1  0.50000000  0.00000000  0.00000000  1
  Ni  Ni9  1  0.50000000  0.50000000  0.50000000  1
  Ni  Ni10  1  0.00000000  0.50000000  0.50000000  1
  Ni  Ni11  1  0.00000000  0.00000000  0.00000000  1
  P  P12  1  0.25000000  0.35539000  0.93025000  1
  P  P13  1  0.75000000  0.64461000  0.06975000  1
  P  P14  1  0.75000000  0.85539000  0.56975000  1
  P  P15  1  0.25000000  0.14461000  0.43025000  1
  P  P16  1  0.75000000  0.39073200  0.69572300  1
  P  P17  1  0.25000000  0.60926800  0.30427700  1
  P  P18  1  0.25000000  0.89073200  0.80427700  1
  P  P19  1  0.75000000  0.10926800  0.19572300  1
  O  O20  1  0.03851900  0.60944800  0.36068900  1
  O  O21  1  0.53851900  0.39055200  0.63931100  1
  O  O22  1  0.96148100  0.10944800  0.13931100  1
  O  O23  1  0.46148100  0.89055200  0.86068900  1
  O  O24  1  0.96148100  0.39055200  0.63931100  1
  O  O25  1  0.46148100  0.60944800  0.36068900  1
  O  O26  1  0.03851900  0.89055200  0.86068900  1
  O  O27  1  0.53851900  0.10944800  0.13931100  1
  O  O28  1  0.25000000  0.33250600  0.47648500  1
  O  O29  1  0.75000000  0.66749400  0.52351500  1
  O  O30  1  0.75000000  0.83250600  0.02351500  1
  O  O31  1  0.25000000  0.16749400  0.97648500  1
  O  O32  1  0.75000000  0.14285000  0.94616900  1
  O  O33  1  0.25000000  0.85715000  0.05383100  1
  O  O34  1  0.25000000  0.64285000  0.55383100  1
  O  O35  1  0.75000000  0.35715000  0.44616900  1
  O  O36  1  0.75000000  0.21264400  0.75933000  1
  O  O37  1  0.25000000  0.78735600  0.24067000  1
  O  O38  1  0.25000000  0.71264400  0.74067000  1
  O  O39  1  0.75000000  0.28735600  0.25933000  1
  O  O40  1  0.43846600  0.12206200  0.36095400  1
  O  O41  1  0.93846600  0.87793800  0.63904600  1
  O  O42  1  0.56153400  0.62206200  0.13904600  1
  O  O43  1  0.06153400  0.37793800  0.86095400  1
  O  O44  1  0.56153400  0.87793800  0.63904600  1
  O  O45  1  0.06153400  0.12206200  0.36095400  1
  O  O46  1  0.43846600  0.37793800  0.86095400  1
  O  O47  1  0.93846600  0.62206200  0.13904600  1
  O  O48  1  0.75000000  0.94995100  0.26869600  1
  O  O49  1  0.25000000  0.05004900  0.73130400  1
  O  O50  1  0.25000000  0.44995200  0.23130400  1
  O  O51  1  0.75000000  0.55004900  0.76869600  1
  O  O52  1  0.75000000  0.99986000  0.49280400  1
  O  O53  1  0.25000000  0.00014000  0.50719600  1
  O  O54  1  0.25000000  0.49986000  0.00719600  1
  O  O55  1  0.75000000  0.50014000  0.99280400  1
