# generated using pymatgen
data_Sn(GeO3)2
_symmetry_space_group_name_H-M   'P 1'
_cell_length_a   9.16107600
_cell_length_b   5.63226400
_cell_length_c   10.01726501
_cell_angle_alpha   75.13517993
_cell_angle_beta   90.00000000
_cell_angle_gamma   90.00000000
_symmetry_Int_Tables_number   1
_chemical_formula_structural   Sn(GeO3)2
_chemical_formula_sum   'Sn4 Ge8 O24'
_cell_volume   499.56923916
_cell_formula_units_Z   4
loop_
 _symmetry_equiv_pos_site_id
 _symmetry_equiv_pos_as_xyz
  1  'x, y, z'
loop_
 _atom_site_type_symbol
 _atom_site_label
 _atom_site_symmetry_multiplicity
 _atom_site_fract_x
 _atom_site_fract_y
 _atom_site_fract_z
 _atom_site_occupancy
  Sn  Sn0  1  0.64495400  0.00650800  0.24896400  1
  Sn  Sn1  1  0.14495400  0.49349200  0.75103600  1
  Sn  Sn2  1  0.35504600  0.99349200  0.75103600  1
  Sn  Sn3  1  0.85504600  0.50650800  0.24896400  1
  Ge  Ge4  1  0.33450800  0.18020600  0.05071100  1
  Ge  Ge5  1  0.83450800  0.31979400  0.94928900  1
  Ge  Ge6  1  0.66549200  0.81979400  0.94928900  1
  Ge  Ge7  1  0.16549200  0.68020600  0.05071100  1
  Ge  Ge8  1  0.33698400  0.81051400  0.45389600  1
  Ge  Ge9  1  0.83698400  0.68948600  0.54610400  1
  Ge  Ge10  1  0.66301600  0.18948600  0.54610400  1
  Ge  Ge11  1  0.16301600  0.31051400  0.45389600  1
  O  O12  1  0.24492200  0.59624300  0.38452800  1
  O  O13  1  0.74492200  0.90375700  0.61547200  1
  O  O14  1  0.75507800  0.40375700  0.61547200  1
  O  O15  1  0.25507800  0.09624300  0.38452800  1
  O  O16  1  0.28739900  0.86914500  0.11244000  1
  O  O17  1  0.78739900  0.63085500  0.88756000  1
  O  O18  1  0.71260100  0.13085500  0.88756000  1
  O  O19  1  0.21260100  0.36914500  0.11244000  1
  O  O20  1  0.97862600  0.31716700  0.40700300  1
  O  O21  1  0.47862600  0.18283300  0.59299700  1
  O  O22  1  0.02137400  0.68283300  0.59299700  1
  O  O23  1  0.52137400  0.81716700  0.40700300  1
  O  O24  1  0.98677700  0.71144200  0.10411300  1
  O  O25  1  0.48677700  0.78855800  0.89588700  1
  O  O26  1  0.01322300  0.28855800  0.89588700  1
  O  O27  1  0.51322300  0.21144200  0.10411300  1
  O  O28  1  0.31929400  0.26109900  0.86309100  1
  O  O29  1  0.81929400  0.23890100  0.13690900  1
  O  O30  1  0.68070600  0.73890100  0.13690900  1
  O  O31  1  0.18070600  0.76109900  0.86309100  1
  O  O32  1  0.31882700  0.72345100  0.64100400  1
  O  O33  1  0.81882700  0.77654900  0.35899600  1
  O  O34  1  0.68117300  0.27654900  0.35899600  1
  O  O35  1  0.18117300  0.22345100  0.64100400  1
