# generated using pymatgen
data_MnZnNiP2O9
_symmetry_space_group_name_H-M   'P 1'
_cell_length_a   6.18447200
_cell_length_b   7.25332700
_cell_length_c   14.30347700
_cell_angle_alpha   90.00000000
_cell_angle_beta   90.00000000
_cell_angle_gamma   90.00000000
_symmetry_Int_Tables_number   1
_chemical_formula_structural   MnZnNiP2O9
_chemical_formula_sum   'Mn4 Zn4 Ni4 P8 O36'
_cell_volume   641.62533892
_cell_formula_units_Z   4
loop_
 _symmetry_equiv_pos_site_id
 _symmetry_equiv_pos_as_xyz
  1  'x, y, z'
loop_
 _atom_site_type_symbol
 _atom_site_label
 _atom_site_symmetry_multiplicity
 _atom_site_fract_x
 _atom_site_fract_y
 _atom_site_fract_z
 _atom_site_occupancy
  Mn  Mn0  1  0.75000000  0.35237000  0.38125400  1
  Mn  Mn1  1  0.25000000  0.64763000  0.61874600  1
  Mn  Mn2  1  0.25000000  0.85237000  0.11874600  1
  Mn  Mn3  1  0.75000000  0.14763000  0.88125400  1
  Zn  Zn4  1  0.75000000  0.88039700  0.28380700  1
  Zn  Zn5  1  0.75000000  0.61960300  0.78380700  1
  Zn  Zn6  1  0.25000000  0.11960300  0.71619300  1
  Zn  Zn7  1  0.25000000  0.38039700  0.21619300  1
  Ni  Ni8  1  0.50000000  0.00000000  0.50000000  1
  Ni  Ni9  1  0.50000000  0.50000000  0.00000000  1
  Ni  Ni10  1  0.00000000  0.50000000  0.00000000  1
  Ni  Ni11  1  0.00000000  0.00000000  0.50000000  1
  P  P12  1  0.25000000  0.36054700  0.43347900  1
  P  P13  1  0.75000000  0.63945300  0.56652100  1
  P  P14  1  0.75000000  0.86054700  0.06652100  1
  P  P15  1  0.25000000  0.13945300  0.93347900  1
  P  P16  1  0.75000000  0.39425600  0.20005300  1
  P  P17  1  0.25000000  0.60574400  0.79994700  1
  P  P18  1  0.25000000  0.89425600  0.29994700  1
  P  P19  1  0.75000000  0.10574400  0.70005300  1
  O  O20  1  0.03784800  0.60856900  0.85820600  1
  O  O21  1  0.53784800  0.39143100  0.14179400  1
  O  O22  1  0.96215200  0.10856900  0.64179400  1
  O  O23  1  0.46215200  0.89143100  0.35820600  1
  O  O24  1  0.96215200  0.39143100  0.14179400  1
  O  O25  1  0.46215200  0.60856900  0.85820600  1
  O  O26  1  0.03784800  0.89143100  0.35820600  1
  O  O27  1  0.53784800  0.10856900  0.64179400  1
  O  O28  1  0.25000000  0.32890200  0.98007400  1
  O  O29  1  0.75000000  0.67109800  0.01992600  1
  O  O30  1  0.75000000  0.82890200  0.51992600  1
  O  O31  1  0.25000000  0.17109800  0.48007400  1
  O  O32  1  0.75000000  0.14426600  0.44745900  1
  O  O33  1  0.25000000  0.85573400  0.55254100  1
  O  O34  1  0.25000000  0.64426600  0.05254100  1
  O  O35  1  0.75000000  0.35573400  0.94745900  1
  O  O36  1  0.75000000  0.21706400  0.26528600  1
  O  O37  1  0.25000000  0.78293600  0.73471400  1
  O  O38  1  0.25000000  0.71706400  0.23471400  1
  O  O39  1  0.75000000  0.28293600  0.76528600  1
  O  O40  1  0.44087000  0.12230700  0.86274100  1
  O  O41  1  0.94087000  0.87769300  0.13725900  1
  O  O42  1  0.55913000  0.62230700  0.63725900  1
  O  O43  1  0.05913000  0.37769300  0.36274100  1
  O  O44  1  0.55913000  0.87769300  0.13725900  1
  O  O45  1  0.05913000  0.12230700  0.86274100  1
  O  O46  1  0.44087000  0.37769300  0.36274100  1
  O  O47  1  0.94087000  0.62230700  0.63725900  1
  O  O48  1  0.75000000  0.94395200  0.77309600  1
  O  O49  1  0.25000000  0.05604800  0.22690400  1
  O  O50  1  0.25000000  0.44395200  0.72690400  1
  O  O51  1  0.75000000  0.55604800  0.27309600  1
  O  O52  1  0.75000000  0.01147000  0.99405600  1
  O  O53  1  0.25000000  0.98853000  0.00594400  1
  O  O54  1  0.25000000  0.51147000  0.50594400  1
  O  O55  1  0.75000000  0.48853000  0.49405600  1
