# generated using pymatgen
data_ZnCu3(NiO3)4
_symmetry_space_group_name_H-M   'P 1'
_cell_length_a   6.27227732
_cell_length_b   6.27227732
_cell_length_c   6.27227732
_cell_angle_alpha   109.47122063
_cell_angle_beta   109.47122063
_cell_angle_gamma   109.47122063
_symmetry_Int_Tables_number   1
_chemical_formula_structural   ZnCu3(NiO3)4
_chemical_formula_sum   'Zn1 Cu3 Ni4 O12'
_cell_volume   189.95637143
_cell_formula_units_Z   1
loop_
 _symmetry_equiv_pos_site_id
 _symmetry_equiv_pos_as_xyz
  1  'x, y, z'
loop_
 _atom_site_type_symbol
 _atom_site_label
 _atom_site_symmetry_multiplicity
 _atom_site_fract_x
 _atom_site_fract_y
 _atom_site_fract_z
 _atom_site_occupancy
  Zn  Zn0  1  0.00000000  0.00000000  0.00000000  1
  Cu  Cu1  1  0.50000000  0.50000000  0.00000000  1
  Cu  Cu2  1  0.50000000  0.00000000  0.50000000  1
  Cu  Cu3  1  0.00000000  0.50000000  0.50000000  1
  Ni  Ni4  1  0.50000000  0.50000000  0.50000000  1
  Ni  Ni5  1  0.00000000  0.50000000  0.00000000  1
  Ni  Ni6  1  0.00000000  0.00000000  0.50000000  1
  Ni  Ni7  1  0.50000000  0.00000000  0.00000000  1
  O  O8  1  0.30762600  0.83061200  0.13823800  1
  O  O9  1  0.69237400  0.16938800  0.86176200  1
  O  O10  1  0.69237400  0.83061200  0.52298600  1
  O  O11  1  0.86176200  0.69237400  0.16938800  1
  O  O12  1  0.83061200  0.13823800  0.30762600  1
  O  O13  1  0.16938800  0.47701400  0.30762600  1
  O  O14  1  0.47701400  0.30762600  0.16938800  1
  O  O15  1  0.16938800  0.86176200  0.69237400  1
  O  O16  1  0.30762600  0.16938800  0.47701400  1
  O  O17  1  0.13823800  0.30762600  0.83061200  1
  O  O18  1  0.83061200  0.52298600  0.69237400  1
  O  O19  1  0.52298600  0.69237400  0.83061200  1
