# generated using pymatgen
data_Mg(Co2O3)2
_symmetry_space_group_name_H-M   'P 1'
_cell_length_a   5.15708988
_cell_length_b   5.15708988
_cell_length_c   15.13181200
_cell_angle_alpha   90.00000000
_cell_angle_beta   90.00000000
_cell_angle_gamma   146.59654406
_symmetry_Int_Tables_number   1
_chemical_formula_structural   Mg(Co2O3)2
_chemical_formula_sum   'Mg2 Co8 O12'
_cell_volume   221.55532467
_cell_formula_units_Z   2
loop_
 _symmetry_equiv_pos_site_id
 _symmetry_equiv_pos_as_xyz
  1  'x, y, z'
loop_
 _atom_site_type_symbol
 _atom_site_label
 _atom_site_symmetry_multiplicity
 _atom_site_fract_x
 _atom_site_fract_y
 _atom_site_fract_z
 _atom_site_occupancy
  Mg  Mg0  1  0.34192800  0.65807200  0.75000000  1
  Mg  Mg1  1  0.65807200  0.34192800  0.25000000  1
  Co  Co2  1  0.13565800  0.86434200  0.04777300  1
  Co  Co3  1  0.59669500  0.40330500  0.63964400  1
  Co  Co4  1  0.86434200  0.13565800  0.95222700  1
  Co  Co5  1  0.40330500  0.59669500  0.36035600  1
  Co  Co6  1  0.13565800  0.86434200  0.45222700  1
  Co  Co7  1  0.86434200  0.13565800  0.54777300  1
  Co  Co8  1  0.40330500  0.59669500  0.13964400  1
  Co  Co9  1  0.59669500  0.40330500  0.86035600  1
  O  O10  1  0.50000000  0.50000000  0.50000000  1
  O  O11  1  0.50000000  0.50000000  0.00000000  1
  O  O12  1  0.94530400  0.05469600  0.84097900  1
  O  O13  1  0.05469600  0.94530400  0.15902100  1
  O  O14  1  0.05469600  0.94530400  0.34097900  1
  O  O15  1  0.94530400  0.05469600  0.65902100  1
  O  O16  1  0.22402200  0.77597800  0.92668500  1
  O  O17  1  0.77597800  0.22402200  0.07331500  1
  O  O18  1  0.77597800  0.22402200  0.42668500  1
  O  O19  1  0.22402200  0.77597800  0.57331500  1
  O  O20  1  0.69826600  0.30173400  0.75000000  1
  O  O21  1  0.30173400  0.69826600  0.25000000  1
