# generated using pymatgen
data_Fe2(TeO4)3
_symmetry_space_group_name_H-M   'P 1'
_cell_length_a   6.81162500
_cell_length_b   8.71103421
_cell_length_c   10.35005366
_cell_angle_alpha   108.72442392
_cell_angle_beta   104.03420790
_cell_angle_gamma   103.19262782
_symmetry_Int_Tables_number   1
_chemical_formula_structural   Fe2(TeO4)3
_chemical_formula_sum   'Fe4 Te6 O24'
_cell_volume   532.04030257
_cell_formula_units_Z   2
loop_
 _symmetry_equiv_pos_site_id
 _symmetry_equiv_pos_as_xyz
  1  'x, y, z'
loop_
 _atom_site_type_symbol
 _atom_site_label
 _atom_site_symmetry_multiplicity
 _atom_site_fract_x
 _atom_site_fract_y
 _atom_site_fract_z
 _atom_site_occupancy
  Fe  Fe0  1  0.37389000  0.95990400  0.61548300  1
  Fe  Fe1  1  0.62611000  0.04009600  0.38451700  1
  Fe  Fe2  1  0.04608100  0.21214600  0.01761900  1
  Fe  Fe3  1  0.95391900  0.78785400  0.98238100  1
  Te  Te4  1  0.88219900  0.88224600  0.65821000  1
  Te  Te5  1  0.11780100  0.11775400  0.34179000  1
  Te  Te6  1  0.21286900  0.67239800  0.26545500  1
  Te  Te7  1  0.78713100  0.32760200  0.73454500  1
  Te  Te8  1  0.60616200  0.27780400  0.14396400  1
  Te  Te9  1  0.39383800  0.72219600  0.85603600  1
  O  O10  1  0.07293900  0.05157900  0.14102900  1
  O  O11  1  0.92706100  0.94842100  0.85897100  1
  O  O12  1  0.56067500  0.13290800  0.24125400  1
  O  O13  1  0.43932500  0.86709200  0.75874600  1
  O  O14  1  0.18407200  0.44514600  0.17851100  1
  O  O15  1  0.81592800  0.55485400  0.82148900  1
  O  O16  1  0.99691000  0.27415700  0.84617300  1
  O  O17  1  0.00309000  0.72584300  0.15382700  1
  O  O18  1  0.24317800  0.80990000  0.97239600  1
  O  O19  1  0.75682200  0.19010000  0.02760400  1
  O  O20  1  0.87935200  0.98351800  0.35802900  1
  O  O21  1  0.12064800  0.01648200  0.64197100  1
  O  O22  1  0.52184600  0.21274500  0.73366200  1
  O  O23  1  0.47815400  0.78725500  0.26633800  1
  O  O24  1  0.33633800  0.21758100  0.00995600  1
  O  O25  1  0.66366200  0.78241900  0.99004400  1
  O  O26  1  0.32875600  0.02994100  0.41800800  1
  O  O27  1  0.67124400  0.97005900  0.58199200  1
  O  O28  1  0.21986800  0.72427900  0.45490800  1
  O  O29  1  0.78013200  0.27572100  0.54509200  1
  O  O30  1  0.74108100  0.50354600  0.25562400  1
  O  O31  1  0.25891900  0.49645400  0.74437600  1
  O  O32  1  0.18655400  0.34634200  0.42628900  1
  O  O33  1  0.81344600  0.65365800  0.57371100  1
