data_image0
_chemical_formula_structural       B20H8Li12O40
_chemical_formula_sum              "B20 H8 Li12 O40"
_cell_length_a       6.59976
_cell_length_b       6.59976
_cell_length_c       14.3788
_cell_angle_alpha    90
_cell_angle_beta     90
_cell_angle_gamma    90

_space_group_name_H-M_alt    "P 1"
_space_group_IT_number       1

loop_
  _space_group_symop_operation_xyz
  'x, y, z'

loop_
  _atom_site_type_symbol
  _atom_site_label
  _atom_site_symmetry_multiplicity
  _atom_site_fract_x
  _atom_site_fract_y
  _atom_site_fract_z
  _atom_site_occupancy
  B   B1        1.0  0.26200  0.25700  0.22600  1.0000
  B   B2        1.0  0.73800  0.74300  0.72600  1.0000
  B   B3        1.0  0.76200  0.24300  0.52400  1.0000
  B   B4        1.0  0.23800  0.75700  0.02350  1.0000
  B   B5        1.0  0.74300  0.73800  0.27400  1.0000
  B   B6        1.0  0.25700  0.26200  0.77400  1.0000
  B   B7        1.0  0.75700  0.23800  0.97600  1.0000
  B   B8        1.0  0.24300  0.76200  0.47600  1.0000
  B   B9        1.0  0.01400  0.24700  0.10500  1.0000
  B   B10       1.0  0.98600  0.75300  0.60500  1.0000
  B   B11       1.0  0.51400  0.25300  0.64500  1.0000
  B   B12       1.0  0.48600  0.74700  0.14500  1.0000
  B   B13       1.0  0.75300  0.98600  0.39500  1.0000
  B   B14       1.0  0.24700  0.01400  0.89500  1.0000
  B   B15       1.0  0.74700  0.48600  0.85500  1.0000
  B   B16       1.0  0.25300  0.51400  0.35500  1.0000
  B   B17       1.0  0.55700  0.55700  0.00000  1.0000
  B   B18       1.0  0.44300  0.44300  0.50000  1.0000
  B   B19       1.0  0.05690  0.94300  0.75000  1.0000
  B   B20       1.0  0.94300  0.05690  0.25000  1.0000
  H   H1        1.0  0.42200  0.00339  0.48800  1.0000
  H   H2        1.0  0.57800  0.99700  0.98800  1.0000
  H   H3        1.0  0.92200  0.49700  0.26200  1.0000
  H   H4        1.0  0.07760  0.50300  0.76200  1.0000
  H   H5        1.0  0.99700  0.57800  0.01160  1.0000
  H   H6        1.0  0.00339  0.42200  0.51200  1.0000
  H   H7        1.0  0.50300  0.07760  0.23800  1.0000
  H   H8        1.0  0.49700  0.92200  0.73800  1.0000
  Li  Li1       1.0  0.29800  0.29800  0.00000  1.0000
  Li  Li2       1.0  0.70200  0.70200  0.50000  1.0000
  Li  Li3       1.0  0.79800  0.20200  0.75000  1.0000
  Li  Li4       1.0  0.20200  0.79800  0.25000  1.0000
  Li  Li5       1.0  0.13500  0.15400  0.40500  1.0000
  Li  Li6       1.0  0.86500  0.84600  0.90500  1.0000
  Li  Li7       1.0  0.63500  0.34600  0.34500  1.0000
  Li  Li8       1.0  0.36500  0.65400  0.84500  1.0000
  Li  Li9       1.0  0.84600  0.86500  0.09480  1.0000
  Li  Li10      1.0  0.15400  0.13500  0.59500  1.0000
  Li  Li11      1.0  0.65400  0.36500  0.15500  1.0000
  Li  Li12      1.0  0.34600  0.63500  0.65500  1.0000
  O   O1        1.0  0.21100  0.27500  0.12800  1.0000
  O   O2        1.0  0.78900  0.72500  0.62800  1.0000
  O   O3        1.0  0.71100  0.22500  0.62200  1.0000
  O   O4        1.0  0.28900  0.77500  0.12200  1.0000
  O   O5        1.0  0.72500  0.78900  0.37200  1.0000
  O   O6        1.0  0.27500  0.21100  0.87200  1.0000
  O   O7        1.0  0.77500  0.28900  0.87800  1.0000
  O   O8        1.0  0.22500  0.71100  0.37800  1.0000
  O   O9        1.0  0.33200  0.37500  0.41600  1.0000
  O   O10       1.0  0.66800  0.62500  0.91600  1.0000
  O   O11       1.0  0.83200  0.12500  0.33400  1.0000
  O   O12       1.0  0.16800  0.87500  0.83400  1.0000
  O   O13       1.0  0.62500  0.66800  0.08420  1.0000
  O   O14       1.0  0.37500  0.33200  0.58400  1.0000
  O   O15       1.0  0.87500  0.16800  0.16600  1.0000
  O   O16       1.0  0.12500  0.83200  0.66600  1.0000
  O   O17       1.0  0.47700  0.22500  0.23900  1.0000
  O   O18       1.0  0.52300  0.77500  0.73900  1.0000
  O   O19       1.0  0.97700  0.27500  0.51100  1.0000
  O   O20       1.0  0.02270  0.72500  0.01090  1.0000
  O   O21       1.0  0.77500  0.52300  0.26100  1.0000
  O   O22       1.0  0.22500  0.47700  0.76100  1.0000
  O   O23       1.0  0.72500  0.02270  0.98900  1.0000
  O   O24       1.0  0.27500  0.97700  0.48900  1.0000
  O   O25       1.0  0.19900  0.45700  0.26700  1.0000
  O   O26       1.0  0.80100  0.54300  0.76700  1.0000
  O   O27       1.0  0.69900  0.04310  0.48300  1.0000
  O   O28       1.0  0.30100  0.95700  0.98300  1.0000
  O   O29       1.0  0.54300  0.80100  0.23300  1.0000
  O   O30       1.0  0.45700  0.19900  0.73300  1.0000
  O   O31       1.0  0.95700  0.30100  0.01690  1.0000
  O   O32       1.0  0.04310  0.69900  0.51700  1.0000
  O   O33       1.0  0.15600  0.09050  0.27000  1.0000
  O   O34       1.0  0.84400  0.91000  0.77000  1.0000
  O   O35       1.0  0.65600  0.41000  0.48000  1.0000
  O   O36       1.0  0.34400  0.59000  0.98000  1.0000
  O   O37       1.0  0.91000  0.84400  0.23000  1.0000
  O   O38       1.0  0.09050  0.15600  0.73000  1.0000
  O   O39       1.0  0.59000  0.34400  0.01990  1.0000
  O   O40       1.0  0.41000  0.65600  0.52000  1.0000
