# generated using pymatgen
data_Zn2Cr3O8
_symmetry_space_group_name_H-M   'P 1'
_cell_length_a   5.87467400
_cell_length_b   5.87467320
_cell_length_c   9.53574100
_cell_angle_alpha   90.00000000
_cell_angle_beta   90.00000000
_cell_angle_gamma   120.00000450
_symmetry_Int_Tables_number   1
_chemical_formula_structural   Zn2Cr3O8
_chemical_formula_sum   'Zn4 Cr6 O16'
_cell_volume   285.00504171
_cell_formula_units_Z   2
loop_
 _symmetry_equiv_pos_site_id
 _symmetry_equiv_pos_as_xyz
  1  'x, y, z'
loop_
 _atom_site_type_symbol
 _atom_site_label
 _atom_site_symmetry_multiplicity
 _atom_site_fract_x
 _atom_site_fract_y
 _atom_site_fract_z
 _atom_site_occupancy
  Zn  Zn0  1  0.66666700  0.33333400  0.02664500  1
  Zn  Zn1  1  0.33333300  0.66666600  0.52664600  1
  Zn  Zn2  1  0.66666700  0.33333400  0.42550600  1
  Zn  Zn3  1  0.33333300  0.66666600  0.92550700  1
  Cr  Cr4  1  0.67317800  0.83659000  0.24311000  1
  Cr  Cr5  1  0.83659100  0.16341100  0.74311000  1
  Cr  Cr6  1  0.16341100  0.32682300  0.24311000  1
  Cr  Cr7  1  0.83658900  0.67317800  0.74311000  1
  Cr  Cr8  1  0.32682300  0.16341100  0.74311000  1
  Cr  Cr9  1  0.16341100  0.83659000  0.24311000  1
  O  O10  1  0.83773300  0.16226800  0.14741300  1
  O  O11  1  0.67546400  0.83773300  0.64741200  1
  O  O12  1  0.16226800  0.32453700  0.64741200  1
  O  O13  1  0.83773200  0.67546400  0.14741300  1
  O  O14  1  0.32453600  0.16226800  0.14741300  1
  O  O15  1  0.16226800  0.83773300  0.64741200  1
  O  O16  1  0.51846500  0.48153400  0.86198300  1
  O  O17  1  0.03693200  0.51846500  0.36198200  1
  O  O18  1  0.48153500  0.96306900  0.36198200  1
  O  O19  1  0.51846500  0.03693200  0.86198300  1
  O  O20  1  0.00000000  0.00000000  0.35093500  1
  O  O21  1  0.00000000  0.00000000  0.85093500  1
  O  O22  1  0.33333300  0.66666600  0.13290000  1
  O  O23  1  0.96306700  0.48153400  0.86198300  1
  O  O24  1  0.48153400  0.51846500  0.36198200  1
  O  O25  1  0.66666700  0.33333400  0.63290000  1
