# generated using pymatgen
data_ZnCoNiP2O9
_symmetry_space_group_name_H-M   'P 1'
_cell_length_a   6.23776300
_cell_length_b   7.28007100
_cell_length_c   14.06452700
_cell_angle_alpha   90.00000000
_cell_angle_beta   90.00000000
_cell_angle_gamma   90.00000000
_symmetry_Int_Tables_number   1
_chemical_formula_structural   ZnCoNiP2O9
_chemical_formula_sum   'Zn4 Co4 Ni4 P8 O36'
_cell_volume   638.68926396
_cell_formula_units_Z   4
loop_
 _symmetry_equiv_pos_site_id
 _symmetry_equiv_pos_as_xyz
  1  'x, y, z'
loop_
 _atom_site_type_symbol
 _atom_site_label
 _atom_site_symmetry_multiplicity
 _atom_site_fract_x
 _atom_site_fract_y
 _atom_site_fract_z
 _atom_site_occupancy
  Zn  Zn0  1  0.25000000  0.37797800  0.27504600  1
  Zn  Zn1  1  0.25000000  0.12202200  0.77504600  1
  Zn  Zn2  1  0.75000000  0.62202200  0.72495400  1
  Zn  Zn3  1  0.75000000  0.87797800  0.22495400  1
  Co  Co4  1  0.25000000  0.84902100  0.38194900  1
  Co  Co5  1  0.75000000  0.15097900  0.61805100  1
  Co  Co6  1  0.75000000  0.34902100  0.11805100  1
  Co  Co7  1  0.25000000  0.65097900  0.88194900  1
  Ni  Ni8  1  0.00000000  0.50000000  0.50000000  1
  Ni  Ni9  1  0.00000000  0.00000000  0.00000000  1
  Ni  Ni10  1  0.50000000  0.00000000  0.00000000  1
  Ni  Ni11  1  0.50000000  0.50000000  0.50000000  1
  P  P12  1  0.75000000  0.85456700  0.43339100  1
  P  P13  1  0.25000000  0.14543300  0.56660900  1
  P  P14  1  0.25000000  0.35456700  0.06660900  1
  P  P15  1  0.75000000  0.64543300  0.93339100  1
  P  P16  1  0.25000000  0.88438000  0.19993700  1
  P  P17  1  0.75000000  0.11562000  0.80006300  1
  P  P18  1  0.75000000  0.38438000  0.30006300  1
  P  P19  1  0.25000000  0.61562000  0.69993700  1
  O  O20  1  0.53846900  0.10570700  0.85849000  1
  O  O21  1  0.03846900  0.89429300  0.14151000  1
  O  O22  1  0.46153100  0.60570700  0.64151000  1
  O  O23  1  0.96153100  0.39429300  0.35849000  1
  O  O24  1  0.46153100  0.89429300  0.14151000  1
  O  O25  1  0.96153100  0.10570700  0.85849000  1
  O  O26  1  0.53846900  0.39429300  0.35849000  1
  O  O27  1  0.03846900  0.60570700  0.64151000  1
  O  O28  1  0.75000000  0.83413100  0.98234300  1
  O  O29  1  0.25000000  0.16586900  0.01765700  1
  O  O30  1  0.25000000  0.33413100  0.51765700  1
  O  O31  1  0.75000000  0.66586900  0.48234300  1
  O  O32  1  0.25000000  0.64871700  0.44974900  1
  O  O33  1  0.75000000  0.35128300  0.55025100  1
  O  O34  1  0.75000000  0.14871700  0.05025100  1
  O  O35  1  0.25000000  0.85128300  0.94974900  1
  O  O36  1  0.25000000  0.70388000  0.26101300  1
  O  O37  1  0.75000000  0.29612000  0.73898700  1
  O  O38  1  0.75000000  0.20388000  0.23898700  1
  O  O39  1  0.25000000  0.79612000  0.76101300  1
  O  O40  1  0.93826400  0.63151800  0.86154400  1
  O  O41  1  0.43826400  0.36848200  0.13845600  1
  O  O42  1  0.06173600  0.13151800  0.63845600  1
  O  O43  1  0.56173600  0.86848200  0.36154400  1
  O  O44  1  0.06173600  0.36848200  0.13845600  1
  O  O45  1  0.56173600  0.63151800  0.86154400  1
  O  O46  1  0.93826400  0.86848200  0.36154400  1
  O  O47  1  0.43826400  0.13151800  0.63845600  1
  O  O48  1  0.25000000  0.46016500  0.77776400  1
  O  O49  1  0.75000000  0.53983500  0.22223600  1
  O  O50  1  0.75000000  0.96016500  0.72223600  1
  O  O51  1  0.25000000  0.03983500  0.27776400  1
  O  O52  1  0.25000000  0.50249300  0.99176700  1
  O  O53  1  0.75000000  0.49750700  0.00823300  1
  O  O54  1  0.75000000  0.00249300  0.50823300  1
  O  O55  1  0.25000000  0.99750700  0.49176700  1
