# generated using pymatgen
data_MgCu3(SbO3)4
_symmetry_space_group_name_H-M   'P 1'
_cell_length_a   6.76241306
_cell_length_b   6.76241306
_cell_length_c   6.76241306
_cell_angle_alpha   109.47122063
_cell_angle_beta   109.47122063
_cell_angle_gamma   109.47122063
_symmetry_Int_Tables_number   1
_chemical_formula_structural   MgCu3(SbO3)4
_chemical_formula_sum   'Mg1 Cu3 Sb4 O12'
_cell_volume   238.05822614
_cell_formula_units_Z   1
loop_
 _symmetry_equiv_pos_site_id
 _symmetry_equiv_pos_as_xyz
  1  'x, y, z'
loop_
 _atom_site_type_symbol
 _atom_site_label
 _atom_site_symmetry_multiplicity
 _atom_site_fract_x
 _atom_site_fract_y
 _atom_site_fract_z
 _atom_site_occupancy
  Mg  Mg0  1  0.00000000  0.00000000  0.00000000  1
  Cu  Cu1  1  0.50000000  0.00000000  0.50000000  1
  Cu  Cu2  1  0.50000000  0.50000000  0.00000000  1
  Cu  Cu3  1  0.00000000  0.50000000  0.50000000  1
  Sb  Sb4  1  0.00000000  0.50000000  0.00000000  1
  Sb  Sb5  1  0.50000000  0.00000000  0.00000000  1
  Sb  Sb6  1  0.50000000  0.50000000  0.50000000  1
  Sb  Sb7  1  0.00000000  0.00000000  0.50000000  1
  O  O8  1  0.29845300  0.12680500  0.82835100  1
  O  O9  1  0.70154700  0.87319500  0.17164900  1
  O  O10  1  0.70154700  0.52989800  0.82835100  1
  O  O11  1  0.47010200  0.17164900  0.29845300  1
  O  O12  1  0.17164900  0.29845300  0.47010200  1
  O  O13  1  0.82835100  0.29845300  0.12680500  1
  O  O14  1  0.87319500  0.17164900  0.70154700  1
  O  O15  1  0.82835100  0.70154700  0.52989800  1
  O  O16  1  0.29845300  0.47010200  0.17164900  1
  O  O17  1  0.52989800  0.82835100  0.70154700  1
  O  O18  1  0.17164900  0.70154700  0.87319500  1
  O  O19  1  0.12680500  0.82835100  0.29845300  1
