# generated using pymatgen
data_MgBiMoO5
_symmetry_space_group_name_H-M   'P 1'
_cell_length_a   5.25538100
_cell_length_b   10.48941300
_cell_length_c   16.09384200
_cell_angle_alpha   90.00000000
_cell_angle_beta   90.00000000
_cell_angle_gamma   90.00000000
_symmetry_Int_Tables_number   1
_chemical_formula_structural   MgBiMoO5
_chemical_formula_sum   'Mg8 Bi8 Mo8 O40'
_cell_volume   887.18690962
_cell_formula_units_Z   8
loop_
 _symmetry_equiv_pos_site_id
 _symmetry_equiv_pos_as_xyz
  1  'x, y, z'
loop_
 _atom_site_type_symbol
 _atom_site_label
 _atom_site_symmetry_multiplicity
 _atom_site_fract_x
 _atom_site_fract_y
 _atom_site_fract_z
 _atom_site_occupancy
  Mg  Mg0  1  0.52753800  0.36844200  0.55689200  1
  Mg  Mg1  1  0.02753800  0.13155800  0.55689200  1
  Mg  Mg2  1  0.02753800  0.63155800  0.94310800  1
  Mg  Mg3  1  0.97246200  0.36844200  0.05689200  1
  Mg  Mg4  1  0.47246200  0.13155800  0.05689200  1
  Mg  Mg5  1  0.97246200  0.86844200  0.44310800  1
  Mg  Mg6  1  0.47246200  0.63155800  0.44310800  1
  Mg  Mg7  1  0.52753800  0.86844200  0.94310800  1
  Bi  Bi8  1  0.97809500  0.85862500  0.77758100  1
  Bi  Bi9  1  0.02190500  0.14137500  0.22241900  1
  Bi  Bi10  1  0.52190500  0.35862500  0.22241900  1
  Bi  Bi11  1  0.02190500  0.64137500  0.27758100  1
  Bi  Bi12  1  0.47809500  0.14137500  0.72241900  1
  Bi  Bi13  1  0.47809500  0.64137500  0.77758100  1
  Bi  Bi14  1  0.52190500  0.85862500  0.27758100  1
  Bi  Bi15  1  0.97809500  0.35862500  0.72241900  1
  Mo  Mo16  1  0.99186700  0.37765500  0.41627600  1
  Mo  Mo17  1  0.50813300  0.87765500  0.58372400  1
  Mo  Mo18  1  0.00813300  0.62234500  0.58372400  1
  Mo  Mo19  1  0.49186700  0.12234500  0.41627600  1
  Mo  Mo20  1  0.00813300  0.12234500  0.91627600  1
  Mo  Mo21  1  0.99186700  0.87765500  0.08372400  1
  Mo  Mo22  1  0.50813300  0.37765500  0.91627600  1
  Mo  Mo23  1  0.49186700  0.62234500  0.08372400  1
  O  O24  1  0.91482400  0.32773700  0.30468900  1
  O  O25  1  0.28083200  0.02925100  0.95286900  1
  O  O26  1  0.21916800  0.52925100  0.04713100  1
  O  O27  1  0.29359400  0.78339100  0.85384300  1
  O  O28  1  0.20640600  0.28339100  0.14615700  1
  O  O29  1  0.91482400  0.82773700  0.19531100  1
  O  O30  1  0.20640600  0.78339100  0.35384300  1
  O  O31  1  0.58517600  0.82773700  0.69531100  1
  O  O32  1  0.28083200  0.52925100  0.54713100  1
  O  O33  1  0.08517600  0.67226300  0.69531100  1
  O  O34  1  0.58517600  0.32773700  0.80468900  1
  O  O35  1  0.75075800  0.21939600  0.47046900  1
  O  O36  1  0.78083200  0.97074900  0.54713100  1
  O  O37  1  0.70640600  0.71660900  0.35384300  1
  O  O38  1  0.20214500  0.02066500  0.12158700  1
  O  O39  1  0.78083200  0.47074900  0.95286900  1
  O  O40  1  0.08517600  0.17226300  0.80468900  1
  O  O41  1  0.79359400  0.21660900  0.64615700  1
  O  O42  1  0.25075800  0.78060400  0.02953100  1
  O  O43  1  0.21916800  0.02925100  0.45286900  1
  O  O44  1  0.24924200  0.78060400  0.52953100  1
  O  O45  1  0.79785500  0.97933500  0.87841300  1
  O  O46  1  0.70640600  0.21660900  0.14615700  1
  O  O47  1  0.70214500  0.97933500  0.37841300  1
  O  O48  1  0.24924200  0.28060400  0.97046900  1
  O  O49  1  0.25075800  0.28060400  0.47046900  1
  O  O50  1  0.71916800  0.47074900  0.45286900  1
  O  O51  1  0.71916800  0.97074900  0.04713100  1
  O  O52  1  0.70214500  0.47933500  0.12158700  1
  O  O53  1  0.74924200  0.71939600  0.52953100  1
  O  O54  1  0.74924200  0.21939600  0.97046900  1
  O  O55  1  0.75075800  0.71939600  0.02953100  1
  O  O56  1  0.79785500  0.47933500  0.62158700  1
  O  O57  1  0.79359400  0.71660900  0.85384300  1
  O  O58  1  0.29359400  0.28339100  0.64615700  1
  O  O59  1  0.20214500  0.52066500  0.37841300  1
  O  O60  1  0.29785500  0.52066500  0.87841300  1
  O  O61  1  0.41482400  0.17226300  0.30468900  1
  O  O62  1  0.29785500  0.02066500  0.62158700  1
  O  O63  1  0.41482400  0.67226300  0.19531100  1
