# generated using pymatgen
data_ZnFeBiO5
_symmetry_space_group_name_H-M   'P 1'
_cell_length_a   5.21618800
_cell_length_b   10.41108700
_cell_length_c   15.60270800
_cell_angle_alpha   90.00000000
_cell_angle_beta   90.00000000
_cell_angle_gamma   90.00000000
_symmetry_Int_Tables_number   1
_chemical_formula_structural   ZnFeBiO5
_chemical_formula_sum   'Zn8 Fe8 Bi8 O40'
_cell_volume   847.32357955
_cell_formula_units_Z   8
loop_
 _symmetry_equiv_pos_site_id
 _symmetry_equiv_pos_as_xyz
  1  'x, y, z'
loop_
 _atom_site_type_symbol
 _atom_site_label
 _atom_site_symmetry_multiplicity
 _atom_site_fract_x
 _atom_site_fract_y
 _atom_site_fract_z
 _atom_site_occupancy
  Zn  Zn0  1  0.48831600  0.36589000  0.52724000  1
  Zn  Zn1  1  0.98831600  0.13411000  0.52724000  1
  Zn  Zn2  1  0.98831600  0.63411000  0.97276000  1
  Zn  Zn3  1  0.01168400  0.36589000  0.02724000  1
  Zn  Zn4  1  0.51168400  0.13411000  0.02724000  1
  Zn  Zn5  1  0.01168400  0.86589000  0.47276000  1
  Zn  Zn6  1  0.51168400  0.63411000  0.47276000  1
  Zn  Zn7  1  0.48831600  0.86589000  0.97276000  1
  Fe  Fe8  1  0.91414100  0.34776600  0.39533600  1
  Fe  Fe9  1  0.58585900  0.84776600  0.60466400  1
  Fe  Fe10  1  0.08585900  0.65223400  0.60466400  1
  Fe  Fe11  1  0.41414100  0.15223400  0.39533600  1
  Fe  Fe12  1  0.08585900  0.15223400  0.89533600  1
  Fe  Fe13  1  0.91414100  0.84776600  0.10466400  1
  Fe  Fe14  1  0.58585900  0.34776600  0.89533600  1
  Fe  Fe15  1  0.41414100  0.65223400  0.10466400  1
  Bi  Bi16  1  0.15136200  0.86084500  0.77839000  1
  Bi  Bi17  1  0.84863800  0.13915500  0.22161000  1
  Bi  Bi18  1  0.34863800  0.36084500  0.22161000  1
  Bi  Bi19  1  0.84863800  0.63915500  0.27839000  1
  Bi  Bi20  1  0.65136200  0.13915500  0.72161000  1
  Bi  Bi21  1  0.65136200  0.63915500  0.77839000  1
  Bi  Bi22  1  0.34863800  0.86084500  0.27839000  1
  Bi  Bi23  1  0.15136200  0.36084500  0.72161000  1
  O  O24  1  0.64785400  0.28671500  0.30685700  1
  O  O25  1  0.28869900  0.02455300  0.94684000  1
  O  O26  1  0.21130100  0.52455300  0.05316000  1
  O  O27  1  0.47628300  0.79825800  0.85314200  1
  O  O28  1  0.02371700  0.29825800  0.14685800  1
  O  O29  1  0.64785400  0.78671500  0.19314300  1
  O  O30  1  0.02371700  0.79825800  0.35314200  1
  O  O31  1  0.85214600  0.78671500  0.69314300  1
  O  O32  1  0.28869900  0.52455300  0.55316000  1
  O  O33  1  0.35214600  0.71328500  0.69314300  1
  O  O34  1  0.85214600  0.28671500  0.80685700  1
  O  O35  1  0.69587700  0.22019200  0.46646000  1
  O  O36  1  0.78869900  0.97544700  0.55316000  1
  O  O37  1  0.52371700  0.70174200  0.35314200  1
  O  O38  1  0.09204100  0.97274800  0.18684300  1
  O  O39  1  0.78869900  0.47544700  0.94684000  1
  O  O40  1  0.35214600  0.21328500  0.80685700  1
  O  O41  1  0.97628300  0.20174200  0.64685800  1
  O  O42  1  0.19587700  0.77980800  0.03354000  1
  O  O43  1  0.21130100  0.02455300  0.44684000  1
  O  O44  1  0.30412300  0.77980800  0.53354000  1
  O  O45  1  0.90795900  0.02725200  0.81315700  1
  O  O46  1  0.52371700  0.20174200  0.14685800  1
  O  O47  1  0.59204100  0.02725200  0.31315700  1
  O  O48  1  0.30412300  0.27980800  0.96646000  1
  O  O49  1  0.19587700  0.27980800  0.46646000  1
  O  O50  1  0.71130100  0.47544700  0.44684000  1
  O  O51  1  0.71130100  0.97544700  0.05316000  1
  O  O52  1  0.59204100  0.52725200  0.18684300  1
  O  O53  1  0.80412300  0.72019200  0.53354000  1
  O  O54  1  0.80412300  0.22019200  0.96646000  1
  O  O55  1  0.69587700  0.72019200  0.03354000  1
  O  O56  1  0.90795900  0.52725200  0.68684300  1
  O  O57  1  0.97628300  0.70174200  0.85314200  1
  O  O58  1  0.47628300  0.29825800  0.64685800  1
  O  O59  1  0.09204100  0.47274800  0.31315700  1
  O  O60  1  0.40795900  0.47274800  0.81315700  1
  O  O61  1  0.14785400  0.21328500  0.30685700  1
  O  O62  1  0.40795900  0.97274800  0.68684300  1
  O  O63  1  0.14785400  0.71328500  0.19314300  1
