# generated using pymatgen
data_MgTi(GeO3)2
_symmetry_space_group_name_H-M   'P 1'
_cell_length_a   8.50588200
_cell_length_b   5.36389700
_cell_length_c   11.89722059
_cell_angle_alpha   78.59195259
_cell_angle_beta   90.00000000
_cell_angle_gamma   90.00000000
_symmetry_Int_Tables_number   1
_chemical_formula_structural   MgTi(GeO3)2
_chemical_formula_sum   'Mg4 Ti4 Ge8 O24'
_cell_volume   532.08280662
_cell_formula_units_Z   4
loop_
 _symmetry_equiv_pos_site_id
 _symmetry_equiv_pos_as_xyz
  1  'x, y, z'
loop_
 _atom_site_type_symbol
 _atom_site_label
 _atom_site_symmetry_multiplicity
 _atom_site_fract_x
 _atom_site_fract_y
 _atom_site_fract_z
 _atom_site_occupancy
  Mg  Mg0  1  0.54340700  0.19538200  0.25636400  1
  Mg  Mg1  1  0.04340700  0.30461800  0.74363600  1
  Mg  Mg2  1  0.45659300  0.80461800  0.74363600  1
  Mg  Mg3  1  0.95659300  0.69538200  0.25636400  1
  Ti  Ti4  1  0.34424200  0.67683400  0.28054600  1
  Ti  Ti5  1  0.84424200  0.82316600  0.71945400  1
  Ti  Ti6  1  0.65575800  0.32316600  0.71945400  1
  Ti  Ti7  1  0.15575800  0.17683400  0.28054600  1
  Ge  Ge8  1  0.64282400  0.76323100  0.07615600  1
  Ge  Ge9  1  0.14282400  0.73676900  0.92384400  1
  Ge  Ge10  1  0.35717600  0.23676900  0.92384400  1
  Ge  Ge11  1  0.85717600  0.26323100  0.07615600  1
  Ge  Ge12  1  0.65090500  0.73852200  0.46930700  1
  Ge  Ge13  1  0.15090500  0.76147800  0.53069300  1
  Ge  Ge14  1  0.34909500  0.26147800  0.53069300  1
  Ge  Ge15  1  0.84909500  0.23852200  0.46930700  1
  O  O16  1  0.70929600  0.06004300  0.40238300  1
  O  O17  1  0.20929600  0.43995700  0.59761700  1
  O  O18  1  0.29070400  0.93995700  0.59761700  1
  O  O19  1  0.79070400  0.56004300  0.40238300  1
  O  O20  1  0.68281900  0.05078000  0.14883500  1
  O  O21  1  0.18281900  0.44922000  0.85116500  1
  O  O22  1  0.31718100  0.94922000  0.85116500  1
  O  O23  1  0.81718100  0.55078000  0.14883500  1
  O  O24  1  0.03710900  0.23105400  0.41503900  1
  O  O25  1  0.53710900  0.26894600  0.58496100  1
  O  O26  1  0.96289100  0.76894600  0.58496100  1
  O  O27  1  0.46289100  0.73105400  0.41503900  1
  O  O28  1  0.99660400  0.07294000  0.19776400  1
  O  O29  1  0.49660400  0.42706000  0.80223600  1
  O  O30  1  0.00339600  0.92706000  0.80223600  1
  O  O31  1  0.50339600  0.57294000  0.19776400  1
  O  O32  1  0.66377700  0.97642100  0.78232900  1
  O  O33  1  0.16377700  0.52357900  0.21767100  1
  O  O34  1  0.33622300  0.02357900  0.21767100  1
  O  O35  1  0.83622300  0.47642100  0.78232900  1
  O  O36  1  0.64957800  0.71096000  0.61918700  1
  O  O37  1  0.14957800  0.78904000  0.38081300  1
  O  O38  1  0.35042200  0.28904000  0.38081300  1
  O  O39  1  0.85042200  0.21096000  0.61918700  1
