# generated using pymatgen
data_CaCrNiP2O9
_symmetry_space_group_name_H-M   'P 1'
_cell_length_a   6.46135400
_cell_length_b   7.51246500
_cell_length_c   14.18058300
_cell_angle_alpha   90.00000000
_cell_angle_beta   90.00000000
_cell_angle_gamma   90.00000000
_symmetry_Int_Tables_number   1
_chemical_formula_structural   CaCrNiP2O9
_chemical_formula_sum   'Ca4 Cr4 Ni4 P8 O36'
_cell_volume   688.33536535
_cell_formula_units_Z   4
loop_
 _symmetry_equiv_pos_site_id
 _symmetry_equiv_pos_as_xyz
  1  'x, y, z'
loop_
 _atom_site_type_symbol
 _atom_site_label
 _atom_site_symmetry_multiplicity
 _atom_site_fract_x
 _atom_site_fract_y
 _atom_site_fract_z
 _atom_site_occupancy
  Ca  Ca0  1  0.25000000  0.87928600  0.27892800  1
  Ca  Ca1  1  0.25000000  0.62071400  0.77892800  1
  Ca  Ca2  1  0.75000000  0.12071400  0.72107200  1
  Ca  Ca3  1  0.75000000  0.37928600  0.22107200  1
  Cr  Cr4  1  0.25000000  0.34860800  0.38358100  1
  Cr  Cr5  1  0.75000000  0.65139200  0.61641900  1
  Cr  Cr6  1  0.75000000  0.84860800  0.11641900  1
  Cr  Cr7  1  0.25000000  0.15139200  0.88358100  1
  Ni  Ni8  1  0.00000000  0.00000000  0.50000000  1
  Ni  Ni9  1  0.00000000  0.50000000  0.00000000  1
  Ni  Ni10  1  0.50000000  0.50000000  0.00000000  1
  Ni  Ni11  1  0.50000000  0.00000000  0.50000000  1
  P  P12  1  0.75000000  0.34909700  0.43906500  1
  P  P13  1  0.25000000  0.65090300  0.56093500  1
  P  P14  1  0.25000000  0.84909700  0.06093500  1
  P  P15  1  0.75000000  0.15090300  0.93906500  1
  P  P16  1  0.25000000  0.38911900  0.19385000  1
  P  P17  1  0.75000000  0.61088100  0.80615000  1
  P  P18  1  0.75000000  0.88911900  0.30615000  1
  P  P19  1  0.25000000  0.11088100  0.69385000  1
  O  O20  1  0.55203500  0.60619600  0.86614900  1
  O  O21  1  0.05203500  0.39380400  0.13385100  1
  O  O22  1  0.44796500  0.10619600  0.63385100  1
  O  O23  1  0.94796500  0.89380400  0.36614900  1
  O  O24  1  0.44796500  0.39380400  0.13385100  1
  O  O25  1  0.94796500  0.60619600  0.86614900  1
  O  O26  1  0.55203500  0.89380400  0.36614900  1
  O  O27  1  0.05203500  0.10619600  0.63385100  1
  O  O28  1  0.75000000  0.33409800  0.98719200  1
  O  O29  1  0.25000000  0.66590200  0.01280800  1
  O  O30  1  0.25000000  0.83409800  0.51280800  1
  O  O31  1  0.75000000  0.16590200  0.48719200  1
  O  O32  1  0.25000000  0.14504700  0.44419100  1
  O  O33  1  0.75000000  0.85495300  0.55580900  1
  O  O34  1  0.75000000  0.64504700  0.05580900  1
  O  O35  1  0.25000000  0.35495300  0.94419100  1
  O  O36  1  0.25000000  0.21793200  0.25877700  1
  O  O37  1  0.75000000  0.78206800  0.74122300  1
  O  O38  1  0.75000000  0.71793200  0.24122300  1
  O  O39  1  0.25000000  0.28206800  0.75877700  1
  O  O40  1  0.93779900  0.13261000  0.87114100  1
  O  O41  1  0.43779900  0.86739000  0.12885900  1
  O  O42  1  0.06220100  0.63261000  0.62885900  1
  O  O43  1  0.56220100  0.36739000  0.37114100  1
  O  O44  1  0.06220100  0.86739000  0.12885900  1
  O  O45  1  0.56220100  0.13261000  0.87114100  1
  O  O46  1  0.93779900  0.36739000  0.37114100  1
  O  O47  1  0.43779900  0.63261000  0.62885900  1
  O  O48  1  0.25000000  0.96240500  0.77203400  1
  O  O49  1  0.75000000  0.03759500  0.22796600  1
  O  O50  1  0.75000000  0.46240500  0.72796600  1
  O  O51  1  0.25000000  0.53759500  0.27203400  1
  O  O52  1  0.25000000  0.99118900  0.98410600  1
  O  O53  1  0.75000000  0.00881100  0.01589400  1
  O  O54  1  0.75000000  0.49118900  0.51589400  1
  O  O55  1  0.25000000  0.50881100  0.48410600  1
