# generated using pymatgen
data_CaBiWO5
_symmetry_space_group_name_H-M   'P 1'
_cell_length_a   5.56331500
_cell_length_b   11.68705400
_cell_length_c   16.46722100
_cell_angle_alpha   90.00000000
_cell_angle_beta   90.00000000
_cell_angle_gamma   90.00000000
_symmetry_Int_Tables_number   1
_chemical_formula_structural   CaBiWO5
_chemical_formula_sum   'Ca8 Bi8 W8 O40'
_cell_volume   1070.67833657
_cell_formula_units_Z   8
loop_
 _symmetry_equiv_pos_site_id
 _symmetry_equiv_pos_as_xyz
  1  'x, y, z'
loop_
 _atom_site_type_symbol
 _atom_site_label
 _atom_site_symmetry_multiplicity
 _atom_site_fract_x
 _atom_site_fract_y
 _atom_site_fract_z
 _atom_site_occupancy
  Ca  Ca0  1  0.50171900  0.35920100  0.55459800  1
  Ca  Ca1  1  0.00171900  0.14079900  0.55459800  1
  Ca  Ca2  1  0.00171900  0.64079900  0.94540200  1
  Ca  Ca3  1  0.99828100  0.35920100  0.05459800  1
  Ca  Ca4  1  0.49828100  0.14079900  0.05459800  1
  Ca  Ca5  1  0.99828100  0.85920100  0.44540200  1
  Ca  Ca6  1  0.49828100  0.64079900  0.44540200  1
  Ca  Ca7  1  0.50171900  0.85920100  0.94540200  1
  Bi  Bi8  1  0.94575800  0.84032300  0.77046900  1
  Bi  Bi9  1  0.05424200  0.15967700  0.22953100  1
  Bi  Bi10  1  0.55424200  0.34032300  0.22953100  1
  Bi  Bi11  1  0.05424200  0.65967700  0.27046900  1
  Bi  Bi12  1  0.44575800  0.15967700  0.72953100  1
  Bi  Bi13  1  0.44575800  0.65967700  0.77046900  1
  Bi  Bi14  1  0.55424200  0.84032300  0.27046900  1
  Bi  Bi15  1  0.94575800  0.34032300  0.72953100  1
  W  W16  1  0.99848600  0.40203400  0.40535200  1
  W  W17  1  0.50151400  0.90203400  0.59464800  1
  W  W18  1  0.00151400  0.59796600  0.59464800  1
  W  W19  1  0.49848600  0.09796600  0.40535200  1
  W  W20  1  0.00151400  0.09796600  0.90535200  1
  W  W21  1  0.99848600  0.90203400  0.09464800  1
  W  W22  1  0.50151400  0.40203400  0.90535200  1
  W  W23  1  0.49848600  0.59796600  0.09464800  1
  O  O24  1  0.94830400  0.32651300  0.30301000  1
  O  O25  1  0.27933300  0.03454400  0.95129300  1
  O  O26  1  0.22066700  0.53454400  0.04870700  1
  O  O27  1  0.23884900  0.77057200  0.84647900  1
  O  O28  1  0.26115100  0.27057200  0.15352100  1
  O  O29  1  0.94830400  0.82651300  0.19699000  1
  O  O30  1  0.26115100  0.77057200  0.34647900  1
  O  O31  1  0.55169600  0.82651300  0.69699000  1
  O  O32  1  0.27933300  0.53454400  0.54870700  1
  O  O33  1  0.05169600  0.67348700  0.69699000  1
  O  O34  1  0.55169600  0.32651300  0.80301000  1
  O  O35  1  0.64407800  0.20167900  0.47540700  1
  O  O36  1  0.77933300  0.96545600  0.54870700  1
  O  O37  1  0.76115100  0.72942800  0.34647900  1
  O  O38  1  0.17696200  0.03080600  0.13259300  1
  O  O39  1  0.77933300  0.46545600  0.95129300  1
  O  O40  1  0.05169600  0.17348700  0.80301000  1
  O  O41  1  0.73884900  0.22942800  0.65352100  1
  O  O42  1  0.14407800  0.79832100  0.02459300  1
  O  O43  1  0.22066700  0.03454400  0.45129300  1
  O  O44  1  0.35592200  0.79832100  0.52459300  1
  O  O45  1  0.82303800  0.96919400  0.86740700  1
  O  O46  1  0.76115100  0.22942800  0.15352100  1
  O  O47  1  0.67696200  0.96919400  0.36740700  1
  O  O48  1  0.35592200  0.29832100  0.97540700  1
  O  O49  1  0.14407800  0.29832100  0.47540700  1
  O  O50  1  0.72066700  0.46545600  0.45129300  1
  O  O51  1  0.72066700  0.96545600  0.04870700  1
  O  O52  1  0.67696200  0.46919400  0.13259300  1
  O  O53  1  0.85592200  0.70167900  0.52459300  1
  O  O54  1  0.85592200  0.20167900  0.97540700  1
  O  O55  1  0.64407800  0.70167900  0.02459300  1
  O  O56  1  0.82303800  0.46919400  0.63259300  1
  O  O57  1  0.73884900  0.72942800  0.84647900  1
  O  O58  1  0.23884900  0.27057200  0.65352100  1
  O  O59  1  0.17696200  0.53080600  0.36740700  1
  O  O60  1  0.32303800  0.53080600  0.86740700  1
  O  O61  1  0.44830400  0.17348700  0.30301000  1
  O  O62  1  0.32303800  0.03080600  0.63259300  1
  O  O63  1  0.44830400  0.67348700  0.19699000  1
