# generated using pymatgen
data_CaBiMoO5
_symmetry_space_group_name_H-M   'P 1'
_cell_length_a   5.53641200
_cell_length_b   10.94363300
_cell_length_c   16.52744500
_cell_angle_alpha   90.00000000
_cell_angle_beta   90.00000000
_cell_angle_gamma   90.00000000
_symmetry_Int_Tables_number   1
_chemical_formula_structural   CaBiMoO5
_chemical_formula_sum   'Ca8 Bi8 Mo8 O40'
_cell_volume   1001.37245788
_cell_formula_units_Z   8
loop_
 _symmetry_equiv_pos_site_id
 _symmetry_equiv_pos_as_xyz
  1  'x, y, z'
loop_
 _atom_site_type_symbol
 _atom_site_label
 _atom_site_symmetry_multiplicity
 _atom_site_fract_x
 _atom_site_fract_y
 _atom_site_fract_z
 _atom_site_occupancy
  Ca  Ca0  1  0.52178100  0.36227600  0.44196200  1
  Ca  Ca1  1  0.02178100  0.13772400  0.44196200  1
  Ca  Ca2  1  0.02178100  0.63772400  0.05803800  1
  Ca  Ca3  1  0.97821900  0.36227600  0.94196200  1
  Ca  Ca4  1  0.47821900  0.13772400  0.94196200  1
  Ca  Ca5  1  0.97821900  0.86227600  0.55803800  1
  Ca  Ca6  1  0.47821900  0.63772400  0.55803800  1
  Ca  Ca7  1  0.52178100  0.86227600  0.05803800  1
  Bi  Bi8  1  0.94960900  0.85269000  0.22534200  1
  Bi  Bi9  1  0.05039100  0.14731000  0.77465800  1
  Bi  Bi10  1  0.55039100  0.35269000  0.77465800  1
  Bi  Bi11  1  0.05039100  0.64731000  0.72534200  1
  Bi  Bi12  1  0.44960900  0.14731000  0.27465800  1
  Bi  Bi13  1  0.44960900  0.64731000  0.22534200  1
  Bi  Bi14  1  0.55039100  0.85269000  0.72534200  1
  Bi  Bi15  1  0.94960900  0.35269000  0.27465800  1
  Mo  Mo16  1  0.98654100  0.37793200  0.59104500  1
  Mo  Mo17  1  0.51345900  0.87793200  0.40895500  1
  Mo  Mo18  1  0.01345900  0.62206800  0.40895500  1
  Mo  Mo19  1  0.48654100  0.12206800  0.59104500  1
  Mo  Mo20  1  0.01345900  0.12206800  0.09104500  1
  Mo  Mo21  1  0.98654100  0.87793200  0.90895500  1
  Mo  Mo22  1  0.51345900  0.37793200  0.09104500  1
  Mo  Mo23  1  0.48654100  0.62206800  0.90895500  1
  O  O24  1  0.92585800  0.32410600  0.69958300  1
  O  O25  1  0.27716100  0.03757000  0.05490300  1
  O  O26  1  0.22283900  0.53757000  0.94509700  1
  O  O27  1  0.24404300  0.77121800  0.15098900  1
  O  O28  1  0.25595700  0.27121800  0.84901100  1
  O  O29  1  0.92585800  0.82410600  0.80041700  1
  O  O30  1  0.25595700  0.77121800  0.65098900  1
  O  O31  1  0.57414200  0.82410600  0.30041700  1
  O  O32  1  0.27716100  0.53757000  0.44509700  1
  O  O33  1  0.07414200  0.67589400  0.30041700  1
  O  O34  1  0.57414200  0.32410600  0.19958300  1
  O  O35  1  0.72428300  0.21607300  0.53780600  1
  O  O36  1  0.77716100  0.96243000  0.44509700  1
  O  O37  1  0.75595700  0.72878200  0.65098900  1
  O  O38  1  0.17637800  0.01779300  0.87644100  1
  O  O39  1  0.77716100  0.46243000  0.05490300  1
  O  O40  1  0.07414200  0.17589400  0.19958300  1
  O  O41  1  0.74404300  0.22878200  0.34901100  1
  O  O42  1  0.22428300  0.78392700  0.96219400  1
  O  O43  1  0.22283900  0.03757000  0.55490300  1
  O  O44  1  0.27571700  0.78392700  0.46219400  1
  O  O45  1  0.82362200  0.98220700  0.12355900  1
  O  O46  1  0.75595700  0.22878200  0.84901100  1
  O  O47  1  0.67637800  0.98220700  0.62355900  1
  O  O48  1  0.27571700  0.28392700  0.03780600  1
  O  O49  1  0.22428300  0.28392700  0.53780600  1
  O  O50  1  0.72283900  0.46243000  0.55490300  1
  O  O51  1  0.72283900  0.96243000  0.94509700  1
  O  O52  1  0.67637800  0.48220700  0.87644100  1
  O  O53  1  0.77571700  0.71607300  0.46219400  1
  O  O54  1  0.77571700  0.21607300  0.03780600  1
  O  O55  1  0.72428300  0.71607300  0.96219400  1
  O  O56  1  0.82362200  0.48220700  0.37644100  1
  O  O57  1  0.74404300  0.72878200  0.15098900  1
  O  O58  1  0.24404300  0.27121800  0.34901100  1
  O  O59  1  0.17637800  0.51779300  0.62355900  1
  O  O60  1  0.32362200  0.51779300  0.12355900  1
  O  O61  1  0.42585800  0.17589400  0.69958300  1
  O  O62  1  0.32362200  0.01779300  0.37644100  1
  O  O63  1  0.42585800  0.67589400  0.80041700  1
