# generated using pymatgen
data_V3Pb2O9
_symmetry_space_group_name_H-M   'P 1'
_cell_length_a   7.48406100
_cell_length_b   9.13167404
_cell_length_c   12.66847718
_cell_angle_alpha   110.02153786
_cell_angle_beta   86.68228924
_cell_angle_gamma   102.08816489
_symmetry_Int_Tables_number   1
_chemical_formula_structural   V3Pb2O9
_chemical_formula_sum   'V12 Pb8 O36'
_cell_volume   795.33687806
_cell_formula_units_Z   4
loop_
 _symmetry_equiv_pos_site_id
 _symmetry_equiv_pos_as_xyz
  1  'x, y, z'
loop_
 _atom_site_type_symbol
 _atom_site_label
 _atom_site_symmetry_multiplicity
 _atom_site_fract_x
 _atom_site_fract_y
 _atom_site_fract_z
 _atom_site_occupancy
  V  V0  1  0.69368400  0.36416600  0.04526600  1
  V  V1  1  0.80635800  0.13246100  0.45322200  1
  V  V2  1  0.08609100  0.01132700  0.17193700  1
  V  V3  1  0.72536800  0.75411300  0.24736700  1
  V  V4  1  0.41333900  0.48688200  0.32809300  1
  V  V5  1  0.77897800  0.25570100  0.74732200  1
  V  V6  1  0.22102200  0.74429900  0.25267800  1
  V  V7  1  0.58666100  0.51311800  0.67190700  1
  V  V8  1  0.27463200  0.24588700  0.75263300  1
  V  V9  1  0.91390900  0.98867300  0.82806300  1
  V  V10  1  0.19364200  0.86753900  0.54677800  1
  V  V11  1  0.30631600  0.63583400  0.95473400  1
  Pb  Pb12  1  0.59417100  0.05761400  0.15855200  1
  Pb  Pb13  1  0.90060700  0.43758300  0.34201700  1
  Pb  Pb14  1  0.17208200  0.29265600  0.05306700  1
  Pb  Pb15  1  0.32704800  0.20738100  0.44822400  1
  Pb  Pb16  1  0.67295200  0.79261900  0.55177600  1
  Pb  Pb17  1  0.82791800  0.70734400  0.94693300  1
  Pb  Pb18  1  0.09939300  0.56241700  0.65798300  1
  Pb  Pb19  1  0.40582900  0.94238600  0.84144800  1
  O  O20  1  0.81036800  0.31676900  0.14114100  1
  O  O21  1  0.48092600  0.23944600  0.02527200  1
  O  O22  1  0.69058500  0.56861300  0.10236600  1
  O  O23  1  0.68889800  0.18153000  0.35823400  1
  O  O24  1  0.98902600  0.69852800  0.26865500  1
  O  O25  1  0.86242300  0.88396600  0.15647700  1
  O  O26  1  0.44097900  0.29559600  0.27010700  1
  O  O27  1  0.69943800  0.16429600  0.58350100  1
  O  O28  1  0.63793700  0.61259200  0.34108000  1
  O  O29  1  0.19813400  0.66806700  0.08434300  1
  O  O30  1  0.05642900  0.20188600  0.22962100  1
  O  O31  1  0.76110800  0.02997900  0.74240800  1
  O  O32  1  0.98141300  0.74271900  0.52700400  1
  O  O33  1  0.51894100  0.80128500  0.23587000  1
  O  O34  1  0.26245900  0.52816100  0.24214800  1
  O  O35  1  0.67952200  0.49595000  0.54294100  1
  O  O36  1  0.81170500  0.92869400  0.39461300  1
  O  O37  1  0.17925900  0.99570200  0.04353400  1
  O  O38  1  0.82074100  0.00429800  0.95646600  1
  O  O39  1  0.18829500  0.07130600  0.60538700  1
  O  O40  1  0.32047800  0.50405000  0.45705900  1
  O  O41  1  0.73754100  0.47183900  0.75785200  1
  O  O42  1  0.48105900  0.19871500  0.76413000  1
  O  O43  1  0.01858700  0.25728100  0.47299600  1
  O  O44  1  0.23889200  0.97002100  0.25759200  1
  O  O45  1  0.94357100  0.79811400  0.77037900  1
  O  O46  1  0.80186600  0.33193300  0.91565700  1
  O  O47  1  0.36206300  0.38740800  0.65892000  1
  O  O48  1  0.30056200  0.83570400  0.41649900  1
  O  O49  1  0.55902100  0.70440400  0.72989300  1
  O  O50  1  0.13757700  0.11603400  0.84352300  1
  O  O51  1  0.01097400  0.30147200  0.73134500  1
  O  O52  1  0.31110200  0.81847000  0.64176600  1
  O  O53  1  0.30941500  0.43138700  0.89763400  1
  O  O54  1  0.51907400  0.76055400  0.97472800  1
  O  O55  1  0.18963200  0.68323100  0.85885900  1
