# generated using pymatgen
data_Nb2Zn2SnO8
_symmetry_space_group_name_H-M   'P 1'
_cell_length_a   10.91180241
_cell_length_b   10.91180241
_cell_length_c   5.40533560
_cell_angle_alpha   89.07484440
_cell_angle_beta   89.07484440
_cell_angle_gamma   32.26545937
_symmetry_Int_Tables_number   1
_chemical_formula_structural   Nb2Zn2SnO8
_chemical_formula_sum   'Nb4 Zn4 Sn2 O16'
_cell_volume   343.53231170
_cell_formula_units_Z   2
loop_
 _symmetry_equiv_pos_site_id
 _symmetry_equiv_pos_as_xyz
  1  'x, y, z'
loop_
 _atom_site_type_symbol
 _atom_site_label
 _atom_site_symmetry_multiplicity
 _atom_site_fract_x
 _atom_site_fract_y
 _atom_site_fract_z
 _atom_site_occupancy
  Nb  Nb0  1  0.03582000  0.71248400  0.22803500  1
  Nb  Nb1  1  0.28751600  0.96418000  0.27196500  1
  Nb  Nb2  1  0.96418000  0.28751600  0.77196500  1
  Nb  Nb3  1  0.71248400  0.03582000  0.72803500  1
  Zn  Zn4  1  0.87237100  0.57023600  0.27002100  1
  Zn  Zn5  1  0.42976400  0.12762900  0.22997900  1
  Zn  Zn6  1  0.12762900  0.42976400  0.72997900  1
  Zn  Zn7  1  0.57023600  0.87237100  0.77002100  1
  Sn  Sn8  1  0.69019700  0.30980300  0.25000000  1
  Sn  Sn9  1  0.30980300  0.69019700  0.75000000  1
  O  O10  1  0.00947800  0.82766900  0.54216800  1
  O  O11  1  0.17233100  0.99052200  0.95783200  1
  O  O12  1  0.99052200  0.17233100  0.45783200  1
  O  O13  1  0.82766900  0.00947800  0.04216800  1
  O  O14  1  0.30461000  0.56022900  0.12046400  1
  O  O15  1  0.43977100  0.69539000  0.37953600  1
  O  O16  1  0.69539000  0.43977100  0.87953600  1
  O  O17  1  0.56022900  0.30461000  0.62046400  1
  O  O18  1  0.92857100  0.70474000  0.92840700  1
  O  O19  1  0.29526000  0.07142900  0.57159300  1
  O  O20  1  0.44854400  0.15352000  0.86275200  1
  O  O21  1  0.84648000  0.55145600  0.63724800  1
  O  O22  1  0.55145600  0.84648000  0.13724800  1
  O  O23  1  0.15352000  0.44854400  0.36275200  1
  O  O24  1  0.70474000  0.92857100  0.42840700  1
  O  O25  1  0.07142900  0.29526000  0.07159300  1
