# generated using pymatgen
data_NiP2WO9
_symmetry_space_group_name_H-M   'P 1'
_cell_length_a   6.43422300
_cell_length_b   8.03308000
_cell_length_c   14.04677600
_cell_angle_alpha   90.00000000
_cell_angle_beta   90.00000000
_cell_angle_gamma   90.00000000
_symmetry_Int_Tables_number   1
_chemical_formula_structural   NiP2WO9
_chemical_formula_sum   'Ni4 P8 W4 O36'
_cell_volume   726.03048707
_cell_formula_units_Z   4
loop_
 _symmetry_equiv_pos_site_id
 _symmetry_equiv_pos_as_xyz
  1  'x, y, z'
loop_
 _atom_site_type_symbol
 _atom_site_label
 _atom_site_symmetry_multiplicity
 _atom_site_fract_x
 _atom_site_fract_y
 _atom_site_fract_z
 _atom_site_occupancy
  Ni  Ni0  1  0.50000000  0.50000000  0.00000000  1
  Ni  Ni1  1  0.50000000  0.00000000  0.50000000  1
  Ni  Ni2  1  0.00000000  0.00000000  0.50000000  1
  Ni  Ni3  1  0.00000000  0.50000000  0.00000000  1
  P  P4  1  0.25000000  0.84163800  0.94333200  1
  P  P5  1  0.75000000  0.15836200  0.05666800  1
  P  P6  1  0.75000000  0.34163800  0.55666800  1
  P  P7  1  0.25000000  0.65836200  0.44333200  1
  P  P8  1  0.75000000  0.89421800  0.68243900  1
  P  P9  1  0.25000000  0.10578200  0.31756100  1
  P  P10  1  0.25000000  0.39421800  0.81756100  1
  P  P11  1  0.75000000  0.60578200  0.18243900  1
  W  W12  1  0.75000000  0.85330400  0.87520100  1
  W  W13  1  0.25000000  0.14669600  0.12479900  1
  W  W14  1  0.25000000  0.35330400  0.62479900  1
  W  W15  1  0.75000000  0.64669600  0.37520100  1
  O  O16  1  0.04936800  0.10113600  0.37294100  1
  O  O17  1  0.54936800  0.89886400  0.62705900  1
  O  O18  1  0.95063200  0.60113600  0.12705900  1
  O  O19  1  0.45063200  0.39886400  0.87294100  1
  O  O20  1  0.95063200  0.89886400  0.62705900  1
  O  O21  1  0.45063200  0.10113600  0.37294100  1
  O  O22  1  0.04936800  0.39886400  0.87294100  1
  O  O23  1  0.54936800  0.60113600  0.12705900  1
  O  O24  1  0.25000000  0.83473800  0.48190900  1
  O  O25  1  0.75000000  0.16526200  0.51809100  1
  O  O26  1  0.75000000  0.33473800  0.01809100  1
  O  O27  1  0.25000000  0.66526200  0.98190900  1
  O  O28  1  0.75000000  0.66072400  0.94281700  1
  O  O29  1  0.25000000  0.33927600  0.05718300  1
  O  O30  1  0.25000000  0.16072400  0.55718300  1
  O  O31  1  0.75000000  0.83927600  0.44281700  1
  O  O32  1  0.75000000  0.73268200  0.75413800  1
  O  O33  1  0.25000000  0.26731800  0.24586200  1
  O  O34  1  0.25000000  0.23268200  0.74586200  1
  O  O35  1  0.75000000  0.76731800  0.25413800  1
  O  O36  1  0.44333400  0.62695900  0.37996900  1
  O  O37  1  0.94333400  0.37304100  0.62003100  1
  O  O38  1  0.55666600  0.12695900  0.12003100  1
  O  O39  1  0.05666600  0.87304100  0.87996900  1
  O  O40  1  0.55666600  0.37304100  0.62003100  1
  O  O41  1  0.05666600  0.62695900  0.37996900  1
  O  O42  1  0.44333400  0.87304100  0.87996900  1
  O  O43  1  0.94333400  0.12695900  0.12003100  1
  O  O44  1  0.75000000  0.47621000  0.26994800  1
  O  O45  1  0.25000000  0.52379000  0.73005200  1
  O  O46  1  0.25000000  0.97621000  0.23005200  1
  O  O47  1  0.75000000  0.02379000  0.76994800  1
  O  O48  1  0.75000000  0.47662900  0.47789200  1
  O  O49  1  0.25000000  0.52337100  0.52210800  1
  O  O50  1  0.25000000  0.97662900  0.02210800  1
  O  O51  1  0.75000000  0.02337100  0.97789200  1
