# generated using pymatgen
data_MgCuP2O7
_symmetry_space_group_name_H-M   'P 1'
_cell_length_a   8.27694100
_cell_length_b   6.97590500
_cell_length_c   9.28749169
_cell_angle_alpha   69.38175225
_cell_angle_beta   90.00000000
_cell_angle_gamma   90.00000000
_symmetry_Int_Tables_number   1
_chemical_formula_structural   MgCuP2O7
_chemical_formula_sum   'Mg4 Cu4 P8 O28'
_cell_volume   501.90360194
_cell_formula_units_Z   4
loop_
 _symmetry_equiv_pos_site_id
 _symmetry_equiv_pos_as_xyz
  1  'x, y, z'
loop_
 _atom_site_type_symbol
 _atom_site_label
 _atom_site_symmetry_multiplicity
 _atom_site_fract_x
 _atom_site_fract_y
 _atom_site_fract_z
 _atom_site_occupancy
  Mg  Mg0  1  0.93826000  0.31002600  0.81632700  1
  Mg  Mg1  1  0.43826000  0.68997400  0.68367300  1
  Mg  Mg2  1  0.56174000  0.31002600  0.31632700  1
  Mg  Mg3  1  0.06174000  0.68997400  0.18367300  1
  Cu  Cu4  1  0.06973200  0.76665700  0.60891500  1
  Cu  Cu5  1  0.93026800  0.23334300  0.39108500  1
  Cu  Cu6  1  0.56973200  0.23334300  0.89108500  1
  Cu  Cu7  1  0.43026800  0.76665700  0.10891500  1
  P  P8  1  0.73283400  0.93202600  0.24399100  1
  P  P9  1  0.23021300  0.46570900  0.97131900  1
  P  P10  1  0.76716600  0.93202600  0.74399100  1
  P  P11  1  0.26978700  0.46570900  0.47131900  1
  P  P12  1  0.23283400  0.06797400  0.25600900  1
  P  P13  1  0.73021300  0.53429100  0.52868100  1
  P  P14  1  0.76978700  0.53429100  0.02868100  1
  P  P15  1  0.26716600  0.06797400  0.75600900  1
  O  O16  1  0.18245500  0.25225800  0.10030900  1
  O  O17  1  0.60941700  0.88291500  0.68566600  1
  O  O18  1  0.89058300  0.88291500  0.18566600  1
  O  O19  1  0.39342000  0.45181100  0.89502400  1
  O  O20  1  0.81754500  0.74774200  0.89969100  1
  O  O21  1  0.09131800  0.04240000  0.36990500  1
  O  O22  1  0.60658000  0.54818900  0.10497600  1
  O  O23  1  0.09091600  0.50702800  0.85854300  1
  O  O24  1  0.25848000  0.62659400  0.55161700  1
  O  O25  1  0.90868200  0.95760000  0.63009500  1
  O  O26  1  0.40868200  0.04240000  0.86990500  1
  O  O27  1  0.76044600  0.12078900  0.79396300  1
  O  O28  1  0.26044600  0.87921100  0.70603700  1
  O  O29  1  0.31754500  0.25225800  0.60030900  1
  O  O30  1  0.59131800  0.95760000  0.13009500  1
  O  O31  1  0.10941700  0.11708500  0.81433400  1
  O  O32  1  0.23955400  0.87921100  0.20603700  1
  O  O33  1  0.90908400  0.49297200  0.14145700  1
  O  O34  1  0.24152000  0.62659400  0.05161700  1
  O  O35  1  0.75848000  0.37340600  0.94838300  1
  O  O36  1  0.89342000  0.54818900  0.60497600  1
  O  O37  1  0.40908400  0.50702800  0.35854300  1
  O  O38  1  0.59091600  0.49297200  0.64145700  1
  O  O39  1  0.39058300  0.11708500  0.31433400  1
  O  O40  1  0.73955400  0.12078900  0.29396300  1
  O  O41  1  0.10658000  0.45181100  0.39502400  1
  O  O42  1  0.74152000  0.37340600  0.44838300  1
  O  O43  1  0.68245500  0.74774200  0.39969100  1
