# generated using pymatgen
data_CaW2O5
_symmetry_space_group_name_H-M   'P 1'
_cell_length_a   5.89644297
_cell_length_b   5.89644297
_cell_length_c   11.76752500
_cell_angle_alpha   90.00000000
_cell_angle_beta   90.00000000
_cell_angle_gamma   137.65968597
_symmetry_Int_Tables_number   1
_chemical_formula_structural   CaW2O5
_chemical_formula_sum   'Ca2 W4 O10'
_cell_volume   275.56500151
_cell_formula_units_Z   2
loop_
 _symmetry_equiv_pos_site_id
 _symmetry_equiv_pos_as_xyz
  1  'x, y, z'
loop_
 _atom_site_type_symbol
 _atom_site_label
 _atom_site_symmetry_multiplicity
 _atom_site_fract_x
 _atom_site_fract_y
 _atom_site_fract_z
 _atom_site_occupancy
  Ca  Ca0  1  0.10004100  0.89995900  0.75000000  1
  Ca  Ca1  1  0.89995900  0.10004100  0.25000000  1
  W  W2  1  0.79388600  0.20611400  0.59538700  1
  W  W3  1  0.20611400  0.79388600  0.40461300  1
  W  W4  1  0.20611400  0.79388600  0.09538700  1
  W  W5  1  0.79388600  0.20611400  0.90461300  1
  O  O6  1  0.29708700  0.70291300  0.25000000  1
  O  O7  1  0.70291300  0.29708700  0.75000000  1
  O  O8  1  0.74345200  0.25654800  0.07342400  1
  O  O9  1  0.25654800  0.74345200  0.92657600  1
  O  O10  1  0.25654800  0.74345200  0.57342400  1
  O  O11  1  0.74345200  0.25654800  0.42657600  1
  O  O12  1  0.96075300  0.03924700  0.61934200  1
  O  O13  1  0.03924700  0.96075300  0.38065800  1
  O  O14  1  0.96075300  0.03924700  0.88065800  1
  O  O15  1  0.03924700  0.96075300  0.11934200  1
