# generated using pymatgen
data_ZnSb2(PO5)2
_symmetry_space_group_name_H-M   'P 1'
_cell_length_a   10.24950788
_cell_length_b   9.02958358
_cell_length_c   7.41387927
_cell_angle_alpha   76.41595859
_cell_angle_beta   58.90733731
_cell_angle_gamma   44.67670409
_symmetry_Int_Tables_number   1
_chemical_formula_structural   ZnSb2(PO5)2
_chemical_formula_sum   'Zn2 Sb4 P4 O20'
_cell_volume   403.01874640
_cell_formula_units_Z   2
loop_
 _symmetry_equiv_pos_site_id
 _symmetry_equiv_pos_as_xyz
  1  'x, y, z'
loop_
 _atom_site_type_symbol
 _atom_site_label
 _atom_site_symmetry_multiplicity
 _atom_site_fract_x
 _atom_site_fract_y
 _atom_site_fract_z
 _atom_site_occupancy
  Zn  Zn0  1  0.96470100  0.53529900  0.53529900  1
  Zn  Zn1  1  0.71470100  0.28529900  0.28529900  1
  Sb  Sb2  1  0.33928200  0.36714200  0.90135200  1
  Sb  Sb3  1  0.39222400  0.90135200  0.36714200  1
  Sb  Sb4  1  0.88285800  0.91071800  0.85777600  1
  Sb  Sb5  1  0.34864800  0.85777600  0.91071800  1
  P  P6  1  0.93531800  0.43598300  0.02703000  1
  P  P7  1  0.81401700  0.31468200  0.64833200  1
  P  P8  1  0.60166800  0.02703000  0.43598300  1
  P  P9  1  0.22297000  0.64833200  0.31468200  1
  O  O10  1  0.44599200  0.23171900  0.61046000  1
  O  O11  1  0.32557500  0.85624200  0.66061100  1
  O  O12  1  0.43115700  0.53633000  0.29823700  1
  O  O13  1  0.63954000  0.53817100  0.80400800  1
  O  O14  1  0.75104600  0.04224700  0.23203700  1
  O  O15  1  0.45411900  0.06559900  0.37551400  1
  O  O16  1  0.39375800  0.92442500  0.09242800  1
  O  O17  1  0.15757200  0.66061100  0.85624200  1
  O  O18  1  0.58938900  0.09242800  0.92442500  1
  O  O19  1  0.20775300  0.49895400  0.27533000  1
  O  O20  1  0.71182900  0.61046000  0.23171900  1
  O  O21  1  0.01796300  0.27533000  0.49895400  1
  O  O22  1  0.97467000  0.23203700  0.04224700  1
  O  O23  1  0.18440100  0.79588100  0.14523200  1
  O  O24  1  0.10476800  0.37551400  0.06559900  1
  O  O25  1  0.87448600  0.14523200  0.79588100  1
  O  O26  1  0.95176300  0.51572400  0.81884300  1
  O  O27  1  0.73427600  0.29823700  0.53633000  1
  O  O28  1  0.01828100  0.80400800  0.53817100  1
  O  O29  1  0.71367000  0.81884300  0.51572400  1
