# generated using pymatgen
data_SbPO5
_symmetry_space_group_name_H-M   'P 1'
_cell_length_a   10.25333040
_cell_length_b   9.08209500
_cell_length_c   6.94722764
_cell_angle_alpha   78.28713094
_cell_angle_beta   60.14938223
_cell_angle_gamma   41.56348683
_symmetry_Int_Tables_number   1
_chemical_formula_structural   SbPO5
_chemical_formula_sum   'Sb4 P4 O20'
_cell_volume   355.76619041
_cell_formula_units_Z   4
loop_
 _symmetry_equiv_pos_site_id
 _symmetry_equiv_pos_as_xyz
  1  'x, y, z'
loop_
 _atom_site_type_symbol
 _atom_site_label
 _atom_site_symmetry_multiplicity
 _atom_site_fract_x
 _atom_site_fract_y
 _atom_site_fract_z
 _atom_site_occupancy
  Sb  Sb0  1  0.87322100  0.37896300  0.38127700  1
  Sb  Sb1  1  0.36653900  0.38127700  0.37896300  1
  Sb  Sb2  1  0.87103700  0.37677900  0.88346100  1
  Sb  Sb3  1  0.86872300  0.88346100  0.37677900  1
  P  P4  1  0.02942500  0.54132000  0.96957600  1
  P  P5  1  0.70868000  0.22057500  0.79032100  1
  P  P6  1  0.45967900  0.96957600  0.54132000  1
  P  P7  1  0.28042400  0.79032100  0.22057500  1
  O  O8  1  0.59380600  0.72837600  0.43392500  1
  O  O9  1  0.66619100  0.18240500  0.32769300  1
  O  O10  1  0.31142500  0.64679500  0.39882500  1
  O  O11  1  0.81607500  0.00610700  0.65619400  1
  O  O12  1  0.22148300  0.09757300  0.75861600  1
  O  O13  1  0.42112700  0.11535400  0.36426100  1
  O  O14  1  0.06759500  0.58380900  0.42628900  1
  O  O15  1  0.82371100  0.32769300  0.18240500  1
  O  O16  1  0.92230700  0.42628900  0.58380900  1
  O  O17  1  0.15242700  0.02851700  0.32767200  1
  O  O18  1  0.24389300  0.43392500  0.72837600  1
  O  O19  1  0.49138400  0.32767200  0.02851700  1
  O  O20  1  0.92232800  0.75861600  0.09757300  1
  O  O21  1  0.13464600  0.82887300  0.15074300  1
  O  O22  1  0.09925700  0.36426100  0.11535400  1
  O  O23  1  0.88573900  0.15074300  0.82887300  1
  O  O24  1  0.85117500  0.60704600  0.93857500  1
  O  O25  1  0.64295400  0.39882500  0.64679500  1
  O  O26  1  0.52162400  0.65619400  0.00610700  1
  O  O27  1  0.60320500  0.93857500  0.60704600  1
