# generated using pymatgen
data_Ti2Zn(PO5)2
_symmetry_space_group_name_H-M   'P 1'
_cell_length_a   10.14451262
_cell_length_b   9.17580710
_cell_length_c   6.66472280
_cell_angle_alpha   77.86899388
_cell_angle_beta   62.16690090
_cell_angle_gamma   39.96410522
_symmetry_Int_Tables_number   1
_chemical_formula_structural   Ti2Zn(PO5)2
_chemical_formula_sum   'Ti4 Zn2 P4 O20'
_cell_volume   340.25279857
_cell_formula_units_Z   2
loop_
 _symmetry_equiv_pos_site_id
 _symmetry_equiv_pos_as_xyz
  1  'x, y, z'
loop_
 _atom_site_type_symbol
 _atom_site_label
 _atom_site_symmetry_multiplicity
 _atom_site_fract_x
 _atom_site_fract_y
 _atom_site_fract_z
 _atom_site_occupancy
  Ti  Ti0  1  0.88822400  0.38219600  0.37448900  1
  Ti  Ti1  1  0.35509100  0.37448900  0.38219600  1
  Ti  Ti2  1  0.86780400  0.36177600  0.89490900  1
  Ti  Ti3  1  0.87551100  0.89490900  0.36177600  1
  Zn  Zn4  1  0.51613100  0.98386900  0.98386900  1
  Zn  Zn5  1  0.26613100  0.73386900  0.73386900  1
  P  P6  1  0.03004900  0.55139600  0.96379600  1
  P  P7  1  0.69860400  0.21995100  0.79524100  1
  P  P8  1  0.45475900  0.96379600  0.55139600  1
  P  P9  1  0.28620400  0.79524100  0.21995100  1
  O  O10  1  0.59351300  0.72279700  0.44034400  1
  O  O11  1  0.65671600  0.18083100  0.33735400  1
  O  O12  1  0.30181100  0.66849900  0.42230700  1
  O  O13  1  0.80965600  0.00665400  0.65648700  1
  O  O14  1  0.21611400  0.08903400  0.75745700  1
  O  O15  1  0.42933300  0.09818800  0.35164300  1
  O  O16  1  0.06916900  0.59328400  0.42490100  1
  O  O17  1  0.82509900  0.33735400  0.18083100  1
  O  O18  1  0.91264600  0.42490100  0.59328400  1
  O  O19  1  0.16096600  0.03388600  0.31260600  1
  O  O20  1  0.24334600  0.44034400  0.72279700  1
  O  O21  1  0.49254300  0.31260600  0.03388600  1
  O  O22  1  0.93739400  0.75745700  0.08903400  1
  O  O23  1  0.15181200  0.82066700  0.12916500  1
  O  O24  1  0.12083500  0.35164300  0.09818800  1
  O  O25  1  0.89835700  0.12916500  0.82066700  1
  O  O26  1  0.82769300  0.64261600  0.94818900  1
  O  O27  1  0.60738400  0.42230700  0.66849900  1
  O  O28  1  0.52720300  0.65648700  0.00665400  1
  O  O29  1  0.58150100  0.94818900  0.64261600  1
