# generated using pymatgen
data_CaCr4O6
_symmetry_space_group_name_H-M   'P 1'
_cell_length_a   5.40260288
_cell_length_b   5.40260288
_cell_length_c   15.14440200
_cell_angle_alpha   90.00000000
_cell_angle_beta   90.00000000
_cell_angle_gamma   146.60652753
_symmetry_Int_Tables_number   1
_chemical_formula_structural   CaCr4O6
_chemical_formula_sum   'Ca2 Cr8 O12'
_cell_volume   243.29058559
_cell_formula_units_Z   2
loop_
 _symmetry_equiv_pos_site_id
 _symmetry_equiv_pos_as_xyz
  1  'x, y, z'
loop_
 _atom_site_type_symbol
 _atom_site_label
 _atom_site_symmetry_multiplicity
 _atom_site_fract_x
 _atom_site_fract_y
 _atom_site_fract_z
 _atom_site_occupancy
  Ca  Ca0  1  0.33682500  0.66317500  0.75000000  1
  Ca  Ca1  1  0.66317500  0.33682500  0.25000000  1
  Cr  Cr2  1  0.13685900  0.86314100  0.04325200  1
  Cr  Cr3  1  0.58942500  0.41057500  0.63306800  1
  Cr  Cr4  1  0.86314100  0.13685900  0.95674800  1
  Cr  Cr5  1  0.41057500  0.58942500  0.36693200  1
  Cr  Cr6  1  0.13685900  0.86314100  0.45674800  1
  Cr  Cr7  1  0.86314100  0.13685900  0.54325100  1
  Cr  Cr8  1  0.41057500  0.58942500  0.13306800  1
  Cr  Cr9  1  0.58942500  0.41057500  0.86693200  1
  O  O10  1  0.50000000  0.50000000  0.50000000  1
  O  O11  1  0.50000000  0.50000000  0.00000000  1
  O  O12  1  0.96296400  0.03703600  0.84302400  1
  O  O13  1  0.03703600  0.96296400  0.15697600  1
  O  O14  1  0.03703600  0.96296400  0.34302400  1
  O  O15  1  0.96296400  0.03703600  0.65697600  1
  O  O16  1  0.21130100  0.78869900  0.91440300  1
  O  O17  1  0.78869900  0.21130100  0.08559700  1
  O  O18  1  0.78869900  0.21130100  0.41440300  1
  O  O19  1  0.21130100  0.78869900  0.58559700  1
  O  O20  1  0.67394900  0.32605100  0.75000000  1
  O  O21  1  0.32605100  0.67394900  0.25000000  1
