# generated using pymatgen
data_LaZnFeCuO6
_symmetry_space_group_name_H-M   'P 1'
_cell_length_a   5.43436500
_cell_length_b   5.23596600
_cell_length_c   9.31474694
_cell_angle_alpha   57.92770650
_cell_angle_beta   90.00000000
_cell_angle_gamma   90.00000000
_symmetry_Int_Tables_number   1
_chemical_formula_structural   LaZnFeCuO6
_chemical_formula_sum   'La2 Zn2 Fe2 Cu2 O12'
_cell_volume   224.59199493
_cell_formula_units_Z   2
loop_
 _symmetry_equiv_pos_site_id
 _symmetry_equiv_pos_as_xyz
  1  'x, y, z'
loop_
 _atom_site_type_symbol
 _atom_site_label
 _atom_site_symmetry_multiplicity
 _atom_site_fract_x
 _atom_site_fract_y
 _atom_site_fract_z
 _atom_site_occupancy
  La  La0  1  0.21421600  0.73252300  0.25396400  1
  La  La1  1  0.78578400  0.73252300  0.75396400  1
  Zn  Zn2  1  0.70503500  0.28031500  0.24845200  1
  Zn  Zn3  1  0.29496500  0.28031500  0.74845200  1
  Fe  Fe4  1  0.74544600  0.00011400  0.00462000  1
  Fe  Fe5  1  0.25455400  0.00011400  0.50462000  1
  Cu  Cu6  1  0.74864300  0.49092400  0.50283700  1
  Cu  Cu7  1  0.25135700  0.49092400  0.00283700  1
  O  O8  1  0.23049700  0.90922200  0.73525700  1
  O  O9  1  0.05021000  0.26509700  0.93573600  1
  O  O10  1  0.04218300  0.63209300  0.55671900  1
  O  O11  1  0.95781700  0.63209300  0.05671900  1
  O  O12  1  0.94979000  0.26509700  0.43573600  1
  O  O13  1  0.76950300  0.90922200  0.23525700  1
  O  O14  1  0.70676300  0.16478300  0.76424900  1
  O  O15  1  0.51140900  0.69276800  0.56130300  1
  O  O16  1  0.50377400  0.33216000  0.93686100  1
  O  O17  1  0.49622600  0.33216000  0.43686100  1
  O  O18  1  0.48859100  0.69276800  0.06130300  1
  O  O19  1  0.29323700  0.16478300  0.26424900  1
