# generated using pymatgen
data_MgGe2WO6
_symmetry_space_group_name_H-M   'P 1'
_cell_length_a   8.51801400
_cell_length_b   5.57907700
_cell_length_c   12.33356801
_cell_angle_alpha   79.37051909
_cell_angle_beta   90.00000000
_cell_angle_gamma   90.00000000
_symmetry_Int_Tables_number   1
_chemical_formula_structural   MgGe2WO6
_chemical_formula_sum   'Mg4 Ge8 W4 O24'
_cell_volume   576.06635688
_cell_formula_units_Z   4
loop_
 _symmetry_equiv_pos_site_id
 _symmetry_equiv_pos_as_xyz
  1  'x, y, z'
loop_
 _atom_site_type_symbol
 _atom_site_label
 _atom_site_symmetry_multiplicity
 _atom_site_fract_x
 _atom_site_fract_y
 _atom_site_fract_z
 _atom_site_occupancy
  Mg  Mg0  1  0.41851700  0.53841200  0.23566400  1
  Mg  Mg1  1  0.91851700  0.96158800  0.76433600  1
  Mg  Mg2  1  0.58148300  0.46158800  0.76433600  1
  Mg  Mg3  1  0.08148300  0.03841200  0.23566400  1
  Ge  Ge4  1  0.37018600  0.15221200  0.08268500  1
  Ge  Ge5  1  0.87018600  0.34778800  0.91731500  1
  Ge  Ge6  1  0.62981400  0.84778800  0.91731500  1
  Ge  Ge7  1  0.12981400  0.65221200  0.08268500  1
  Ge  Ge8  1  0.34079400  0.78753600  0.46226400  1
  Ge  Ge9  1  0.84079400  0.71246400  0.53773600  1
  Ge  Ge10  1  0.65920600  0.21246400  0.53773600  1
  Ge  Ge11  1  0.15920600  0.28753600  0.46226400  1
  W  W12  1  0.66209800  0.01487100  0.29239200  1
  W  W13  1  0.16209800  0.48512900  0.70760800  1
  W  W14  1  0.33790200  0.98512900  0.70760800  1
  W  W15  1  0.83790200  0.51487100  0.29239200  1
  O  O16  1  0.28821400  0.53151500  0.39606600  1
  O  O17  1  0.78821400  0.96848500  0.60393400  1
  O  O18  1  0.71178600  0.46848500  0.60393400  1
  O  O19  1  0.21178600  0.03151500  0.39606600  1
  O  O20  1  0.28826700  0.84274500  0.16019300  1
  O  O21  1  0.78826700  0.65725500  0.83980700  1
  O  O22  1  0.71173300  0.15725500  0.83980700  1
  O  O23  1  0.21173300  0.34274500  0.16019300  1
  O  O24  1  0.96708300  0.33767200  0.42228800  1
  O  O25  1  0.46708300  0.16232800  0.57771200  1
  O  O26  1  0.03291700  0.66232800  0.57771200  1
  O  O27  1  0.53291700  0.83767200  0.42228800  1
  O  O28  1  0.99882800  0.71723900  0.19878600  1
  O  O29  1  0.49882800  0.78276100  0.80121400  1
  O  O30  1  0.00117200  0.28276100  0.80121400  1
  O  O31  1  0.50117200  0.21723900  0.19878600  1
  O  O32  1  0.35751700  0.30393900  0.77231300  1
  O  O33  1  0.85751700  0.19606100  0.22768700  1
  O  O34  1  0.64248300  0.69606100  0.22768700  1
  O  O35  1  0.14248300  0.80393900  0.77231300  1
  O  O36  1  0.33650600  0.70228400  0.60672200  1
  O  O37  1  0.83650600  0.79771600  0.39327800  1
  O  O38  1  0.66349400  0.29771600  0.39327800  1
  O  O39  1  0.16349400  0.20228400  0.60672200  1
