# generated using pymatgen
data_V(Si2O5)2
_symmetry_space_group_name_H-M   'P 1'
_cell_length_a   7.39946500
_cell_length_b   7.39946500
_cell_length_c   15.67515800
_cell_angle_alpha   90.00000000
_cell_angle_beta   90.00000000
_cell_angle_gamma   90.00000000
_symmetry_Int_Tables_number   1
_chemical_formula_structural   V(Si2O5)2
_chemical_formula_sum   'V4 Si16 O40'
_cell_volume   858.24754067
_cell_formula_units_Z   4
loop_
 _symmetry_equiv_pos_site_id
 _symmetry_equiv_pos_as_xyz
  1  'x, y, z'
loop_
 _atom_site_type_symbol
 _atom_site_label
 _atom_site_symmetry_multiplicity
 _atom_site_fract_x
 _atom_site_fract_y
 _atom_site_fract_z
 _atom_site_occupancy
  V  V0  1  0.50000000  0.00000000  0.57541200  1
  V  V1  1  0.00000000  0.50000000  0.92458800  1
  V  V2  1  0.00000000  0.50000000  0.42458800  1
  V  V3  1  0.50000000  0.00000000  0.07541200  1
  Si  Si4  1  0.17294000  0.25500800  0.64996400  1
  Si  Si5  1  0.82706000  0.74499200  0.64996400  1
  Si  Si6  1  0.25500800  0.17294000  0.85003600  1
  Si  Si7  1  0.75500800  0.32706000  0.64996400  1
  Si  Si8  1  0.24499200  0.67294000  0.64996400  1
  Si  Si9  1  0.32706000  0.75500800  0.85003600  1
  Si  Si10  1  0.67294000  0.24499200  0.85003600  1
  Si  Si11  1  0.74499200  0.82706000  0.85003600  1
  Si  Si12  1  0.32706000  0.24499200  0.35003600  1
  Si  Si13  1  0.67294000  0.75500800  0.35003600  1
  Si  Si14  1  0.24499200  0.32706000  0.14996400  1
  Si  Si15  1  0.74499200  0.17294000  0.35003600  1
  Si  Si16  1  0.25500800  0.82706000  0.35003600  1
  Si  Si17  1  0.17294000  0.74499200  0.14996400  1
  Si  Si18  1  0.82706000  0.25500800  0.14996400  1
  Si  Si19  1  0.75500800  0.67294000  0.14996400  1
  O  O20  1  0.27729000  0.10706900  0.59154400  1
  O  O21  1  0.72271000  0.89293100  0.59154400  1
  O  O22  1  0.10706900  0.27729000  0.90845600  1
  O  O23  1  0.60706900  0.22271000  0.59154400  1
  O  O24  1  0.39293100  0.77729000  0.59154400  1
  O  O25  1  0.22271000  0.60706900  0.90845600  1
  O  O26  1  0.77729000  0.39293100  0.90845600  1
  O  O27  1  0.89293100  0.72271000  0.90845600  1
  O  O28  1  0.22271000  0.39293100  0.40845600  1
  O  O29  1  0.77729000  0.60706900  0.40845600  1
  O  O30  1  0.39293100  0.22271000  0.09154400  1
  O  O31  1  0.89293100  0.27729000  0.40845600  1
  O  O32  1  0.10706900  0.72271000  0.40845600  1
  O  O33  1  0.27729000  0.89293100  0.09154400  1
  O  O34  1  0.72271000  0.10706900  0.09154400  1
  O  O35  1  0.25141700  0.04251100  0.37157600  1
  O  O36  1  0.60706900  0.77729000  0.09154400  1
  O  O37  1  0.75141700  0.54251100  0.62842400  1
  O  O38  1  0.45748900  0.24858300  0.87157600  1
  O  O39  1  0.95748900  0.25141700  0.62842400  1
  O  O40  1  0.04251100  0.74858300  0.62842400  1
  O  O41  1  0.25141700  0.95748900  0.87157600  1
  O  O42  1  0.74858300  0.04251100  0.87157600  1
  O  O43  1  0.54251100  0.75141700  0.87157600  1
  O  O44  1  0.70652100  0.70652100  0.25000000  1
  O  O45  1  0.79347900  0.20652100  0.25000000  1
  O  O46  1  0.20652100  0.79347900  0.25000000  1
  O  O47  1  0.29347900  0.29347900  0.25000000  1
  O  O48  1  0.79347900  0.79347900  0.75000000  1
  O  O49  1  0.70652100  0.29347900  0.75000000  1
  O  O50  1  0.29347900  0.70652100  0.75000000  1
  O  O51  1  0.20652100  0.20652100  0.75000000  1
  O  O52  1  0.95748900  0.74858300  0.12842400  1
  O  O53  1  0.75141700  0.45748900  0.12842400  1
  O  O54  1  0.24858300  0.54251100  0.12842400  1
  O  O55  1  0.45748900  0.75141700  0.37157600  1
  O  O56  1  0.54251100  0.24858300  0.37157600  1
  O  O57  1  0.04251100  0.25141700  0.12842400  1
  O  O58  1  0.74858300  0.95748900  0.37157600  1
  O  O59  1  0.24858300  0.45748900  0.62842400  1
