# generated using pymatgen
data_MgFe3(P2O7)2
_symmetry_space_group_name_H-M   'P 1'
_cell_length_a   7.54019600
_cell_length_b   7.33300600
_cell_length_c   9.73665477
_cell_angle_alpha   68.06309156
_cell_angle_beta   90.00000000
_cell_angle_gamma   90.00000000
_symmetry_Int_Tables_number   1
_chemical_formula_structural   MgFe3(P2O7)2
_chemical_formula_sum   'Mg2 Fe6 P8 O28'
_cell_volume   499.38238273
_cell_formula_units_Z   2
loop_
 _symmetry_equiv_pos_site_id
 _symmetry_equiv_pos_as_xyz
  1  'x, y, z'
loop_
 _atom_site_type_symbol
 _atom_site_label
 _atom_site_symmetry_multiplicity
 _atom_site_fract_x
 _atom_site_fract_y
 _atom_site_fract_z
 _atom_site_occupancy
  Mg  Mg0  1  0.00000000  0.50000000  0.00000000  1
  Mg  Mg1  1  0.50000000  0.50000000  0.50000000  1
  Fe  Fe2  1  0.13397000  0.81543500  0.51469300  1
  Fe  Fe3  1  0.63397000  0.18456500  0.98530700  1
  Fe  Fe4  1  0.86603000  0.18456500  0.48530700  1
  Fe  Fe5  1  0.36603000  0.81543500  0.01469300  1
  Fe  Fe6  1  0.00000000  0.00000000  0.00000000  1
  Fe  Fe7  1  0.50000000  0.00000000  0.50000000  1
  P  P8  1  0.91731700  0.42279200  0.70201200  1
  P  P9  1  0.41731700  0.57720800  0.79798800  1
  P  P10  1  0.08268300  0.57720800  0.29798800  1
  P  P11  1  0.58268300  0.42279200  0.20201200  1
  P  P12  1  0.20222000  0.13934500  0.68610400  1
  P  P13  1  0.70222000  0.86065500  0.81389600  1
  P  P14  1  0.79778000  0.86065500  0.31389600  1
  P  P15  1  0.29778000  0.13934500  0.18610400  1
  O  O16  1  0.38002700  0.20036700  0.60604900  1
  O  O17  1  0.88002700  0.79963300  0.89395100  1
  O  O18  1  0.61997300  0.79963300  0.39395100  1
  O  O19  1  0.11997300  0.20036700  0.10604900  1
  O  O20  1  0.39124500  0.68326500  0.62625700  1
  O  O21  1  0.89124500  0.31673500  0.87374300  1
  O  O22  1  0.60875500  0.31673500  0.37374300  1
  O  O23  1  0.10875500  0.68326500  0.12625700  1
  O  O24  1  0.77179700  0.37340400  0.61210900  1
  O  O25  1  0.27179700  0.62659600  0.88789100  1
  O  O26  1  0.22820300  0.62659600  0.38789100  1
  O  O27  1  0.72820300  0.37340400  0.11210900  1
  O  O28  1  0.10444800  0.34258000  0.66412200  1
  O  O29  1  0.60444800  0.65742000  0.83587800  1
  O  O30  1  0.89555200  0.65742000  0.33587800  1
  O  O31  1  0.39555200  0.34258000  0.16412200  1
  O  O32  1  0.54152400  0.63670700  0.16515900  1
  O  O33  1  0.04152400  0.36329300  0.33484100  1
  O  O34  1  0.45847600  0.36329300  0.83484100  1
  O  O35  1  0.95847600  0.63670700  0.66515900  1
  O  O36  1  0.79219600  0.96991400  0.14385400  1
  O  O37  1  0.29219600  0.03008600  0.35614600  1
  O  O38  1  0.20780400  0.03008600  0.85614600  1
  O  O39  1  0.70780400  0.96991400  0.64385400  1
  O  O40  1  0.41409200  0.02914500  0.11428900  1
  O  O41  1  0.91409200  0.97085500  0.38571100  1
  O  O42  1  0.58590800  0.97085500  0.88571100  1
  O  O43  1  0.08590800  0.02914500  0.61428900  1
