# generated using pymatgen
data_MgTi2(PO5)2
_symmetry_space_group_name_H-M   'P 1'
_cell_length_a   10.01781129
_cell_length_b   8.99840145
_cell_length_c   6.72734593
_cell_angle_alpha   77.66118688
_cell_angle_beta   61.34127081
_cell_angle_gamma   40.99754231
_symmetry_Int_Tables_number   1
_chemical_formula_structural   MgTi2(PO5)2
_chemical_formula_sum   'Mg2 Ti4 P4 O20'
_cell_volume   337.31845154
_cell_formula_units_Z   2
loop_
 _symmetry_equiv_pos_site_id
 _symmetry_equiv_pos_as_xyz
  1  'x, y, z'
loop_
 _atom_site_type_symbol
 _atom_site_label
 _atom_site_symmetry_multiplicity
 _atom_site_fract_x
 _atom_site_fract_y
 _atom_site_fract_z
 _atom_site_occupancy
  Mg  Mg0  1  0.50409900  0.99590100  0.99590100  1
  Mg  Mg1  1  0.25409900  0.74590100  0.74590100  1
  Ti  Ti2  1  0.88010400  0.38273600  0.38384800  1
  Ti  Ti3  1  0.35331200  0.38384800  0.38273600  1
  Ti  Ti4  1  0.86726400  0.36989600  0.89668800  1
  Ti  Ti5  1  0.86615200  0.89668800  0.36989600  1
  P  P6  1  0.03412600  0.54871300  0.96282600  1
  P  P7  1  0.70128700  0.21587400  0.79566500  1
  P  P8  1  0.45433500  0.96282600  0.54871300  1
  P  P9  1  0.28717400  0.79566500  0.21587400  1
  O  O10  1  0.58708300  0.72098100  0.44502000  1
  O  O11  1  0.66092900  0.17716200  0.33478900  1
  O  O12  1  0.30406300  0.66763000  0.41538000  1
  O  O13  1  0.80498000  0.00308400  0.66291700  1
  O  O14  1  0.21510800  0.08522100  0.75719800  1
  O  O15  1  0.42943800  0.09642500  0.35037100  1
  O  O16  1  0.07283800  0.58907100  0.42287900  1
  O  O17  1  0.82712100  0.33478900  0.17716200  1
  O  O18  1  0.91521100  0.42287900  0.58907100  1
  O  O19  1  0.16477900  0.03489200  0.30752700  1
  O  O20  1  0.24691600  0.44502000  0.72098100  1
  O  O21  1  0.49280200  0.30752700  0.03489200  1
  O  O22  1  0.94247300  0.75719800  0.08522100  1
  O  O23  1  0.15357500  0.82056200  0.12623300  1
  O  O24  1  0.12376700  0.35037100  0.09642500  1
  O  O25  1  0.89962900  0.12623300  0.82056200  1
  O  O26  1  0.83462000  0.63707300  0.94593700  1
  O  O27  1  0.61292700  0.41538000  0.66763000  1
  O  O28  1  0.52901900  0.66291700  0.00308400  1
  O  O29  1  0.58237000  0.94593700  0.63707300  1
