# generated using pymatgen
data_NiSbP2O9
_symmetry_space_group_name_H-M   'P 1'
_cell_length_a   6.39852100
_cell_length_b   7.88102700
_cell_length_c   14.06983200
_cell_angle_alpha   90.00000000
_cell_angle_beta   90.00000000
_cell_angle_gamma   90.00000000
_symmetry_Int_Tables_number   1
_chemical_formula_structural   NiSbP2O9
_chemical_formula_sum   'Ni4 Sb4 P8 O36'
_cell_volume   709.49824711
_cell_formula_units_Z   4
loop_
 _symmetry_equiv_pos_site_id
 _symmetry_equiv_pos_as_xyz
  1  'x, y, z'
loop_
 _atom_site_type_symbol
 _atom_site_label
 _atom_site_symmetry_multiplicity
 _atom_site_fract_x
 _atom_site_fract_y
 _atom_site_fract_z
 _atom_site_occupancy
  Ni  Ni0  1  0.00000000  0.00000000  0.00000000  1
  Ni  Ni1  1  0.00000000  0.50000000  0.50000000  1
  Ni  Ni2  1  0.50000000  0.50000000  0.50000000  1
  Ni  Ni3  1  0.50000000  0.00000000  0.00000000  1
  Sb  Sb4  1  0.75000000  0.65213600  0.87669700  1
  Sb  Sb5  1  0.25000000  0.34786400  0.12330300  1
  Sb  Sb6  1  0.25000000  0.15213600  0.62330300  1
  Sb  Sb7  1  0.75000000  0.84786400  0.37669700  1
  P  P8  1  0.25000000  0.65503200  0.94042100  1
  P  P9  1  0.75000000  0.34496800  0.05957900  1
  P  P10  1  0.75000000  0.15503200  0.55957900  1
  P  P11  1  0.25000000  0.84496800  0.44042100  1
  P  P12  1  0.75000000  0.60698400  0.68556700  1
  P  P13  1  0.25000000  0.39301600  0.31443300  1
  P  P14  1  0.25000000  0.10698400  0.81443300  1
  P  P15  1  0.75000000  0.89301600  0.18556700  1
  O  O16  1  0.44976100  0.40619500  0.37402500  1
  O  O17  1  0.94976100  0.59380500  0.62597500  1
  O  O18  1  0.55023900  0.90619500  0.12597500  1
  O  O19  1  0.05023900  0.09380500  0.87402500  1
  O  O20  1  0.55023900  0.59380500  0.62597500  1
  O  O21  1  0.05023900  0.40619500  0.37402500  1
  O  O22  1  0.44976100  0.09380500  0.87402500  1
  O  O23  1  0.94976100  0.90619500  0.12597500  1
  O  O24  1  0.25000000  0.66506000  0.48211900  1
  O  O25  1  0.75000000  0.33494000  0.51788100  1
  O  O26  1  0.75000000  0.16506000  0.01788100  1
  O  O27  1  0.25000000  0.83494000  0.98211900  1
  O  O28  1  0.75000000  0.85473000  0.95355100  1
  O  O29  1  0.25000000  0.14527000  0.04644900  1
  O  O30  1  0.25000000  0.35473000  0.54644900  1
  O  O31  1  0.75000000  0.64527000  0.45355100  1
  O  O32  1  0.75000000  0.77516800  0.74763000  1
  O  O33  1  0.25000000  0.22483200  0.25237000  1
  O  O34  1  0.25000000  0.27516800  0.75237000  1
  O  O35  1  0.75000000  0.72483200  0.24763000  1
  O  O36  1  0.06009300  0.86927000  0.37333600  1
  O  O37  1  0.56009300  0.13073000  0.62666400  1
  O  O38  1  0.93990700  0.36927000  0.12666400  1
  O  O39  1  0.43990700  0.63073000  0.87333600  1
  O  O40  1  0.93990700  0.13073000  0.62666400  1
  O  O41  1  0.43990700  0.86927000  0.37333600  1
  O  O42  1  0.06009300  0.63073000  0.87333600  1
  O  O43  1  0.56009300  0.36927000  0.12666400  1
  O  O44  1  0.75000000  0.02584000  0.27210500  1
  O  O45  1  0.25000000  0.97416000  0.72789500  1
  O  O46  1  0.25000000  0.52584000  0.22789500  1
  O  O47  1  0.75000000  0.47416000  0.77210500  1
  O  O48  1  0.75000000  0.01982300  0.48114800  1
  O  O49  1  0.25000000  0.98017700  0.51885200  1
  O  O50  1  0.25000000  0.51982300  0.01885200  1
  O  O51  1  0.75000000  0.48017700  0.98114800  1
