# generated using pymatgen
data_CaSb2(PO5)2
_symmetry_space_group_name_H-M   'P 1'
_cell_length_a   10.35922893
_cell_length_b   9.12022057
_cell_length_c   7.38752958
_cell_angle_alpha   76.94420984
_cell_angle_beta   59.05239916
_cell_angle_gamma   44.00339100
_symmetry_Int_Tables_number   1
_chemical_formula_structural   CaSb2(PO5)2
_chemical_formula_sum   'Ca2 Sb4 P4 O20'
_cell_volume   403.51835208
_cell_formula_units_Z   2
loop_
 _symmetry_equiv_pos_site_id
 _symmetry_equiv_pos_as_xyz
  1  'x, y, z'
loop_
 _atom_site_type_symbol
 _atom_site_label
 _atom_site_symmetry_multiplicity
 _atom_site_fract_x
 _atom_site_fract_y
 _atom_site_fract_z
 _atom_site_occupancy
  Ca  Ca0  1  0.49816300  0.00183700  0.00183700  1
  Ca  Ca1  1  0.24816300  0.75183700  0.75183700  1
  Sb  Sb2  1  0.87334200  0.37930500  0.38270500  1
  Sb  Sb3  1  0.36464700  0.38270500  0.37930500  1
  Sb  Sb4  1  0.87069500  0.37665800  0.88535300  1
  Sb  Sb5  1  0.86729500  0.88535300  0.37665800  1
  P  P6  1  0.04389800  0.55366500  0.95617400  1
  P  P7  1  0.69633500  0.20610200  0.80373700  1
  P  P8  1  0.44626300  0.95617400  0.55366500  1
  P  P9  1  0.29382600  0.80373700  0.20610200  1
  O  O10  1  0.55969700  0.72688700  0.47134400  1
  O  O11  1  0.65678000  0.17539800  0.33517800  1
  O  O12  1  0.30875600  0.67730300  0.38980900  1
  O  O13  1  0.77865600  0.00792800  0.69030300  1
  O  O14  1  0.21996000  0.06378100  0.75500000  1
  O  O15  1  0.42506600  0.08424200  0.37157200  1
  O  O16  1  0.07460200  0.59322000  0.41735500  1
  O  O17  1  0.83264500  0.33517800  0.17539800  1
  O  O18  1  0.91482200  0.41735500  0.59322000  1
  O  O19  1  0.18621900  0.03004000  0.28874100  1
  O  O20  1  0.24207200  0.47134400  0.72688700  1
  O  O21  1  0.49500000  0.28874100  0.03004000  1
  O  O22  1  0.96125900  0.75500000  0.06378100  1
  O  O23  1  0.16575800  0.82493400  0.13088000  1
  O  O24  1  0.11912000  0.37157200  0.08424200  1
  O  O25  1  0.87842800  0.13088000  0.82493400  1
  O  O26  1  0.86019100  0.62586800  0.94124400  1
  O  O27  1  0.62413200  0.38980900  0.67730300  1
  O  O28  1  0.52311300  0.69030300  0.00792800  1
  O  O29  1  0.57269700  0.94124400  0.62586900  1
