# generated using pymatgen
data_ZnSi4SnO10
_symmetry_space_group_name_H-M   'P 1'
_cell_length_a   7.63857100
_cell_length_b   7.63857100
_cell_length_c   15.05240700
_cell_angle_alpha   90.00000000
_cell_angle_beta   90.00000000
_cell_angle_gamma   90.00000000
_symmetry_Int_Tables_number   1
_chemical_formula_structural   ZnSi4SnO10
_chemical_formula_sum   'Zn4 Si16 Sn4 O40'
_cell_volume   878.27433525
_cell_formula_units_Z   4
loop_
 _symmetry_equiv_pos_site_id
 _symmetry_equiv_pos_as_xyz
  1  'x, y, z'
loop_
 _atom_site_type_symbol
 _atom_site_label
 _atom_site_symmetry_multiplicity
 _atom_site_fract_x
 _atom_site_fract_y
 _atom_site_fract_z
 _atom_site_occupancy
  Zn  Zn0  1  0.50000000  0.50000000  0.50000000  1
  Zn  Zn1  1  0.00000000  0.00000000  0.50000000  1
  Zn  Zn2  1  0.00000000  0.00000000  0.00000000  1
  Zn  Zn3  1  0.50000000  0.50000000  0.00000000  1
  Si  Si4  1  0.13533900  0.23801300  0.64852600  1
  Si  Si5  1  0.86466100  0.76198700  0.64852600  1
  Si  Si6  1  0.23801300  0.13533900  0.85147400  1
  Si  Si7  1  0.73801300  0.36466100  0.64852600  1
  Si  Si8  1  0.26198700  0.63533900  0.64852600  1
  Si  Si9  1  0.36466100  0.73801300  0.85147400  1
  Si  Si10  1  0.63533900  0.26198700  0.85147400  1
  Si  Si11  1  0.76198700  0.86466100  0.85147400  1
  Si  Si12  1  0.36466100  0.26198700  0.35147400  1
  Si  Si13  1  0.63533900  0.73801300  0.35147400  1
  Si  Si14  1  0.26198700  0.36466100  0.14852600  1
  Si  Si15  1  0.76198700  0.13533900  0.35147400  1
  Si  Si16  1  0.23801300  0.86466100  0.35147400  1
  Si  Si17  1  0.13533900  0.76198700  0.14852600  1
  Si  Si18  1  0.86466100  0.23801300  0.14852600  1
  Si  Si19  1  0.73801300  0.63533900  0.14852600  1
  Sn  Sn20  1  0.50000000  0.00000000  0.59910700  1
  Sn  Sn21  1  0.00000000  0.50000000  0.90089300  1
  Sn  Sn22  1  0.00000000  0.50000000  0.40089300  1
  Sn  Sn23  1  0.50000000  0.00000000  0.09910700  1
  O  O24  1  0.20045800  0.09420300  0.57601300  1
  O  O25  1  0.79954200  0.90579700  0.57601300  1
  O  O26  1  0.09420300  0.20045800  0.92398700  1
  O  O27  1  0.59420300  0.29954200  0.57601300  1
  O  O28  1  0.40579700  0.70045800  0.57601300  1
  O  O29  1  0.29954200  0.59420300  0.92398700  1
  O  O30  1  0.70045800  0.40579700  0.92398700  1
  O  O31  1  0.90579700  0.79954200  0.92398700  1
  O  O32  1  0.29954200  0.40579700  0.42398700  1
  O  O33  1  0.70045800  0.59420300  0.42398700  1
  O  O34  1  0.40579700  0.29954200  0.07601300  1
  O  O35  1  0.90579700  0.20045800  0.42398700  1
  O  O36  1  0.09420300  0.79954200  0.42398700  1
  O  O37  1  0.20045800  0.90579700  0.07601300  1
  O  O38  1  0.79954200  0.09420300  0.07601300  1
  O  O39  1  0.26668400  0.07432400  0.36496300  1
  O  O40  1  0.59420300  0.70045800  0.07601300  1
  O  O41  1  0.76668400  0.57432400  0.63503700  1
  O  O42  1  0.42567600  0.23331600  0.86496300  1
  O  O43  1  0.92567600  0.26668400  0.63503700  1
  O  O44  1  0.07432400  0.73331600  0.63503700  1
  O  O45  1  0.26668400  0.92567600  0.86496300  1
  O  O46  1  0.73331600  0.07432400  0.86496300  1
  O  O47  1  0.57432400  0.76668400  0.86496300  1
  O  O48  1  0.67399900  0.67399900  0.25000000  1
  O  O49  1  0.82600100  0.17399900  0.25000000  1
  O  O50  1  0.17399900  0.82600100  0.25000000  1
  O  O51  1  0.32600100  0.32600100  0.25000000  1
  O  O52  1  0.82600100  0.82600100  0.75000000  1
  O  O53  1  0.67399900  0.32600100  0.75000000  1
  O  O54  1  0.32600100  0.67399900  0.75000000  1
  O  O55  1  0.17399900  0.17399900  0.75000000  1
  O  O56  1  0.92567600  0.73331600  0.13503700  1
  O  O57  1  0.76668400  0.42567600  0.13503700  1
  O  O58  1  0.23331600  0.57432400  0.13503700  1
  O  O59  1  0.42567600  0.76668400  0.36496300  1
  O  O60  1  0.57432400  0.23331600  0.36496300  1
  O  O61  1  0.07432400  0.26668400  0.13503700  1
  O  O62  1  0.73331600  0.92567600  0.36496300  1
  O  O63  1  0.23331600  0.42567600  0.63503700  1
