# generated using pymatgen
data_VOF
_symmetry_space_group_name_H-M   'P 1'
_cell_length_a   4.67885900
_cell_length_b   5.63778054
_cell_length_c   10.54278021
_cell_angle_alpha   96.53371392
_cell_angle_beta   90.80562972
_cell_angle_gamma   92.00847383
_symmetry_Int_Tables_number   1
_chemical_formula_structural   VOF
_chemical_formula_sum   'V8 O8 F8'
_cell_volume   276.07985280
_cell_formula_units_Z   8
loop_
 _symmetry_equiv_pos_site_id
 _symmetry_equiv_pos_as_xyz
  1  'x, y, z'
loop_
 _atom_site_type_symbol
 _atom_site_label
 _atom_site_symmetry_multiplicity
 _atom_site_fract_x
 _atom_site_fract_y
 _atom_site_fract_z
 _atom_site_occupancy
  V  V0  1  0.48653300  0.74883900  0.73853300  1
  V  V1  1  0.50000000  0.50000000  0.00000000  1
  V  V2  1  0.51346700  0.25116100  0.26146700  1
  V  V3  1  0.50000000  0.00000000  0.50000000  1
  V  V4  1  0.98256500  0.25495200  0.76248700  1
  V  V5  1  0.01743500  0.74504800  0.23751300  1
  V  V6  1  0.00000000  0.50000000  0.50000000  1
  V  V7  1  0.00000000  0.00000000  0.00000000  1
  O  O8  1  0.80540800  0.26521300  0.93066100  1
  O  O9  1  0.68985400  0.52125800  0.17680400  1
  O  O10  1  0.70452600  0.27410000  0.43255200  1
  O  O11  1  0.70118200  0.01755100  0.67291700  1
  O  O12  1  0.29547400  0.72590000  0.56744800  1
  O  O13  1  0.29881800  0.98244900  0.32708300  1
  O  O14  1  0.31014600  0.47874200  0.82319600  1
  O  O15  1  0.19459200  0.73478700  0.06933900  1
  F  F16  1  0.80642200  0.76915300  0.41637300  1
  F  F17  1  0.80141900  0.52800800  0.67549500  1
  F  F18  1  0.79748600  0.02456500  0.17287600  1
  F  F19  1  0.70051700  0.77612000  0.91849300  1
  F  F20  1  0.29948300  0.22388000  0.08150700  1
  F  F21  1  0.19858100  0.47199200  0.32450500  1
  F  F22  1  0.20251400  0.97543500  0.82712400  1
  F  F23  1  0.19357800  0.23084700  0.58362700  1
