# generated using pymatgen
data_Mn(Si2O5)2
_symmetry_space_group_name_H-M   'P 1'
_cell_length_a   7.45135400
_cell_length_b   7.45135400
_cell_length_c   15.61167400
_cell_angle_alpha   90.00000000
_cell_angle_beta   90.00000000
_cell_angle_gamma   90.00000000
_symmetry_Int_Tables_number   1
_chemical_formula_structural   Mn(Si2O5)2
_chemical_formula_sum   'Mn4 Si16 O40'
_cell_volume   866.80192408
_cell_formula_units_Z   4
loop_
 _symmetry_equiv_pos_site_id
 _symmetry_equiv_pos_as_xyz
  1  'x, y, z'
loop_
 _atom_site_type_symbol
 _atom_site_label
 _atom_site_symmetry_multiplicity
 _atom_site_fract_x
 _atom_site_fract_y
 _atom_site_fract_z
 _atom_site_occupancy
  Mn  Mn0  1  0.50000000  0.00000000  0.58375900  1
  Mn  Mn1  1  0.00000000  0.50000000  0.91624100  1
  Mn  Mn2  1  0.00000000  0.50000000  0.41624100  1
  Mn  Mn3  1  0.50000000  0.00000000  0.08375900  1
  Si  Si4  1  0.17342400  0.25650800  0.64939800  1
  Si  Si5  1  0.82657600  0.74349200  0.64939800  1
  Si  Si6  1  0.25650800  0.17342400  0.85060200  1
  Si  Si7  1  0.75650800  0.32657600  0.64939800  1
  Si  Si8  1  0.24349200  0.67342400  0.64939800  1
  Si  Si9  1  0.32657600  0.75650800  0.85060200  1
  Si  Si10  1  0.67342400  0.24349200  0.85060200  1
  Si  Si11  1  0.74349200  0.82657600  0.85060200  1
  Si  Si12  1  0.32657600  0.24349200  0.35060200  1
  Si  Si13  1  0.67342400  0.75650800  0.35060200  1
  Si  Si14  1  0.24349200  0.32657600  0.14939800  1
  Si  Si15  1  0.74349200  0.17342400  0.35060200  1
  Si  Si16  1  0.25650800  0.82657600  0.35060200  1
  Si  Si17  1  0.17342400  0.74349200  0.14939800  1
  Si  Si18  1  0.82657600  0.25650800  0.14939800  1
  Si  Si19  1  0.75650800  0.67342400  0.14939800  1
  O  O20  1  0.27271700  0.10842900  0.58986700  1
  O  O21  1  0.72728300  0.89157100  0.58986700  1
  O  O22  1  0.10842900  0.27271700  0.91013300  1
  O  O23  1  0.60842900  0.22728300  0.58986700  1
  O  O24  1  0.39157100  0.77271700  0.58986700  1
  O  O25  1  0.22728300  0.60842900  0.91013300  1
  O  O26  1  0.77271700  0.39157100  0.91013300  1
  O  O27  1  0.89157100  0.72728300  0.91013300  1
  O  O28  1  0.22728300  0.39157100  0.41013300  1
  O  O29  1  0.77271700  0.60842900  0.41013300  1
  O  O30  1  0.39157100  0.22728300  0.08986700  1
  O  O31  1  0.89157100  0.27271700  0.41013300  1
  O  O32  1  0.10842900  0.72728300  0.41013300  1
  O  O33  1  0.27271700  0.89157100  0.08986700  1
  O  O34  1  0.72728300  0.10842900  0.08986700  1
  O  O35  1  0.25407500  0.04112400  0.37016300  1
  O  O36  1  0.60842900  0.77271700  0.08986700  1
  O  O37  1  0.75407500  0.54112400  0.62983700  1
  O  O38  1  0.45887600  0.24592500  0.87016300  1
  O  O39  1  0.95887600  0.25407500  0.62983700  1
  O  O40  1  0.04112400  0.74592500  0.62983700  1
  O  O41  1  0.25407500  0.95887600  0.87016300  1
  O  O42  1  0.74592500  0.04112400  0.87016300  1
  O  O43  1  0.54112400  0.75407500  0.87016300  1
  O  O44  1  0.70757600  0.70757600  0.25000000  1
  O  O45  1  0.79242400  0.20757600  0.25000000  1
  O  O46  1  0.20757600  0.79242400  0.25000000  1
  O  O47  1  0.29242400  0.29242400  0.25000000  1
  O  O48  1  0.79242400  0.79242400  0.75000000  1
  O  O49  1  0.70757600  0.29242400  0.75000000  1
  O  O50  1  0.29242400  0.70757600  0.75000000  1
  O  O51  1  0.20757600  0.20757600  0.75000000  1
  O  O52  1  0.95887600  0.74592500  0.12983700  1
  O  O53  1  0.75407500  0.45887600  0.12983700  1
  O  O54  1  0.24592500  0.54112400  0.12983700  1
  O  O55  1  0.45887600  0.75407500  0.37016300  1
  O  O56  1  0.54112400  0.24592500  0.37016300  1
  O  O57  1  0.04112400  0.25407500  0.12983700  1
  O  O58  1  0.74592500  0.95887600  0.37016300  1
  O  O59  1  0.24592500  0.45887600  0.62983700  1
