# generated using pymatgen
data_Zn(SnO2)4
_symmetry_space_group_name_H-M   'P 1'
_cell_length_a   6.41936922
_cell_length_b   6.41936922
_cell_length_c   6.41936858
_cell_angle_alpha   62.14615797
_cell_angle_beta   62.14615797
_cell_angle_gamma   62.14615569
_symmetry_Int_Tables_number   1
_chemical_formula_structural   Zn(SnO2)4
_chemical_formula_sum   'Zn1 Sn4 O8'
_cell_volume   196.02159781
_cell_formula_units_Z   1
loop_
 _symmetry_equiv_pos_site_id
 _symmetry_equiv_pos_as_xyz
  1  'x, y, z'
loop_
 _atom_site_type_symbol
 _atom_site_label
 _atom_site_symmetry_multiplicity
 _atom_site_fract_x
 _atom_site_fract_y
 _atom_site_fract_z
 _atom_site_occupancy
  Zn  Zn0  1  0.50000000  0.50000000  0.50000000  1
  Sn  Sn1  1  0.00000000  0.50000000  0.50000000  1
  Sn  Sn2  1  0.50000000  0.00000000  0.50000000  1
  Sn  Sn3  1  0.50000000  0.50000000  0.00000000  1
  Sn  Sn4  1  0.00000000  0.00000000  0.00000000  1
  O  O5  1  0.30252900  0.73870700  0.73870700  1
  O  O6  1  0.26129300  0.26129300  0.69747100  1
  O  O7  1  0.69747100  0.26129300  0.26129300  1
  O  O8  1  0.26129300  0.69747100  0.26129300  1
  O  O9  1  0.26553100  0.26553100  0.26553100  1
  O  O10  1  0.73446900  0.73446900  0.73446900  1
  O  O11  1  0.73870700  0.30252900  0.73870700  1
  O  O12  1  0.73870700  0.73870700  0.30252900  1
