# generated using pymatgen
data_ZnFe(GeO3)2
_symmetry_space_group_name_H-M   'P 1'
_cell_length_a   9.24957400
_cell_length_b   5.50823100
_cell_length_c   9.84443544
_cell_angle_alpha   77.07487567
_cell_angle_beta   90.00000000
_cell_angle_gamma   90.00000000
_symmetry_Int_Tables_number   1
_chemical_formula_structural   ZnFe(GeO3)2
_chemical_formula_sum   'Zn4 Fe4 Ge8 O24'
_cell_volume   488.85410093
_cell_formula_units_Z   4
loop_
 _symmetry_equiv_pos_site_id
 _symmetry_equiv_pos_as_xyz
  1  'x, y, z'
loop_
 _atom_site_type_symbol
 _atom_site_label
 _atom_site_symmetry_multiplicity
 _atom_site_fract_x
 _atom_site_fract_y
 _atom_site_fract_z
 _atom_site_occupancy
  Zn  Zn0  1  0.49530900  0.54853500  0.24738400  1
  Zn  Zn1  1  0.99530900  0.95146500  0.75261600  1
  Zn  Zn2  1  0.50469100  0.45146500  0.75261600  1
  Zn  Zn3  1  0.00469100  0.04853500  0.24738400  1
  Fe  Fe4  1  0.65544200  0.04107300  0.24526800  1
  Fe  Fe5  1  0.15544200  0.45892700  0.75473200  1
  Fe  Fe6  1  0.34455800  0.95892700  0.75473200  1
  Fe  Fe7  1  0.84455800  0.54107300  0.24526800  1
  Ge  Ge8  1  0.33709500  0.18737100  0.05653700  1
  Ge  Ge9  1  0.83709500  0.31262900  0.94346300  1
  Ge  Ge10  1  0.66290500  0.81262900  0.94346300  1
  Ge  Ge11  1  0.16290500  0.68737100  0.05653700  1
  Ge  Ge12  1  0.34173000  0.76452900  0.45514800  1
  Ge  Ge13  1  0.84173000  0.73547100  0.54485200  1
  Ge  Ge14  1  0.65827000  0.23547100  0.54485200  1
  Ge  Ge15  1  0.15827000  0.26452900  0.45514800  1
  O  O16  1  0.28037500  0.51015800  0.38196800  1
  O  O17  1  0.78037500  0.98984200  0.61803200  1
  O  O18  1  0.71962500  0.48984200  0.61803200  1
  O  O19  1  0.21962500  0.01015800  0.38196800  1
  O  O20  1  0.31707400  0.85090600  0.10885000  1
  O  O21  1  0.81707400  0.64909400  0.89115000  1
  O  O22  1  0.68292600  0.14909400  0.89115000  1
  O  O23  1  0.18292600  0.35090600  0.10885000  1
  O  O24  1  0.98841000  0.29958000  0.37517200  1
  O  O25  1  0.48841000  0.20042000  0.62482800  1
  O  O26  1  0.01159000  0.70042000  0.62482800  1
  O  O27  1  0.51159000  0.79958000  0.37517200  1
  O  O28  1  0.01287000  0.77781500  0.14037000  1
  O  O29  1  0.51287000  0.72218500  0.85963000  1
  O  O30  1  0.98713000  0.22218500  0.85963000  1
  O  O31  1  0.48713000  0.27781500  0.14037000  1
  O  O32  1  0.33673500  0.25006800  0.87148400  1
  O  O33  1  0.83673500  0.24993200  0.12851600  1
  O  O34  1  0.66326500  0.74993200  0.12851600  1
  O  O35  1  0.16326500  0.75006800  0.87148400  1
  O  O36  1  0.33842700  0.68004200  0.63801800  1
  O  O37  1  0.83842700  0.81995800  0.36198200  1
  O  O38  1  0.66157300  0.31995800  0.36198200  1
  O  O39  1  0.16157300  0.18004200  0.63801800  1
