# generated using pymatgen
data_Bi2O5
_symmetry_space_group_name_H-M   'P 1'
_cell_length_a   10.50353300
_cell_length_b   5.53642600
_cell_length_c   9.09896787
_cell_angle_alpha   60.80065908
_cell_angle_beta   90.00000000
_cell_angle_gamma   90.00000000
_symmetry_Int_Tables_number   1
_chemical_formula_structural   Bi2O5
_chemical_formula_sum   'Bi8 O20'
_cell_volume   461.88653828
_cell_formula_units_Z   4
loop_
 _symmetry_equiv_pos_site_id
 _symmetry_equiv_pos_as_xyz
  1  'x, y, z'
loop_
 _atom_site_type_symbol
 _atom_site_label
 _atom_site_symmetry_multiplicity
 _atom_site_fract_x
 _atom_site_fract_y
 _atom_site_fract_z
 _atom_site_occupancy
  Bi  Bi0  1  0.40291400  0.21423300  0.03316100  1
  Bi  Bi1  1  0.59708600  0.78576700  0.96683900  1
  Bi  Bi2  1  0.90291400  0.78576700  0.46683900  1
  Bi  Bi3  1  0.09708600  0.21423300  0.53316100  1
  Bi  Bi4  1  0.88964400  0.00172000  0.87332200  1
  Bi  Bi5  1  0.11035600  0.99828000  0.12667800  1
  Bi  Bi6  1  0.61035600  0.00172000  0.37332200  1
  Bi  Bi7  1  0.38964400  0.99828000  0.62667800  1
  O  O8  1  0.93468400  0.93465000  0.64637000  1
  O  O9  1  0.98602600  0.38955100  0.66766600  1
  O  O10  1  0.79424200  0.16505200  0.32148000  1
  O  O11  1  0.42154900  0.86725900  0.44012800  1
  O  O12  1  0.71884900  0.62073300  0.49631400  1
  O  O13  1  0.78115100  0.62073300  0.99631400  1
  O  O14  1  0.51397400  0.38955100  0.16766600  1
  O  O15  1  0.48602600  0.61044900  0.83233400  1
  O  O16  1  0.57845100  0.13274100  0.55987200  1
  O  O17  1  0.43468400  0.06535000  0.85363000  1
  O  O18  1  0.28115100  0.37926700  0.50368600  1
  O  O19  1  0.06531600  0.06535000  0.35363000  1
  O  O20  1  0.56531600  0.93465000  0.14637000  1
  O  O21  1  0.21884900  0.37926700  0.00368600  1
  O  O22  1  0.92154900  0.13274100  0.05987200  1
  O  O23  1  0.07845100  0.86725900  0.94012800  1
  O  O24  1  0.20575800  0.83494800  0.67852000  1
  O  O25  1  0.01397400  0.61044900  0.33233400  1
  O  O26  1  0.29424200  0.83494800  0.17852000  1
  O  O27  1  0.70575800  0.16505200  0.82148000  1
