# generated using pymatgen
data_ZnGe2WO6
_symmetry_space_group_name_H-M   'P 1'
_cell_length_a   8.75956000
_cell_length_b   5.53595900
_cell_length_c   12.57236963
_cell_angle_alpha   77.77118115
_cell_angle_beta   90.00000000
_cell_angle_gamma   90.00000000
_symmetry_Int_Tables_number   1
_chemical_formula_structural   ZnGe2WO6
_chemical_formula_sum   'Zn4 Ge8 W4 O24'
_cell_volume   595.83280166
_cell_formula_units_Z   4
loop_
 _symmetry_equiv_pos_site_id
 _symmetry_equiv_pos_as_xyz
  1  'x, y, z'
loop_
 _atom_site_type_symbol
 _atom_site_label
 _atom_site_symmetry_multiplicity
 _atom_site_fract_x
 _atom_site_fract_y
 _atom_site_fract_z
 _atom_site_occupancy
  Zn  Zn0  1  0.44973500  0.55280800  0.22286500  1
  Zn  Zn1  1  0.94973500  0.94719200  0.77713500  1
  Zn  Zn2  1  0.55026500  0.44719200  0.77713500  1
  Zn  Zn3  1  0.05026500  0.05280800  0.22286500  1
  Ge  Ge4  1  0.36589600  0.14846200  0.08453700  1
  Ge  Ge5  1  0.86589600  0.35153800  0.91546300  1
  Ge  Ge6  1  0.63410400  0.85153800  0.91546300  1
  Ge  Ge7  1  0.13410400  0.64846200  0.08453700  1
  Ge  Ge8  1  0.33964100  0.78565200  0.46136300  1
  Ge  Ge9  1  0.83964100  0.71434800  0.53863700  1
  Ge  Ge10  1  0.66035900  0.21434800  0.53863700  1
  Ge  Ge11  1  0.16035900  0.28565200  0.46136300  1
  W  W12  1  0.65751500  0.01814000  0.29741800  1
  W  W13  1  0.15751500  0.48186000  0.70258200  1
  W  W14  1  0.34248500  0.98186000  0.70258200  1
  W  W15  1  0.84248500  0.51814000  0.29741800  1
  O  O16  1  0.28467700  0.53381800  0.40050000  1
  O  O17  1  0.78467700  0.96618200  0.59950000  1
  O  O18  1  0.71532300  0.46618200  0.59950000  1
  O  O19  1  0.21532300  0.03381800  0.40050000  1
  O  O20  1  0.30676700  0.80376000  0.14911300  1
  O  O21  1  0.80676700  0.69624000  0.85088700  1
  O  O22  1  0.69323300  0.19624000  0.85088700  1
  O  O23  1  0.19323300  0.30376000  0.14911300  1
  O  O24  1  0.97273900  0.33587700  0.42056800  1
  O  O25  1  0.47273900  0.16412300  0.57943200  1
  O  O26  1  0.02726100  0.66412300  0.57943200  1
  O  O27  1  0.52726100  0.83587700  0.42056800  1
  O  O28  1  0.00595400  0.71639300  0.20143000  1
  O  O29  1  0.50595400  0.78360700  0.79857000  1
  O  O30  1  0.99404600  0.28360700  0.79857000  1
  O  O31  1  0.49404600  0.21639300  0.20143000  1
  O  O32  1  0.34487300  0.29093200  0.77330700  1
  O  O33  1  0.84487300  0.20906800  0.22669300  1
  O  O34  1  0.65512700  0.70906800  0.22669300  1
  O  O35  1  0.15512700  0.79093200  0.77330700  1
  O  O36  1  0.33073700  0.70291400  0.60568600  1
  O  O37  1  0.83073700  0.79708600  0.39431400  1
  O  O38  1  0.66926300  0.29708600  0.39431400  1
  O  O39  1  0.16926300  0.20291400  0.60568600  1
