# generated using pymatgen
data_LaVZnFeO6
_symmetry_space_group_name_H-M   'P 1'
_cell_length_a   5.68095800
_cell_length_b   5.39508100
_cell_length_c   9.42639828
_cell_angle_alpha   55.01474940
_cell_angle_beta   90.00000000
_cell_angle_gamma   90.00000000
_symmetry_Int_Tables_number   1
_chemical_formula_structural   LaVZnFeO6
_chemical_formula_sum   'La2 V2 Zn2 Fe2 O12'
_cell_volume   236.70537144
_cell_formula_units_Z   2
loop_
 _symmetry_equiv_pos_site_id
 _symmetry_equiv_pos_as_xyz
  1  'x, y, z'
loop_
 _atom_site_type_symbol
 _atom_site_label
 _atom_site_symmetry_multiplicity
 _atom_site_fract_x
 _atom_site_fract_y
 _atom_site_fract_z
 _atom_site_occupancy
  La  La0  1  0.19685400  0.73771100  0.24795000  1
  La  La1  1  0.80314600  0.73771100  0.74795000  1
  V  V2  1  0.71925700  0.49704500  0.49644200  1
  V  V3  1  0.28074300  0.49704500  0.99644200  1
  Zn  Zn4  1  0.84087000  0.23197900  0.25200700  1
  Zn  Zn5  1  0.15913000  0.23197900  0.75200700  1
  Fe  Fe6  1  0.73164700  0.98755200  0.00290300  1
  Fe  Fe7  1  0.26835300  0.98755200  0.50290300  1
  O  O8  1  0.22841900  0.87251500  0.75266800  1
  O  O9  1  0.05322500  0.25371800  0.94864900  1
  O  O10  1  0.05260800  0.64410000  0.54999400  1
  O  O11  1  0.94739200  0.64410000  0.04999400  1
  O  O12  1  0.94677500  0.25371800  0.44864900  1
  O  O13  1  0.77158100  0.87251500  0.25266800  1
  O  O14  1  0.75506400  0.18103000  0.74666700  1
  O  O15  1  0.54933600  0.74961500  0.54571800  1
  O  O16  1  0.52868700  0.34473600  0.95700000  1
  O  O17  1  0.47131300  0.34473600  0.45700000  1
  O  O18  1  0.45066400  0.74961500  0.04571800  1
  O  O19  1  0.24493600  0.18103000  0.24666700  1
