data_image0
_chemical_formula_structural       F4Fe8O16P4
_chemical_formula_sum              "F4 Fe8 O16 P4"
_cell_length_a       9.19115
_cell_length_b       9.19115
_cell_length_c       7.14363
_cell_angle_alpha    89.6782
_cell_angle_beta     108.172
_cell_angle_gamma    139.638

_space_group_name_H-M_alt    "P 1"
_space_group_IT_number       1

loop_
  _space_group_symop_operation_xyz
  'x, y, z'

loop_
  _atom_site_type_symbol
  _atom_site_label
  _atom_site_symmetry_multiplicity
  _atom_site_fract_x
  _atom_site_fract_y
  _atom_site_fract_z
  _atom_site_occupancy
  F   F1        1.0  0.52300  0.41900  0.63800  1.0000
  F   F2        1.0  0.78100  0.38600  0.86200  1.0000
  F   F3        1.0  0.47700  0.58100  0.36200  1.0000
  F   F4        1.0  0.21900  0.61400  0.13800  1.0000
  Fe  Fe1       1.0  0.59000  0.23900  0.54000  1.0000
  Fe  Fe2       1.0  0.69900  0.55000  0.96000  1.0000
  Fe  Fe3       1.0  0.41000  0.76100  0.46000  1.0000
  Fe  Fe4       1.0  0.30100  0.45000  0.03980  1.0000
  Fe  Fe5       1.0  0.17300  0.17600  0.38300  1.0000
  Fe  Fe6       1.0  0.79300  0.29000  0.11700  1.0000
  Fe  Fe7       1.0  0.82700  0.82400  0.61700  1.0000
  Fe  Fe8       1.0  0.20700  0.71000  0.88300  1.0000
  O   O1        1.0  0.94100  0.58400  0.59600  1.0000
  O   O2        1.0  0.98800  0.84500  0.90400  1.0000
  O   O3        1.0  0.05950  0.41600  0.40400  1.0000
  O   O4        1.0  0.01190  0.15500  0.09580  1.0000
  O   O5        1.0  0.04700  0.90400  0.49200  1.0000
  O   O6        1.0  0.41200  0.05460  0.00756  1.0000
  O   O7        1.0  0.95300  0.09600  0.50800  1.0000
  O   O8        1.0  0.58800  0.94500  0.99200  1.0000
  O   O9        1.0  0.90100  0.58900  0.23000  1.0000
  O   O10       1.0  0.35900  0.17100  0.27000  1.0000
  O   O11       1.0  0.09910  0.41100  0.77000  1.0000
  O   O12       1.0  0.64100  0.82900  0.73000  1.0000
  O   O13       1.0  0.33200  0.90200  0.56100  1.0000
  O   O14       1.0  0.34100  0.27100  0.93900  1.0000
  O   O15       1.0  0.66800  0.09780  0.43900  1.0000
  O   O16       1.0  0.65900  0.72900  0.06080  1.0000
  P   P1        1.0  0.05410  0.74500  0.46600  1.0000
  P   P2        1.0  0.27800  0.08780  0.03370  1.0000
  P   P3        1.0  0.94600  0.25500  0.53400  1.0000
  P   P4        1.0  0.72200  0.91200  0.96600  1.0000
