# generated using pymatgen
data_Mg(MoO2)4
_symmetry_space_group_name_H-M   'P 1'
_cell_length_a   6.18680188
_cell_length_b   6.18680188
_cell_length_c   6.18680179
_cell_angle_alpha   62.69026335
_cell_angle_beta   62.69026335
_cell_angle_gamma   62.69026607
_symmetry_Int_Tables_number   1
_chemical_formula_structural   Mg(MoO2)4
_chemical_formula_sum   'Mg1 Mo4 O8'
_cell_volume   177.47415072
_cell_formula_units_Z   1
loop_
 _symmetry_equiv_pos_site_id
 _symmetry_equiv_pos_as_xyz
  1  'x, y, z'
loop_
 _atom_site_type_symbol
 _atom_site_label
 _atom_site_symmetry_multiplicity
 _atom_site_fract_x
 _atom_site_fract_y
 _atom_site_fract_z
 _atom_site_occupancy
  Mg  Mg0  1  0.50000000  0.50000000  0.50000000  1
  Mo  Mo1  1  0.00000000  0.50000000  0.50000000  1
  Mo  Mo2  1  0.50000000  0.00000000  0.50000000  1
  Mo  Mo3  1  0.50000000  0.50000000  0.00000000  1
  Mo  Mo4  1  0.00000000  0.00000000  0.00000000  1
  O  O5  1  0.27651600  0.75075000  0.75075000  1
  O  O6  1  0.24925000  0.24925000  0.72348400  1
  O  O7  1  0.72348400  0.24925000  0.24925000  1
  O  O8  1  0.24925000  0.72348400  0.24925000  1
  O  O9  1  0.27104000  0.27104000  0.27104000  1
  O  O10  1  0.72896000  0.72896000  0.72896000  1
  O  O11  1  0.75075000  0.27651600  0.75075000  1
  O  O12  1  0.75075000  0.75075000  0.27651600  1
