# generated using pymatgen
data_PrZn(SbO3)2
_symmetry_space_group_name_H-M   'P 1'
_cell_length_a   5.68183000
_cell_length_b   6.37227000
_cell_length_c   8.19735600
_cell_angle_alpha   90.00000000
_cell_angle_beta   90.00000000
_cell_angle_gamma   90.00000000
_symmetry_Int_Tables_number   1
_chemical_formula_structural   PrZn(SbO3)2
_chemical_formula_sum   'Pr2 Zn2 Sb4 O12'
_cell_volume   296.79474073
_cell_formula_units_Z   2
loop_
 _symmetry_equiv_pos_site_id
 _symmetry_equiv_pos_as_xyz
  1  'x, y, z'
loop_
 _atom_site_type_symbol
 _atom_site_label
 _atom_site_symmetry_multiplicity
 _atom_site_fract_x
 _atom_site_fract_y
 _atom_site_fract_z
 _atom_site_occupancy
  Pr  Pr0  1  0.03139900  0.65823500  0.00000000  1
  Pr  Pr1  1  0.53139900  0.34176500  0.50000000  1
  Zn  Zn2  1  0.51831100  0.34449300  0.00000000  1
  Zn  Zn3  1  0.01831100  0.65550700  0.50000000  1
  Sb  Sb4  1  0.01544400  0.20700600  0.75466100  1
  Sb  Sb5  1  0.01544400  0.20700600  0.24533900  1
  Sb  Sb6  1  0.51544400  0.79299400  0.25466100  1
  Sb  Sb7  1  0.51544400  0.79299400  0.74533900  1
  O  O8  1  0.13524000  0.22882700  0.50000000  1
  O  O9  1  0.16301100  0.92982400  0.81390000  1
  O  O10  1  0.16301100  0.92982400  0.18610000  1
  O  O11  1  0.30223000  0.41702800  0.18106100  1
  O  O12  1  0.30223000  0.41702800  0.81893900  1
  O  O13  1  0.35500700  0.70351900  0.50000000  1
  O  O14  1  0.63524000  0.77117300  0.00000000  1
  O  O15  1  0.66301100  0.07017600  0.68610000  1
  O  O16  1  0.66301100  0.07017600  0.31390000  1
  O  O17  1  0.80223000  0.58297200  0.68106100  1
  O  O18  1  0.80223000  0.58297200  0.31893900  1
  O  O19  1  0.85500700  0.29648100  0.00000000  1
