# generated using pymatgen
data_Ba2YSn2F11
_symmetry_space_group_name_H-M   'P 1'
_cell_length_a   8.14305929
_cell_length_b   8.14305929
_cell_length_c   14.61123800
_cell_angle_alpha   90.00000000
_cell_angle_beta   90.00000000
_cell_angle_gamma   119.99999420
_symmetry_Int_Tables_number   1
_chemical_formula_structural   Ba2YSn2F11
_chemical_formula_sum   'Ba6 Y3 Sn6 F33'
_cell_volume   839.05970582
_cell_formula_units_Z   3
loop_
 _symmetry_equiv_pos_site_id
 _symmetry_equiv_pos_as_xyz
  1  'x, y, z'
loop_
 _atom_site_type_symbol
 _atom_site_label
 _atom_site_symmetry_multiplicity
 _atom_site_fract_x
 _atom_site_fract_y
 _atom_site_fract_z
 _atom_site_occupancy
  Ba  Ba0  1  0.84479000  0.86170200  0.67135700  1
  Ba  Ba1  1  0.45274600  0.18411900  0.82850200  1
  Ba  Ba2  1  0.01691200  0.15521000  0.00469000  1
  Ba  Ba3  1  0.81588100  0.26862700  0.49516900  1
  Ba  Ba4  1  0.73137300  0.54725400  0.16183500  1
  Ba  Ba5  1  0.13829800  0.98308800  0.33802300  1
  Y  Y6  1  0.52120200  0.71091600  0.89472200  1
  Y  Y7  1  0.18971400  0.47879800  0.22805600  1
  Y  Y8  1  0.28908400  0.81028600  0.56138900  1
  Sn  Sn9  1  0.94470600  0.64465800  0.89979000  1
  Sn  Sn10  1  0.08118000  0.43515300  0.74074100  1
  Sn  Sn11  1  0.56484700  0.64602700  0.40740800  1
  Sn  Sn12  1  0.69995300  0.05529400  0.23312400  1
  Sn  Sn13  1  0.35397300  0.91882000  0.07407400  1
  Sn  Sn14  1  0.35534200  0.30004700  0.56645700  1
  F  F15  1  0.04223400  0.78740000  0.04233800  1
  F  F16  1  0.78437700  0.32594200  0.92952000  1
  F  F17  1  0.74516600  0.95776600  0.37567100  1
  F  F18  1  0.41915600  0.08819800  0.47226500  1
  F  F19  1  0.89846400  0.93818100  0.19062100  1
  F  F20  1  0.23606900  0.27318600  0.15999200  1
  F  F21  1  0.91180200  0.33095800  0.13893100  1
  F  F22  1  0.72681400  0.96288300  0.82665900  1
  F  F23  1  0.03971700  0.10153600  0.52395400  1
  F  F24  1  0.63696400  0.91657200  0.01545600  1
  F  F25  1  0.66904200  0.58084400  0.80559800  1
  F  F26  1  0.21260000  0.25483400  0.70900500  1
  F  F27  1  0.69306700  0.62213900  0.98189200  1
  F  F28  1  0.36366500  0.16246400  0.99983800  1
  F  F29  1  0.92907200  0.30693300  0.31522500  1
  F  F30  1  0.67405800  0.45843500  0.59618700  1
  F  F31  1  0.33259900  0.83646500  0.92101000  1
  F  F32  1  0.27960700  0.36303600  0.34878900  1
  F  F33  1  0.31919000  0.71412600  0.41527000  1
  F  F34  1  0.37786100  0.07092800  0.64855900  1
  F  F35  1  0.39493600  0.68081000  0.74860400  1
  F  F36  1  0.83753600  0.20120000  0.66650500  1
  F  F37  1  0.79880000  0.63633500  0.33317200  1
  F  F38  1  0.50386700  0.66740100  0.25434400  1
  F  F39  1  0.08342800  0.72039300  0.68212300  1
  F  F40  1  0.06181900  0.96028300  0.85728700  1
  F  F41  1  0.54156500  0.21562300  0.26285300  1
  F  F42  1  0.28346400  0.41244800  0.89465500  1
  F  F43  1  0.12898300  0.71653600  0.22798900  1
  F  F44  1  0.28587400  0.60506400  0.08193700  1
  F  F45  1  0.03711700  0.76393100  0.49332600  1
  F  F46  1  0.16353500  0.49613300  0.58767700  1
  F  F47  1  0.58755200  0.87101700  0.56132200  1
