# generated using pymatgen
data_TbCeO4
_symmetry_space_group_name_H-M   'P 1'
_cell_length_a   10.94847200
_cell_length_b   10.94847200
_cell_length_c   10.94847200
_cell_angle_alpha   90.00000000
_cell_angle_beta   90.00000000
_cell_angle_gamma   90.00000000
_symmetry_Int_Tables_number   1
_chemical_formula_structural   TbCeO4
_chemical_formula_sum   'Tb16 Ce16 O64'
_cell_volume   1312.38281863
_cell_formula_units_Z   16
loop_
 _symmetry_equiv_pos_site_id
 _symmetry_equiv_pos_as_xyz
  1  'x, y, z'
loop_
 _atom_site_type_symbol
 _atom_site_label
 _atom_site_symmetry_multiplicity
 _atom_site_fract_x
 _atom_site_fract_y
 _atom_site_fract_z
 _atom_site_occupancy
  Tb  Tb0  1  0.12804400  0.62571300  0.12406400  1
  Tb  Tb1  1  0.12406400  0.12804400  0.62571300  1
  Tb  Tb2  1  0.12664800  0.87335200  0.37335200  1
  Tb  Tb3  1  0.12571300  0.37593600  0.87195600  1
  Tb  Tb4  1  0.37428700  0.62406400  0.37195600  1
  Tb  Tb5  1  0.37335200  0.12664800  0.87335200  1
  Tb  Tb6  1  0.37593600  0.87195600  0.12571300  1
  Tb  Tb7  1  0.37195600  0.37428700  0.62406400  1
  Tb  Tb8  1  0.62804400  0.87428700  0.87593600  1
  Tb  Tb9  1  0.62406400  0.37195600  0.37428700  1
  Tb  Tb10  1  0.62664800  0.62664800  0.62664800  1
  Tb  Tb11  1  0.62571300  0.12406400  0.12804400  1
  Tb  Tb12  1  0.87428700  0.87593600  0.62804400  1
  Tb  Tb13  1  0.87335200  0.37335200  0.12664800  1
  Tb  Tb14  1  0.87593600  0.62804400  0.87428700  1
  Tb  Tb15  1  0.87195600  0.12571300  0.37593600  1
  Ce  Ce16  1  0.12458900  0.37445000  0.37426700  1
  Ce  Ce17  1  0.12573300  0.87541100  0.87445000  1
  Ce  Ce18  1  0.12555000  0.62573300  0.62458900  1
  Ce  Ce19  1  0.12497600  0.12497600  0.12497600  1
  Ce  Ce20  1  0.37502400  0.87502400  0.62497600  1
  Ce  Ce21  1  0.37445000  0.37426700  0.12458900  1
  Ce  Ce22  1  0.37426700  0.12458900  0.37445000  1
  Ce  Ce23  1  0.37541100  0.62555000  0.87426700  1
  Ce  Ce24  1  0.62458900  0.12555000  0.62573300  1
  Ce  Ce25  1  0.62573300  0.62458900  0.12555000  1
  Ce  Ce26  1  0.62555000  0.87426700  0.37541100  1
  Ce  Ce27  1  0.62497600  0.37502400  0.87502400  1
  Ce  Ce28  1  0.87502400  0.62497600  0.37502400  1
  Ce  Ce29  1  0.87445000  0.12573300  0.87541100  1
  Ce  Ce30  1  0.87426700  0.37541100  0.62555000  1
  Ce  Ce31  1  0.87541100  0.87445000  0.12573300  1
  O  O32  1  0.99729300  0.74862600  0.24925000  1
  O  O33  1  0.00029100  0.99906800  0.24775000  1
  O  O34  1  0.00314200  0.75403000  0.99944900  1
  O  O35  1  0.00081300  0.00081300  0.00081300  1
  O  O36  1  0.99958500  0.00041500  0.50041500  1
  O  O37  1  0.99944900  0.00314200  0.75403000  1
  O  O38  1  0.00093200  0.74775000  0.49970900  1
  O  O39  1  0.99478700  0.25296700  0.75022000  1
  O  O40  1  0.24703300  0.24978000  0.49478700  1
  O  O41  1  0.24978000  0.49478700  0.24703300  1
  O  O42  1  0.24916200  0.25083800  0.74916200  1
  O  O43  1  0.24925000  0.99729300  0.74862600  1
  O  O44  1  0.25225000  0.99970900  0.49906800  1
  O  O45  1  0.25403000  0.50055100  0.99685800  1
  O  O46  1  0.25137400  0.74925000  0.50270700  1
  O  O47  1  0.25124000  0.75124000  0.74876000  1
  O  O48  1  0.24876000  0.24876000  0.24876000  1
  O  O49  1  0.24862600  0.25075000  0.00270700  1
  O  O50  1  0.24597000  0.49944900  0.49685800  1
  O  O51  1  0.24775000  0.00029100  0.99906800  1
  O  O52  1  0.25075000  0.00270700  0.24862600  1
  O  O53  1  0.25083800  0.74916200  0.24916200  1
  O  O54  1  0.25022000  0.50521300  0.74703300  1
  O  O55  1  0.25296700  0.75022000  0.99478700  1
  O  O56  1  0.50521300  0.74703300  0.25022000  1
  O  O57  1  0.49918700  0.99918700  0.50081300  1
  O  O58  1  0.50041500  0.99958500  0.00041500  1
  O  O59  1  0.50055100  0.99685800  0.25403000  1
  O  O60  1  0.49906800  0.25225000  0.99970900  1
  O  O61  1  0.49685800  0.24597000  0.49944900  1
  O  O62  1  0.50270700  0.25137400  0.74925000  1
  O  O63  1  0.49970900  0.00093200  0.74775000  1
  O  O64  1  0.50029100  0.50093200  0.75225000  1
  O  O65  1  0.49729300  0.75137400  0.75075000  1
  O  O66  1  0.50314200  0.74597000  0.00055100  1
  O  O67  1  0.49944900  0.49685800  0.24597000  1
  O  O68  1  0.49958500  0.49958500  0.49958500  1
  O  O69  1  0.50081300  0.49918700  0.99918700  1
  O  O70  1  0.50093200  0.75225000  0.50029100  1
  O  O71  1  0.49478700  0.24703300  0.24978000  1
  O  O72  1  0.74703300  0.25022000  0.50521300  1
  O  O73  1  0.74978000  0.00521300  0.75296700  1
  O  O74  1  0.74916200  0.24916200  0.25083800  1
  O  O75  1  0.74925000  0.50270700  0.25137400  1
  O  O76  1  0.75225000  0.50029100  0.50093200  1
  O  O77  1  0.75403000  0.99944900  0.00314200  1
  O  O78  1  0.75137400  0.75075000  0.49729300  1
  O  O79  1  0.75124000  0.74876000  0.25124000  1
  O  O80  1  0.74876000  0.25124000  0.75124000  1
  O  O81  1  0.74862600  0.24925000  0.99729300  1
  O  O82  1  0.74597000  0.00055100  0.50314200  1
  O  O83  1  0.74775000  0.49970900  0.00093200  1
  O  O84  1  0.75075000  0.49729300  0.75137400  1
  O  O85  1  0.75083800  0.75083800  0.75083800  1
  O  O86  1  0.75022000  0.99478700  0.25296700  1
  O  O87  1  0.75296700  0.74978000  0.00521300  1
  O  O88  1  0.00521300  0.75296700  0.74978000  1
  O  O89  1  0.99906800  0.24775000  0.00029100  1
  O  O90  1  0.00041500  0.50041500  0.99958500  1
  O  O91  1  0.00055100  0.50314200  0.74597000  1
  O  O92  1  0.99918700  0.50081300  0.49918700  1
  O  O93  1  0.99685800  0.25403000  0.50055100  1
  O  O94  1  0.00270700  0.24862600  0.25075000  1
  O  O95  1  0.99970900  0.49906800  0.25225000  1
