# generated using pymatgen
data_PrMg(BiO3)2
_symmetry_space_group_name_H-M   'P 1'
_cell_length_a   5.82903400
_cell_length_b   6.08300700
_cell_length_c   8.55023400
_cell_angle_alpha   90.00000000
_cell_angle_beta   90.00000000
_cell_angle_gamma   90.00000000
_symmetry_Int_Tables_number   1
_chemical_formula_structural   PrMg(BiO3)2
_chemical_formula_sum   'Pr2 Mg2 Bi4 O12'
_cell_volume   303.17466423
_cell_formula_units_Z   2
loop_
 _symmetry_equiv_pos_site_id
 _symmetry_equiv_pos_as_xyz
  1  'x, y, z'
loop_
 _atom_site_type_symbol
 _atom_site_label
 _atom_site_symmetry_multiplicity
 _atom_site_fract_x
 _atom_site_fract_y
 _atom_site_fract_z
 _atom_site_occupancy
  Pr  Pr0  1  0.01138900  0.68509100  0.00000000  1
  Pr  Pr1  1  0.51138900  0.31490900  0.50000000  1
  Mg  Mg2  1  0.50969900  0.24837800  0.00000000  1
  Mg  Mg3  1  0.00969900  0.75162200  0.50000000  1
  Bi  Bi4  1  0.00379300  0.23656100  0.74942600  1
  Bi  Bi5  1  0.00379300  0.23656100  0.25057400  1
  Bi  Bi6  1  0.50379300  0.76343900  0.24942600  1
  Bi  Bi7  1  0.50379300  0.76343900  0.75057400  1
  O  O8  1  0.13746600  0.14521800  0.50000000  1
  O  O9  1  0.16669900  0.92107600  0.81576900  1
  O  O10  1  0.16669900  0.92107600  0.18423100  1
  O  O11  1  0.32819900  0.42554300  0.16882900  1
  O  O12  1  0.32819900  0.42554300  0.83117100  1
  O  O13  1  0.34411000  0.67602800  0.50000000  1
  O  O14  1  0.63746600  0.85478200  0.00000000  1
  O  O15  1  0.66669900  0.07892400  0.68423100  1
  O  O16  1  0.66669900  0.07892400  0.31576900  1
  O  O17  1  0.82819900  0.57445700  0.66882900  1
  O  O18  1  0.82819900  0.57445700  0.33117100  1
  O  O19  1  0.84411000  0.32397200  0.00000000  1
