# generated using pymatgen
data_CaPrV2O6
_symmetry_space_group_name_H-M   'P 1'
_cell_length_a   5.52978900
_cell_length_b   5.63639400
_cell_length_c   7.60079600
_cell_angle_alpha   90.00000000
_cell_angle_beta   90.00000000
_cell_angle_gamma   90.00000000
_symmetry_Int_Tables_number   1
_chemical_formula_structural   CaPrV2O6
_chemical_formula_sum   'Ca2 Pr2 V4 O12'
_cell_volume   236.90213829
_cell_formula_units_Z   2
loop_
 _symmetry_equiv_pos_site_id
 _symmetry_equiv_pos_as_xyz
  1  'x, y, z'
loop_
 _atom_site_type_symbol
 _atom_site_label
 _atom_site_symmetry_multiplicity
 _atom_site_fract_x
 _atom_site_fract_y
 _atom_site_fract_z
 _atom_site_occupancy
  Ca  Ca0  1  0.48716000  0.20592200  0.00000000  1
  Ca  Ca1  1  0.98716000  0.79407800  0.50000000  1
  Pr  Pr2  1  0.01280600  0.70701900  0.00000000  1
  Pr  Pr3  1  0.51280600  0.29298100  0.50000000  1
  V  V4  1  0.00061500  0.24839300  0.75087600  1
  V  V5  1  0.00061500  0.24839300  0.24912400  1
  V  V6  1  0.50061500  0.75160700  0.25087600  1
  V  V7  1  0.50061500  0.75160700  0.74912400  1
  O  O8  1  0.07668600  0.23204000  0.50000000  1
  O  O9  1  0.21423400  0.95898400  0.79222700  1
  O  O10  1  0.21423400  0.95898400  0.20777300  1
  O  O11  1  0.28654300  0.45786200  0.20536500  1
  O  O12  1  0.28654300  0.45786200  0.79463500  1
  O  O13  1  0.42056200  0.73522000  0.50000000  1
  O  O14  1  0.57668600  0.76796000  0.00000000  1
  O  O15  1  0.71423400  0.04101600  0.70777300  1
  O  O16  1  0.71423400  0.04101600  0.29222700  1
  O  O17  1  0.78654300  0.54213800  0.70536500  1
  O  O18  1  0.78654300  0.54213800  0.29463500  1
  O  O19  1  0.92056200  0.26478000  0.00000000  1
