# generated using pymatgen
data_Mn(GeO3)2
_symmetry_space_group_name_H-M   'P 1'
_cell_length_a   8.86951700
_cell_length_b   5.41772900
_cell_length_c   9.98725210
_cell_angle_alpha   75.30070321
_cell_angle_beta   90.00000000
_cell_angle_gamma   90.00000000
_symmetry_Int_Tables_number   1
_chemical_formula_structural   Mn(GeO3)2
_chemical_formula_sum   'Mn4 Ge8 O24'
_cell_volume   464.20666115
_cell_formula_units_Z   4
loop_
 _symmetry_equiv_pos_site_id
 _symmetry_equiv_pos_as_xyz
  1  'x, y, z'
loop_
 _atom_site_type_symbol
 _atom_site_label
 _atom_site_symmetry_multiplicity
 _atom_site_fract_x
 _atom_site_fract_y
 _atom_site_fract_z
 _atom_site_occupancy
  Mn  Mn0  1  0.65957300  0.02567800  0.24045600  1
  Mn  Mn1  1  0.15957300  0.47432200  0.75954400  1
  Mn  Mn2  1  0.34042700  0.97432200  0.75954400  1
  Mn  Mn3  1  0.84042700  0.52567800  0.24045600  1
  Ge  Ge4  1  0.34024000  0.15351000  0.05331400  1
  Ge  Ge5  1  0.84024000  0.34649000  0.94668600  1
  Ge  Ge6  1  0.65976000  0.84649000  0.94668600  1
  Ge  Ge7  1  0.15976000  0.65351000  0.05331400  1
  Ge  Ge8  1  0.34521100  0.87996500  0.47305500  1
  Ge  Ge9  1  0.84521100  0.62003500  0.52694500  1
  Ge  Ge10  1  0.65478900  0.12003500  0.52694500  1
  Ge  Ge11  1  0.15478900  0.37996500  0.47305500  1
  O  O12  1  0.27654700  0.63326000  0.40020500  1
  O  O13  1  0.77654700  0.86674000  0.59979500  1
  O  O14  1  0.72345300  0.36674000  0.59979500  1
  O  O15  1  0.22345300  0.13326000  0.40020500  1
  O  O16  1  0.30038100  0.82732300  0.11282500  1
  O  O17  1  0.80038100  0.67267700  0.88717500  1
  O  O18  1  0.69961900  0.17267700  0.88717500  1
  O  O19  1  0.19961900  0.32732300  0.11282500  1
  O  O20  1  0.96254400  0.39538400  0.40636300  1
  O  O21  1  0.46254400  0.10461600  0.59363700  1
  O  O22  1  0.03745600  0.60461600  0.59363700  1
  O  O23  1  0.53745600  0.89538400  0.40636300  1
  O  O24  1  0.98380800  0.71104700  0.11924900  1
  O  O25  1  0.48380800  0.78895300  0.88075100  1
  O  O26  1  0.01619200  0.28895300  0.88075100  1
  O  O27  1  0.51619200  0.21104700  0.11924900  1
  O  O28  1  0.32772100  0.24360600  0.86426700  1
  O  O29  1  0.82772100  0.25639400  0.13573300  1
  O  O30  1  0.67227900  0.75639400  0.13573300  1
  O  O31  1  0.17227900  0.74360600  0.86426700  1
  O  O32  1  0.31551900  0.71418200  0.65817400  1
  O  O33  1  0.81551900  0.78581800  0.34182600  1
  O  O34  1  0.68448100  0.28581800  0.34182600  1
  O  O35  1  0.18448100  0.21418200  0.65817400  1
