# generated using pymatgen
data_PrMg(SbO3)2
_symmetry_space_group_name_H-M   'P 1'
_cell_length_a   5.69719000
_cell_length_b   6.26363200
_cell_length_c   8.01771700
_cell_angle_alpha   90.00000000
_cell_angle_beta   90.00000000
_cell_angle_gamma   90.00000000
_symmetry_Int_Tables_number   1
_chemical_formula_structural   PrMg(SbO3)2
_chemical_formula_sum   'Pr2 Mg2 Sb4 O12'
_cell_volume   286.11304570
_cell_formula_units_Z   2
loop_
 _symmetry_equiv_pos_site_id
 _symmetry_equiv_pos_as_xyz
  1  'x, y, z'
loop_
 _atom_site_type_symbol
 _atom_site_label
 _atom_site_symmetry_multiplicity
 _atom_site_fract_x
 _atom_site_fract_y
 _atom_site_fract_z
 _atom_site_occupancy
  Pr  Pr0  1  0.01664400  0.67122400  0.00000000  1
  Pr  Pr1  1  0.51664400  0.32877600  0.50000000  1
  Mg  Mg2  1  0.51182100  0.21927900  0.00000000  1
  Mg  Mg3  1  0.01182100  0.78072100  0.50000000  1
  Sb  Sb4  1  0.01674400  0.22171400  0.75421300  1
  Sb  Sb5  1  0.01674400  0.22171400  0.24578700  1
  Sb  Sb6  1  0.51674400  0.77828600  0.25421300  1
  Sb  Sb7  1  0.51674400  0.77828600  0.74578700  1
  O  O8  1  0.14458500  0.14110700  0.50000000  1
  O  O9  1  0.15498600  0.93908900  0.81482500  1
  O  O10  1  0.15498600  0.93908900  0.18517500  1
  O  O11  1  0.31825700  0.38560600  0.18078100  1
  O  O12  1  0.31825700  0.38560600  0.81921900  1
  O  O13  1  0.35820400  0.69593900  0.50000000  1
  O  O14  1  0.64458500  0.85889300  0.00000000  1
  O  O15  1  0.65498600  0.06091100  0.68517500  1
  O  O16  1  0.65498600  0.06091100  0.31482500  1
  O  O17  1  0.81825700  0.61439400  0.68078100  1
  O  O18  1  0.81825700  0.61439400  0.31921900  1
  O  O19  1  0.85820400  0.30406100  0.00000000  1
