# generated using pymatgen
data_Mg(SbO2)2
_symmetry_space_group_name_H-M   'P 1'
_cell_length_a   6.54584015
_cell_length_b   6.54584015
_cell_length_c   6.54584063
_cell_angle_alpha   61.75746570
_cell_angle_beta   61.75746570
_cell_angle_gamma   61.75746820
_symmetry_Int_Tables_number   1
_chemical_formula_structural   Mg(SbO2)2
_chemical_formula_sum   'Mg2 Sb4 O8'
_cell_volume   206.13659840
_cell_formula_units_Z   2
loop_
 _symmetry_equiv_pos_site_id
 _symmetry_equiv_pos_as_xyz
  1  'x, y, z'
loop_
 _atom_site_type_symbol
 _atom_site_label
 _atom_site_symmetry_multiplicity
 _atom_site_fract_x
 _atom_site_fract_y
 _atom_site_fract_z
 _atom_site_occupancy
  Mg  Mg0  1  0.99547100  0.99547100  0.99547100  1
  Mg  Mg1  1  0.37201400  0.37201400  0.37201400  1
  Sb  Sb2  1  0.77494300  0.77494300  0.77494300  1
  Sb  Sb3  1  0.87273600  0.38082400  0.38082400  1
  Sb  Sb4  1  0.38082400  0.38082400  0.87273600  1
  Sb  Sb5  1  0.38082400  0.87273600  0.38082400  1
  O  O6  1  0.59152200  0.14925100  0.59152200  1
  O  O7  1  0.59152200  0.59152200  0.14925100  1
  O  O8  1  0.14925100  0.59152200  0.59152200  1
  O  O9  1  0.64969100  0.64969100  0.64969100  1
  O  O10  1  0.13422300  0.13422300  0.13422300  1
  O  O11  1  0.59759700  0.12969500  0.12969500  1
  O  O12  1  0.12969500  0.12969500  0.59759700  1
  O  O13  1  0.12969500  0.59759700  0.12969500  1
