# generated using pymatgen
data_Zn(BiO2)2
_symmetry_space_group_name_H-M   'P 1'
_cell_length_a   6.73852126
_cell_length_b   6.73852126
_cell_length_c   6.73852140
_cell_angle_alpha   62.12318625
_cell_angle_beta   62.12318625
_cell_angle_gamma   62.12318093
_symmetry_Int_Tables_number   1
_chemical_formula_structural   Zn(BiO2)2
_chemical_formula_sum   'Zn2 Bi4 O8'
_cell_volume   226.62679161
_cell_formula_units_Z   2
loop_
 _symmetry_equiv_pos_site_id
 _symmetry_equiv_pos_as_xyz
  1  'x, y, z'
loop_
 _atom_site_type_symbol
 _atom_site_label
 _atom_site_symmetry_multiplicity
 _atom_site_fract_x
 _atom_site_fract_y
 _atom_site_fract_z
 _atom_site_occupancy
  Zn  Zn0  1  0.99823500  0.99823500  0.99823500  1
  Zn  Zn1  1  0.37619600  0.37619600  0.37619600  1
  Bi  Bi2  1  0.75699700  0.75699700  0.75699700  1
  Bi  Bi3  1  0.88256500  0.37332900  0.37332900  1
  Bi  Bi4  1  0.37332900  0.37332900  0.88256500  1
  Bi  Bi5  1  0.37332900  0.88256500  0.37332900  1
  O  O6  1  0.59982000  0.16166400  0.59982000  1
  O  O7  1  0.59982000  0.59982000  0.16166400  1
  O  O8  1  0.16166400  0.59982000  0.59982000  1
  O  O9  1  0.62197200  0.62197200  0.62197200  1
  O  O10  1  0.12430800  0.12430800  0.12430800  1
  O  O11  1  0.62218300  0.12978900  0.12978900  1
  O  O12  1  0.12978900  0.12978900  0.62218300  1
  O  O13  1  0.12978900  0.62218300  0.12978900  1
