# generated using pymatgen
data_PrZn(AgO3)2
_symmetry_space_group_name_H-M   'P 1'
_cell_length_a   5.41488800
_cell_length_b   5.77007600
_cell_length_c   8.17108100
_cell_angle_alpha   90.00000000
_cell_angle_beta   90.00000000
_cell_angle_gamma   90.00000000
_symmetry_Int_Tables_number   1
_chemical_formula_structural   PrZn(AgO3)2
_chemical_formula_sum   'Pr2 Zn2 Ag4 O12'
_cell_volume   255.29983104
_cell_formula_units_Z   2
loop_
 _symmetry_equiv_pos_site_id
 _symmetry_equiv_pos_as_xyz
  1  'x, y, z'
loop_
 _atom_site_type_symbol
 _atom_site_label
 _atom_site_symmetry_multiplicity
 _atom_site_fract_x
 _atom_site_fract_y
 _atom_site_fract_z
 _atom_site_occupancy
  Pr  Pr0  1  0.02092000  0.67906700  0.00000000  1
  Pr  Pr1  1  0.52092000  0.32093300  0.50000000  1
  Zn  Zn2  1  0.46920800  0.18628500  0.00000000  1
  Zn  Zn3  1  0.96920800  0.81371500  0.50000000  1
  Ag  Ag4  1  0.99958400  0.24336900  0.75247200  1
  Ag  Ag5  1  0.99958400  0.24336900  0.24752800  1
  Ag  Ag6  1  0.49958400  0.75663100  0.25247200  1
  Ag  Ag7  1  0.49958400  0.75663100  0.74752800  1
  O  O8  1  0.11194100  0.17398600  0.50000000  1
  O  O9  1  0.22104200  0.97434800  0.83458800  1
  O  O10  1  0.22104200  0.97434800  0.16541200  1
  O  O11  1  0.31376600  0.43783900  0.17727900  1
  O  O12  1  0.31376600  0.43783900  0.82272100  1
  O  O13  1  0.32659700  0.69890200  0.50000000  1
  O  O14  1  0.61194100  0.82601400  0.00000000  1
  O  O15  1  0.72104200  0.02565200  0.66541200  1
  O  O16  1  0.72104200  0.02565200  0.33458800  1
  O  O17  1  0.81376600  0.56216100  0.67727900  1
  O  O18  1  0.81376600  0.56216100  0.32272100  1
  O  O19  1  0.82659700  0.30109800  0.00000000  1
