# generated using pymatgen
data_V3ZnO7
_symmetry_space_group_name_H-M   'P 1'
_cell_length_a   5.40715400
_cell_length_b   10.18031700
_cell_length_c   10.27496700
_cell_angle_alpha   90.00000000
_cell_angle_beta   90.00000000
_cell_angle_gamma   90.00000000
_symmetry_Int_Tables_number   1
_chemical_formula_structural   V3ZnO7
_chemical_formula_sum   'V12 Zn4 O28'
_cell_volume   565.60140033
_cell_formula_units_Z   4
loop_
 _symmetry_equiv_pos_site_id
 _symmetry_equiv_pos_as_xyz
  1  'x, y, z'
loop_
 _atom_site_type_symbol
 _atom_site_label
 _atom_site_symmetry_multiplicity
 _atom_site_fract_x
 _atom_site_fract_y
 _atom_site_fract_z
 _atom_site_occupancy
  V  V0  1  0.71533600  0.68476200  0.97003400  1
  V  V1  1  0.21533600  0.81523800  0.02996600  1
  V  V2  1  0.28466400  0.31523800  0.47003400  1
  V  V3  1  0.78466400  0.18476200  0.52996600  1
  V  V4  1  0.70711000  0.77759600  0.25000000  1
  V  V5  1  0.20711000  0.72240400  0.75000000  1
  V  V6  1  0.29289000  0.22240400  0.75000000  1
  V  V7  1  0.79289000  0.27759600  0.25000000  1
  V  V8  1  0.21533600  0.81523800  0.47003400  1
  V  V9  1  0.71533600  0.68476200  0.52996600  1
  V  V10  1  0.78466400  0.18476200  0.97003400  1
  V  V11  1  0.28466400  0.31523800  0.02996600  1
  Zn  Zn12  1  0.38081200  0.06249600  0.25000000  1
  Zn  Zn13  1  0.88081200  0.43750400  0.75000000  1
  Zn  Zn14  1  0.61918800  0.93750400  0.75000000  1
  Zn  Zn15  1  0.11918800  0.56249600  0.25000000  1
  O  O16  1  0.04578200  0.29195800  0.87938600  1
  O  O17  1  0.54578200  0.20804200  0.12061400  1
  O  O18  1  0.95421800  0.70804200  0.37938600  1
  O  O19  1  0.45421800  0.79195800  0.62061400  1
  O  O20  1  0.95421800  0.70804200  0.12061400  1
  O  O21  1  0.45421800  0.79195800  0.87938600  1
  O  O22  1  0.04578200  0.29195800  0.62061400  1
  O  O23  1  0.54578200  0.20804200  0.37938600  1
  O  O24  1  0.51858100  0.28216800  0.88565700  1
  O  O25  1  0.01858100  0.21783200  0.11434300  1
  O  O26  1  0.48141900  0.71783200  0.38565700  1
  O  O27  1  0.98141900  0.78216800  0.61434300  1
  O  O28  1  0.48141900  0.71783200  0.11434300  1
  O  O29  1  0.98141900  0.78216800  0.88565700  1
  O  O30  1  0.51858100  0.28216800  0.61434300  1
  O  O31  1  0.01858100  0.21783200  0.38565700  1
  O  O32  1  0.80697800  0.44172800  0.25000000  1
  O  O33  1  0.30697800  0.05827200  0.75000000  1
  O  O34  1  0.19302200  0.55827200  0.75000000  1
  O  O35  1  0.69302200  0.94172800  0.25000000  1
  O  O36  1  0.77491500  0.03511400  0.59787200  1
  O  O37  1  0.27491500  0.46488600  0.40212800  1
  O  O38  1  0.22508500  0.96488600  0.09787200  1
  O  O39  1  0.72508500  0.53511400  0.90212800  1
  O  O40  1  0.22508500  0.96488600  0.40212800  1
  O  O41  1  0.72508500  0.53511400  0.59787200  1
  O  O42  1  0.77491500  0.03511400  0.90212800  1
  O  O43  1  0.27491500  0.46488600  0.09787200  1
