# generated using pymatgen
data_CaMn3(P2O7)2
_symmetry_space_group_name_H-M   'P 1'
_cell_length_a   7.88941200
_cell_length_b   7.67908700
_cell_length_c   9.70142181
_cell_angle_alpha   68.34316767
_cell_angle_beta   90.00000000
_cell_angle_gamma   90.00000000
_symmetry_Int_Tables_number   1
_chemical_formula_structural   CaMn3(P2O7)2
_chemical_formula_sum   'Ca2 Mn6 P8 O28'
_cell_volume   546.25744001
_cell_formula_units_Z   2
loop_
 _symmetry_equiv_pos_site_id
 _symmetry_equiv_pos_as_xyz
  1  'x, y, z'
loop_
 _atom_site_type_symbol
 _atom_site_label
 _atom_site_symmetry_multiplicity
 _atom_site_fract_x
 _atom_site_fract_y
 _atom_site_fract_z
 _atom_site_occupancy
  Ca  Ca0  1  0.00000000  0.50000000  0.00000000  1
  Ca  Ca1  1  0.50000000  0.50000000  0.50000000  1
  Mn  Mn2  1  0.12277100  0.80768800  0.52975500  1
  Mn  Mn3  1  0.62277100  0.19231200  0.97024500  1
  Mn  Mn4  1  0.87722900  0.19231200  0.47024500  1
  Mn  Mn5  1  0.37722900  0.80768800  0.02975500  1
  Mn  Mn6  1  0.00000000  0.00000000  0.00000000  1
  Mn  Mn7  1  0.50000000  0.00000000  0.50000000  1
  P  P8  1  0.93468400  0.39894000  0.70646100  1
  P  P9  1  0.43468400  0.60106000  0.79353900  1
  P  P10  1  0.06531600  0.60106000  0.29353900  1
  P  P11  1  0.56531600  0.39894000  0.20646100  1
  P  P12  1  0.20317800  0.12574600  0.68992200  1
  P  P13  1  0.70317800  0.87425400  0.81007800  1
  P  P14  1  0.79682200  0.87425400  0.31007800  1
  P  P15  1  0.29682200  0.12574600  0.18992200  1
  O  O16  1  0.37167700  0.18159600  0.60779200  1
  O  O17  1  0.87167700  0.81840400  0.89220800  1
  O  O18  1  0.62832300  0.81840400  0.39220800  1
  O  O19  1  0.12832300  0.18159600  0.10779200  1
  O  O20  1  0.38457700  0.72325900  0.63062900  1
  O  O21  1  0.88457700  0.27674100  0.86937100  1
  O  O22  1  0.61542300  0.27674100  0.36937100  1
  O  O23  1  0.11542300  0.72325900  0.13062900  1
  O  O24  1  0.80765800  0.38045800  0.59384200  1
  O  O25  1  0.30765800  0.61954200  0.90615800  1
  O  O26  1  0.19234200  0.61954200  0.40615800  1
  O  O27  1  0.69234200  0.38045800  0.09384200  1
  O  O28  1  0.11612000  0.32262000  0.67510300  1
  O  O29  1  0.61612000  0.67738000  0.82489700  1
  O  O30  1  0.88388000  0.67738000  0.32489700  1
  O  O31  1  0.38388000  0.32262000  0.17510300  1
  O  O32  1  0.52252200  0.59532600  0.20036700  1
  O  O33  1  0.02252200  0.40467400  0.29963300  1
  O  O34  1  0.47747800  0.40467400  0.79963300  1
  O  O35  1  0.97747800  0.59532600  0.70036700  1
  O  O36  1  0.78682600  0.98631800  0.14287300  1
  O  O37  1  0.28682600  0.01368200  0.35712700  1
  O  O38  1  0.21317400  0.01368200  0.85712700  1
  O  O39  1  0.71317400  0.98631800  0.64287300  1
  O  O40  1  0.41660400  0.03408500  0.11149400  1
  O  O41  1  0.91660400  0.96591500  0.38850600  1
  O  O42  1  0.58339600  0.96591500  0.88850600  1
  O  O43  1  0.08339600  0.03408500  0.61149400  1
