# generated using pymatgen
data_ZnSn2(PO4)2
_symmetry_space_group_name_H-M   'P 1'
_cell_length_a   5.23296507
_cell_length_b   9.62658733
_cell_length_c   16.51770970
_cell_angle_alpha   87.07365145
_cell_angle_beta   80.85741862
_cell_angle_gamma   74.23665186
_symmetry_Int_Tables_number   1
_chemical_formula_structural   ZnSn2(PO4)2
_chemical_formula_sum   'Zn4 Sn8 P8 O32'
_cell_volume   790.59565826
_cell_formula_units_Z   4
loop_
 _symmetry_equiv_pos_site_id
 _symmetry_equiv_pos_as_xyz
  1  'x, y, z'
loop_
 _atom_site_type_symbol
 _atom_site_label
 _atom_site_symmetry_multiplicity
 _atom_site_fract_x
 _atom_site_fract_y
 _atom_site_fract_z
 _atom_site_occupancy
  Zn  Zn0  1  0.38142700  0.84847400  0.83977100  1
  Zn  Zn1  1  0.07244800  0.64896900  0.66068300  1
  Zn  Zn2  1  0.92742000  0.35245500  0.33935300  1
  Zn  Zn3  1  0.61787300  0.14859300  0.16096300  1
  Sn  Sn4  1  0.18843600  0.19811300  0.98950500  1
  Sn  Sn5  1  0.37779300  0.29899500  0.51056000  1
  Sn  Sn6  1  0.81270200  0.79757700  0.01043200  1
  Sn  Sn7  1  0.50005400  0.49864700  0.00294100  1
  Sn  Sn8  1  0.62410100  0.69863300  0.48969800  1
  Sn  Sn9  1  0.65648600  0.75249700  0.25136800  1
  Sn  Sn10  1  0.34111900  0.25102700  0.75010300  1
  Sn  Sn11  1  0.99909000  0.99803500  0.50144800  1
  P  P12  1  0.08887100  0.58498000  0.86153200  1
  P  P13  1  0.69280300  0.44346600  0.62346800  1
  P  P14  1  0.90901000  0.41437200  0.13837100  1
  P  P15  1  0.23913500  0.94386100  0.12422100  1
  P  P16  1  0.46261300  0.08797900  0.36164700  1
  P  P17  1  0.54133400  0.91284400  0.63843700  1
  P  P18  1  0.30705200  0.55732600  0.37591600  1
  P  P19  1  0.75845100  0.05523500  0.87607500  1
  O  O20  1  0.73147000  0.32096600  0.11045600  1
  O  O21  1  0.64452700  0.91761300  0.89661000  1
  O  O22  1  0.84097200  0.82118600  0.60897100  1
  O  O23  1  0.73862400  0.33189500  0.55336400  1
  O  O24  1  0.16739900  0.38601600  0.06916700  1
  O  O25  1  0.60583300  0.38330800  0.70784700  1
  O  O26  1  0.62278800  0.16766000  0.94597500  1
  O  O27  1  0.93530400  0.98816100  0.12151800  1
  O  O28  1  0.26286300  0.66989700  0.44546900  1
  O  O29  1  0.46030600  0.58113700  0.60370200  1
  O  O30  1  0.75456600  0.57509600  0.13132400  1
  O  O31  1  0.58208200  0.13966100  0.27924700  1
  O  O32  1  0.35019800  0.08287200  0.10527100  1
  O  O33  1  0.95321700  0.48977700  0.62022900  1
  O  O34  1  0.26526700  0.67747100  0.89076900  1
  O  O35  1  0.23968200  0.42341900  0.86727500  1
  O  O36  1  0.00354000  0.63920700  0.77907200  1
  O  O37  1  0.37601300  0.83359400  0.05356600  1
  O  O38  1  0.53942200  0.07386100  0.63168800  1
  O  O39  1  0.42903700  0.85829500  0.72083500  1
  O  O40  1  0.04360400  0.51423700  0.37846100  1
  O  O41  1  0.37742600  0.88445300  0.57022900  1
  O  O42  1  0.06255600  0.01007700  0.87817200  1
  O  O43  1  0.30316400  0.88257400  0.20826000  1
  O  O44  1  0.53668700  0.41873200  0.39614800  1
  O  O45  1  0.16606200  0.18256600  0.39009000  1
  O  O46  1  0.99889300  0.36271600  0.22049100  1
  O  O47  1  0.62783500  0.11493600  0.42993600  1
  O  O48  1  0.82788700  0.61316100  0.92966500  1
  O  O49  1  0.69273800  0.11514600  0.79192900  1
  O  O50  1  0.39857400  0.61583200  0.29148500  1
  O  O51  1  0.46183400  0.92709400  0.36805700  1
