# generated using pymatgen
data_CaV3(P2O7)2
_symmetry_space_group_name_H-M   'P 1'
_cell_length_a   7.86299200
_cell_length_b   7.60853500
_cell_length_c   9.61836881
_cell_angle_alpha   68.20352735
_cell_angle_beta   90.00000000
_cell_angle_gamma   90.00000000
_symmetry_Int_Tables_number   1
_chemical_formula_structural   CaV3(P2O7)2
_chemical_formula_sum   'Ca2 V6 P8 O28'
_cell_volume   534.28905034
_cell_formula_units_Z   2
loop_
 _symmetry_equiv_pos_site_id
 _symmetry_equiv_pos_as_xyz
  1  'x, y, z'
loop_
 _atom_site_type_symbol
 _atom_site_label
 _atom_site_symmetry_multiplicity
 _atom_site_fract_x
 _atom_site_fract_y
 _atom_site_fract_z
 _atom_site_occupancy
  Ca  Ca0  1  0.00000000  0.50000000  0.00000000  1
  Ca  Ca1  1  0.50000000  0.50000000  0.50000000  1
  V  V2  1  0.12900600  0.81173900  0.52551200  1
  V  V3  1  0.62900600  0.18826100  0.97448800  1
  V  V4  1  0.87099400  0.18826100  0.47448800  1
  V  V5  1  0.37099400  0.81173900  0.02551200  1
  V  V6  1  0.00000000  0.00000000  0.00000000  1
  V  V7  1  0.50000000  0.00000000  0.50000000  1
  P  P8  1  0.93591900  0.40015400  0.70577900  1
  P  P9  1  0.43591900  0.59984600  0.79422100  1
  P  P10  1  0.06408100  0.59984600  0.29422100  1
  P  P11  1  0.56408100  0.40015400  0.20577900  1
  P  P12  1  0.20324100  0.12415200  0.68889100  1
  P  P13  1  0.70324100  0.87584800  0.81110900  1
  P  P14  1  0.79675900  0.87584800  0.31110900  1
  P  P15  1  0.29675900  0.12415200  0.18889100  1
  O  O16  1  0.37239900  0.17809500  0.60608200  1
  O  O17  1  0.87239900  0.82190500  0.89391800  1
  O  O18  1  0.62760100  0.82190500  0.39391800  1
  O  O19  1  0.12760100  0.17809500  0.10608200  1
  O  O20  1  0.38417000  0.72467300  0.62981700  1
  O  O21  1  0.88417000  0.27532700  0.87018300  1
  O  O22  1  0.61583000  0.27532700  0.37018300  1
  O  O23  1  0.11583000  0.72467300  0.12981700  1
  O  O24  1  0.80924900  0.38078900  0.59209800  1
  O  O25  1  0.30924900  0.61921100  0.90790200  1
  O  O26  1  0.19075100  0.61921100  0.40790200  1
  O  O27  1  0.69075100  0.38078900  0.09209800  1
  O  O28  1  0.11832600  0.32267800  0.67651100  1
  O  O29  1  0.61832600  0.67732200  0.82348900  1
  O  O30  1  0.88167400  0.67732200  0.32348900  1
  O  O31  1  0.38167400  0.32267800  0.17651100  1
  O  O32  1  0.52217100  0.59759600  0.20076300  1
  O  O33  1  0.02217100  0.40240400  0.29923700  1
  O  O34  1  0.47782900  0.40240400  0.79923700  1
  O  O35  1  0.97782900  0.59759600  0.70076300  1
  O  O36  1  0.78619900  0.98887400  0.14231800  1
  O  O37  1  0.28619900  0.01112600  0.35768200  1
  O  O38  1  0.21380100  0.01112600  0.85768200  1
  O  O39  1  0.71380100  0.98887400  0.64231800  1
  O  O40  1  0.41942100  0.03358000  0.11100900  1
  O  O41  1  0.91942100  0.96642000  0.38899100  1
  O  O42  1  0.58057900  0.96642000  0.88899100  1
  O  O43  1  0.08057900  0.03358000  0.61100900  1
