# generated using pymatgen
data_MgBiWO5
_symmetry_space_group_name_H-M   'P 1'
_cell_length_a   11.88723200
_cell_length_b   5.43302700
_cell_length_c   8.46890938
_cell_angle_alpha   66.29862790
_cell_angle_beta   90.00000000
_cell_angle_gamma   90.00000000
_symmetry_Int_Tables_number   1
_chemical_formula_structural   MgBiWO5
_chemical_formula_sum   'Mg4 Bi4 W4 O20'
_cell_volume   500.81922848
_cell_formula_units_Z   4
loop_
 _symmetry_equiv_pos_site_id
 _symmetry_equiv_pos_as_xyz
  1  'x, y, z'
loop_
 _atom_site_type_symbol
 _atom_site_label
 _atom_site_symmetry_multiplicity
 _atom_site_fract_x
 _atom_site_fract_y
 _atom_site_fract_z
 _atom_site_occupancy
  Mg  Mg0  1  0.07979100  0.56485300  0.82670100  1
  Mg  Mg1  1  0.92020900  0.43514700  0.17329900  1
  Mg  Mg2  1  0.57979100  0.43514700  0.67329900  1
  Mg  Mg3  1  0.42020900  0.56485300  0.32670100  1
  Bi  Bi4  1  0.89700400  0.05531900  0.84567200  1
  Bi  Bi5  1  0.10299600  0.94468100  0.15432800  1
  Bi  Bi6  1  0.60299600  0.05531900  0.34567200  1
  Bi  Bi7  1  0.39700400  0.94468100  0.65432800  1
  W  W8  1  0.36192500  0.21078600  0.02365600  1
  W  W9  1  0.63807500  0.78921400  0.97634400  1
  W  W10  1  0.86192500  0.78921400  0.47634400  1
  W  W11  1  0.13807500  0.21078600  0.52365600  1
  O  O12  1  0.93437100  0.77657200  0.67557800  1
  O  O13  1  0.07213900  0.34680800  0.66810300  1
  O  O14  1  0.81317500  0.14414500  0.33828700  1
  O  O15  1  0.47112400  0.75761400  0.48653400  1
  O  O16  1  0.70418800  0.69644600  0.52195800  1
  O  O17  1  0.79581200  0.69644600  0.02195800  1
  O  O18  1  0.42786100  0.34680800  0.16810300  1
  O  O19  1  0.57213900  0.65319200  0.83189700  1
  O  O20  1  0.52887600  0.24238600  0.51346600  1
  O  O21  1  0.43437100  0.22342800  0.82442200  1
  O  O22  1  0.29581200  0.30355400  0.47804200  1
  O  O23  1  0.06562900  0.22342800  0.32442200  1
  O  O24  1  0.56562900  0.77657200  0.17557800  1
  O  O25  1  0.20418800  0.30355400  0.97804200  1
  O  O26  1  0.97112400  0.24238600  0.01346600  1
  O  O27  1  0.02887600  0.75761400  0.98653400  1
  O  O28  1  0.18682500  0.85585500  0.66171300  1
  O  O29  1  0.92786100  0.65319200  0.33189700  1
  O  O30  1  0.31317500  0.85585500  0.16171300  1
  O  O31  1  0.68682500  0.14414500  0.83828700  1
