# generated using pymatgen
data_CaMo2(PO5)2
_symmetry_space_group_name_H-M   'P 1'
_cell_length_a   10.12638968
_cell_length_b   8.91505181
_cell_length_c   7.19067712
_cell_angle_alpha   77.09211202
_cell_angle_beta   59.10741409
_cell_angle_gamma   43.80047389
_symmetry_Int_Tables_number   1
_chemical_formula_structural   CaMo2(PO5)2
_chemical_formula_sum   'Ca2 Mo4 P4 O20'
_cell_volume   373.54255662
_cell_formula_units_Z   2
loop_
 _symmetry_equiv_pos_site_id
 _symmetry_equiv_pos_as_xyz
  1  'x, y, z'
loop_
 _atom_site_type_symbol
 _atom_site_label
 _atom_site_symmetry_multiplicity
 _atom_site_fract_x
 _atom_site_fract_y
 _atom_site_fract_z
 _atom_site_occupancy
  Ca  Ca0  1  0.25000000  0.25000000  0.25000000  1
  Ca  Ca1  1  0.00000000  0.00000000  0.00000000  1
  Mo  Mo2  1  0.62500000  0.62500000  0.12500000  1
  Mo  Mo3  1  0.62500000  0.12500000  0.62500000  1
  Mo  Mo4  1  0.62500000  0.62500000  0.62500000  1
  Mo  Mo5  1  0.12500000  0.62500000  0.62500000  1
  P  P6  1  0.79485500  0.79485500  0.20514500  1
  P  P7  1  0.45514500  0.45514500  0.04485500  1
  P  P8  1  0.20514500  0.20514500  0.79485500  1
  P  P9  1  0.04485500  0.04485500  0.45514500  1
  O  O10  1  0.97283600  0.32155000  0.99803100  1
  O  O11  1  0.41585400  0.41585400  0.58414600  1
  O  O12  1  0.91203600  0.06487600  0.38334800  1
  O  O13  1  0.25196900  0.54241700  0.27716400  1
  O  O14  1  0.32155000  0.97283600  0.70758300  1
  O  O15  1  0.33796400  0.18512400  0.86665200  1
  O  O16  1  0.83414600  0.83414600  0.66585400  1
  O  O17  1  0.58414600  0.58414600  0.41585400  1
  O  O18  1  0.66585400  0.66585400  0.83414600  1
  O  O19  1  0.27716400  0.92845000  0.25196900  1
  O  O20  1  0.70758300  0.99803100  0.32155000  1
  O  O21  1  0.54241700  0.25196900  0.92845000  1
  O  O22  1  0.99803100  0.70758300  0.97283600  1
  O  O23  1  0.06487600  0.91203600  0.63974100  1
  O  O24  1  0.61025900  0.86665200  0.18512400  1
  O  O25  1  0.38334800  0.63974100  0.91203600  1
  O  O26  1  0.86665200  0.61025900  0.33796400  1
  O  O27  1  0.63974100  0.38334800  0.06487600  1
  O  O28  1  0.92845000  0.27716400  0.54241700  1
  O  O29  1  0.18512400  0.33796400  0.61025900  1
