# generated using pymatgen
data_ZnNiBiO5
_symmetry_space_group_name_H-M   'P 1'
_cell_length_a   10.45852200
_cell_length_b   5.36202000
_cell_length_c   8.36845675
_cell_angle_alpha   69.71966505
_cell_angle_beta   90.00000000
_cell_angle_gamma   90.00000000
_symmetry_Int_Tables_number   1
_chemical_formula_structural   ZnNiBiO5
_chemical_formula_sum   'Zn4 Ni4 Bi4 O20'
_cell_volume   440.20061116
_cell_formula_units_Z   4
loop_
 _symmetry_equiv_pos_site_id
 _symmetry_equiv_pos_as_xyz
  1  'x, y, z'
loop_
 _atom_site_type_symbol
 _atom_site_label
 _atom_site_symmetry_multiplicity
 _atom_site_fract_x
 _atom_site_fract_y
 _atom_site_fract_z
 _atom_site_occupancy
  Zn  Zn0  1  0.09128400  0.53029600  0.82715500  1
  Zn  Zn1  1  0.90871600  0.46970400  0.17284500  1
  Zn  Zn2  1  0.59128400  0.46970400  0.67284500  1
  Zn  Zn3  1  0.40871600  0.53029600  0.32715500  1
  Ni  Ni4  1  0.38523700  0.12849300  0.05688800  1
  Ni  Ni5  1  0.61476300  0.87150700  0.94311200  1
  Ni  Ni6  1  0.88523600  0.87150700  0.44311200  1
  Ni  Ni7  1  0.11476300  0.12849300  0.55688800  1
  Bi  Bi8  1  0.89597200  0.02340500  0.84269700  1
  Bi  Bi9  1  0.10402800  0.97659500  0.15730300  1
  Bi  Bi10  1  0.60402800  0.02340500  0.34269700  1
  Bi  Bi11  1  0.39597200  0.97659500  0.65730300  1
  O  O12  1  0.95572600  0.84627100  0.65768900  1
  O  O13  1  0.03124000  0.30625900  0.68155800  1
  O  O14  1  0.79287800  0.17938900  0.31045000  1
  O  O15  1  0.45574200  0.75324000  0.49492000  1
  O  O16  1  0.71968000  0.70705700  0.50663800  1
  O  O17  1  0.78032000  0.70705700  0.00663800  1
  O  O18  1  0.46876000  0.30625900  0.18155800  1
  O  O19  1  0.53124000  0.69374100  0.81844200  1
  O  O20  1  0.54425800  0.24676000  0.50508000  1
  O  O21  1  0.45572600  0.15372900  0.84231100  1
  O  O22  1  0.28032000  0.29294300  0.49336200  1
  O  O23  1  0.04427400  0.15372900  0.34231100  1
  O  O24  1  0.54427400  0.84627100  0.15768900  1
  O  O25  1  0.21968000  0.29294300  0.99336200  1
  O  O26  1  0.95574200  0.24676000  0.00508000  1
  O  O27  1  0.04425800  0.75324000  0.99492000  1
  O  O28  1  0.20712200  0.82061100  0.68955000  1
  O  O29  1  0.96876000  0.69374100  0.31844200  1
  O  O30  1  0.29287800  0.82061100  0.18955000  1
  O  O31  1  0.70712200  0.17938900  0.81045000  1
