# generated using pymatgen
data_Ba2YCu2F11
_symmetry_space_group_name_H-M   'P 1'
_cell_length_a   7.83658862
_cell_length_b   7.83658862
_cell_length_c   14.04772300
_cell_angle_alpha   90.00000000
_cell_angle_beta   90.00000000
_cell_angle_gamma   120.00000521
_symmetry_Int_Tables_number   1
_chemical_formula_structural   Ba2YCu2F11
_chemical_formula_sum   'Ba6 Y3 Cu6 F33'
_cell_volume   747.12048094
_cell_formula_units_Z   3
loop_
 _symmetry_equiv_pos_site_id
 _symmetry_equiv_pos_as_xyz
  1  'x, y, z'
loop_
 _atom_site_type_symbol
 _atom_site_label
 _atom_site_symmetry_multiplicity
 _atom_site_fract_x
 _atom_site_fract_y
 _atom_site_fract_z
 _atom_site_occupancy
  Ba  Ba0  1  0.89365500  0.86827200  0.66883200  1
  Ba  Ba1  1  0.51949000  0.18578400  0.81050300  1
  Ba  Ba2  1  0.97461800  0.10634500  0.00216500  1
  Ba  Ba3  1  0.81421600  0.33370600  0.47717000  1
  Ba  Ba4  1  0.66629400  0.48051000  0.14383700  1
  Ba  Ba5  1  0.13172800  0.02538200  0.33549900  1
  Y  Y6  1  0.47943900  0.66640900  0.88351800  1
  Y  Y7  1  0.18697000  0.52056100  0.21685100  1
  Y  Y8  1  0.33359100  0.81303000  0.55018400  1
  Cu  Cu9  1  0.97642500  0.66171700  0.89030900  1
  Cu  Cu10  1  0.10892200  0.42003900  0.71898600  1
  Cu  Cu11  1  0.57996100  0.68888300  0.38565200  1
  Cu  Cu12  1  0.68529200  0.02357500  0.22364200  1
  Cu  Cu13  1  0.31111700  0.89107800  0.05231900  1
  Cu  Cu14  1  0.33828300  0.31470800  0.55697600  1
  F  F15  1  0.02968200  0.76821400  0.02214400  1
  F  F16  1  0.84497300  0.39327800  0.93069300  1
  F  F17  1  0.73853200  0.97031800  0.35547800  1
  F  F18  1  0.42563500  0.08972700  0.47395200  1
  F  F19  1  0.86729600  0.94614800  0.18040300  1
  F  F20  1  0.25789400  0.28692700  0.18318900  1
  F  F21  1  0.91027300  0.33590800  0.14061800  1
  F  F22  1  0.71307300  0.97096600  0.84985600  1
  F  F23  1  0.07885200  0.13270400  0.51373600  1
  F  F24  1  0.57810000  0.99914700  0.09419300  1
  F  F25  1  0.66409200  0.57436500  0.80728500  1
  F  F26  1  0.23178600  0.26146800  0.68881100  1
  F  F27  1  0.66411200  0.69710500  0.00235800  1
  F  F28  1  0.36453300  0.14904000  0.02054400  1
  F  F29  1  0.03299300  0.33588800  0.33569100  1
  F  F30  1  0.60672200  0.45169400  0.59736000  1
  F  F31  1  0.33172400  0.83529800  0.89762200  1
  F  F32  1  0.42104700  0.42190000  0.42752600  1
  F  F33  1  0.34576000  0.72240600  0.39542300  1
  F  F34  1  0.30289500  0.96700700  0.66902500  1
  F  F35  1  0.37664600  0.65424000  0.72875600  1
  F  F36  1  0.85096000  0.21549300  0.68721100  1
  F  F37  1  0.78450700  0.63546700  0.35387800  1
  F  F38  1  0.50357500  0.66827600  0.23095500  1
  F  F39  1  0.00085300  0.57895300  0.76085900  1
  F  F40  1  0.05385200  0.92114800  0.84707000  1
  F  F41  1  0.54830600  0.15502700  0.26402600  1
  F  F42  1  0.25217200  0.35943100  0.88530000  1
  F  F43  1  0.10725900  0.74782800  0.21863300  1
  F  F44  1  0.27759400  0.62335400  0.06209000  1
  F  F45  1  0.02903400  0.74210600  0.51652200  1
  F  F46  1  0.16470200  0.49642500  0.56428800  1
  F  F47  1  0.64056900  0.89274100  0.55196600  1
