# generated using pymatgen
data_MgTiV(PO4)3
_symmetry_space_group_name_H-M   'P 1'
_cell_length_a   8.54094415
_cell_length_b   8.54094415
_cell_length_c   8.54094451
_cell_angle_alpha   60.70233932
_cell_angle_beta   60.70233932
_cell_angle_gamma   60.70233479
_symmetry_Int_Tables_number   1
_chemical_formula_structural   MgTiV(PO4)3
_chemical_formula_sum   'Mg2 Ti2 V2 P6 O24'
_cell_volume   447.54112893
_cell_formula_units_Z   2
loop_
 _symmetry_equiv_pos_site_id
 _symmetry_equiv_pos_as_xyz
  1  'x, y, z'
loop_
 _atom_site_type_symbol
 _atom_site_label
 _atom_site_symmetry_multiplicity
 _atom_site_fract_x
 _atom_site_fract_y
 _atom_site_fract_z
 _atom_site_occupancy
  Mg  Mg0  1  0.00135700  0.00135700  0.00135700  1
  Mg  Mg1  1  0.50135700  0.50135700  0.50135700  1
  Ti  Ti2  1  0.85545300  0.85545300  0.85545300  1
  Ti  Ti3  1  0.35545300  0.35545300  0.35545300  1
  V  V4  1  0.64256600  0.64256600  0.64256600  1
  V  V5  1  0.14256600  0.14256600  0.14256600  1
  P  P6  1  0.24823700  0.95446100  0.54507500  1
  P  P7  1  0.95446100  0.54507500  0.24823700  1
  P  P8  1  0.54507500  0.24823700  0.95446100  1
  P  P9  1  0.45446100  0.74823700  0.04507500  1
  P  P10  1  0.04507500  0.45446100  0.74823700  1
  P  P11  1  0.74823700  0.04507500  0.45446100  1
  O  O12  1  0.68304500  0.88903300  0.49565900  1
  O  O13  1  0.49565900  0.68304500  0.88903300  1
  O  O14  1  0.08687400  0.94605100  0.74222200  1
  O  O15  1  0.88903300  0.49565900  0.68304500  1
  O  O16  1  0.18304500  0.99565900  0.38903300  1
  O  O17  1  0.40764500  0.75917600  0.56241100  1
  O  O18  1  0.94605100  0.74222200  0.08687400  1
  O  O19  1  0.75917600  0.56241100  0.40764500  1
  O  O20  1  0.61894000  0.81407200  0.99772700  1
  O  O21  1  0.56241100  0.40764500  0.75917600  1
  O  O22  1  0.25917600  0.90764500  0.06241100  1
  O  O23  1  0.99772700  0.61894000  0.81407200  1
  O  O24  1  0.99565900  0.38903300  0.18304500  1
  O  O25  1  0.74222200  0.08687400  0.94605100  1
  O  O26  1  0.44605100  0.58687400  0.24222200  1
  O  O27  1  0.38903300  0.18304500  0.99565900  1
  O  O28  1  0.24222200  0.44605100  0.58687400  1
  O  O29  1  0.06241100  0.25917600  0.90764500  1
  O  O30  1  0.58687400  0.24222200  0.44605100  1
  O  O31  1  0.81407200  0.99772700  0.61894000  1
  O  O32  1  0.11894000  0.49772700  0.31407200  1
  O  O33  1  0.90764500  0.06241100  0.25917600  1
  O  O34  1  0.49772700  0.31407200  0.11894000  1
  O  O35  1  0.31407200  0.11894000  0.49772700  1
