# generated using pymatgen
data_CaTiCo(PO4)3
_symmetry_space_group_name_H-M   'P 1'
_cell_length_a   8.80535170
_cell_length_b   8.80535114
_cell_length_c   8.80535181
_cell_angle_alpha   58.67560981
_cell_angle_beta   58.67561430
_cell_angle_gamma   58.67561332
_symmetry_Int_Tables_number   1
_chemical_formula_structural   CaTiCo(PO4)3
_chemical_formula_sum   'Ca2 Ti2 Co2 P6 O24'
_cell_volume   468.14191134
_cell_formula_units_Z   2
loop_
 _symmetry_equiv_pos_site_id
 _symmetry_equiv_pos_as_xyz
  1  'x, y, z'
loop_
 _atom_site_type_symbol
 _atom_site_label
 _atom_site_symmetry_multiplicity
 _atom_site_fract_x
 _atom_site_fract_y
 _atom_site_fract_z
 _atom_site_occupancy
  Ca  Ca0  1  0.99703600  0.99703600  0.99703600  1
  Ca  Ca1  1  0.49703600  0.49703600  0.49703600  1
  Ti  Ti2  1  0.14646700  0.14646700  0.14646700  1
  Ti  Ti3  1  0.64646700  0.64646700  0.64646700  1
  Co  Co4  1  0.35229500  0.35229500  0.35229500  1
  Co  Co5  1  0.85229500  0.85229500  0.85229500  1
  P  P6  1  0.04017900  0.46207400  0.74992200  1
  P  P7  1  0.46207400  0.74992200  0.04017900  1
  P  P8  1  0.74992200  0.04017900  0.46207400  1
  P  P9  1  0.24992200  0.96207400  0.54017900  1
  P  P10  1  0.54017900  0.24992200  0.96207400  1
  P  P11  1  0.96207400  0.54017900  0.24992200  1
  O  O12  1  0.12298700  0.51099200  0.29502000  1
  O  O13  1  0.29502000  0.12298700  0.51099200  1
  O  O14  1  0.05547300  0.27356500  0.92140400  1
  O  O15  1  0.51099200  0.29502000  0.12298700  1
  O  O16  1  0.01099200  0.62298700  0.79502000  1
  O  O17  1  0.22611000  0.43849100  0.58164700  1
  O  O18  1  0.27356500  0.92140400  0.05547300  1
  O  O19  1  0.43849100  0.58164700  0.22611000  1
  O  O20  1  0.20591800  0.99920100  0.37122000  1
  O  O21  1  0.58164700  0.22611000  0.43849100  1
  O  O22  1  0.08164700  0.93849100  0.72611000  1
  O  O23  1  0.37122000  0.20591800  0.99920100  1
  O  O24  1  0.62298700  0.79502000  0.01099200  1
  O  O25  1  0.92140400  0.05547300  0.27356500  1
  O  O26  1  0.42140400  0.77356500  0.55547300  1
  O  O27  1  0.79502000  0.01099200  0.62298700  1
  O  O28  1  0.55547300  0.42140400  0.77356500  1
  O  O29  1  0.72611000  0.08164700  0.93849100  1
  O  O30  1  0.77356500  0.55547300  0.42140400  1
  O  O31  1  0.99920100  0.37122000  0.20591800  1
  O  O32  1  0.49920100  0.70591800  0.87122000  1
  O  O33  1  0.93849100  0.72611000  0.08164700  1
  O  O34  1  0.70591800  0.87122000  0.49920100  1
  O  O35  1  0.87122000  0.49920100  0.70591800  1
