# generated using pymatgen
data_Sr2CaI6
_symmetry_space_group_name_H-M   'P 1'
_cell_length_a   8.49120900
_cell_length_b   7.65846500
_cell_length_c   13.87042206
_cell_angle_alpha   57.15277838
_cell_angle_beta   90.00000000
_cell_angle_gamma   90.00000000
_symmetry_Int_Tables_number   1
_chemical_formula_structural   Sr2CaI6
_chemical_formula_sum   'Sr4 Ca2 I12'
_cell_volume   757.77834224
_cell_formula_units_Z   2
loop_
 _symmetry_equiv_pos_site_id
 _symmetry_equiv_pos_as_xyz
  1  'x, y, z'
loop_
 _atom_site_type_symbol
 _atom_site_label
 _atom_site_symmetry_multiplicity
 _atom_site_fract_x
 _atom_site_fract_y
 _atom_site_fract_z
 _atom_site_occupancy
  Sr  Sr0  1  0.60747600  0.70136600  0.24756200  1
  Sr  Sr1  1  0.10747600  0.29863400  0.25243800  1
  Sr  Sr2  1  0.89252400  0.70136600  0.74756200  1
  Sr  Sr3  1  0.39252400  0.29863400  0.75243800  1
  Ca  Ca4  1  0.00000000  0.00000000  0.00000000  1
  Ca  Ca5  1  0.50000000  0.00000000  0.50000000  1
  I  I6  1  0.31813100  0.75683200  0.06767200  1
  I  I7  1  0.81942900  0.59475700  0.07564700  1
  I  I8  1  0.45314000  0.10077200  0.25018500  1
  I  I9  1  0.95314000  0.89922800  0.24981500  1
  I  I10  1  0.31942900  0.40524300  0.42435300  1
  I  I11  1  0.81813100  0.24316800  0.43232800  1
  I  I12  1  0.18186900  0.75683200  0.56767200  1
  I  I13  1  0.68057100  0.59475700  0.57564700  1
  I  I14  1  0.04686000  0.10077200  0.75018500  1
  I  I15  1  0.54686000  0.89922800  0.74981500  1
  I  I16  1  0.18057100  0.40524300  0.92435300  1
  I  I17  1  0.68186900  0.24316800  0.93232800  1
