# generated using pymatgen
data_HoZn(SnO3)2
_symmetry_space_group_name_H-M   'P 1'
_cell_length_a   5.50024500
_cell_length_b   5.97712300
_cell_length_c   8.07416600
_cell_angle_alpha   90.00000000
_cell_angle_beta   90.00000000
_cell_angle_gamma   90.00000000
_symmetry_Int_Tables_number   1
_chemical_formula_structural   HoZn(SnO3)2
_chemical_formula_sum   'Ho2 Zn2 Sn4 O12'
_cell_volume   265.44338194
_cell_formula_units_Z   2
loop_
 _symmetry_equiv_pos_site_id
 _symmetry_equiv_pos_as_xyz
  1  'x, y, z'
loop_
 _atom_site_type_symbol
 _atom_site_label
 _atom_site_symmetry_multiplicity
 _atom_site_fract_x
 _atom_site_fract_y
 _atom_site_fract_z
 _atom_site_occupancy
  Ho  Ho0  1  0.02791800  0.66790300  0.00000000  1
  Ho  Ho1  1  0.52791800  0.33209700  0.50000000  1
  Zn  Zn2  1  0.51670700  0.33636000  0.00000000  1
  Zn  Zn3  1  0.01670700  0.66364000  0.50000000  1
  Sn  Sn4  1  0.00629100  0.21876200  0.75069100  1
  Sn  Sn5  1  0.00629100  0.21876200  0.24930900  1
  Sn  Sn6  1  0.50629100  0.78123800  0.25069100  1
  Sn  Sn7  1  0.50629100  0.78123800  0.74930900  1
  O  O8  1  0.14132500  0.22621900  0.50000000  1
  O  O9  1  0.16411800  0.91586700  0.81363500  1
  O  O10  1  0.16411800  0.91586700  0.18636500  1
  O  O11  1  0.29987100  0.44840100  0.81934000  1
  O  O12  1  0.29987100  0.44840100  0.18066000  1
  O  O13  1  0.36797700  0.69938200  0.50000000  1
  O  O14  1  0.64132500  0.77378100  0.00000000  1
  O  O15  1  0.66411800  0.08413300  0.31363500  1
  O  O16  1  0.66411800  0.08413300  0.68636500  1
  O  O17  1  0.79987100  0.55159900  0.68066000  1
  O  O18  1  0.79987100  0.55159900  0.31934000  1
  O  O19  1  0.86797700  0.30061800  0.00000000  1
