# generated using pymatgen
data_Ba2YCr2F11
_symmetry_space_group_name_H-M   'P 1'
_cell_length_a   7.90986249
_cell_length_b   7.90986249
_cell_length_c   14.14020900
_cell_angle_alpha   90.00000000
_cell_angle_beta   90.00000000
_cell_angle_gamma   120.00000411
_symmetry_Int_Tables_number   1
_chemical_formula_structural   Ba2YCr2F11
_chemical_formula_sum   'Ba6 Y3 Cr6 F33'
_cell_volume   766.16852990
_cell_formula_units_Z   3
loop_
 _symmetry_equiv_pos_site_id
 _symmetry_equiv_pos_as_xyz
  1  'x, y, z'
loop_
 _atom_site_type_symbol
 _atom_site_label
 _atom_site_symmetry_multiplicity
 _atom_site_fract_x
 _atom_site_fract_y
 _atom_site_fract_z
 _atom_site_occupancy
  Ba  Ba0  1  0.55700500  0.19913300  0.66722300  1
  Ba  Ba1  1  0.18211500  0.51447400  0.81101400  1
  Ba  Ba2  1  0.64212900  0.44299500  0.00055600  1
  Ba  Ba3  1  0.48552600  0.66764100  0.47768100  1
  Ba  Ba4  1  0.33235900  0.81788500  0.14434800  1
  Ba  Ba5  1  0.80086700  0.35787100  0.33388900  1
  Y  Y6  1  0.15035400  0.00294400  0.88348400  1
  Y  Y7  1  0.85259000  0.84964600  0.21681700  1
  Y  Y8  1  0.99705600  0.14741000  0.55015000  1
  Cr  Cr9  1  0.63903900  0.99443100  0.88965900  1
  Cr  Cr10  1  0.77036500  0.74917400  0.72407500  1
  Cr  Cr11  1  0.25082600  0.02119200  0.39074200  1
  Cr  Cr12  1  0.35539200  0.36096100  0.22299200  1
  Cr  Cr13  1  0.97880800  0.22963500  0.05740800  1
  Cr  Cr14  1  0.00556900  0.64460800  0.55632600  1
  F  F15  1  0.69008500  0.10165600  0.02544100  1
  F  F16  1  0.50714800  0.71220900  0.92696700  1
  F  F17  1  0.41157100  0.30991500  0.35877400  1
  F  F18  1  0.09550500  0.42361600  0.47520200  1
  F  F19  1  0.54172200  0.27355500  0.17985200  1
  F  F20  1  0.92318700  0.62081900  0.18451000  1
  F  F21  1  0.57638400  0.67188900  0.14186800  1
  F  F22  1  0.37918100  0.30236700  0.85117700  1
  F  F23  1  0.73183300  0.45827800  0.51318500  1
  F  F24  1  0.26228100  0.34053300  0.08614400  1
  F  F25  1  0.32811100  0.90449500  0.80853500  1
  F  F26  1  0.89834400  0.58842900  0.69210700  1
  F  F27  1  0.33139200  0.02811300  0.00105000  1
  F  F28  1  0.03530700  0.49705100  0.02013100  1
  F  F29  1  0.69672100  0.66860800  0.33438300  1
  F  F30  1  0.28779100  0.79493900  0.59363400  1
  F  F31  1  0.99621200  0.16476200  0.89962600  1
  F  F32  1  0.07825300  0.73771900  0.41947700  1
  F  F33  1  0.00831900  0.05466800  0.39887200  1
  F  F34  1  0.97188700  0.30327900  0.66771600  1
  F  F35  1  0.04635000  0.99168100  0.73220500  1
  F  F36  1  0.50294900  0.53825700  0.68679800  1
  F  F37  1  0.46174300  0.96469300  0.35346400  1
  F  F38  1  0.16855000  0.00378800  0.23295900  1
  F  F39  1  0.65946700  0.92174700  0.75281100  1
  F  F40  1  0.72644500  0.26816700  0.84651800  1
  F  F41  1  0.20506100  0.49285200  0.26030000  1
  F  F42  1  0.91662000  0.70306600  0.88472500  1
  F  F43  1  0.78644600  0.08338000  0.21805900  1
  F  F44  1  0.94533200  0.95365000  0.06553800  1
  F  F45  1  0.69763300  0.07681300  0.51784400  1
  F  F46  1  0.83523800  0.83145000  0.56629200  1
  F  F47  1  0.29693400  0.21355400  0.55139200  1
