# generated using pymatgen
data_MoPO4
_symmetry_space_group_name_H-M   'P 1'
_cell_length_a   9.66991410
_cell_length_b   9.66991410
_cell_length_c   16.69118751
_cell_angle_alpha   60.49675858
_cell_angle_beta   60.49675858
_cell_angle_gamma   31.57563304
_symmetry_Int_Tables_number   1
_chemical_formula_structural   MoPO4
_chemical_formula_sum   'Mo8 P8 O32'
_cell_volume   702.10816310
_cell_formula_units_Z   8
loop_
 _symmetry_equiv_pos_site_id
 _symmetry_equiv_pos_as_xyz
  1  'x, y, z'
loop_
 _atom_site_type_symbol
 _atom_site_label
 _atom_site_symmetry_multiplicity
 _atom_site_fract_x
 _atom_site_fract_y
 _atom_site_fract_z
 _atom_site_occupancy
  Mo  Mo0  1  0.38046500  0.83864300  0.01428700  1
  Mo  Mo1  1  0.16135700  0.61953500  0.48571300  1
  Mo  Mo2  1  0.61953500  0.16135700  0.98571300  1
  Mo  Mo3  1  0.00000000  0.50000000  0.00000000  1
  Mo  Mo4  1  0.83864300  0.38046500  0.51428700  1
  Mo  Mo5  1  0.68589400  0.31410600  0.75000000  1
  Mo  Mo6  1  0.31410600  0.68589400  0.25000000  1
  Mo  Mo7  1  0.50000000  0.00000000  0.50000000  1
  P  P8  1  0.48158000  0.94370300  0.14043700  1
  P  P9  1  0.78520200  0.24149100  0.38123400  1
  P  P10  1  0.51842000  0.05629700  0.85956300  1
  P  P11  1  0.24149100  0.78520200  0.88123400  1
  P  P12  1  0.94370300  0.48158000  0.64043700  1
  P  P13  1  0.05629700  0.51842000  0.35956300  1
  P  P14  1  0.21479800  0.75850900  0.61876600  1
  P  P15  1  0.75850900  0.21479800  0.11876600  1
  O  O16  1  0.23530700  0.21293500  0.92717400  1
  O  O17  1  0.70887100  0.14353000  0.08302600  1
  O  O18  1  0.21293500  0.23530700  0.42717400  1
  O  O19  1  0.58103800  0.27340100  0.45458100  1
  O  O20  1  0.69266100  0.77181000  0.92856200  1
  O  O21  1  0.66706000  0.42980900  0.29071700  1
  O  O22  1  0.72659900  0.41896200  0.04541900  1
  O  O23  1  0.93674300  0.04967400  0.86616100  1
  O  O24  1  0.41896200  0.72659900  0.54541900  1
  O  O25  1  0.85647000  0.29112900  0.41697400  1
  O  O26  1  0.57671700  0.15900500  0.86863400  1
  O  O27  1  0.94693500  0.44662900  0.73520000  1
  O  O28  1  0.29112900  0.85647000  0.91697400  1
  O  O29  1  0.04967400  0.93674300  0.36616100  1
  O  O30  1  0.76469300  0.78706500  0.07282600  1
  O  O31  1  0.42328300  0.84099500  0.13136600  1
  O  O32  1  0.44662900  0.94693500  0.23520000  1
  O  O33  1  0.27340100  0.58103800  0.95458100  1
  O  O34  1  0.15900500  0.57671700  0.36863400  1
  O  O35  1  0.05306500  0.55337100  0.26480000  1
  O  O36  1  0.95032600  0.06325700  0.63383900  1
  O  O37  1  0.77181000  0.69266100  0.42856200  1
  O  O38  1  0.06325700  0.95032600  0.13383900  1
  O  O39  1  0.42980900  0.66706000  0.79071700  1
  O  O40  1  0.14353000  0.70887100  0.58302600  1
  O  O41  1  0.78706500  0.76469300  0.57282600  1
  O  O42  1  0.55337100  0.05306500  0.76480000  1
  O  O43  1  0.22819000  0.30733900  0.57143800  1
  O  O44  1  0.30733900  0.22819000  0.07143800  1
  O  O45  1  0.57019100  0.33294000  0.20928300  1
  O  O46  1  0.33294000  0.57019100  0.70928300  1
  O  O47  1  0.84099500  0.42328300  0.63136600  1
