# generated using pymatgen
data_ScHO2
_symmetry_space_group_name_H-M   'P 1'
_cell_length_a   4.90038306
_cell_length_b   4.90038306
_cell_length_c   4.90038301
_cell_angle_alpha   38.52424097
_cell_angle_beta   38.52424097
_cell_angle_gamma   38.52423861
_symmetry_Int_Tables_number   1
_chemical_formula_structural   ScHO2
_chemical_formula_sum   'Sc1 H1 O2'
_cell_volume   41.01820821
_cell_formula_units_Z   1
loop_
 _symmetry_equiv_pos_site_id
 _symmetry_equiv_pos_as_xyz
  1  'x, y, z'
loop_
 _atom_site_type_symbol
 _atom_site_label
 _atom_site_symmetry_multiplicity
 _atom_site_fract_x
 _atom_site_fract_y
 _atom_site_fract_z
 _atom_site_occupancy
  Sc  Sc0  1  0.00000000  0.00000000  0.00000000  1
  H  H1  1  0.50000000  0.50000000  0.50000000  1
  O  O2  1  0.41029900  0.41029900  0.41029900  1
  O  O3  1  0.58970100  0.58970100  0.58970100  1
