# generated using pymatgen
data_MgSb2P2O9
_symmetry_space_group_name_H-M   'P 1'
_cell_length_a   6.69528600
_cell_length_b   6.94778200
_cell_length_c   15.78809400
_cell_angle_alpha   90.00000000
_cell_angle_beta   90.00000000
_cell_angle_gamma   90.00000000
_symmetry_Int_Tables_number   1
_chemical_formula_structural   MgSb2P2O9
_chemical_formula_sum   'Mg4 Sb8 P8 O36'
_cell_volume   734.42088736
_cell_formula_units_Z   4
loop_
 _symmetry_equiv_pos_site_id
 _symmetry_equiv_pos_as_xyz
  1  'x, y, z'
loop_
 _atom_site_type_symbol
 _atom_site_label
 _atom_site_symmetry_multiplicity
 _atom_site_fract_x
 _atom_site_fract_y
 _atom_site_fract_z
 _atom_site_occupancy
  Mg  Mg0  1  0.07787600  0.75000000  0.76934300  1
  Mg  Mg1  1  0.42212400  0.75000000  0.26934300  1
  Mg  Mg2  1  0.57787600  0.25000000  0.73065700  1
  Mg  Mg3  1  0.92212400  0.25000000  0.23065700  1
  Sb  Sb4  1  0.59991900  0.75000000  0.88273500  1
  Sb  Sb5  1  0.40008100  0.25000000  0.11726500  1
  Sb  Sb6  1  0.09991900  0.25000000  0.61726500  1
  Sb  Sb7  1  0.90008100  0.75000000  0.38273500  1
  Sb  Sb8  1  0.00000000  0.00000000  0.00000000  1
  Sb  Sb9  1  0.50000000  0.00000000  0.50000000  1
  Sb  Sb10  1  0.50000000  0.50000000  0.50000000  1
  Sb  Sb11  1  0.00000000  0.50000000  0.00000000  1
  P  P12  1  0.58116000  0.25000000  0.91156000  1
  P  P13  1  0.41884000  0.75000000  0.08844000  1
  P  P14  1  0.08116000  0.75000000  0.58844000  1
  P  P15  1  0.91884000  0.25000000  0.41156000  1
  P  P16  1  0.57308100  0.75000000  0.69720800  1
  P  P17  1  0.92691900  0.75000000  0.19720800  1
  P  P18  1  0.07308100  0.25000000  0.80279200  1
  P  P19  1  0.42691900  0.25000000  0.30279200  1
  O  O20  1  0.41624300  0.43909100  0.35483600  1
  O  O21  1  0.58375700  0.93909100  0.64516400  1
  O  O22  1  0.91624300  0.56090900  0.14516400  1
  O  O23  1  0.08375700  0.06090900  0.85483600  1
  O  O24  1  0.58375700  0.56090900  0.64516400  1
  O  O25  1  0.41624300  0.06090900  0.35483600  1
  O  O26  1  0.08375700  0.43909100  0.85483600  1
  O  O27  1  0.91624300  0.93909100  0.14516400  1
  O  O28  1  0.73350100  0.25000000  0.47496400  1
  O  O29  1  0.26649900  0.75000000  0.52503600  1
  O  O30  1  0.23350100  0.75000000  0.02503600  1
  O  O31  1  0.76649900  0.25000000  0.97496400  1
  O  O32  1  0.89686400  0.75000000  0.91922200  1
  O  O33  1  0.10313600  0.25000000  0.08077800  1
  O  O34  1  0.39686400  0.25000000  0.58077800  1
  O  O35  1  0.60313600  0.75000000  0.41922200  1
  O  O36  1  0.75632300  0.75000000  0.76207400  1
  O  O37  1  0.24367700  0.25000000  0.23792600  1
  O  O38  1  0.25632300  0.25000000  0.73792600  1
  O  O39  1  0.74367700  0.75000000  0.26207400  1
  O  O40  1  0.90379400  0.07561500  0.35036600  1
  O  O41  1  0.09620600  0.57561500  0.64963400  1
  O  O42  1  0.40379400  0.92438500  0.14963400  1
  O  O43  1  0.59620600  0.42438500  0.85036600  1
  O  O44  1  0.09620600  0.92438500  0.64963400  1
  O  O45  1  0.90379400  0.42438500  0.35036600  1
  O  O46  1  0.59620600  0.07561500  0.85036600  1
  O  O47  1  0.40379400  0.57561500  0.14963400  1
  O  O48  1  0.60844100  0.75000000  0.03474500  1
  O  O49  1  0.88846800  0.25000000  0.74272000  1
  O  O50  1  0.61153200  0.25000000  0.24272000  1
  O  O51  1  0.38846800  0.75000000  0.75728000  1
  O  O52  1  0.89155900  0.75000000  0.53474500  1
  O  O53  1  0.10844100  0.25000000  0.46525500  1
  O  O54  1  0.39155900  0.25000000  0.96525500  1
  O  O55  1  0.11153200  0.75000000  0.25728000  1
