# generated using pymatgen
data_CaSn2P2O9
_symmetry_space_group_name_H-M   'P 1'
_cell_length_a   6.72819100
_cell_length_b   8.18147000
_cell_length_c   15.63062600
_cell_angle_alpha   90.00000000
_cell_angle_beta   90.00000000
_cell_angle_gamma   90.00000000
_symmetry_Int_Tables_number   1
_chemical_formula_structural   CaSn2P2O9
_chemical_formula_sum   'Ca4 Sn8 P8 O36'
_cell_volume   860.41114189
_cell_formula_units_Z   4
loop_
 _symmetry_equiv_pos_site_id
 _symmetry_equiv_pos_as_xyz
  1  'x, y, z'
loop_
 _atom_site_type_symbol
 _atom_site_label
 _atom_site_symmetry_multiplicity
 _atom_site_fract_x
 _atom_site_fract_y
 _atom_site_fract_z
 _atom_site_occupancy
  Ca  Ca0  1  0.25000000  0.45484100  0.27755100  1
  Ca  Ca1  1  0.25000000  0.04515900  0.77755100  1
  Ca  Ca2  1  0.75000000  0.95484100  0.22244900  1
  Ca  Ca3  1  0.75000000  0.54515900  0.72244900  1
  Sn  Sn4  1  0.25000000  0.86397600  0.38433900  1
  Sn  Sn5  1  0.75000000  0.13602400  0.61566100  1
  Sn  Sn6  1  0.75000000  0.36397600  0.11566100  1
  Sn  Sn7  1  0.25000000  0.63602400  0.88433900  1
  Sn  Sn8  1  0.00000000  0.50000000  0.50000000  1
  Sn  Sn9  1  0.00000000  0.00000000  0.00000000  1
  Sn  Sn10  1  0.50000000  0.00000000  0.00000000  1
  Sn  Sn11  1  0.50000000  0.50000000  0.50000000  1
  P  P12  1  0.75000000  0.88828000  0.43437700  1
  P  P13  1  0.25000000  0.11172000  0.56562300  1
  P  P14  1  0.25000000  0.38828000  0.06562300  1
  P  P15  1  0.75000000  0.61172000  0.93437700  1
  P  P16  1  0.25000000  0.89248500  0.20525600  1
  P  P17  1  0.25000000  0.60751500  0.70525600  1
  P  P18  1  0.75000000  0.39248500  0.29474400  1
  P  P19  1  0.75000000  0.10751500  0.79474400  1
  O  O20  1  0.55732300  0.09126700  0.84709500  1
  O  O21  1  0.05732300  0.90873300  0.15290500  1
  O  O22  1  0.44267700  0.59126700  0.65290500  1
  O  O23  1  0.94267700  0.40873300  0.34709500  1
  O  O24  1  0.44267700  0.90873300  0.15290500  1
  O  O25  1  0.94267700  0.09126700  0.84709500  1
  O  O26  1  0.55732300  0.40873300  0.34709500  1
  O  O27  1  0.05732300  0.59126700  0.65290500  1
  O  O28  1  0.75000000  0.77226900  0.98522200  1
  O  O29  1  0.25000000  0.22773100  0.01477800  1
  O  O30  1  0.25000000  0.27226900  0.51477800  1
  O  O31  1  0.75000000  0.72773100  0.48522200  1
  O  O32  1  0.25000000  0.63394500  0.42184100  1
  O  O33  1  0.75000000  0.36605500  0.57815900  1
  O  O34  1  0.75000000  0.13394500  0.07815900  1
  O  O35  1  0.25000000  0.86605500  0.92184100  1
  O  O36  1  0.25000000  0.72884900  0.25697900  1
  O  O37  1  0.75000000  0.27115100  0.74302100  1
  O  O38  1  0.75000000  0.22884900  0.24302100  1
  O  O39  1  0.25000000  0.77115100  0.75697900  1
  O  O40  1  0.93106400  0.59919000  0.87109700  1
  O  O41  1  0.43106400  0.40081000  0.12890300  1
  O  O42  1  0.06893600  0.09919000  0.62890300  1
  O  O43  1  0.56893600  0.90081000  0.37109700  1
  O  O44  1  0.06893600  0.40081000  0.12890300  1
  O  O45  1  0.56893600  0.59919000  0.87109700  1
  O  O46  1  0.93106400  0.90081000  0.37109700  1
  O  O47  1  0.43106400  0.09919000  0.62890300  1
  O  O48  1  0.25000000  0.96159600  0.50513800  1
  O  O49  1  0.75000000  0.52446600  0.21913600  1
  O  O50  1  0.75000000  0.97553400  0.71913600  1
  O  O51  1  0.25000000  0.02446600  0.28086400  1
  O  O52  1  0.25000000  0.53840400  0.00513800  1
  O  O53  1  0.75000000  0.46159600  0.99486200  1
  O  O54  1  0.75000000  0.03840400  0.49486200  1
  O  O55  1  0.25000000  0.47553400  0.78086400  1
