# generated using pymatgen
data_BaZn(WO2)4
_symmetry_space_group_name_H-M   'P 1'
_cell_length_a   5.76166503
_cell_length_b   5.76166503
_cell_length_c   7.31953800
_cell_angle_alpha   90.00000000
_cell_angle_beta   90.00000000
_cell_angle_gamma   119.99998882
_symmetry_Int_Tables_number   1
_chemical_formula_structural   BaZn(WO2)4
_chemical_formula_sum   'Ba1 Zn1 W4 O8'
_cell_volume   210.43131129
_cell_formula_units_Z   1
loop_
 _symmetry_equiv_pos_site_id
 _symmetry_equiv_pos_as_xyz
  1  'x, y, z'
loop_
 _atom_site_type_symbol
 _atom_site_label
 _atom_site_symmetry_multiplicity
 _atom_site_fract_x
 _atom_site_fract_y
 _atom_site_fract_z
 _atom_site_occupancy
  Ba  Ba0  1  0.00000000  0.00000000  0.00000000  1
  Zn  Zn1  1  0.00000000  0.00000000  0.50000000  1
  W  W2  1  0.33333300  0.66666700  0.71725100  1
  W  W3  1  0.66666700  0.33333300  0.71725100  1
  W  W4  1  0.33333300  0.66666700  0.28274900  1
  W  W5  1  0.66666700  0.33333300  0.28274900  1
  O  O6  1  0.29153100  0.29153100  0.68585500  1
  O  O7  1  0.70846900  0.00000000  0.68585500  1
  O  O8  1  0.00000000  0.70846900  0.68585500  1
  O  O9  1  0.70846900  0.70846900  0.31414500  1
  O  O10  1  0.00000000  0.29153100  0.31414500  1
  O  O11  1  0.29153100  0.00000000  0.31414500  1
  O  O12  1  0.33333300  0.66666700  0.00000000  1
  O  O13  1  0.66666700  0.33333300  0.00000000  1
