# generated using pymatgen
data_TiO2
_symmetry_space_group_name_H-M   'P 1'
_cell_length_a   6.02819834
_cell_length_b   6.02819834
_cell_length_c   14.61580800
_cell_angle_alpha   90.00000000
_cell_angle_beta   90.00000000
_cell_angle_gamma   120.00000373
_symmetry_Int_Tables_number   1
_chemical_formula_structural   TiO2
_chemical_formula_sum   'Ti12 O24'
_cell_volume   459.96894467
_cell_formula_units_Z   12
loop_
 _symmetry_equiv_pos_site_id
 _symmetry_equiv_pos_as_xyz
  1  'x, y, z'
loop_
 _atom_site_type_symbol
 _atom_site_label
 _atom_site_symmetry_multiplicity
 _atom_site_fract_x
 _atom_site_fract_y
 _atom_site_fract_z
 _atom_site_occupancy
  Ti  Ti0  1  0.31162900  0.15581500  0.83586900  1
  Ti  Ti1  1  0.84418500  0.15581500  0.83586900  1
  Ti  Ti2  1  0.97784200  0.48892100  0.50752900  1
  Ti  Ti3  1  0.84418500  0.68837100  0.83586900  1
  Ti  Ti4  1  0.51107900  0.48892100  0.50752900  1
  Ti  Ti5  1  0.33333300  0.66666700  0.35221300  1
  Ti  Ti6  1  0.33333300  0.66666700  0.71573000  1
  Ti  Ti7  1  0.65491500  0.82745700  0.16873600  1
  Ti  Ti8  1  0.51107900  0.02215800  0.50752900  1
  Ti  Ti9  1  0.17254300  0.82745700  0.16873600  1
  Ti  Ti10  1  0.17254300  0.34508500  0.16873600  1
  Ti  Ti11  1  0.66666700  0.33333300  0.04315500  1
  O  O12  1  0.70164000  0.85082000  0.89927400  1
  O  O13  1  0.00000000  0.00000000  0.76062600  1
  O  O14  1  0.14918000  0.85082000  0.89927400  1
  O  O15  1  0.14918000  0.29836000  0.89927400  1
  O  O16  1  0.35588800  0.17794400  0.56646900  1
  O  O17  1  0.49817700  0.99635500  0.76011000  1
  O  O18  1  0.66666700  0.33333300  0.43219500  1
  O  O19  1  0.49817700  0.50182300  0.76011000  1
  O  O20  1  0.66666700  0.33333300  0.90923300  1
  O  O21  1  0.82205600  0.17794400  0.56646900  1
  O  O22  1  0.82205600  0.64411200  0.56646900  1
  O  O23  1  0.00364500  0.50182300  0.76011000  1
  O  O24  1  0.04576800  0.52288400  0.23830500  1
  O  O25  1  0.18995300  0.37990600  0.42265400  1
  O  O26  1  0.18995300  0.81004700  0.42265400  1
  O  O27  1  0.33333300  0.66666700  0.09425100  1
  O  O28  1  0.33333300  0.66666700  0.58376500  1
  O  O29  1  0.47711600  0.52288400  0.23830500  1
  O  O30  1  0.47711600  0.95423200  0.23830500  1
  O  O31  1  0.62009400  0.81004700  0.42265400  1
  O  O32  1  0.82637800  0.65275500  0.09337600  1
  O  O33  1  0.82637800  0.17362200  0.09337600  1
  O  O34  1  0.00000000  0.00000000  0.22157100  1
  O  O35  1  0.34724500  0.17362200  0.09337600  1
