# generated using pymatgen
data_Mg(SnO2)2
_symmetry_space_group_name_H-M   'P 1'
_cell_length_a   6.72787601
_cell_length_b   6.72787601
_cell_length_c   15.76130524
_cell_angle_alpha   89.61990803
_cell_angle_beta   89.61990803
_cell_angle_gamma   58.19629371
_symmetry_Int_Tables_number   1
_chemical_formula_structural   Mg(SnO2)2
_chemical_formula_sum   'Mg6 Sn12 O24'
_cell_volume   606.29264077
_cell_formula_units_Z   6
loop_
 _symmetry_equiv_pos_site_id
 _symmetry_equiv_pos_as_xyz
  1  'x, y, z'
loop_
 _atom_site_type_symbol
 _atom_site_label
 _atom_site_symmetry_multiplicity
 _atom_site_fract_x
 _atom_site_fract_y
 _atom_site_fract_z
 _atom_site_occupancy
  Mg  Mg0  1  0.16534800  0.16534800  0.04278500  1
  Mg  Mg1  1  0.48944000  0.48944000  0.37946100  1
  Mg  Mg2  1  0.83098700  0.83098700  0.33190500  1
  Mg  Mg3  1  0.81822600  0.81822600  0.71642200  1
  Mg  Mg4  1  0.50319900  0.50319900  0.00265400  1
  Mg  Mg5  1  0.51595400  0.51595400  0.61889200  1
  Sn  Sn6  1  0.66469800  0.66469800  0.16609600  1
  Sn  Sn7  1  0.17094400  0.65791700  0.16556600  1
  Sn  Sn8  1  0.00490200  0.00490200  0.49967800  1
  Sn  Sn9  1  0.65791700  0.17094400  0.16556600  1
  Sn  Sn10  1  0.51564800  0.00131700  0.49913900  1
  Sn  Sn11  1  0.17045400  0.17045400  0.66721500  1
  Sn  Sn12  1  0.16323000  0.16323000  0.28881100  1
  Sn  Sn13  1  0.33550800  0.33550800  0.83723800  1
  Sn  Sn14  1  0.00131700  0.51564800  0.49913900  1
  Sn  Sn15  1  0.82731200  0.33294500  0.83526600  1
  Sn  Sn16  1  0.33294500  0.82731200  0.83526600  1
  Sn  Sn17  1  0.83731700  0.83731700  0.94765500  1
  O  O18  1  0.34156600  0.34156600  0.07764800  1
  O  O19  1  0.51550600  0.51550600  0.24815500  1
  O  O20  1  0.81165000  0.35730400  0.08883900  1
  O  O21  1  0.35730400  0.81165000  0.08883900  1
  O  O22  1  0.68993200  0.68993200  0.42125500  1
  O  O23  1  0.97188600  0.54372900  0.24023300  1
  O  O24  1  0.81339000  0.81339000  0.58376400  1
  O  O25  1  0.54372900  0.97188600  0.24023300  1
  O  O26  1  0.83338300  0.83338300  0.09646300  1
  O  O27  1  0.14201400  0.64217300  0.41034200  1
  O  O28  1  0.64217300  0.14201400  0.41034200  1
  O  O29  1  0.96665400  0.96665400  0.24072500  1
  O  O30  1  0.99513200  0.99513200  0.76816500  1
  O  O31  1  0.36586800  0.84044100  0.56816800  1
  O  O32  1  0.84044100  0.36586800  0.56816800  1
  O  O33  1  0.14632900  0.14632900  0.91045400  1
  O  O34  1  0.18177900  0.18177900  0.43947100  1
  O  O35  1  0.49404000  0.96031700  0.76212700  1
  O  O36  1  0.96031700  0.49404000  0.76212700  1
  O  O37  1  0.33938600  0.33938600  0.57177400  1
  O  O38  1  0.67636700  0.21421600  0.92073700  1
  O  O39  1  0.21421600  0.67636700  0.92073700  1
  O  O40  1  0.51212000  0.51212000  0.75242400  1
  O  O41  1  0.63106900  0.63106900  0.90980600  1
