# generated using pymatgen
data_Ca(BiO2)2
_symmetry_space_group_name_H-M   'P 1'
_cell_length_a   7.05927210
_cell_length_b   7.05927210
_cell_length_c   17.30967300
_cell_angle_alpha   90.00000000
_cell_angle_beta   90.00000000
_cell_angle_gamma   120.00000094
_symmetry_Int_Tables_number   1
_chemical_formula_structural   Ca(BiO2)2
_chemical_formula_sum   'Ca6 Bi12 O24'
_cell_volume   747.03222318
_cell_formula_units_Z   6
loop_
 _symmetry_equiv_pos_site_id
 _symmetry_equiv_pos_as_xyz
  1  'x, y, z'
loop_
 _atom_site_type_symbol
 _atom_site_label
 _atom_site_symmetry_multiplicity
 _atom_site_fract_x
 _atom_site_fract_y
 _atom_site_fract_z
 _atom_site_occupancy
  Ca  Ca0  1  0.66666700  0.33333300  0.95641400  1
  Ca  Ca1  1  0.33333300  0.66666700  0.62237500  1
  Ca  Ca2  1  0.00000000  0.00000000  0.66642700  1
  Ca  Ca3  1  0.00000000  0.00000000  0.29164800  1
  Ca  Ca4  1  0.33333300  0.66666700  0.99867300  1
  Ca  Ca5  1  0.33333300  0.66666700  0.37521100  1
  Bi  Bi6  1  0.16945500  0.33891100  0.83475600  1
  Bi  Bi7  1  0.66108900  0.83054500  0.83475600  1
  Bi  Bi8  1  0.83631300  0.67262500  0.50268300  1
  Bi  Bi9  1  0.16945500  0.83054500  0.83475600  1
  Bi  Bi10  1  0.32737500  0.16368700  0.50268300  1
  Bi  Bi11  1  0.66666700  0.33333300  0.33748600  1
  Bi  Bi12  1  0.66666700  0.33333300  0.71122200  1
  Bi  Bi13  1  0.50072500  0.00145000  0.16746100  1
  Bi  Bi14  1  0.83631300  0.16368700  0.50268300  1
  Bi  Bi15  1  0.99855000  0.49927500  0.16746100  1
  Bi  Bi16  1  0.50072500  0.49927500  0.16746100  1
  Bi  Bi17  1  0.00000000  0.00000000  0.04421400  1
  O  O18  1  0.48593600  0.97187200  0.91176000  1
  O  O19  1  0.33333300  0.66666700  0.75894600  1
  O  O20  1  0.02812800  0.51406400  0.91176000  1
  O  O21  1  0.48593600  0.51406400  0.91176000  1
  O  O22  1  0.15389600  0.30779200  0.57903100  1
  O  O23  1  0.84336400  0.15663600  0.75141700  1
  O  O24  1  0.00000000  0.00000000  0.42648100  1
  O  O25  1  0.31327100  0.15663600  0.75141700  1
  O  O26  1  0.00000000  0.00000000  0.91367000  1
  O  O27  1  0.69220800  0.84610400  0.57903100  1
  O  O28  1  0.15389600  0.84610400  0.57903100  1
  O  O29  1  0.84336400  0.68672900  0.75141700  1
  O  O30  1  0.82372000  0.64744000  0.24500600  1
  O  O31  1  0.51082700  0.48917300  0.41747500  1
  O  O32  1  0.97834500  0.48917300  0.41747500  1
  O  O33  1  0.66666700  0.33333300  0.09078400  1
  O  O34  1  0.66666700  0.33333300  0.58074500  1
  O  O35  1  0.35256000  0.17628000  0.24500600  1
  O  O36  1  0.82372000  0.17628000  0.24500600  1
  O  O37  1  0.51082700  0.02165500  0.41747500  1
  O  O38  1  0.17689400  0.82310600  0.08477600  1
  O  O39  1  0.64621100  0.82310600  0.08477600  1
  O  O40  1  0.33333300  0.66666700  0.24268900  1
  O  O41  1  0.17689400  0.35378900  0.08477600  1
