# generated using pymatgen
data_MgAg2P2O9
_symmetry_space_group_name_H-M   'P 1'
_cell_length_a   6.53379600
_cell_length_b   6.92441500
_cell_length_c   15.89403800
_cell_angle_alpha   90.00000000
_cell_angle_beta   90.00000000
_cell_angle_gamma   90.00000000
_symmetry_Int_Tables_number   1
_chemical_formula_structural   MgAg2P2O9
_chemical_formula_sum   'Mg4 Ag8 P8 O36'
_cell_volume   719.08943190
_cell_formula_units_Z   4
loop_
 _symmetry_equiv_pos_site_id
 _symmetry_equiv_pos_as_xyz
  1  'x, y, z'
loop_
 _atom_site_type_symbol
 _atom_site_label
 _atom_site_symmetry_multiplicity
 _atom_site_fract_x
 _atom_site_fract_y
 _atom_site_fract_z
 _atom_site_occupancy
  Mg  Mg0  1  0.75000000  0.88798300  0.22515400  1
  Mg  Mg1  1  0.75000000  0.61201700  0.72515400  1
  Mg  Mg2  1  0.25000000  0.38798300  0.27484600  1
  Mg  Mg3  1  0.25000000  0.11201700  0.77484600  1
  Ag  Ag4  1  0.75000000  0.37038500  0.11863200  1
  Ag  Ag5  1  0.25000000  0.62961500  0.88136800  1
  Ag  Ag6  1  0.25000000  0.87038500  0.38136800  1
  Ag  Ag7  1  0.75000000  0.12961500  0.61863200  1
  Ag  Ag8  1  0.00000000  0.00000000  0.00000000  1
  Ag  Ag9  1  0.00000000  0.50000000  0.50000000  1
  Ag  Ag10  1  0.50000000  0.50000000  0.50000000  1
  Ag  Ag11  1  0.50000000  0.00000000  0.00000000  1
  P  P12  1  0.25000000  0.38387600  0.07868300  1
  P  P13  1  0.75000000  0.61612400  0.92131700  1
  P  P14  1  0.75000000  0.88387600  0.42131700  1
  P  P15  1  0.25000000  0.11612400  0.57868300  1
  P  P16  1  0.75000000  0.38602100  0.29270500  1
  P  P17  1  0.75000000  0.11397900  0.79270500  1
  P  P18  1  0.25000000  0.88602100  0.20729500  1
  P  P19  1  0.25000000  0.61397900  0.70729500  1
  O  O20  1  0.45380200  0.60674700  0.65857700  1
  O  O21  1  0.95380200  0.39325300  0.34142300  1
  O  O22  1  0.54619800  0.10674700  0.84142300  1
  O  O23  1  0.04619800  0.89325300  0.15857700  1
  O  O24  1  0.54619800  0.39325300  0.34142300  1
  O  O25  1  0.04619800  0.60674700  0.65857700  1
  O  O26  1  0.45380200  0.89325300  0.15857700  1
  O  O27  1  0.95380200  0.10674700  0.84142300  1
  O  O28  1  0.25000000  0.30166800  0.52231300  1
  O  O29  1  0.75000000  0.69833200  0.47768700  1
  O  O30  1  0.75000000  0.80166800  0.97768700  1
  O  O31  1  0.25000000  0.19833200  0.02231300  1
  O  O32  1  0.75000000  0.10900800  0.06018200  1
  O  O33  1  0.25000000  0.89099200  0.93981800  1
  O  O34  1  0.25000000  0.60900800  0.43981800  1
  O  O35  1  0.75000000  0.39099200  0.56018200  1
  O  O36  1  0.75000000  0.19545400  0.23792900  1
  O  O37  1  0.25000000  0.80454600  0.76207100  1
  O  O38  1  0.25000000  0.69545400  0.26207100  1
  O  O39  1  0.75000000  0.30454600  0.73792900  1
  O  O40  1  0.07398300  0.12290400  0.64446400  1
  O  O41  1  0.57398300  0.87709600  0.35553600  1
  O  O42  1  0.92601700  0.62290400  0.85553600  1
  O  O43  1  0.42601700  0.37709600  0.14446400  1
  O  O44  1  0.92601700  0.87709600  0.35553600  1
  O  O45  1  0.42601700  0.12290400  0.64446400  1
  O  O46  1  0.07398300  0.37709600  0.14446400  1
  O  O47  1  0.57398300  0.62290400  0.85553600  1
  O  O48  1  0.75000000  0.44251200  0.97924800  1
  O  O49  1  0.25000000  0.06303800  0.27277800  1
  O  O50  1  0.25000000  0.43696200  0.77277800  1
  O  O51  1  0.75000000  0.56303800  0.22722200  1
  O  O52  1  0.75000000  0.05748800  0.47924800  1
  O  O53  1  0.25000000  0.94251200  0.52075200  1
  O  O54  1  0.25000000  0.55748800  0.02075200  1
  O  O55  1  0.75000000  0.93696200  0.72722200  1
