# generated using pymatgen
data_LaMgCr2O6
_symmetry_space_group_name_H-M   'P 1'
_cell_length_a   5.31745300
_cell_length_b   5.41851000
_cell_length_c   7.74920600
_cell_angle_alpha   90.00000000
_cell_angle_beta   90.00000000
_cell_angle_gamma   90.00000000
_symmetry_Int_Tables_number   1
_chemical_formula_structural   LaMgCr2O6
_chemical_formula_sum   'La2 Mg2 Cr4 O12'
_cell_volume   223.27533271
_cell_formula_units_Z   2
loop_
 _symmetry_equiv_pos_site_id
 _symmetry_equiv_pos_as_xyz
  1  'x, y, z'
loop_
 _atom_site_type_symbol
 _atom_site_label
 _atom_site_symmetry_multiplicity
 _atom_site_fract_x
 _atom_site_fract_y
 _atom_site_fract_z
 _atom_site_occupancy
  La  La0  1  0.00435700  0.71269600  0.00000000  1
  La  La1  1  0.50435700  0.28730400  0.50000000  1
  Mg  Mg2  1  0.48298700  0.19727500  0.00000000  1
  Mg  Mg3  1  0.98298700  0.80272500  0.50000000  1
  Cr  Cr4  1  0.49642000  0.75397500  0.24988300  1
  Cr  Cr5  1  0.99642000  0.24602500  0.74988300  1
  Cr  Cr6  1  0.49642000  0.75397500  0.75011700  1
  Cr  Cr7  1  0.99642000  0.24602500  0.25011700  1
  O  O8  1  0.07742100  0.19614400  0.50000000  1
  O  O9  1  0.21492000  0.97654700  0.80358100  1
  O  O10  1  0.21492000  0.97654700  0.19641900  1
  O  O11  1  0.30585800  0.44105900  0.80836700  1
  O  O12  1  0.30585800  0.44105900  0.19163300  1
  O  O13  1  0.37474100  0.72694000  0.50000000  1
  O  O14  1  0.57742100  0.80385600  0.00000000  1
  O  O15  1  0.71492000  0.02345300  0.30358100  1
  O  O16  1  0.71492000  0.02345300  0.69641900  1
  O  O17  1  0.80585800  0.55894100  0.30836700  1
  O  O18  1  0.80585800  0.55894100  0.69163300  1
  O  O19  1  0.87474100  0.27306000  0.00000000  1
