# generated using pymatgen
data_HoTi2ZnO6
_symmetry_space_group_name_H-M   'P 1'
_cell_length_a   5.27312500
_cell_length_b   5.49526800
_cell_length_c   7.63853300
_cell_angle_alpha   90.00000000
_cell_angle_beta   90.00000000
_cell_angle_gamma   90.00000000
_symmetry_Int_Tables_number   1
_chemical_formula_structural   HoTi2ZnO6
_chemical_formula_sum   'Ho2 Ti4 Zn2 O12'
_cell_volume   221.34356635
_cell_formula_units_Z   2
loop_
 _symmetry_equiv_pos_site_id
 _symmetry_equiv_pos_as_xyz
  1  'x, y, z'
loop_
 _atom_site_type_symbol
 _atom_site_label
 _atom_site_symmetry_multiplicity
 _atom_site_fract_x
 _atom_site_fract_y
 _atom_site_fract_z
 _atom_site_occupancy
  Ho  Ho0  1  0.01702600  0.67688000  0.00000000  1
  Ho  Ho1  1  0.51702600  0.32312000  0.50000000  1
  Ti  Ti2  1  0.00301400  0.23171400  0.74789700  1
  Ti  Ti3  1  0.00301400  0.23171400  0.25210300  1
  Ti  Ti4  1  0.50301400  0.76828600  0.24789700  1
  Ti  Ti5  1  0.50301400  0.76828600  0.75210300  1
  Zn  Zn6  1  0.49594000  0.23332500  0.00000000  1
  Zn  Zn7  1  0.99594000  0.76667500  0.50000000  1
  O  O8  1  0.10760500  0.20100800  0.50000000  1
  O  O9  1  0.18855700  0.94333500  0.81034900  1
  O  O10  1  0.18855700  0.94333500  0.18965100  1
  O  O11  1  0.31179400  0.44176200  0.81074300  1
  O  O12  1  0.31179400  0.44176200  0.18925700  1
  O  O13  1  0.37226600  0.71550200  0.50000000  1
  O  O14  1  0.60760500  0.79899200  0.00000000  1
  O  O15  1  0.68855700  0.05666500  0.31034900  1
  O  O16  1  0.68855700  0.05666500  0.68965100  1
  O  O17  1  0.81179400  0.55823800  0.68925700  1
  O  O18  1  0.81179400  0.55823800  0.31074300  1
  O  O19  1  0.87226600  0.28449800  0.00000000  1
