# generated using pymatgen
data_Ba2YV2F11
_symmetry_space_group_name_H-M   'P 1'
_cell_length_a   7.95439599
_cell_length_b   7.95439599
_cell_length_c   13.80849600
_cell_angle_alpha   90.00000000
_cell_angle_beta   90.00000000
_cell_angle_gamma   119.99999994
_symmetry_Int_Tables_number   1
_chemical_formula_structural   Ba2YV2F11
_chemical_formula_sum   'Ba6 Y3 V6 F33'
_cell_volume   756.64370928
_cell_formula_units_Z   3
loop_
 _symmetry_equiv_pos_site_id
 _symmetry_equiv_pos_as_xyz
  1  'x, y, z'
loop_
 _atom_site_type_symbol
 _atom_site_label
 _atom_site_symmetry_multiplicity
 _atom_site_fract_x
 _atom_site_fract_y
 _atom_site_fract_z
 _atom_site_occupancy
  Ba  Ba0  1  0.55845900  0.19455900  0.66396400  1
  Ba  Ba1  1  0.19516700  0.52254900  0.81288700  1
  Ba  Ba2  1  0.63610000  0.44154100  0.99729700  1
  Ba  Ba3  1  0.47745100  0.67261800  0.47955300  1
  Ba  Ba4  1  0.32738200  0.80483300  0.14622000  1
  Ba  Ba5  1  0.80544100  0.36390000  0.33063100  1
  Y  Y6  1  0.13248200  0.99996800  0.89260600  1
  Y  Y7  1  0.86748500  0.86751800  0.22593900  1
  Y  Y8  1  0.00003200  0.13251500  0.55927300  1
  V  V9  1  0.63384800  0.99486400  0.88200200  1
  V  V10  1  0.78363100  0.73930300  0.72099900  1
  V  V11  1  0.26069700  0.04432700  0.38766500  1
  V  V12  1  0.36101600  0.36615200  0.21533500  1
  V  V13  1  0.95567300  0.21636900  0.05433200  1
  V  V14  1  0.00513600  0.63898400  0.54866900  1
  F  F15  1  0.65908600  0.08641800  0.02662700  1
  F  F16  1  0.51006900  0.70445000  0.92787700  1
  F  F17  1  0.42733200  0.34091400  0.35996100  1
  F  F18  1  0.09337500  0.42997200  0.49966900  1
  F  F19  1  0.56726300  0.28989200  0.17665200  1
  F  F20  1  0.94476400  0.64961600  0.19108800  1
  F  F21  1  0.57002800  0.66340300  0.16633600  1
  F  F22  1  0.35038400  0.29514800  0.85775400  1
  F  F23  1  0.72263000  0.43273700  0.50998500  1
  F  F24  1  0.25779500  0.34235800  0.07296800  1
  F  F25  1  0.33659700  0.90662500  0.83300300  1
  F  F26  1  0.91358200  0.57266800  0.69329400  1
  F  F27  1  0.29945000  0.01699800  0.01460500  1
  F  F28  1  0.02186000  0.49847200  0.01050900  1
  F  F29  1  0.71754800  0.70055000  0.34793900  1
  F  F30  1  0.29555000  0.80561900  0.59454400  1
  F  F31  1  0.95791600  0.15038300  0.90244900  1
  F  F32  1  0.08456300  0.74220500  0.40630100  1
  F  F33  1  0.00520600  0.07596100  0.39485900  1
  F  F34  1  0.98300200  0.28245200  0.68127200  1
  F  F35  1  0.07075400  0.99479400  0.72819200  1
  F  F36  1  0.50152800  0.52338800  0.67717600  1
  F  F37  1  0.47661200  0.97814000  0.34384300  1
  F  F38  1  0.19246600  0.04208400  0.23578200  1
  F  F39  1  0.65764200  0.91543700  0.73963500  1
  F  F40  1  0.71010800  0.27737000  0.84331800  1
  F  F41  1  0.19438100  0.48993100  0.26121000  1
  F  F42  1  0.86763000  0.71716500  0.86821000  1
  F  F43  1  0.84953600  0.13237000  0.20154300  1
  F  F44  1  0.92403900  0.92924600  0.06152600  1
  F  F45  1  0.70485200  0.05523600  0.52442100  1
  F  F46  1  0.84961700  0.80753400  0.56911500  1
  F  F47  1  0.28283500  0.15046400  0.53487700  1
