# generated using pymatgen
data_LaMgTiCrO6
_symmetry_space_group_name_H-M   'P 1'
_cell_length_a   5.50527600
_cell_length_b   5.37002800
_cell_length_c   9.38989542
_cell_angle_alpha   55.19668364
_cell_angle_beta   90.00000000
_cell_angle_gamma   90.00000000
_symmetry_Int_Tables_number   1
_chemical_formula_structural   LaMgTiCrO6
_chemical_formula_sum   'La2 Mg2 Ti2 Cr2 O12'
_cell_volume   227.94024400
_cell_formula_units_Z   2
loop_
 _symmetry_equiv_pos_site_id
 _symmetry_equiv_pos_as_xyz
  1  'x, y, z'
loop_
 _atom_site_type_symbol
 _atom_site_label
 _atom_site_symmetry_multiplicity
 _atom_site_fract_x
 _atom_site_fract_y
 _atom_site_fract_z
 _atom_site_occupancy
  La  La0  1  0.21347600  0.74242500  0.25045600  1
  La  La1  1  0.78652400  0.74242500  0.75045600  1
  Mg  Mg2  1  0.70325900  0.26514000  0.25203500  1
  Mg  Mg3  1  0.29674100  0.26514000  0.75203500  1
  Ti  Ti4  1  0.25637900  0.50218100  0.99881400  1
  Ti  Ti5  1  0.74362100  0.50218100  0.49881400  1
  Cr  Cr6  1  0.24887300  0.99910600  0.50084800  1
  Cr  Cr7  1  0.75112700  0.99910600  0.00084800  1
  O  O8  1  0.70635000  0.17732700  0.74712900  1
  O  O9  1  0.46868500  0.73170100  0.04676600  1
  O  O10  1  0.47327300  0.33237800  0.44906700  1
  O  O11  1  0.94823200  0.62822000  0.05804800  1
  O  O12  1  0.94131300  0.25056500  0.44349200  1
  O  O13  1  0.22853300  0.87095900  0.75334300  1
  O  O14  1  0.29365000  0.17732700  0.24712900  1
  O  O15  1  0.53131500  0.73170100  0.54676600  1
  O  O16  1  0.52672700  0.33237800  0.94906700  1
  O  O17  1  0.05176800  0.62822000  0.55804800  1
  O  O18  1  0.05868700  0.25056500  0.94349200  1
  O  O19  1  0.77146700  0.87095900  0.25334300  1
