# generated using pymatgen
data_LaZnCr2O6
_symmetry_space_group_name_H-M   'P 1'
_cell_length_a   5.33330100
_cell_length_b   5.40382600
_cell_length_c   7.79589500
_cell_angle_alpha   90.00000000
_cell_angle_beta   90.00000000
_cell_angle_gamma   90.00000000
_symmetry_Int_Tables_number   1
_chemical_formula_structural   LaZnCr2O6
_chemical_formula_sum   'La2 Zn2 Cr4 O12'
_cell_volume   224.67949171
_cell_formula_units_Z   2
loop_
 _symmetry_equiv_pos_site_id
 _symmetry_equiv_pos_as_xyz
  1  'x, y, z'
loop_
 _atom_site_type_symbol
 _atom_site_label
 _atom_site_symmetry_multiplicity
 _atom_site_fract_x
 _atom_site_fract_y
 _atom_site_fract_z
 _atom_site_occupancy
  La  La0  1  0.00506400  0.71312000  0.00000000  1
  La  La1  1  0.50506400  0.28688000  0.50000000  1
  Zn  Zn2  1  0.49200400  0.22212200  0.00000000  1
  Zn  Zn3  1  0.99200400  0.77787800  0.50000000  1
  Cr  Cr4  1  0.49668800  0.75494500  0.24860000  1
  Cr  Cr5  1  0.99668800  0.24505500  0.74860000  1
  Cr  Cr6  1  0.49668800  0.75494500  0.75140000  1
  Cr  Cr7  1  0.99668800  0.24505500  0.25140000  1
  O  O8  1  0.07689200  0.19552900  0.50000000  1
  O  O9  1  0.22339000  0.96492600  0.79974500  1
  O  O10  1  0.22339000  0.96492600  0.20025500  1
  O  O11  1  0.31781400  0.44929100  0.80571700  1
  O  O12  1  0.31781400  0.44929100  0.19428300  1
  O  O13  1  0.37507600  0.72832900  0.50000000  1
  O  O14  1  0.57689200  0.80447100  0.00000000  1
  O  O15  1  0.72339000  0.03507400  0.29974500  1
  O  O16  1  0.72339000  0.03507400  0.70025500  1
  O  O17  1  0.81781400  0.55070900  0.30571700  1
  O  O18  1  0.81781400  0.55070900  0.69428300  1
  O  O19  1  0.87507600  0.27167100  0.00000000  1
