# generated using pymatgen
data_Mg(MoO2)2
_symmetry_space_group_name_H-M   'P 1'
_cell_length_a   6.31979077
_cell_length_b   6.31979077
_cell_length_c   6.31979094
_cell_angle_alpha   60.80755778
_cell_angle_beta   60.80755778
_cell_angle_gamma   60.80755747
_symmetry_Int_Tables_number   1
_chemical_formula_structural   Mg(MoO2)2
_chemical_formula_sum   'Mg2 Mo4 O8'
_cell_volume   181.73226690
_cell_formula_units_Z   2
loop_
 _symmetry_equiv_pos_site_id
 _symmetry_equiv_pos_as_xyz
  1  'x, y, z'
loop_
 _atom_site_type_symbol
 _atom_site_label
 _atom_site_symmetry_multiplicity
 _atom_site_fract_x
 _atom_site_fract_y
 _atom_site_fract_z
 _atom_site_occupancy
  Mg  Mg0  1  0.00348700  0.00348700  0.00348700  1
  Mg  Mg1  1  0.62877600  0.62877600  0.62877600  1
  Mo  Mo2  1  0.23419300  0.23419300  0.23419300  1
  Mo  Mo3  1  0.62476000  0.12211300  0.62476000  1
  Mo  Mo4  1  0.62476000  0.62476000  0.12211300  1
  Mo  Mo5  1  0.12211300  0.62476000  0.62476000  1
  O  O6  1  0.84621000  0.38831000  0.38831000  1
  O  O7  1  0.38831000  0.38831000  0.84621000  1
  O  O8  1  0.38831000  0.84621000  0.38831000  1
  O  O9  1  0.38703400  0.38703400  0.38703400  1
  O  O10  1  0.86904400  0.86904400  0.86904400  1
  O  O11  1  0.86682500  0.39934800  0.86682500  1
  O  O12  1  0.86682500  0.86682500  0.39934800  1
  O  O13  1  0.39934800  0.86682500  0.86682500  1
