# generated using pymatgen
data_C4O3
_symmetry_space_group_name_H-M   'P 1'
_cell_length_a   10.49430027
_cell_length_b   10.49430027
_cell_length_c   10.49429968
_cell_angle_alpha   90.10102370
_cell_angle_beta   90.10102370
_cell_angle_gamma   90.10102404
_symmetry_Int_Tables_number   1
_chemical_formula_structural   C4O3
_chemical_formula_sum   'C48 O36'
_cell_volume   1155.73537658
_cell_formula_units_Z   12
loop_
 _symmetry_equiv_pos_site_id
 _symmetry_equiv_pos_as_xyz
  1  'x, y, z'
loop_
 _atom_site_type_symbol
 _atom_site_label
 _atom_site_symmetry_multiplicity
 _atom_site_fract_x
 _atom_site_fract_y
 _atom_site_fract_z
 _atom_site_occupancy
  C  C0  1  0.51468600  0.19827800  0.61810500  1
  C  C1  1  0.19827800  0.61810500  0.51468600  1
  C  C2  1  0.61810500  0.51468600  0.19827800  1
  C  C3  1  0.41946800  0.30277000  0.60973300  1
  C  C4  1  0.30277000  0.60973300  0.41946800  1
  C  C5  1  0.60973300  0.41946800  0.30277000  1
  C  C6  1  0.17709000  0.99243400  0.11550200  1
  C  C7  1  0.99243400  0.11550200  0.17709000  1
  C  C8  1  0.11550200  0.17709000  0.99243400  1
  C  C9  1  0.23872700  0.87079500  0.15398700  1
  C  C10  1  0.87079500  0.15398700  0.23872700  1
  C  C11  1  0.15398700  0.23872700  0.87079500  1
  C  C12  1  0.67861100  0.69906100  0.07418100  1
  C  C13  1  0.69906100  0.07418100  0.67861100  1
  C  C14  1  0.07418100  0.67861100  0.69906100  1
  C  C15  1  0.77470200  0.80311800  0.08176200  1
  C  C16  1  0.80311800  0.08176200  0.77470200  1
  C  C17  1  0.08176200  0.77470200  0.80311800  1
  C  C18  1  0.01347700  0.49406000  0.57485600  1
  C  C19  1  0.49406000  0.57485600  0.01347700  1
  C  C20  1  0.57485600  0.01347700  0.49406000  1
  C  C21  1  0.91765900  0.38971200  0.58239400  1
  C  C22  1  0.38971200  0.58239400  0.91765900  1
  C  C23  1  0.58239400  0.91765900  0.38971200  1
  C  C24  1  0.67736800  0.99192400  0.57655900  1
  C  C25  1  0.99192400  0.57655900  0.67736800  1
  C  C26  1  0.57655900  0.67736800  0.99192400  1
  C  C27  1  0.74007800  0.87122700  0.53662900  1
  C  C28  1  0.87122700  0.53662900  0.74007800  1
  C  C29  1  0.53662900  0.74007800  0.87122700  1
  C  C30  1  0.01421700  0.19872900  0.07529500  1
  C  C31  1  0.19872900  0.07529500  0.01421700  1
  C  C32  1  0.07529500  0.01421700  0.19872900  1
  C  C33  1  0.91854500  0.30282000  0.08381400  1
  C  C34  1  0.30282000  0.08381400  0.91854500  1
  C  C35  1  0.08381400  0.91854500  0.30282000  1
  C  C36  1  0.51607500  0.49240000  0.11506500  1
  C  C37  1  0.49240000  0.11506500  0.51607500  1
  C  C38  1  0.11506500  0.51607500  0.49240000  1
  C  C39  1  0.45331900  0.37159100  0.15434800  1
  C  C40  1  0.37159100  0.15434800  0.45331900  1
  C  C41  1  0.15434800  0.45331900  0.37159100  1
  C  C42  1  0.17595200  0.70112300  0.61605800  1
  C  C43  1  0.70112300  0.61605800  0.17595200  1
  C  C44  1  0.61605800  0.17595200  0.70112300  1
  C  C45  1  0.23772800  0.82268700  0.65533700  1
  C  C46  1  0.82268700  0.65533700  0.23772800  1
  C  C47  1  0.65533700  0.23772800  0.82268700  1
  O  O48  1  0.33281100  0.26801800  0.51304200  1
  O  O49  1  0.26801800  0.51304200  0.33281100  1
  O  O50  1  0.51304200  0.33281100  0.26801800  1
  O  O51  1  0.41187400  0.40379200  0.66349700  1
  O  O52  1  0.40379200  0.66349700  0.41187400  1
  O  O53  1  0.66349700  0.41187400  0.40379200  1
  O  O54  1  0.31779600  0.80631400  0.10181500  1
  O  O55  1  0.80631400  0.10181500  0.31779600  1
  O  O56  1  0.10181500  0.31779600  0.80631400  1
  O  O57  1  0.86178200  0.76830300  0.17802600  1
  O  O58  1  0.76830300  0.17802600  0.86178200  1
  O  O59  1  0.17802600  0.86178200  0.76830300  1
  O  O60  1  0.78217600  0.90382100  0.02789100  1
  O  O61  1  0.90382100  0.02789100  0.78217600  1
  O  O62  1  0.02789100  0.78217600  0.90382100  1
  O  O63  1  0.83227300  0.42312600  0.67999100  1
  O  O64  1  0.42312600  0.67999100  0.83227300  1
  O  O65  1  0.67999100  0.83227300  0.42312600  1
  O  O66  1  0.90937800  0.28978600  0.52669100  1
  O  O67  1  0.28978600  0.52669100  0.90937800  1
  O  O68  1  0.52669100  0.90937800  0.28978600  1
  O  O69  1  0.82174600  0.80845600  0.58656500  1
  O  O70  1  0.80845600  0.58656500  0.82174600  1
  O  O71  1  0.58656500  0.82174600  0.80845600  1
  O  O72  1  0.83249700  0.26806100  0.18061000  1
  O  O73  1  0.26806100  0.18061000  0.83249700  1
  O  O74  1  0.18061000  0.83249700  0.26806100  1
  O  O75  1  0.90986400  0.40283800  0.02882600  1
  O  O76  1  0.40283800  0.02882600  0.90986400  1
  O  O77  1  0.02882600  0.90986400  0.40283800  1
  O  O78  1  0.37093700  0.30881400  0.10490800  1
  O  O79  1  0.30881400  0.10490800  0.37093700  1
  O  O80  1  0.10490800  0.37093700  0.30881400  1
  O  O81  1  0.31945700  0.88570800  0.60529000  1
  O  O82  1  0.88570800  0.60529000  0.31945700  1
  O  O83  1  0.60529000  0.31945700  0.88570800  1
