# generated using pymatgen
data_NaMn2O4
_symmetry_space_group_name_H-M   'P 1'
_cell_length_a   2.92408600
_cell_length_b   5.92164900
_cell_length_c   9.37088800
_cell_angle_alpha   90.00000000
_cell_angle_beta   90.00000000
_cell_angle_gamma   90.00000000
_symmetry_Int_Tables_number   1
_chemical_formula_structural   NaMn2O4
_chemical_formula_sum   'Na2 Mn4 O8'
_cell_volume   162.26077657
_cell_formula_units_Z   2
loop_
 _symmetry_equiv_pos_site_id
 _symmetry_equiv_pos_as_xyz
  1  'x, y, z'
loop_
 _atom_site_type_symbol
 _atom_site_label
 _atom_site_symmetry_multiplicity
 _atom_site_fract_x
 _atom_site_fract_y
 _atom_site_fract_z
 _atom_site_occupancy
  Na  Na0  1  0.50000000  0.36654800  0.94976400  1
  Na  Na1  1  0.50000000  0.63345200  0.44976400  1
  Mn  Mn2  1  0.00000000  0.78283800  0.12630400  1
  Mn  Mn3  1  0.50000000  0.88773400  0.85267600  1
  Mn  Mn4  1  0.50000000  0.11226600  0.35267600  1
  Mn  Mn5  1  0.00000000  0.21716200  0.62630400  1
  O  O6  1  0.50000000  0.58353700  0.16547500  1
  O  O7  1  0.00000000  0.10140600  0.81923500  1
  O  O8  1  0.00000000  0.89859400  0.31923500  1
  O  O9  1  0.50000000  0.41646300  0.66547500  1
  O  O10  1  0.50000000  0.99394000  0.08272000  1
  O  O11  1  0.00000000  0.69240100  0.91932300  1
  O  O12  1  0.50000000  0.00606000  0.58272000  1
  O  O13  1  0.00000000  0.30759900  0.41932300  1
