# generated using pymatgen
data_NaMn2O4
_symmetry_space_group_name_H-M   'P 1'
_cell_length_a   6.26302888
_cell_length_b   6.26302888
_cell_length_c   8.43026200
_cell_angle_alpha   90.00000000
_cell_angle_beta   90.00000000
_cell_angle_gamma   94.77772055
_symmetry_Int_Tables_number   1
_chemical_formula_structural   NaMn2O4
_chemical_formula_sum   'Na4 Mn8 O16'
_cell_volume   329.53248907
_cell_formula_units_Z   4
loop_
 _symmetry_equiv_pos_site_id
 _symmetry_equiv_pos_as_xyz
  1  'x, y, z'
loop_
 _atom_site_type_symbol
 _atom_site_label
 _atom_site_symmetry_multiplicity
 _atom_site_fract_x
 _atom_site_fract_y
 _atom_site_fract_z
 _atom_site_occupancy
  Na  Na0  1  0.24473700  0.75526300  0.25000000  1
  Na  Na1  1  0.72720000  0.72720000  0.50000000  1
  Na  Na2  1  0.75526300  0.24473700  0.75000000  1
  Na  Na3  1  0.27280000  0.27280000  0.00000000  1
  Mn  Mn4  1  0.23621100  0.50924800  0.62256000  1
  Mn  Mn5  1  0.23855600  0.00912000  0.62750700  1
  Mn  Mn6  1  0.49075200  0.76378900  0.87744000  1
  Mn  Mn7  1  0.99088000  0.76144400  0.87249300  1
  Mn  Mn8  1  0.76144400  0.99088000  0.12750700  1
  Mn  Mn9  1  0.76378900  0.49075200  0.12256000  1
  Mn  Mn10  1  0.00912000  0.23855600  0.37249300  1
  Mn  Mn11  1  0.50924800  0.23621100  0.37744000  1
  O  O12  1  0.95688600  0.76016800  0.10659000  1
  O  O13  1  0.98635700  0.22418300  0.14668400  1
  O  O14  1  0.23993600  0.46489000  0.39323000  1
  O  O15  1  0.23983200  0.04311400  0.39341000  1
  O  O16  1  0.56401500  0.22265900  0.14018100  1
  O  O17  1  0.53511000  0.76006400  0.10677000  1
  O  O18  1  0.77734100  0.43598500  0.35981900  1
  O  O19  1  0.77581700  0.01364300  0.35331600  1
  O  O20  1  0.46489000  0.23993600  0.60677000  1
  O  O21  1  0.43598500  0.77734100  0.64018100  1
  O  O22  1  0.76016800  0.95688600  0.89341000  1
  O  O23  1  0.76006400  0.53511000  0.89323000  1
  O  O24  1  0.01364300  0.77581700  0.64668400  1
  O  O25  1  0.04311400  0.23983200  0.60659000  1
  O  O26  1  0.22418300  0.98635700  0.85331600  1
  O  O27  1  0.22265900  0.56401500  0.85981900  1
