# generated using pymatgen
data_CaMn4O8
_symmetry_space_group_name_H-M   'P 1'
_cell_length_a   6.26568500
_cell_length_b   10.37990638
_cell_length_c   10.66016585
_cell_angle_alpha   108.22851200
_cell_angle_beta   92.59276365
_cell_angle_gamma   89.43797393
_symmetry_Int_Tables_number   1
_chemical_formula_structural   CaMn4O8
_chemical_formula_sum   'Ca4 Mn16 O32'
_cell_volume   657.83398078
_cell_formula_units_Z   4
loop_
 _symmetry_equiv_pos_site_id
 _symmetry_equiv_pos_as_xyz
  1  'x, y, z'
loop_
 _atom_site_type_symbol
 _atom_site_label
 _atom_site_symmetry_multiplicity
 _atom_site_fract_x
 _atom_site_fract_y
 _atom_site_fract_z
 _atom_site_occupancy
  Ca  Ca0  1  0.73175300  0.43383800  0.54290300  1
  Ca  Ca1  1  0.24809900  0.91197500  0.55687900  1
  Ca  Ca2  1  0.20504400  0.44653000  0.03764100  1
  Ca  Ca3  1  0.76937800  0.92031100  0.05923700  1
  Mn  Mn4  1  0.74218300  0.00392300  0.74958400  1
  Mn  Mn5  1  0.25631200  0.49346600  0.75049400  1
  Mn  Mn6  1  0.25945800  0.00418400  0.25372000  1
  Mn  Mn7  1  0.73075400  0.50216200  0.23672900  1
  Mn  Mn8  1  0.71501600  0.24974400  0.98603600  1
  Mn  Mn9  1  0.28714500  0.74995900  0.00983200  1
  Mn  Mn10  1  0.22933600  0.23952800  0.48705600  1
  Mn  Mn11  1  0.77193800  0.76087800  0.50757900  1
  Mn  Mn12  1  0.48455700  0.23793100  0.73692800  1
  Mn  Mn13  1  0.02078000  0.75262600  0.76356000  1
  Mn  Mn14  1  0.97745500  0.24263800  0.23914300  1
  Mn  Mn15  1  0.53132900  0.76151100  0.26506500  1
  Mn  Mn16  1  0.98034800  0.23681700  0.73290900  1
  Mn  Mn17  1  0.51928300  0.75464800  0.76651000  1
  Mn  Mn18  1  0.47252800  0.24487500  0.23296700  1
  Mn  Mn19  1  0.02589800  0.75955800  0.26823500  1
  O  O20  1  0.52297300  0.12180800  0.85104900  1
  O  O21  1  0.10661600  0.60820300  0.89841400  1
  O  O22  1  0.04866800  0.10490800  0.36566100  1
  O  O23  1  0.57266000  0.63926900  0.37384900  1
  O  O24  1  0.93410600  0.14198400  0.86421100  1
  O  O25  1  0.52360100  0.67927600  0.90770300  1
  O  O26  1  0.45061100  0.14437600  0.36466300  1
  O  O27  1  0.01053800  0.68588400  0.40969900  1
  O  O28  1  0.72112700  0.13148500  0.64818400  1
  O  O29  1  0.27076400  0.64207100  0.67814000  1
  O  O30  1  0.22681000  0.12727400  0.15199000  1
  O  O31  1  0.77165400  0.65746700  0.17292800  1
  O  O32  1  0.68544600  0.34973200  0.86187800  1
  O  O33  1  0.22453800  0.85418400  0.89490900  1
  O  O34  1  0.18391800  0.34563100  0.37079700  1
  O  O35  1  0.73198300  0.86837600  0.39114600  1
  O  O36  1  0.01240800  0.33713800  0.60896700  1
  O  O37  1  0.54884900  0.86020800  0.63888900  1
  O  O38  1  0.49074800  0.34335500  0.10357400  1
  O  O39  1  0.06725500  0.85947300  0.14073200  1
  O  O40  1  0.44301000  0.36047700  0.62412900  1
  O  O41  1  0.94774500  0.89345200  0.64189100  1
  O  O42  1  0.91186400  0.37814800  0.11026000  1
  O  O43  1  0.47811200  0.88219800  0.15175300  1
  O  O44  1  0.26612900  0.13492400  0.61318600  1
  O  O45  1  0.80016100  0.65249600  0.63231600  1
  O  O46  1  0.75428600  0.14403000  0.11006300  1
  O  O47  1  0.31839500  0.65230900  0.14350900  1
  O  O48  1  0.23916300  0.34093800  0.82472500  1
  O  O49  1  0.76901100  0.87279800  0.84592100  1
  O  O50  1  0.72175200  0.36018500  0.32375200  1
  O  O51  1  0.28657000  0.86882300  0.34812400  1
