# generated using pymatgen
data_Sr5W3O14
_symmetry_space_group_name_H-M   'P 1'
_cell_length_a   10.82182900
_cell_length_b   10.91169100
_cell_length_c   11.06534200
_cell_angle_alpha   90.00000000
_cell_angle_beta   90.00000000
_cell_angle_gamma   90.00000000
_symmetry_Int_Tables_number   1
_chemical_formula_structural   Sr5W3O14
_chemical_formula_sum   'Sr20 W12 O56'
_cell_volume   1306.64486953
_cell_formula_units_Z   4
loop_
 _symmetry_equiv_pos_site_id
 _symmetry_equiv_pos_as_xyz
  1  'x, y, z'
loop_
 _atom_site_type_symbol
 _atom_site_label
 _atom_site_symmetry_multiplicity
 _atom_site_fract_x
 _atom_site_fract_y
 _atom_site_fract_z
 _atom_site_occupancy
  Sr  Sr0  1  0.00000000  0.00000000  0.50000000  1
  Sr  Sr1  1  0.50000000  0.00000000  0.00000000  1
  Sr  Sr2  1  0.74941800  0.99722100  0.22393400  1
  Sr  Sr3  1  0.75058200  0.99722100  0.72393400  1
  Sr  Sr4  1  0.48553000  0.75826300  0.25684300  1
  Sr  Sr5  1  0.01447000  0.75826300  0.75684300  1
  Sr  Sr6  1  0.51447000  0.74173700  0.75684300  1
  Sr  Sr7  1  0.98553000  0.74173700  0.25684300  1
  Sr  Sr8  1  0.24941800  0.50277900  0.22393400  1
  Sr  Sr9  1  0.25058200  0.50277900  0.72393400  1
  Sr  Sr10  1  0.50000000  0.50000000  0.50000000  1
  Sr  Sr11  1  0.00000000  0.50000000  0.00000000  1
  Sr  Sr12  1  0.74941800  0.49722100  0.27606600  1
  Sr  Sr13  1  0.75058200  0.49722100  0.77606600  1
  Sr  Sr14  1  0.01447000  0.25826300  0.74315700  1
  Sr  Sr15  1  0.48553000  0.25826300  0.24315700  1
  Sr  Sr16  1  0.98553000  0.24173700  0.24315700  1
  Sr  Sr17  1  0.51447000  0.24173700  0.74315700  1
  Sr  Sr18  1  0.25058200  0.00277900  0.77606600  1
  Sr  Sr19  1  0.24941800  0.00277900  0.27606600  1
  W  W20  1  0.00000000  0.00000000  0.00000000  1
  W  W21  1  0.50000000  0.00000000  0.50000000  1
  W  W22  1  0.25394200  0.75292900  0.00233600  1
  W  W23  1  0.24605800  0.75292900  0.50233600  1
  W  W24  1  0.75394200  0.74707100  0.00233600  1
  W  W25  1  0.74605800  0.74707100  0.50233600  1
  W  W26  1  0.00000000  0.50000000  0.50000000  1
  W  W27  1  0.50000000  0.50000000  0.00000000  1
  W  W28  1  0.24605800  0.25292900  0.99766400  1
  W  W29  1  0.25394200  0.25292900  0.49766400  1
  W  W30  1  0.74605800  0.24707100  0.99766400  1
  W  W31  1  0.75394200  0.24707100  0.49766400  1
  O  O32  1  0.54495700  0.99133100  0.33273200  1
  O  O33  1  0.95504300  0.99133100  0.83273200  1
  O  O34  1  0.37334600  0.87821800  0.45949100  1
  O  O35  1  0.12665400  0.87821800  0.95949100  1
  O  O36  1  0.88267900  0.87006500  0.04816900  1
  O  O37  1  0.61732100  0.87006500  0.54816900  1
  O  O38  1  0.32479700  0.85692700  0.12634300  1
  O  O39  1  0.17520300  0.85692700  0.62634300  1
  O  O40  1  0.81562200  0.84737800  0.37574300  1
  O  O41  1  0.68437800  0.84737800  0.87574300  1
  O  O42  1  0.13494100  0.83761500  0.39129800  1
  O  O43  1  0.36505900  0.83761500  0.89129800  1
  O  O44  1  0.64050400  0.82935200  0.11093300  1
  O  O45  1  0.85949600  0.82935200  0.61093300  1
  O  O46  1  0.35949600  0.67064800  0.61093300  1
  O  O47  1  0.14050400  0.67064800  0.11093300  1
  O  O48  1  0.86505900  0.66238500  0.89129800  1
  O  O49  1  0.63494100  0.66238500  0.39129800  1
  O  O50  1  0.18437800  0.65262200  0.87574300  1
  O  O51  1  0.31562200  0.65262200  0.37574300  1
  O  O52  1  0.67520300  0.64307300  0.62634300  1
  O  O53  1  0.82479700  0.64307300  0.12634300  1
  O  O54  1  0.38267900  0.62993500  0.04816900  1
  O  O55  1  0.11732100  0.62993500  0.54816900  1
  O  O56  1  0.87334600  0.62178200  0.45949100  1
  O  O57  1  0.62665400  0.62178200  0.95949100  1
  O  O58  1  0.45504300  0.50866900  0.83273200  1
  O  O59  1  0.04495700  0.50866900  0.33273200  1
  O  O60  1  0.54495700  0.49133100  0.16726800  1
  O  O61  1  0.95504300  0.49133100  0.66726800  1
  O  O62  1  0.37334600  0.37821800  0.04050900  1
  O  O63  1  0.12665400  0.37821800  0.54050900  1
  O  O64  1  0.88267900  0.37006500  0.45183100  1
  O  O65  1  0.61732100  0.37006500  0.95183100  1
  O  O66  1  0.32479700  0.35692700  0.37365700  1
  O  O67  1  0.17520300  0.35692700  0.87365700  1
  O  O68  1  0.81562200  0.34737800  0.12425700  1
  O  O69  1  0.68437800  0.34737800  0.62425700  1
  O  O70  1  0.36505900  0.33761500  0.60870200  1
  O  O71  1  0.13494100  0.33761500  0.10870200  1
  O  O72  1  0.64050400  0.32935200  0.38906700  1
  O  O73  1  0.85949600  0.32935200  0.88906700  1
  O  O74  1  0.35949600  0.17064800  0.88906700  1
  O  O75  1  0.14050400  0.17064800  0.38906700  1
  O  O76  1  0.86505900  0.16238500  0.60870200  1
  O  O77  1  0.63494100  0.16238500  0.10870200  1
  O  O78  1  0.31562200  0.15262200  0.12425700  1
  O  O79  1  0.18437800  0.15262200  0.62425700  1
  O  O80  1  0.82479700  0.14307300  0.37365700  1
  O  O81  1  0.67520300  0.14307300  0.87365700  1
  O  O82  1  0.38267900  0.12993500  0.45183100  1
  O  O83  1  0.11732100  0.12993500  0.95183100  1
  O  O84  1  0.87334600  0.12178200  0.04050900  1
  O  O85  1  0.62665400  0.12178200  0.54050900  1
  O  O86  1  0.04495700  0.00866900  0.16726800  1
  O  O87  1  0.45504300  0.00866900  0.66726800  1
