# generated using pymatgen
data_K2TeOF4
_symmetry_space_group_name_H-M   'P 1'
_cell_length_a   7.83890020
_cell_length_b   7.83890020
_cell_length_c   6.72101500
_cell_angle_alpha   90.00000000
_cell_angle_beta   90.00000000
_cell_angle_gamma   131.51154506
_symmetry_Int_Tables_number   1
_chemical_formula_structural   K2TeOF4
_chemical_formula_sum   'K4 Te2 O2 F8'
_cell_volume   309.26006263
_cell_formula_units_Z   2
loop_
 _symmetry_equiv_pos_site_id
 _symmetry_equiv_pos_as_xyz
  1  'x, y, z'
loop_
 _atom_site_type_symbol
 _atom_site_label
 _atom_site_symmetry_multiplicity
 _atom_site_fract_x
 _atom_site_fract_y
 _atom_site_fract_z
 _atom_site_occupancy
  K  K0  1  0.42695700  0.57304300  0.25000000  1
  K  K1  1  0.57304300  0.42695700  0.75000000  1
  K  K2  1  0.75047200  0.24952800  0.25000000  1
  K  K3  1  0.24952800  0.75047200  0.75000000  1
  Te  Te4  1  0.11002300  0.88997700  0.25000000  1
  Te  Te5  1  0.88997700  0.11002300  0.75000000  1
  O  O6  1  0.76284500  0.23715500  0.75000000  1
  O  O7  1  0.23715500  0.76284500  0.25000000  1
  F  F8  1  0.12298300  0.34759600  0.53258400  1
  F  F9  1  0.34759600  0.12298300  0.46741600  1
  F  F10  1  0.12298300  0.34759600  0.96741600  1
  F  F11  1  0.34759600  0.12298300  0.03258400  1
  F  F12  1  0.87701700  0.65240400  0.03258400  1
  F  F13  1  0.65240400  0.87701700  0.96741600  1
  F  F14  1  0.65240400  0.87701700  0.53258400  1
  F  F15  1  0.87701700  0.65240400  0.46741600  1
