# generated using pymatgen
data_Sm2(WO4)3
_symmetry_space_group_name_H-M   'P 1'
_cell_length_a   10.46104400
_cell_length_b   10.34481500
_cell_length_c   17.69554051
_cell_angle_alpha   54.52575067
_cell_angle_beta   90.00000000
_cell_angle_gamma   90.00000000
_symmetry_Int_Tables_number   1
_chemical_formula_structural   Sm2(WO4)3
_chemical_formula_sum   'Sm8 W12 O48'
_cell_volume   1559.50503882
_cell_formula_units_Z   4
loop_
 _symmetry_equiv_pos_site_id
 _symmetry_equiv_pos_as_xyz
  1  'x, y, z'
loop_
 _atom_site_type_symbol
 _atom_site_label
 _atom_site_symmetry_multiplicity
 _atom_site_fract_x
 _atom_site_fract_y
 _atom_site_fract_z
 _atom_site_occupancy
  Sm  Sm0  1  0.97104000  0.63373000  0.11825200  1
  Sm  Sm1  1  0.03292400  0.13794800  0.61779800  1
  Sm  Sm2  1  0.53292400  0.86205200  0.88220200  1
  Sm  Sm3  1  0.47104000  0.36627000  0.38174800  1
  Sm  Sm4  1  0.52896000  0.63373000  0.61825200  1
  Sm  Sm5  1  0.46707600  0.13794800  0.11779800  1
  Sm  Sm6  1  0.96707600  0.86205200  0.38220200  1
  Sm  Sm7  1  0.02896000  0.36627000  0.88174800  1
  W  W8  1  0.74867800  0.47415500  0.49999300  1
  W  W9  1  0.61916200  0.75299300  0.14315000  1
  W  W10  1  0.88026600  0.03482300  0.85745200  1
  W  W11  1  0.38026600  0.96517700  0.64254800  1
  W  W12  1  0.11916200  0.24700700  0.35685000  1
  W  W13  1  0.24867800  0.52584500  0.00000700  1
  W  W14  1  0.75132200  0.47415500  0.99999300  1
  W  W15  1  0.88083800  0.75299300  0.64315000  1
  W  W16  1  0.61973400  0.03482300  0.35745200  1
  W  W17  1  0.11973400  0.96517700  0.14254800  1
  W  W18  1  0.38083800  0.24700700  0.85685000  1
  W  W19  1  0.25132200  0.52584500  0.50000700  1
  O  O20  1  0.09824200  0.80217700  0.13194200  1
  O  O21  1  0.34250400  0.50252800  0.42132000  1
  O  O22  1  0.17611400  0.33819200  0.58683000  1
  O  O23  1  0.41093200  0.06824000  0.86299400  1
  O  O24  1  0.87085100  0.32436200  0.56417700  1
  O  O25  1  0.78789900  0.70260500  0.16439400  1
  O  O26  1  0.71345000  0.02225700  0.83483800  1
  O  O27  1  0.64316900  0.41451600  0.44411200  1
  O  O28  1  0.97861400  0.06754400  0.76344400  1
  O  O29  1  0.52386700  0.58987000  0.23515900  1
  O  O30  1  0.57758100  0.78802600  0.03313100  1
  O  O31  1  0.92741900  0.85124500  0.96522900  1
  O  O32  1  0.42741900  0.14875500  0.53477100  1
  O  O33  1  0.07758100  0.21197400  0.46686900  1
  O  O34  1  0.02386700  0.41013000  0.26484100  1
  O  O35  1  0.47861400  0.93245600  0.73655600  1
  O  O36  1  0.14316900  0.58548400  0.05588800  1
  O  O37  1  0.21345000  0.97774300  0.66516200  1
  O  O38  1  0.28789900  0.29739500  0.33560600  1
  O  O39  1  0.37085100  0.67563800  0.93582300  1
  O  O40  1  0.84250400  0.49747200  0.07868000  1
  O  O41  1  0.91093200  0.93176000  0.63700600  1
  O  O42  1  0.67611400  0.66180800  0.91317000  1
  O  O43  1  0.59824200  0.19782300  0.36805800  1
  O  O44  1  0.40175800  0.80217700  0.63194200  1
  O  O45  1  0.32388600  0.33819200  0.08683000  1
  O  O46  1  0.08906800  0.06824000  0.36299400  1
  O  O47  1  0.15749600  0.50252800  0.92132000  1
  O  O48  1  0.62914900  0.32436200  0.06417700  1
  O  O49  1  0.71210100  0.70260500  0.66439400  1
  O  O50  1  0.78655000  0.02225700  0.33483800  1
  O  O51  1  0.85683100  0.41451600  0.94411200  1
  O  O52  1  0.52138600  0.06754400  0.26344400  1
  O  O53  1  0.97613300  0.58987000  0.73515900  1
  O  O54  1  0.92241900  0.78802600  0.53313100  1
  O  O55  1  0.57258100  0.85124500  0.46522900  1
  O  O56  1  0.07258100  0.14875500  0.03477100  1
  O  O57  1  0.42241900  0.21197400  0.96686900  1
  O  O58  1  0.47613300  0.41013000  0.76484100  1
  O  O59  1  0.02138600  0.93245600  0.23655600  1
  O  O60  1  0.35683100  0.58548400  0.55588800  1
  O  O61  1  0.28655000  0.97774300  0.16516200  1
  O  O62  1  0.21210100  0.29739500  0.83560600  1
  O  O63  1  0.12914900  0.67563800  0.43582300  1
  O  O64  1  0.58906800  0.93176000  0.13700600  1
  O  O65  1  0.82388600  0.66180800  0.41317000  1
  O  O66  1  0.65749600  0.49747200  0.57868000  1
  O  O67  1  0.90175800  0.19782300  0.86805800  1
