# generated using pymatgen
data_CaMn4O8
_symmetry_space_group_name_H-M   'P 1'
_cell_length_a   6.14338300
_cell_length_b   9.61391900
_cell_length_c   14.06027938
_cell_angle_alpha   47.31259903
_cell_angle_beta   90.00000000
_cell_angle_gamma   90.00000000
_symmetry_Int_Tables_number   1
_chemical_formula_structural   CaMn4O8
_chemical_formula_sum   'Ca4 Mn16 O32'
_cell_volume   610.41750243
_cell_formula_units_Z   4
loop_
 _symmetry_equiv_pos_site_id
 _symmetry_equiv_pos_as_xyz
  1  'x, y, z'
loop_
 _atom_site_type_symbol
 _atom_site_label
 _atom_site_symmetry_multiplicity
 _atom_site_fract_x
 _atom_site_fract_y
 _atom_site_fract_z
 _atom_site_occupancy
  Ca  Ca0  1  0.86672900  0.11375400  0.14210800  1
  Ca  Ca1  1  0.36672900  0.88624600  0.35789200  1
  Ca  Ca2  1  0.63327100  0.11375400  0.64210800  1
  Ca  Ca3  1  0.13327100  0.88624600  0.85789200  1
  Mn  Mn4  1  0.88333000  0.18413900  0.90146300  1
  Mn  Mn5  1  0.37733000  0.18486100  0.91183800  1
  Mn  Mn6  1  0.86903600  0.47997000  0.10205200  1
  Mn  Mn7  1  0.37004200  0.46618900  0.10788500  1
  Mn  Mn8  1  0.36903600  0.52003000  0.39794800  1
  Mn  Mn9  1  0.87004200  0.53381100  0.39211500  1
  Mn  Mn10  1  0.38333000  0.81586100  0.59853700  1
  Mn  Mn11  1  0.87733000  0.81513900  0.58816200  1
  Mn  Mn12  1  0.12267000  0.18486100  0.41183800  1
  Mn  Mn13  1  0.61667000  0.18413900  0.40146300  1
  Mn  Mn14  1  0.12995800  0.46618900  0.60788500  1
  Mn  Mn15  1  0.63096400  0.47997000  0.60205200  1
  Mn  Mn16  1  0.13096400  0.52003000  0.89794800  1
  Mn  Mn17  1  0.62995800  0.53381100  0.89211500  1
  Mn  Mn18  1  0.11667000  0.81586100  0.09853700  1
  Mn  Mn19  1  0.62267000  0.81513900  0.08816200  1
  O  O20  1  0.14178800  0.72466000  0.71554100  1
  O  O21  1  0.62794100  0.73604000  0.70921300  1
  O  O22  1  0.12407800  0.39517800  0.39986900  1
  O  O23  1  0.61038400  0.38569500  0.40153300  1
  O  O24  1  0.11038400  0.61430500  0.09846700  1
  O  O25  1  0.62407800  0.60482200  0.10013100  1
  O  O26  1  0.12794100  0.26396000  0.79078700  1
  O  O27  1  0.64178800  0.27534000  0.78445900  1
  O  O28  1  0.35821200  0.72466000  0.21554100  1
  O  O29  1  0.87205900  0.73604000  0.20921300  1
  O  O30  1  0.37592200  0.39517800  0.89986900  1
  O  O31  1  0.88961600  0.38569500  0.90153300  1
  O  O32  1  0.87592200  0.60482200  0.60013100  1
  O  O33  1  0.38961600  0.61430500  0.59846700  1
  O  O34  1  0.85821200  0.27534000  0.28445900  1
  O  O35  1  0.37205900  0.26396000  0.29078700  1
  O  O36  1  0.85995700  0.06705600  0.53383600  1
  O  O37  1  0.39582000  0.06220900  0.54528600  1
  O  O38  1  0.39394900  0.34574300  0.59291700  1
  O  O39  1  0.85541300  0.35570700  0.58198500  1
  O  O40  1  0.35995700  0.93294400  0.96616400  1
  O  O41  1  0.89582000  0.93779100  0.95471400  1
  O  O42  1  0.89394900  0.65425700  0.90708300  1
  O  O43  1  0.35541300  0.64429300  0.91801500  1
  O  O44  1  0.10418000  0.06220900  0.04528600  1
  O  O45  1  0.64004300  0.06705600  0.03383600  1
  O  O46  1  0.10605100  0.34574300  0.09291700  1
  O  O47  1  0.64458700  0.35570700  0.08198500  1
  O  O48  1  0.14004300  0.93294400  0.46616400  1
  O  O49  1  0.60418000  0.93779100  0.45471400  1
  O  O50  1  0.14458700  0.64429300  0.41801500  1
  O  O51  1  0.60605100  0.65425700  0.40708300  1
