# generated using pymatgen
data_CaMn2O4
_symmetry_space_group_name_H-M   'P 1'
_cell_length_a   3.31949375
_cell_length_b   5.07643276
_cell_length_c   5.93758740
_cell_angle_alpha   67.78708828
_cell_angle_beta   80.31953903
_cell_angle_gamma   82.43051257
_symmetry_Int_Tables_number   1
_chemical_formula_structural   CaMn2O4
_chemical_formula_sum   'Ca1 Mn2 O4'
_cell_volume   91.05583768
_cell_formula_units_Z   1
loop_
 _symmetry_equiv_pos_site_id
 _symmetry_equiv_pos_as_xyz
  1  'x, y, z'
loop_
 _atom_site_type_symbol
 _atom_site_label
 _atom_site_symmetry_multiplicity
 _atom_site_fract_x
 _atom_site_fract_y
 _atom_site_fract_z
 _atom_site_occupancy
  Ca  Ca0  1  0.24994200  0.25001200  0.50001000  1
  Mn  Mn1  1  0.55504400  0.53132400  0.96001900  1
  Mn  Mn2  1  0.94485100  0.96869600  0.04004800  1
  O  O3  1  0.10260500  0.78158500  0.80107500  1
  O  O4  1  0.39729200  0.71842000  0.19893900  1
  O  O5  1  0.65677000  0.27406300  0.78302600  1
  O  O6  1  0.84311900  0.22593700  0.21699800  1
