# generated using pymatgen
data_Mn2HO4
_symmetry_space_group_name_H-M   'P 1'
_cell_length_a   5.76177800
_cell_length_b   6.36570000
_cell_length_c   8.35477200
_cell_angle_alpha   90.00000000
_cell_angle_beta   90.00000000
_cell_angle_gamma   90.00000000
_symmetry_Int_Tables_number   1
_chemical_formula_structural   Mn2HO4
_chemical_formula_sum   'Mn8 H4 O16'
_cell_volume   306.43424052
_cell_formula_units_Z   4
loop_
 _symmetry_equiv_pos_site_id
 _symmetry_equiv_pos_as_xyz
  1  'x, y, z'
loop_
 _atom_site_type_symbol
 _atom_site_label
 _atom_site_symmetry_multiplicity
 _atom_site_fract_x
 _atom_site_fract_y
 _atom_site_fract_z
 _atom_site_occupancy
  Mn  Mn0  1  0.50000000  0.00000000  0.00000000  1
  Mn  Mn1  1  0.00000000  0.50000000  0.50000000  1
  Mn  Mn2  1  0.50000000  0.50000000  0.00000000  1
  Mn  Mn3  1  0.00000000  0.00000000  0.50000000  1
  Mn  Mn4  1  0.20898900  0.75000000  0.24609300  1
  Mn  Mn5  1  0.79101100  0.25000000  0.75390700  1
  Mn  Mn6  1  0.70898900  0.75000000  0.25390700  1
  Mn  Mn7  1  0.29101100  0.25000000  0.74609300  1
  H  H8  1  0.93499800  0.25000000  0.03870700  1
  H  H9  1  0.56500200  0.75000000  0.53870700  1
  H  H10  1  0.43499800  0.25000000  0.46129300  1
  H  H11  1  0.06500200  0.75000000  0.96129300  1
  O  O12  1  0.21872100  0.75000000  0.01279000  1
  O  O13  1  0.79868800  0.25000000  0.52119300  1
  O  O14  1  0.70131200  0.75000000  0.02119300  1
  O  O15  1  0.28127900  0.25000000  0.51279000  1
  O  O16  1  0.46154600  0.95245200  0.23284000  1
  O  O17  1  0.03845400  0.45245200  0.73284000  1
  O  O18  1  0.46154600  0.54754800  0.23284000  1
  O  O19  1  0.03845400  0.04754800  0.73284000  1
  O  O20  1  0.71872100  0.75000000  0.48721000  1
  O  O21  1  0.29868800  0.25000000  0.97880700  1
  O  O22  1  0.20131200  0.75000000  0.47880700  1
  O  O23  1  0.78127900  0.25000000  0.98721000  1
  O  O24  1  0.96154600  0.95245200  0.26716000  1
  O  O25  1  0.53845400  0.45245200  0.76716000  1
  O  O26  1  0.96154600  0.54754800  0.26716000  1
  O  O27  1  0.53845400  0.04754800  0.76716000  1
