# generated using pymatgen
data_Sn2N2O
_symmetry_space_group_name_H-M   'P 1'
_cell_length_a   14.46468597
_cell_length_b   14.46468597
_cell_length_c   14.46468597
_cell_angle_alpha   154.23057245
_cell_angle_beta   154.23057245
_cell_angle_gamma   36.76455850
_symmetry_Int_Tables_number   1
_chemical_formula_structural   Sn2N2O
_chemical_formula_sum   'Sn16 N16 O8'
_cell_volume   571.23144164
_cell_formula_units_Z   8
loop_
 _symmetry_equiv_pos_site_id
 _symmetry_equiv_pos_as_xyz
  1  'x, y, z'
loop_
 _atom_site_type_symbol
 _atom_site_label
 _atom_site_symmetry_multiplicity
 _atom_site_fract_x
 _atom_site_fract_y
 _atom_site_fract_z
 _atom_site_occupancy
  Sn  Sn0  1  0.87500000  0.12500000  0.75000000  1
  Sn  Sn1  1  0.37500000  0.12500000  0.25000000  1
  Sn  Sn2  1  0.87500000  0.12500000  0.25000000  1
  Sn  Sn3  1  0.54284200  0.29384700  0.75100500  1
  Sn  Sn4  1  0.08105400  0.58105400  0.50000000  1
  Sn  Sn5  1  0.33105400  0.33105400  0.00000000  1
  Sn  Sn6  1  0.20816300  0.45715800  0.75100500  1
  Sn  Sn7  1  0.70615300  0.45715800  0.24899500  1
  Sn  Sn8  1  0.54284200  0.79183700  0.24899500  1
  Sn  Sn9  1  0.87500000  0.62500000  0.75000000  1
  Sn  Sn10  1  0.20715800  0.45816300  0.25100500  1
  Sn  Sn11  1  0.54183700  0.79284200  0.74899500  1
  Sn  Sn12  1  0.04384700  0.79284200  0.25100500  1
  Sn  Sn13  1  0.41894600  0.91894600  0.50000000  1
  Sn  Sn14  1  0.66894600  0.66894600  0.00000000  1
  Sn  Sn15  1  0.20715800  0.95615300  0.74899500  1
  N  N16  1  0.62352200  0.35757000  0.73404900  1
  N  N17  1  0.46281200  0.22966100  0.76684800  1
  N  N18  1  0.64243000  0.37647800  0.26595100  1
  N  N19  1  0.11052700  0.37647800  0.73404900  1
  N  N20  1  0.30403600  0.53718800  0.76684800  1
  N  N21  1  0.77033900  0.53718800  0.23315200  1
  N  N22  1  0.46281200  0.69596400  0.23315200  1
  N  N23  1  0.12647800  0.36052700  0.23404900  1
  N  N24  1  0.62352200  0.88947300  0.26595100  1
  N  N25  1  0.28718800  0.55403600  0.26684800  1
  N  N26  1  0.97966100  0.71281200  0.26684800  1
  N  N27  1  0.44596400  0.71281200  0.73315200  1
  N  N28  1  0.63947300  0.87352200  0.76595100  1
  N  N29  1  0.10757000  0.87352200  0.23404900  1
  N  N30  1  0.28718800  0.02033900  0.73315200  1
  N  N31  1  0.12647800  0.89243000  0.76595100  1
  O  O32  1  0.95174100  0.23826700  0.28652600  1
  O  O33  1  0.98826700  0.20174100  0.78652600  1
  O  O34  1  0.41521500  0.20174100  0.21347400  1
  O  O35  1  0.95174100  0.66521500  0.71347400  1
  O  O36  1  0.79825900  0.58478500  0.78652600  1
  O  O37  1  0.33478500  0.04825900  0.28652600  1
  O  O38  1  0.76173300  0.04825900  0.71347400  1
  O  O39  1  0.79825900  0.01173300  0.21347400  1
