# generated using pymatgen
data_MnHO2
_symmetry_space_group_name_H-M   'P 1'
_cell_length_a   3.23680077
_cell_length_b   5.26040841
_cell_length_c   4.78128272
_cell_angle_alpha   99.43468822
_cell_angle_beta   105.92055597
_cell_angle_gamma   84.02767601
_symmetry_Int_Tables_number   1
_chemical_formula_structural   MnHO2
_chemical_formula_sum   'Mn2 H2 O4'
_cell_volume   77.07880760
_cell_formula_units_Z   2
loop_
 _symmetry_equiv_pos_site_id
 _symmetry_equiv_pos_as_xyz
  1  'x, y, z'
loop_
 _atom_site_type_symbol
 _atom_site_label
 _atom_site_symmetry_multiplicity
 _atom_site_fract_x
 _atom_site_fract_y
 _atom_site_fract_z
 _atom_site_occupancy
  Mn  Mn0  1  0.56387700  0.48852500  0.01805600  1
  Mn  Mn1  1  0.06387500  0.98852400  0.01805300  1
  H  H2  1  0.32144500  0.74154500  0.55145300  1
  H  H3  1  0.82144600  0.24154400  0.55145300  1
  O  O4  1  0.43104700  0.77792400  0.78324000  1
  O  O5  1  0.93104700  0.27792500  0.78324000  1
  O  O6  1  0.68214700  0.19529400  0.23204000  1
  O  O7  1  0.18214700  0.69529300  0.23203900  1
