# generated using pymatgen
data_CaMnO2
_symmetry_space_group_name_H-M   'P 1'
_cell_length_a   6.60223339
_cell_length_b   6.60223339
_cell_length_c   6.60223339
_cell_angle_alpha   60.00000000
_cell_angle_beta   60.00000000
_cell_angle_gamma   60.00000000
_symmetry_Int_Tables_number   1
_chemical_formula_structural   CaMnO2
_chemical_formula_sum   'Ca4 Mn4 O8'
_cell_volume   203.49681664
_cell_formula_units_Z   4
loop_
 _symmetry_equiv_pos_site_id
 _symmetry_equiv_pos_as_xyz
  1  'x, y, z'
loop_
 _atom_site_type_symbol
 _atom_site_label
 _atom_site_symmetry_multiplicity
 _atom_site_fract_x
 _atom_site_fract_y
 _atom_site_fract_z
 _atom_site_occupancy
  Ca  Ca0  1  0.12500000  0.12500000  0.12500000  1
  Ca  Ca1  1  0.12500000  0.12500000  0.62500000  1
  Ca  Ca2  1  0.12500000  0.62500000  0.12500000  1
  Ca  Ca3  1  0.62500000  0.12500000  0.12500000  1
  Mn  Mn4  1  0.62500000  0.62500000  0.12500000  1
  Mn  Mn5  1  0.62500000  0.12500000  0.62500000  1
  Mn  Mn6  1  0.12500000  0.62500000  0.62500000  1
  Mn  Mn7  1  0.62500000  0.62500000  0.62500000  1
  O  O8  1  0.37898400  0.37898400  0.37898400  1
  O  O9  1  0.86304900  0.37898400  0.37898400  1
  O  O10  1  0.37898400  0.86304900  0.37898400  1
  O  O11  1  0.37898400  0.37898400  0.86304900  1
  O  O12  1  0.38695100  0.87101600  0.87101600  1
  O  O13  1  0.87101600  0.87101600  0.87101600  1
  O  O14  1  0.87101600  0.87101600  0.38695100  1
  O  O15  1  0.87101600  0.38695100  0.87101600  1
