# generated using pymatgen
data_BW
_symmetry_space_group_name_H-M   'P 1'
_cell_length_a   4.55085591
_cell_length_b   4.55085591
_cell_length_c   3.10984900
_cell_angle_alpha   90.00000000
_cell_angle_beta   90.00000000
_cell_angle_gamma   139.06215527
_symmetry_Int_Tables_number   1
_chemical_formula_structural   BW
_chemical_formula_sum   'B2 W2'
_cell_volume   42.20129941
_cell_formula_units_Z   2
loop_
 _symmetry_equiv_pos_site_id
 _symmetry_equiv_pos_as_xyz
  1  'x, y, z'
loop_
 _atom_site_type_symbol
 _atom_site_label
 _atom_site_symmetry_multiplicity
 _atom_site_fract_x
 _atom_site_fract_y
 _atom_site_fract_z
 _atom_site_occupancy
  B  B0  1  0.56060000  0.43940000  0.75000000  1
  B  B1  1  0.43940000  0.56060000  0.25000000  1
  W  W2  1  0.85528900  0.14471100  0.75000000  1
  W  W3  1  0.14471100  0.85528900  0.25000000  1
