data_image0
_chemical_formula_structural       NpRhV2
_chemical_formula_sum              "Np1 Rh1 V2"
_cell_length_a       4.5349
_cell_length_b       4.5349
_cell_length_c       4.5349
_cell_angle_alpha    56.884
_cell_angle_beta     56.884
_cell_angle_gamma    56.884

_space_group_name_H-M_alt    "P 1"
_space_group_IT_number       1

loop_
  _space_group_symop_operation_xyz
  'x, y, z'

loop_
  _atom_site_type_symbol
  _atom_site_label
  _atom_site_symmetry_multiplicity
  _atom_site_fract_x
  _atom_site_fract_y
  _atom_site_fract_z
  _atom_site_occupancy
  Np  Np1       1.0  0.22200  0.22200  0.22200  1.0000
  Rh  Rh1       1.0  0.75400  0.75400  0.75400  1.0000
  V   V1        1.0  0.99900  0.99900  0.99900  1.0000
  V   V2        1.0  0.52500  0.52500  0.52500  1.0000
