data_image0
_chemical_formula_structural       Nb4O16Sb4
_chemical_formula_sum              "Nb4 O16 Sb4"
_cell_length_a       5.44931
_cell_length_b       4.86832
_cell_length_c       11.5595
_cell_angle_alpha    90
_cell_angle_beta     90
_cell_angle_gamma    90

_space_group_name_H-M_alt    "P 1"
_space_group_IT_number       1

loop_
  _space_group_symop_operation_xyz
  'x, y, z'

loop_
  _atom_site_type_symbol
  _atom_site_label
  _atom_site_symmetry_multiplicity
  _atom_site_fract_x
  _atom_site_fract_y
  _atom_site_fract_z
  _atom_site_occupancy
  Nb  Nb1       1.0  0.08970  0.98800  0.99800  1.0000
  Nb  Nb2       1.0  0.91000  0.01160  0.49800  1.0000
  Nb  Nb3       1.0  0.41000  0.48800  0.49800  1.0000
  Nb  Nb4       1.0  0.59000  0.51200  0.99800  1.0000
  O   O1        1.0  0.31700  0.31300  0.95100  1.0000
  O   O2        1.0  0.68300  0.68700  0.45100  1.0000
  O   O3        1.0  0.18300  0.81300  0.45100  1.0000
  O   O4        1.0  0.81700  0.18700  0.95100  1.0000
  O   O5        1.0  0.12900  0.16100  0.16200  1.0000
  O   O6        1.0  0.87100  0.83900  0.66200  1.0000
  O   O7        1.0  0.37100  0.66100  0.66200  1.0000
  O   O8        1.0  0.62900  0.33900  0.16200  1.0000
  O   O9        1.0  0.43100  0.82600  0.06460  1.0000
  O   O10       1.0  0.56900  0.17400  0.56500  1.0000
  O   O11       1.0  0.06900  0.32600  0.56500  1.0000
  O   O12       1.0  0.93100  0.67400  0.06460  1.0000
  O   O13       1.0  0.19400  0.83800  0.84900  1.0000
  O   O14       1.0  0.80600  0.16200  0.34900  1.0000
  O   O15       1.0  0.30600  0.33800  0.34900  1.0000
  O   O16       1.0  0.69400  0.66200  0.84900  1.0000
  Sb  Sb1       1.0  0.45600  0.03100  0.24800  1.0000
  Sb  Sb2       1.0  0.54400  0.96900  0.74800  1.0000
  Sb  Sb3       1.0  0.04420  0.53100  0.74800  1.0000
  Sb  Sb4       1.0  0.95600  0.46900  0.24800  1.0000
