# generated using pymatgen
data_SrC2
_symmetry_space_group_name_H-M   'P 1'
_cell_length_a   3.71078575
_cell_length_b   3.71078575
_cell_length_c   3.71078533
_cell_angle_alpha   85.43448185
_cell_angle_beta   85.43448185
_cell_angle_gamma   85.43449271
_symmetry_Int_Tables_number   1
_chemical_formula_structural   SrC2
_chemical_formula_sum   'Sr1 C2'
_cell_volume   50.63531174
_cell_formula_units_Z   1
loop_
 _symmetry_equiv_pos_site_id
 _symmetry_equiv_pos_as_xyz
  1  'x, y, z'
loop_
 _atom_site_type_symbol
 _atom_site_label
 _atom_site_symmetry_multiplicity
 _atom_site_fract_x
 _atom_site_fract_y
 _atom_site_fract_z
 _atom_site_occupancy
  Sr  Sr0  1  0.00000000  0.00000000  0.00000000  1
  C  C1  1  0.59155800  0.59155800  0.59155800  1
  C  C2  1  0.40844200  0.40844200  0.40844200  1
