# generated using pymatgen
data_Sr2Fe23O38
_symmetry_space_group_name_H-M   'P 1'
_cell_length_a   5.99366171
_cell_length_b   5.99402644
_cell_length_c   23.38703419
_cell_angle_alpha   89.93106952
_cell_angle_beta   90.07499318
_cell_angle_gamma   120.04118270
_symmetry_Int_Tables_number   1
_chemical_formula_structural   Sr2Fe23O38
_chemical_formula_sum   'Sr2 Fe23 O38'
_cell_volume   727.33724904
_cell_formula_units_Z   1
loop_
 _symmetry_equiv_pos_site_id
 _symmetry_equiv_pos_as_xyz
  1  'x, y, z'
loop_
 _atom_site_type_symbol
 _atom_site_label
 _atom_site_symmetry_multiplicity
 _atom_site_fract_x
 _atom_site_fract_y
 _atom_site_fract_z
 _atom_site_occupancy
  Sr  Sr0  1  0.33326400  0.66669400  0.74947900  1
  Sr  Sr1  1  0.66552200  0.33409500  0.25033200  1
  Fe  Fe2  1  0.16820300  0.83179600  0.60944700  1
  Fe  Fe3  1  0.16840100  0.83162800  0.89060900  1
  Fe  Fe4  1  0.33319600  0.66675300  0.19171500  1
  Fe  Fe5  1  0.33329500  0.66673300  0.02724400  1
  Fe  Fe6  1  0.16816700  0.33650000  0.60943000  1
  Fe  Fe7  1  0.33092800  0.66839800  0.30498000  1
  Fe  Fe8  1  0.00006300  0.99998300  0.00016300  1
  Fe  Fe9  1  0.00012900  0.99992100  0.49970300  1
  Fe  Fe10  1  0.99997300  0.00003600  0.75125600  1
  Fe  Fe11  1  0.33323000  0.66671900  0.47254100  1
  Fe  Fe12  1  0.16843500  0.33682000  0.89059300  1
  Fe  Fe13  1  0.66318700  0.83158300  0.89058800  1
  Fe  Fe14  1  0.66349600  0.83183100  0.60942700  1
  Fe  Fe15  1  0.33471100  0.16718700  0.10982500  1
  Fe  Fe16  1  0.33406200  0.16745300  0.38971500  1
  Fe  Fe17  1  0.66672500  0.33330100  0.69097800  1
  Fe  Fe18  1  0.66690500  0.33320400  0.97305500  1
  Fe  Fe19  1  0.66669100  0.33331500  0.52652000  1
  Fe  Fe20  1  0.66658700  0.33339700  0.80901900  1
  Fe  Fe21  1  0.83246200  0.66594600  0.38975600  1
  Fe  Fe22  1  0.83298200  0.66549100  0.10983700  1
  Fe  Fe23  1  0.83318800  0.16694700  0.10986500  1
  Fe  Fe24  1  0.83299100  0.16684300  0.38998500  1
  O  O25  1  0.15641900  0.84366600  0.05283000  1
  O  O26  1  0.15608900  0.84393900  0.44714400  1
  O  O27  1  0.01185400  0.50602400  0.84860000  1
  O  O28  1  0.01212900  0.50591700  0.65160300  1
  O  O29  1  0.19459000  0.80529800  0.25326100  1
  O  O30  1  0.33340900  0.66664400  0.94424900  1
  O  O31  1  0.33320300  0.66673100  0.55576600  1
  O  O32  1  0.15630800  0.31247300  0.05284100  1
  O  O33  1  0.00023900  0.99993000  0.14792600  1
  O  O34  1  0.99957800  0.00028500  0.35239300  1
  O  O35  1  0.00010300  0.99993300  0.65197000  1
  O  O36  1  0.15627900  0.31227300  0.44719900  1
  O  O37  1  0.99995600  0.00005000  0.84775500  1
  O  O38  1  0.19728700  0.39352100  0.25170400  1
  O  O39  1  0.49412400  0.98789300  0.65160100  1
  O  O40  1  0.49396900  0.98813700  0.84859100  1
  O  O41  1  0.60589300  0.80240100  0.25151700  1
  O  O42  1  0.31197200  0.15604400  0.55278700  1
  O  O43  1  0.31128700  0.15560700  0.94715400  1
  O  O44  1  0.49401300  0.50603800  0.65159900  1
  O  O45  1  0.49401900  0.50596500  0.84856000  1
  O  O46  1  0.50144200  0.49861300  0.34746300  1
  O  O47  1  0.50660700  0.49357400  0.15242500  1
  O  O48  1  0.68760400  0.84377400  0.05284600  1
  O  O49  1  0.68769300  0.84372700  0.44720800  1
  O  O50  1  0.36536600  0.18259600  0.75010400  1
  O  O51  1  0.50438600  0.00773100  0.15259000  1
  O  O52  1  0.50208400  0.00332600  0.34757500  1
  O  O53  1  0.66676900  0.33324000  0.44267200  1
  O  O54  1  0.66734100  0.33294500  0.05632900  1
  O  O55  1  0.81743300  0.63465900  0.75011100  1
  O  O56  1  0.84444100  0.68877100  0.94714700  1
  O  O57  1  0.84395400  0.68805400  0.55277700  1
  O  O58  1  0.81739500  0.18269000  0.75015000  1
  O  O59  1  0.99295800  0.49605500  0.15258500  1
  O  O60  1  0.99647400  0.49784400  0.34759500  1
  O  O61  1  0.84445500  0.15558300  0.94711200  1
  O  O62  1  0.84409500  0.15587700  0.55272900  1
