data_image0
_chemical_formula_structural       B8H56N16
_chemical_formula_sum              "B8 H56 N16"
_cell_length_a       9.03032
_cell_length_b       4.76311
_cell_length_c       12.0219
_cell_angle_alpha    90
_cell_angle_beta     90
_cell_angle_gamma    90

_space_group_name_H-M_alt    "P 1"
_space_group_IT_number       1

loop_
  _space_group_symop_operation_xyz
  'x, y, z'

loop_
  _atom_site_type_symbol
  _atom_site_label
  _atom_site_symmetry_multiplicity
  _atom_site_fract_x
  _atom_site_fract_y
  _atom_site_fract_z
  _atom_site_occupancy
  B   B1        1.0  0.60200  0.37900  0.11300  1.0000
  B   B2        1.0  0.10200  0.12100  0.38700  1.0000
  B   B3        1.0  0.39800  0.12100  0.61300  1.0000
  B   B4        1.0  0.89800  0.37900  0.88700  1.0000
  B   B5        1.0  0.39800  0.62100  0.88700  1.0000
  B   B6        1.0  0.89800  0.87900  0.61300  1.0000
  B   B7        1.0  0.60200  0.87900  0.38700  1.0000
  B   B8        1.0  0.10200  0.62100  0.11300  1.0000
  H   H1        1.0  0.62400  0.21400  0.03670  1.0000
  H   H2        1.0  0.12400  0.28600  0.46300  1.0000
  H   H3        1.0  0.37600  0.28600  0.53700  1.0000
  H   H4        1.0  0.87600  0.21400  0.96300  1.0000
  H   H5        1.0  0.37600  0.78600  0.96300  1.0000
  H   H6        1.0  0.87600  0.71400  0.53700  1.0000
  H   H7        1.0  0.62400  0.71400  0.46300  1.0000
  H   H8        1.0  0.12400  0.78600  0.03670  1.0000
  H   H9        1.0  0.63300  0.61900  0.08490  1.0000
  H   H10       1.0  0.13300  0.88100  0.41500  1.0000
  H   H11       1.0  0.36700  0.88100  0.58500  1.0000
  H   H12       1.0  0.86700  0.61900  0.91500  1.0000
  H   H13       1.0  0.36700  0.38100  0.91500  1.0000
  H   H14       1.0  0.86700  0.11900  0.58500  1.0000
  H   H15       1.0  0.63300  0.11900  0.41500  1.0000
  H   H16       1.0  0.13300  0.38100  0.08490  1.0000
  H   H17       1.0  0.66700  0.30600  0.19500  1.0000
  H   H18       1.0  0.16700  0.19400  0.30500  1.0000
  H   H19       1.0  0.33300  0.19400  0.69500  1.0000
  H   H20       1.0  0.83300  0.30600  0.80500  1.0000
  H   H21       1.0  0.33300  0.69400  0.80500  1.0000
  H   H22       1.0  0.83300  0.80600  0.69500  1.0000
  H   H23       1.0  0.66700  0.80600  0.30500  1.0000
  H   H24       1.0  0.16700  0.69400  0.19500  1.0000
  H   H25       1.0  0.40500  0.98900  0.07980  1.0000
  H   H26       1.0  0.90500  0.51100  0.42000  1.0000
  H   H27       1.0  0.59500  0.51100  0.58000  1.0000
  H   H28       1.0  0.09530  0.98900  0.92000  1.0000
  H   H29       1.0  0.59500  0.01100  0.92000  1.0000
  H   H30       1.0  0.09530  0.48900  0.58000  1.0000
  H   H31       1.0  0.40500  0.48900  0.42000  1.0000
  H   H32       1.0  0.90500  0.01100  0.07980  1.0000
  H   H33       1.0  0.25900  0.11200  0.14800  1.0000
  H   H34       1.0  0.75900  0.38800  0.35200  1.0000
  H   H35       1.0  0.74100  0.38800  0.64800  1.0000
  H   H36       1.0  0.24100  0.11200  0.85200  1.0000
  H   H37       1.0  0.74100  0.88800  0.85200  1.0000
  H   H38       1.0  0.24100  0.61200  0.64800  1.0000
  H   H39       1.0  0.25900  0.61200  0.35200  1.0000
  H   H40       1.0  0.75900  0.88800  0.14800  1.0000
  H   H41       1.0  0.37500  0.48500  0.07590  1.0000
  H   H42       1.0  0.87500  0.01520  0.42400  1.0000
  H   H43       1.0  0.62500  0.01520  0.57600  1.0000
  H   H44       1.0  0.12500  0.48500  0.92400  1.0000
  H   H45       1.0  0.62500  0.51500  0.92400  1.0000
  H   H46       1.0  0.12500  0.98500  0.57600  1.0000
  H   H47       1.0  0.37500  0.98500  0.42400  1.0000
  H   H48       1.0  0.87500  0.51500  0.07590  1.0000
  H   H49       1.0  0.41100  0.47800  0.21600  1.0000
  H   H50       1.0  0.91100  0.02170  0.28400  1.0000
  H   H51       1.0  0.58900  0.02170  0.71600  1.0000
  H   H52       1.0  0.08870  0.47800  0.78400  1.0000
  H   H53       1.0  0.58900  0.52200  0.78400  1.0000
  H   H54       1.0  0.08870  0.97800  0.71600  1.0000
  H   H55       1.0  0.41100  0.97800  0.28400  1.0000
  H   H56       1.0  0.91100  0.52200  0.21600  1.0000
  N   N1        1.0  0.43200  0.37900  0.13800  1.0000
  N   N2        1.0  0.93200  0.12100  0.36200  1.0000
  N   N3        1.0  0.56800  0.12100  0.63800  1.0000
  N   N4        1.0  0.06850  0.37900  0.86200  1.0000
  N   N5        1.0  0.56800  0.62100  0.86200  1.0000
  N   N6        1.0  0.06850  0.87900  0.63800  1.0000
  N   N7        1.0  0.43200  0.87900  0.36200  1.0000
  N   N8        1.0  0.93200  0.62100  0.13800  1.0000
  N   N9        1.0  0.37300  0.09930  0.15000  1.0000
  N   N10       1.0  0.87300  0.40100  0.35000  1.0000
  N   N11       1.0  0.62700  0.40100  0.65000  1.0000
  N   N12       1.0  0.12700  0.09930  0.85000  1.0000
  N   N13       1.0  0.62700  0.90100  0.85000  1.0000
  N   N14       1.0  0.12700  0.59900  0.65000  1.0000
  N   N15       1.0  0.37300  0.59900  0.35000  1.0000
  N   N16       1.0  0.87300  0.90100  0.15000  1.0000
