# generated using pymatgen
data_Rb4TiO4
_symmetry_space_group_name_H-M   'P 1'
_cell_length_a   6.75832000
_cell_length_b   6.76564106
_cell_length_c   10.11139624
_cell_angle_alpha   71.85113602
_cell_angle_beta   79.51267021
_cell_angle_gamma   66.43316247
_symmetry_Int_Tables_number   1
_chemical_formula_structural   Rb4TiO4
_chemical_formula_sum   'Rb8 Ti2 O8'
_cell_volume   401.81513456
_cell_formula_units_Z   2
loop_
 _symmetry_equiv_pos_site_id
 _symmetry_equiv_pos_as_xyz
  1  'x, y, z'
loop_
 _atom_site_type_symbol
 _atom_site_label
 _atom_site_symmetry_multiplicity
 _atom_site_fract_x
 _atom_site_fract_y
 _atom_site_fract_z
 _atom_site_occupancy
  Rb  Rb0  1  0.23980800  0.76320700  0.03033200  1
  Rb  Rb1  1  0.27518500  0.51005600  0.43895400  1
  Rb  Rb2  1  0.25651600  0.40440500  0.83932000  1
  Rb  Rb3  1  0.21748600  0.96635800  0.61976800  1
  Rb  Rb4  1  0.78251400  0.03364200  0.38023200  1
  Rb  Rb5  1  0.74348400  0.59559500  0.16068000  1
  Rb  Rb6  1  0.72481500  0.48994400  0.56104600  1
  Rb  Rb7  1  0.76019200  0.23679300  0.96966800  1
  Ti  Ti8  1  0.27205000  0.15795900  0.24777300  1
  Ti  Ti9  1  0.72795000  0.84204100  0.75222700  1
  O  O10  1  0.13840000  0.16045100  0.10291600  1
  O  O11  1  0.05296400  0.29389800  0.36723300  1
  O  O12  1  0.44813400  0.32532800  0.19069700  1
  O  O13  1  0.56493400  0.12893500  0.65468700  1
  O  O14  1  0.43506600  0.87106500  0.34531300  1
  O  O15  1  0.55186600  0.67467200  0.80930300  1
  O  O16  1  0.94703600  0.70610200  0.63276700  1
  O  O17  1  0.86160000  0.83954900  0.89708400  1
