# generated using pymatgen
data_MgSnP2
_symmetry_space_group_name_H-M   'P 1'
_cell_length_a   7.17400991
_cell_length_b   7.17400991
_cell_length_c   7.17400991
_cell_angle_alpha   131.24430631
_cell_angle_beta   131.24430631
_cell_angle_gamma   71.42521393
_symmetry_Int_Tables_number   1
_chemical_formula_structural   MgSnP2
_chemical_formula_sum   'Mg2 Sn2 P4'
_cell_volume   204.29460806
_cell_formula_units_Z   2
loop_
 _symmetry_equiv_pos_site_id
 _symmetry_equiv_pos_as_xyz
  1  'x, y, z'
loop_
 _atom_site_type_symbol
 _atom_site_label
 _atom_site_symmetry_multiplicity
 _atom_site_fract_x
 _atom_site_fract_y
 _atom_site_fract_z
 _atom_site_occupancy
  Mg  Mg0  1  0.25000000  0.75000000  0.50000000  1
  Mg  Mg1  1  0.50000000  0.50000000  0.00000000  1
  Sn  Sn2  1  0.75000000  0.25000000  0.50000000  1
  Sn  Sn3  1  0.00000000  0.00000000  0.00000000  1
  P  P4  1  0.62751200  0.62500000  0.50251200  1
  P  P5  1  0.87500000  0.37248800  0.99748800  1
  P  P6  1  0.37500000  0.87751200  0.00251200  1
  P  P7  1  0.12248800  0.12500000  0.49748800  1
