# generated using pymatgen
data_Na3V2(GeO4)3
_symmetry_space_group_name_H-M   'P 1'
_cell_length_a   10.66190895
_cell_length_b   10.66190895
_cell_length_c   10.66190895
_cell_angle_alpha   109.47122063
_cell_angle_beta   109.47122063
_cell_angle_gamma   109.47122063
_symmetry_Int_Tables_number   1
_chemical_formula_structural   Na3V2(GeO4)3
_chemical_formula_sum   'Na12 V8 Ge12 O48'
_cell_volume   933.00295033
_cell_formula_units_Z   4
loop_
 _symmetry_equiv_pos_site_id
 _symmetry_equiv_pos_as_xyz
  1  'x, y, z'
loop_
 _atom_site_type_symbol
 _atom_site_label
 _atom_site_symmetry_multiplicity
 _atom_site_fract_x
 _atom_site_fract_y
 _atom_site_fract_z
 _atom_site_occupancy
  Na  Na0  1  0.75000000  0.62500000  0.87500000  1
  Na  Na1  1  0.25000000  0.87500000  0.62500000  1
  Na  Na2  1  0.62500000  0.25000000  0.87500000  1
  Na  Na3  1  0.87500000  0.75000000  0.62500000  1
  Na  Na4  1  0.87500000  0.62500000  0.25000000  1
  Na  Na5  1  0.62500000  0.87500000  0.75000000  1
  Na  Na6  1  0.25000000  0.37500000  0.12500000  1
  Na  Na7  1  0.75000000  0.12500000  0.37500000  1
  Na  Na8  1  0.37500000  0.75000000  0.12500000  1
  Na  Na9  1  0.12500000  0.25000000  0.37500000  1
  Na  Na10  1  0.12500000  0.37500000  0.75000000  1
  Na  Na11  1  0.37500000  0.12500000  0.25000000  1
  V  V12  1  0.50000000  0.00000000  0.50000000  1
  V  V13  1  0.00000000  0.50000000  0.00000000  1
  V  V14  1  0.50000000  0.50000000  0.50000000  1
  V  V15  1  0.00000000  0.00000000  0.50000000  1
  V  V16  1  0.00000000  0.00000000  0.00000000  1
  V  V17  1  0.00000000  0.50000000  0.50000000  1
  V  V18  1  0.50000000  0.50000000  0.00000000  1
  V  V19  1  0.50000000  0.00000000  0.00000000  1
  Ge  Ge20  1  0.37500000  0.62500000  0.75000000  1
  Ge  Ge21  1  0.62500000  0.37500000  0.25000000  1
  Ge  Ge22  1  0.62500000  0.75000000  0.37500000  1
  Ge  Ge23  1  0.25000000  0.12500000  0.87500000  1
  Ge  Ge24  1  0.87500000  0.25000000  0.12500000  1
  Ge  Ge25  1  0.75000000  0.37500000  0.62500000  1
  Ge  Ge26  1  0.25000000  0.62500000  0.37500000  1
  Ge  Ge27  1  0.75000000  0.87500000  0.12500000  1
  Ge  Ge28  1  0.12500000  0.75000000  0.87500000  1
  Ge  Ge29  1  0.37500000  0.25000000  0.62500000  1
  Ge  Ge30  1  0.87500000  0.12500000  0.75000000  1
  Ge  Ge31  1  0.12500000  0.87500000  0.25000000  1
  O  O32  1  0.51067900  0.39874400  0.81894500  1
  O  O33  1  0.81894500  0.51067900  0.39874400  1
  O  O34  1  0.80826500  0.88806500  0.98932100  1
  O  O35  1  0.42020100  0.10125600  0.61193500  1
  O  O36  1  0.88806500  0.39874400  0.07979900  1
  O  O37  1  0.68105500  0.07979900  0.69173500  1
  O  O38  1  0.81894500  0.80826500  0.42020100  1
  O  O39  1  0.39874400  0.81894500  0.51067900  1
  O  O40  1  0.61193500  0.69173500  0.51067900  1
  O  O41  1  0.42020100  0.81894500  0.80826500  1
  O  O42  1  0.39874400  0.07979900  0.88806500  1
  O  O43  1  0.10125600  0.98932100  0.68105500  1
  O  O44  1  0.98932100  0.68105500  0.10125600  1
  O  O45  1  0.80826500  0.42020100  0.81894500  1
  O  O46  1  0.51067900  0.61193500  0.69173500  1
  O  O47  1  0.69173500  0.51067900  0.61193500  1
  O  O48  1  0.07979900  0.88806500  0.39874400  1
  O  O49  1  0.98932100  0.80826500  0.88806500  1
  O  O50  1  0.07979900  0.69173500  0.68105500  1
  O  O51  1  0.38806500  0.30826500  0.48932100  1
  O  O52  1  0.61193500  0.42020100  0.10125600  1
  O  O53  1  0.10125600  0.61193500  0.42020100  1
  O  O54  1  0.69173500  0.68105500  0.07979900  1
  O  O55  1  0.68105500  0.10125600  0.98932100  1
  O  O56  1  0.48932100  0.60125600  0.18105500  1
  O  O57  1  0.18105500  0.48932100  0.60125600  1
  O  O58  1  0.19173500  0.11193500  0.01067900  1
  O  O59  1  0.57979900  0.89874400  0.38806500  1
  O  O60  1  0.11193500  0.60125600  0.92020100  1
  O  O61  1  0.31894500  0.92020100  0.30826500  1
  O  O62  1  0.18105500  0.19173500  0.57979900  1
  O  O63  1  0.60125600  0.18105500  0.48932100  1
  O  O64  1  0.31894500  0.89874400  0.01067900  1
  O  O65  1  0.30826500  0.31894500  0.92020100  1
  O  O66  1  0.89874400  0.38806500  0.57979900  1
  O  O67  1  0.11193500  0.01067900  0.19173500  1
  O  O68  1  0.38806500  0.57979900  0.89874400  1
  O  O69  1  0.92020100  0.30826500  0.31894500  1
  O  O70  1  0.01067900  0.19173500  0.11193500  1
  O  O71  1  0.92020100  0.11193500  0.60125600  1
  O  O72  1  0.30826500  0.48932100  0.38806500  1
  O  O73  1  0.48932100  0.38806500  0.30826500  1
  O  O74  1  0.19173500  0.57979900  0.18105500  1
  O  O75  1  0.01067900  0.31894500  0.89874400  1
  O  O76  1  0.89874400  0.01067900  0.31894500  1
  O  O77  1  0.60125600  0.92020100  0.11193500  1
  O  O78  1  0.57979900  0.18105500  0.19173500  1
  O  O79  1  0.88806500  0.98932100  0.80826500  1
