# generated using pymatgen
data_Na3Ti2(GeO4)3
_symmetry_space_group_name_H-M   'P 1'
_cell_length_a   10.75831316
_cell_length_b   10.75831316
_cell_length_c   10.75831316
_cell_angle_alpha   109.47122063
_cell_angle_beta   109.47122063
_cell_angle_gamma   109.47122063
_symmetry_Int_Tables_number   1
_chemical_formula_structural   Na3Ti2(GeO4)3
_chemical_formula_sum   'Na12 Ti8 Ge12 O48'
_cell_volume   958.54091437
_cell_formula_units_Z   4
loop_
 _symmetry_equiv_pos_site_id
 _symmetry_equiv_pos_as_xyz
  1  'x, y, z'
loop_
 _atom_site_type_symbol
 _atom_site_label
 _atom_site_symmetry_multiplicity
 _atom_site_fract_x
 _atom_site_fract_y
 _atom_site_fract_z
 _atom_site_occupancy
  Na  Na0  1  0.75000000  0.62500000  0.87500000  1
  Na  Na1  1  0.25000000  0.87500000  0.62500000  1
  Na  Na2  1  0.62500000  0.25000000  0.87500000  1
  Na  Na3  1  0.87500000  0.75000000  0.62500000  1
  Na  Na4  1  0.87500000  0.62500000  0.25000000  1
  Na  Na5  1  0.62500000  0.87500000  0.75000000  1
  Na  Na6  1  0.25000000  0.37500000  0.12500000  1
  Na  Na7  1  0.75000000  0.12500000  0.37500000  1
  Na  Na8  1  0.37500000  0.75000000  0.12500000  1
  Na  Na9  1  0.12500000  0.25000000  0.37500000  1
  Na  Na10  1  0.12500000  0.37500000  0.75000000  1
  Na  Na11  1  0.37500000  0.12500000  0.25000000  1
  Ti  Ti12  1  0.50000000  0.00000000  0.50000000  1
  Ti  Ti13  1  0.00000000  0.50000000  0.00000000  1
  Ti  Ti14  1  0.50000000  0.50000000  0.50000000  1
  Ti  Ti15  1  0.00000000  0.00000000  0.50000000  1
  Ti  Ti16  1  0.00000000  0.00000000  0.00000000  1
  Ti  Ti17  1  0.00000000  0.50000000  0.50000000  1
  Ti  Ti18  1  0.50000000  0.50000000  0.00000000  1
  Ti  Ti19  1  0.50000000  0.00000000  0.00000000  1
  Ge  Ge20  1  0.37500000  0.62500000  0.75000000  1
  Ge  Ge21  1  0.62500000  0.37500000  0.25000000  1
  Ge  Ge22  1  0.62500000  0.75000000  0.37500000  1
  Ge  Ge23  1  0.25000000  0.12500000  0.87500000  1
  Ge  Ge24  1  0.87500000  0.25000000  0.12500000  1
  Ge  Ge25  1  0.75000000  0.37500000  0.62500000  1
  Ge  Ge26  1  0.25000000  0.62500000  0.37500000  1
  Ge  Ge27  1  0.75000000  0.87500000  0.12500000  1
  Ge  Ge28  1  0.12500000  0.75000000  0.87500000  1
  Ge  Ge29  1  0.37500000  0.25000000  0.62500000  1
  Ge  Ge30  1  0.87500000  0.12500000  0.75000000  1
  Ge  Ge31  1  0.12500000  0.87500000  0.25000000  1
  O  O32  1  0.51019700  0.39757200  0.81648000  1
  O  O33  1  0.81648000  0.51019700  0.39757200  1
  O  O34  1  0.80628200  0.88737500  0.98980300  1
  O  O35  1  0.41890700  0.10242800  0.61262500  1
  O  O36  1  0.88737500  0.39757200  0.08109300  1
  O  O37  1  0.68352000  0.08109300  0.69371800  1
  O  O38  1  0.81648000  0.80628200  0.41890700  1
  O  O39  1  0.39757200  0.81648000  0.51019700  1
  O  O40  1  0.61262500  0.69371800  0.51019700  1
  O  O41  1  0.41890700  0.81648000  0.80628200  1
  O  O42  1  0.39757200  0.08109300  0.88737500  1
  O  O43  1  0.10242800  0.98980300  0.68352000  1
  O  O44  1  0.98980300  0.68352000  0.10242800  1
  O  O45  1  0.80628200  0.41890700  0.81648000  1
  O  O46  1  0.51019700  0.61262500  0.69371800  1
  O  O47  1  0.69371800  0.51019700  0.61262500  1
  O  O48  1  0.08109300  0.88737500  0.39757200  1
  O  O49  1  0.98980300  0.80628200  0.88737500  1
  O  O50  1  0.08109300  0.69371800  0.68352000  1
  O  O51  1  0.38737500  0.30628200  0.48980300  1
  O  O52  1  0.61262500  0.41890700  0.10242800  1
  O  O53  1  0.10242800  0.61262500  0.41890700  1
  O  O54  1  0.69371800  0.68352000  0.08109300  1
  O  O55  1  0.68352000  0.10242800  0.98980300  1
  O  O56  1  0.48980300  0.60242800  0.18352000  1
  O  O57  1  0.18352000  0.48980300  0.60242800  1
  O  O58  1  0.19371800  0.11262500  0.01019700  1
  O  O59  1  0.58109300  0.89757200  0.38737500  1
  O  O60  1  0.11262500  0.60242800  0.91890700  1
  O  O61  1  0.31648000  0.91890700  0.30628200  1
  O  O62  1  0.18352000  0.19371800  0.58109300  1
  O  O63  1  0.60242800  0.18352000  0.48980300  1
  O  O64  1  0.31648000  0.89757200  0.01019700  1
  O  O65  1  0.30628200  0.31648000  0.91890700  1
  O  O66  1  0.89757200  0.38737500  0.58109300  1
  O  O67  1  0.11262500  0.01019700  0.19371800  1
  O  O68  1  0.38737500  0.58109300  0.89757200  1
  O  O69  1  0.91890700  0.30628200  0.31648000  1
  O  O70  1  0.01019700  0.19371800  0.11262500  1
  O  O71  1  0.91890700  0.11262500  0.60242800  1
  O  O72  1  0.30628200  0.48980300  0.38737500  1
  O  O73  1  0.48980300  0.38737500  0.30628200  1
  O  O74  1  0.19371800  0.58109300  0.18352000  1
  O  O75  1  0.01019700  0.31648000  0.89757200  1
  O  O76  1  0.89757200  0.01019700  0.31648000  1
  O  O77  1  0.60242800  0.91890700  0.11262500  1
  O  O78  1  0.58109300  0.18352000  0.19371800  1
  O  O79  1  0.88737500  0.98980300  0.80628200  1
