# generated using pymatgen
data_NdSmO2
_symmetry_space_group_name_H-M   'P 1'
_cell_length_a   6.12765173
_cell_length_b   6.12765173
_cell_length_c   6.12765173
_cell_angle_alpha   131.81740990
_cell_angle_beta   131.81740990
_cell_angle_gamma   70.51756142
_symmetry_Int_Tables_number   1
_chemical_formula_structural   NdSmO2
_chemical_formula_sum   'Nd2 Sm2 O4'
_cell_volume   125.21464595
_cell_formula_units_Z   2
loop_
 _symmetry_equiv_pos_site_id
 _symmetry_equiv_pos_as_xyz
  1  'x, y, z'
loop_
 _atom_site_type_symbol
 _atom_site_label
 _atom_site_symmetry_multiplicity
 _atom_site_fract_x
 _atom_site_fract_y
 _atom_site_fract_z
 _atom_site_occupancy
  Nd  Nd0  1  0.00000000  0.00000000  0.00000000  1
  Nd  Nd1  1  0.75000000  0.25000000  0.50000000  1
  Sm  Sm2  1  0.50000000  0.50000000  0.00000000  1
  Sm  Sm3  1  0.25000000  0.75000000  0.50000000  1
  O  O4  1  0.25253300  0.25253300  0.00000000  1
  O  O5  1  0.49746700  0.99746700  0.50000000  1
  O  O6  1  0.00253300  0.50253300  0.50000000  1
  O  O7  1  0.74746700  0.74746700  0.00000000  1
