# generated using pymatgen
data_B2W
_symmetry_space_group_name_H-M   'P 1'
_cell_length_a   3.02238682
_cell_length_b   3.02238682
_cell_length_c   3.38202900
_cell_angle_alpha   90.00000000
_cell_angle_beta   90.00000000
_cell_angle_gamma   120.00001789
_symmetry_Int_Tables_number   1
_chemical_formula_structural   B2W
_chemical_formula_sum   'B2 W1'
_cell_volume   26.75518593
_cell_formula_units_Z   1
loop_
 _symmetry_equiv_pos_site_id
 _symmetry_equiv_pos_as_xyz
  1  'x, y, z'
loop_
 _atom_site_type_symbol
 _atom_site_label
 _atom_site_symmetry_multiplicity
 _atom_site_fract_x
 _atom_site_fract_y
 _atom_site_fract_z
 _atom_site_occupancy
  B  B0  1  0.66666700  0.33333300  0.50000000  1
  B  B1  1  0.33333300  0.66666700  0.50000000  1
  W  W2  1  0.00000000  0.00000000  0.00000000  1
