# generated using pymatgen
data_Na2CoP2O7
_symmetry_space_group_name_H-M   'P 1'
_cell_length_a   7.87097400
_cell_length_b   7.87096700
_cell_length_c   10.29698600
_cell_angle_alpha   89.99998716
_cell_angle_beta   90.00004410
_cell_angle_gamma   90.00000000
_symmetry_Int_Tables_number   1
_chemical_formula_structural   Na2CoP2O7
_chemical_formula_sum   'Na8 Co4 P8 O28'
_cell_volume   637.92069524
_cell_formula_units_Z   4
loop_
 _symmetry_equiv_pos_site_id
 _symmetry_equiv_pos_as_xyz
  1  'x, y, z'
loop_
 _atom_site_type_symbol
 _atom_site_label
 _atom_site_symmetry_multiplicity
 _atom_site_fract_x
 _atom_site_fract_y
 _atom_site_fract_z
 _atom_site_occupancy
  Na  Na0  1  0.83287700  0.33287700  0.24532000  1
  Na  Na1  1  0.83287700  0.33287700  0.74532100  1
  Na  Na2  1  0.66712300  0.83287700  0.25467900  1
  Na  Na3  1  0.66712300  0.83287700  0.75468000  1
  Na  Na4  1  0.16712300  0.66712300  0.24532000  1
  Na  Na5  1  0.16712300  0.66712300  0.74532100  1
  Na  Na6  1  0.33287700  0.16712300  0.25467900  1
  Na  Na7  1  0.33287700  0.16712300  0.75468000  1
  Co  Co8  1  0.49999900  0.49999800  0.49999900  1
  Co  Co9  1  0.99999900  0.00000000  0.00000000  1
  Co  Co10  1  0.50000000  0.50000000  0.00000000  1
  Co  Co11  1  0.00000100  0.00000000  0.50000000  1
  P  P12  1  0.63847000  0.13847100  0.03583100  1
  P  P13  1  0.63847200  0.13847000  0.53583100  1
  P  P14  1  0.86152900  0.63847200  0.46416900  1
  P  P15  1  0.86152900  0.63847000  0.96416900  1
  P  P16  1  0.36152900  0.86152900  0.03583100  1
  P  P17  1  0.36152900  0.86152900  0.53583100  1
  P  P18  1  0.13847000  0.36152900  0.46417000  1
  P  P19  1  0.13847100  0.36152900  0.96416900  1
  O  O20  1  0.00000100  0.50000000  0.40853600  1
  O  O21  1  0.00000000  0.50000000  0.90853500  1
  O  O22  1  0.50000000  0.00000000  0.09146500  1
  O  O23  1  0.50000000  0.00000000  0.59146400  1
  O  O24  1  0.63971000  0.13971000  0.38941600  1
  O  O25  1  0.63971000  0.13971100  0.88941500  1
  O  O26  1  0.86028900  0.63971000  0.11058500  1
  O  O27  1  0.86029000  0.63971000  0.61058400  1
  O  O28  1  0.36029000  0.86029000  0.38941600  1
  O  O29  1  0.36029100  0.86029000  0.88941500  1
  O  O30  1  0.13971100  0.36029000  0.11058500  1
  O  O31  1  0.13971000  0.36028900  0.61058300  1
  O  O32  1  0.30428400  0.41992900  0.39657100  1
  O  O33  1  0.30428500  0.41992500  0.89656900  1
  O  O34  1  0.19571600  0.91992900  0.10343100  1
  O  O35  1  0.19571500  0.91992500  0.60342900  1
  O  O36  1  0.69571600  0.58007200  0.39657000  1
  O  O37  1  0.69571500  0.58007400  0.89656900  1
  O  O38  1  0.80428400  0.08007200  0.10343000  1
  O  O39  1  0.80428500  0.08007400  0.60343000  1
  O  O40  1  0.58007400  0.30428500  0.10343100  1
  O  O41  1  0.58007200  0.30428500  0.60342900  1
  O  O42  1  0.91992500  0.80428500  0.39657000  1
  O  O43  1  0.91992900  0.80428400  0.89656900  1
  O  O44  1  0.41992500  0.69571500  0.10343100  1
  O  O45  1  0.41992900  0.69571600  0.60343100  1
  O  O46  1  0.08007400  0.19571500  0.39657100  1
  O  O47  1  0.08007200  0.19571600  0.89656900  1
