# generated using pymatgen
data_Mg6SiB
_symmetry_space_group_name_H-M   'P 1'
_cell_length_a   6.28720992
_cell_length_b   6.28720992
_cell_length_c   3.97570800
_cell_angle_alpha   90.00000000
_cell_angle_beta   90.00000000
_cell_angle_gamma   103.51632907
_symmetry_Int_Tables_number   1
_chemical_formula_structural   Mg6SiB
_chemical_formula_sum   'Mg6 Si1 B1'
_cell_volume   152.80310633
_cell_formula_units_Z   1
loop_
 _symmetry_equiv_pos_site_id
 _symmetry_equiv_pos_as_xyz
  1  'x, y, z'
loop_
 _atom_site_type_symbol
 _atom_site_label
 _atom_site_symmetry_multiplicity
 _atom_site_fract_x
 _atom_site_fract_y
 _atom_site_fract_z
 _atom_site_occupancy
  Mg  Mg0  1  0.81360600  0.55579700  0.00000000  1
  Mg  Mg1  1  0.44420300  0.18639400  0.00000000  1
  Mg  Mg2  1  0.37136500  0.62863500  0.00000000  1
  Mg  Mg3  1  0.66364500  0.89777300  0.50000000  1
  Mg  Mg4  1  0.10222700  0.33635500  0.50000000  1
  Mg  Mg5  1  0.14036300  0.85963700  0.50000000  1
  Si  Si6  1  0.94649600  0.05350400  0.00000000  1
  B  B7  1  0.51809300  0.48190700  0.50000000  1
