# generated using pymatgen
data_CsMg6Mo
_symmetry_space_group_name_H-M   'P 1'
_cell_length_a   7.27382604
_cell_length_b   7.27382604
_cell_length_c   3.91651400
_cell_angle_alpha   90.00000000
_cell_angle_beta   90.00000000
_cell_angle_gamma   90.20487091
_symmetry_Int_Tables_number   1
_chemical_formula_structural   CsMg6Mo
_chemical_formula_sum   'Cs1 Mg6 Mo1'
_cell_volume   207.21573371
_cell_formula_units_Z   1
loop_
 _symmetry_equiv_pos_site_id
 _symmetry_equiv_pos_as_xyz
  1  'x, y, z'
loop_
 _atom_site_type_symbol
 _atom_site_label
 _atom_site_symmetry_multiplicity
 _atom_site_fract_x
 _atom_site_fract_y
 _atom_site_fract_z
 _atom_site_occupancy
  Cs  Cs0  1  0.87252700  0.12747300  0.50000000  1
  Mg  Mg1  1  0.37374400  0.11839800  0.50000000  1
  Mg  Mg2  1  0.88160200  0.62625600  0.50000000  1
  Mg  Mg3  1  0.17730500  0.42422200  0.00000000  1
  Mg  Mg4  1  0.57577800  0.82269500  0.00000000  1
  Mg  Mg5  1  0.57162800  0.42837200  0.00000000  1
  Mg  Mg6  1  0.17546300  0.82453700  0.00000000  1
  Mo  Mo7  1  0.37195900  0.62804100  0.50000000  1
