# generated using pymatgen
data_LiMn4(PO4)3
_symmetry_space_group_name_H-M   'P 1'
_cell_length_a   6.85078372
_cell_length_b   6.84781212
_cell_length_c   10.86446948
_cell_angle_alpha   71.64364397
_cell_angle_beta   71.68834203
_cell_angle_gamma   89.99566100
_symmetry_Int_Tables_number   1
_chemical_formula_structural   LiMn4(PO4)3
_chemical_formula_sum   'Li2 Mn8 P6 O24'
_cell_volume   456.47956706
_cell_formula_units_Z   2
loop_
 _symmetry_equiv_pos_site_id
 _symmetry_equiv_pos_as_xyz
  1  'x, y, z'
loop_
 _atom_site_type_symbol
 _atom_site_label
 _atom_site_symmetry_multiplicity
 _atom_site_fract_x
 _atom_site_fract_y
 _atom_site_fract_z
 _atom_site_occupancy
  Li  Li0  1  0.49769700  0.49758200  0.00405600  1
  Li  Li1  1  0.24815100  0.74344800  0.50264600  1
  Mn  Mn2  1  0.63660500  0.12540200  0.25069100  1
  Mn  Mn3  1  0.37477700  0.36438700  0.75079200  1
  Mn  Mn4  1  0.98140000  0.47998000  0.04037200  1
  Mn  Mn5  1  0.23016700  0.23059300  0.53907700  1
  Mn  Mn6  1  0.51979200  0.01986900  0.96150200  1
  Mn  Mn7  1  0.76727000  0.76975600  0.46288400  1
  Mn  Mn8  1  0.11021100  0.62604500  0.25117900  1
  Mn  Mn9  1  0.87475600  0.88958900  0.75063500  1
  P  P10  1  0.74917200  0.25183000  0.50070300  1
  P  P11  1  0.87440000  0.47543100  0.75165700  1
  P  P12  1  0.37425100  0.77980800  0.74990000  1
  P  P13  1  0.52449800  0.62574700  0.25050500  1
  P  P14  1  0.22197200  0.12511200  0.25070900  1
  P  P15  1  0.00032700  0.00093500  0.00060500  1
  O  O16  1  0.46808100  0.70056300  0.62339200  1
  O  O17  1  0.62495000  0.79069400  0.28884000  1
  O  O18  1  0.08286000  0.92080400  0.29147300  1
  O  O19  1  0.32086300  0.53120200  0.37809900  1
  O  O20  1  0.21086400  0.91947900  0.70956100  1
  O  O21  1  0.90428700  0.68046600  0.62515500  1
  O  O22  1  0.30176600  0.09427200  0.37671900  1
  O  O23  1  0.27901400  0.57597100  0.87677400  1
  O  O24  1  0.42545300  0.15664500  0.12338200  1
  O  O25  1  0.22872200  0.09569000  0.91795700  1
  O  O26  1  0.84488200  0.55286000  0.87835100  1
  O  O27  1  0.01183800  0.77173100  0.08242900  1
  O  O28  1  0.52058000  0.26366900  0.58299300  1
  O  O29  1  0.84258100  0.48045800  0.41805400  1
  O  O30  1  0.66263300  0.46120400  0.21061400  1
  O  O31  1  0.53952300  0.87937700  0.78853200  1
  O  O32  1  0.89552300  0.15832700  0.58343600  1
  O  O33  1  0.67046400  0.33727800  0.79163000  1
  O  O34  1  0.73816900  0.10497300  0.41803300  1
  O  O35  1  0.44522900  0.72003000  0.12413500  1
  O  O36  1  0.07916300  0.37805700  0.71011500  1
  O  O37  1  0.90620000  0.14572000  0.08435100  1
  O  O38  1  0.12286900  0.32890500  0.21167300  1
  O  O39  1  0.85412100  0.99122200  0.91753400  1
