# generated using pymatgen
data_MgMnO2
_symmetry_space_group_name_H-M   'P 1'
_cell_length_a   3.07292500
_cell_length_b   5.33273000
_cell_length_c   10.42373900
_cell_angle_alpha   90.00000000
_cell_angle_beta   90.00000000
_cell_angle_gamma   90.00000000
_symmetry_Int_Tables_number   1
_chemical_formula_structural   MgMnO2
_chemical_formula_sum   'Mg4 Mn4 O8'
_cell_volume   170.81463796
_cell_formula_units_Z   4
loop_
 _symmetry_equiv_pos_site_id
 _symmetry_equiv_pos_as_xyz
  1  'x, y, z'
loop_
 _atom_site_type_symbol
 _atom_site_label
 _atom_site_symmetry_multiplicity
 _atom_site_fract_x
 _atom_site_fract_y
 _atom_site_fract_z
 _atom_site_occupancy
  Mg  Mg0  1  0.25000000  0.42104000  0.62229500  1
  Mg  Mg1  1  0.75000000  0.57896000  0.37770500  1
  Mg  Mg2  1  0.75000000  0.92104000  0.87770500  1
  Mg  Mg3  1  0.25000000  0.07896000  0.12229500  1
  Mn  Mn4  1  0.25000000  0.08098400  0.37866200  1
  Mn  Mn5  1  0.25000000  0.41901600  0.87866200  1
  Mn  Mn6  1  0.75000000  0.58098400  0.12133800  1
  Mn  Mn7  1  0.75000000  0.91901600  0.62133800  1
  O  O8  1  0.25000000  0.41214200  0.25369500  1
  O  O9  1  0.75000000  0.58785800  0.74630500  1
  O  O10  1  0.75000000  0.91214200  0.24630500  1
  O  O11  1  0.25000000  0.08785800  0.75369500  1
  O  O12  1  0.25000000  0.76507500  0.99401700  1
  O  O13  1  0.75000000  0.23492500  0.00598300  1
  O  O14  1  0.25000000  0.73492500  0.49401700  1
  O  O15  1  0.75000000  0.26507500  0.50598300  1
