# generated using pymatgen
data_Sn3H6CNO7
_symmetry_space_group_name_H-M   'P 1'
_cell_length_a   6.42339900
_cell_length_b   11.46990000
_cell_length_c   15.04935116
_cell_angle_alpha   57.95062211
_cell_angle_beta   90.00000000
_cell_angle_gamma   90.00000000
_symmetry_Int_Tables_number   1
_chemical_formula_structural   Sn3H6CNO7
_chemical_formula_sum   'Sn12 H24 C4 N4 O28'
_cell_volume   939.78539546
_cell_formula_units_Z   4
loop_
 _symmetry_equiv_pos_site_id
 _symmetry_equiv_pos_as_xyz
  1  'x, y, z'
loop_
 _atom_site_type_symbol
 _atom_site_label
 _atom_site_symmetry_multiplicity
 _atom_site_fract_x
 _atom_site_fract_y
 _atom_site_fract_z
 _atom_site_occupancy
  Sn  Sn0  1  0.79594600  0.59551000  0.92229700  1
  Sn  Sn1  1  0.76809700  0.31466500  0.68986500  1
  Sn  Sn2  1  0.73190300  0.31466500  0.18986500  1
  Sn  Sn3  1  0.26809700  0.68533500  0.81013500  1
  Sn  Sn4  1  0.96293000  0.59169100  0.67812000  1
  Sn  Sn5  1  0.23190300  0.68533500  0.31013500  1
  Sn  Sn6  1  0.46293000  0.40830900  0.82188000  1
  Sn  Sn7  1  0.29594600  0.40449000  0.57770300  1
  Sn  Sn8  1  0.03707000  0.40830900  0.32188000  1
  Sn  Sn9  1  0.53707000  0.59169100  0.17812000  1
  Sn  Sn10  1  0.70405400  0.59551000  0.42229700  1
  Sn  Sn11  1  0.20405400  0.40449000  0.07770300  1
  H  H12  1  0.51439200  0.10868700  0.08397700  1
  H  H13  1  0.93573200  0.94305600  0.66692200  1
  H  H14  1  0.28203800  0.95866400  0.49325300  1
  H  H15  1  0.06140500  0.01704400  0.87763000  1
  H  H16  1  0.06426800  0.05694400  0.33307800  1
  H  H17  1  0.93859500  0.98295600  0.12237000  1
  H  H18  1  0.43573200  0.05694400  0.83307800  1
  H  H19  1  0.98560800  0.10868700  0.58397700  1
  H  H20  1  0.15879600  0.93735700  0.30851300  1
  H  H21  1  0.84120400  0.06264300  0.69148700  1
  H  H22  1  0.56426800  0.94305600  0.16692200  1
  H  H23  1  0.78203800  0.04133600  0.00674700  1
  H  H24  1  0.62131900  0.16095700  0.53872500  1
  H  H25  1  0.43859500  0.01704400  0.37763000  1
  H  H26  1  0.71796200  0.04133600  0.50674700  1
  H  H27  1  0.56140500  0.98295600  0.62237000  1
  H  H28  1  0.87868100  0.16095700  0.03872500  1
  H  H29  1  0.65879600  0.06264300  0.19148700  1
  H  H30  1  0.01439200  0.89131300  0.41602300  1
  H  H31  1  0.34120400  0.93735700  0.80851300  1
  H  H32  1  0.12131900  0.83904300  0.96127500  1
  H  H33  1  0.37868100  0.83904300  0.46127500  1
  H  H34  1  0.21796200  0.95866400  0.99325300  1
  H  H35  1  0.48560800  0.89131300  0.91602300  1
  C  C36  1  0.81923300  0.05635600  0.07065200  1
  C  C37  1  0.18076700  0.94364400  0.92934800  1
  C  C38  1  0.31923300  0.94364400  0.42934800  1
  C  C39  1  0.68076700  0.05635600  0.57065200  1
  N  N40  1  0.37203900  0.96036900  0.86776100  1
  N  N41  1  0.62796100  0.03963100  0.13223900  1
  N  N42  1  0.87203900  0.03963100  0.63223900  1
  N  N43  1  0.12796100  0.96036900  0.36776100  1
  O  O44  1  0.73490300  0.42790900  0.26866700  1
  O  O45  1  0.48181400  0.45645000  0.12461500  1
  O  O46  1  0.55882500  0.65960900  0.28327500  1
  O  O47  1  0.79220800  0.12161700  0.76899200  1
  O  O48  1  0.70779200  0.12161700  0.26899200  1
  O  O49  1  0.13798200  0.60039200  0.95902700  1
  O  O50  1  0.76509700  0.42790900  0.76866700  1
  O  O51  1  0.98181400  0.54355000  0.37538500  1
  O  O52  1  0.87426900  0.76409200  0.55668100  1
  O  O53  1  0.20779200  0.87838300  0.23100800  1
  O  O54  1  0.18041100  0.24704100  0.58093900  1
  O  O55  1  0.44117500  0.34039100  0.71672500  1
  O  O56  1  0.51818600  0.54355000  0.87538500  1
  O  O57  1  0.31958900  0.24704100  0.08093900  1
  O  O58  1  0.68041100  0.75295900  0.91906100  1
  O  O59  1  0.36201800  0.60039200  0.45902700  1
  O  O60  1  0.26509700  0.57209100  0.73133300  1
  O  O61  1  0.23490300  0.57209100  0.23133300  1
  O  O62  1  0.81958900  0.75295900  0.41906100  1
  O  O63  1  0.01818600  0.45645000  0.62461500  1
  O  O64  1  0.94117500  0.65960900  0.78327500  1
  O  O65  1  0.12573100  0.23590800  0.44331900  1
  O  O66  1  0.37426900  0.23590800  0.94331900  1
  O  O67  1  0.86201800  0.39960800  0.04097300  1
  O  O68  1  0.62573100  0.76409200  0.05668100  1
  O  O69  1  0.29220800  0.87838300  0.73100800  1
  O  O70  1  0.63798200  0.39960800  0.54097300  1
  O  O71  1  0.05882500  0.34039100  0.21672500  1
