# generated using pymatgen
data_NaAlSe2
_symmetry_space_group_name_H-M   'P 1'
_cell_length_a   6.31491444
_cell_length_b   6.31491444
_cell_length_c   6.31491444
_cell_angle_alpha   104.79009408
_cell_angle_beta   104.79009408
_cell_angle_gamma   119.30396512
_symmetry_Int_Tables_number   1
_chemical_formula_structural   NaAlSe2
_chemical_formula_sum   'Na2 Al2 Se4'
_cell_volume   189.51057372
_cell_formula_units_Z   2
loop_
 _symmetry_equiv_pos_site_id
 _symmetry_equiv_pos_as_xyz
  1  'x, y, z'
loop_
 _atom_site_type_symbol
 _atom_site_label
 _atom_site_symmetry_multiplicity
 _atom_site_fract_x
 _atom_site_fract_y
 _atom_site_fract_z
 _atom_site_occupancy
  Na  Na0  1  0.75000000  0.75000000  0.00000000  1
  Na  Na1  1  0.25000000  0.25000000  0.00000000  1
  Al  Al2  1  0.25000000  0.75000000  0.50000000  1
  Al  Al3  1  0.75000000  0.25000000  0.50000000  1
  Se  Se4  1  0.16854400  0.33145600  0.50000000  1
  Se  Se5  1  0.66854400  0.16854400  0.83708800  1
  Se  Se6  1  0.33145600  0.83145600  0.16291200  1
  Se  Se7  1  0.83145600  0.66854400  0.50000000  1
