data_image0
_chemical_formula_structural       Na8O18Si6Sn
_chemical_formula_sum              "Na8 O18 Si6 Sn1"
_cell_length_a       7.27364
_cell_length_b       7.27364
_cell_length_c       7.27293
_cell_angle_alpha    88.0158
_cell_angle_beta     91.9842
_cell_angle_gamma    92.028

_space_group_name_H-M_alt    "P 1"
_space_group_IT_number       1

loop_
  _space_group_symop_operation_xyz
  'x, y, z'

loop_
  _atom_site_type_symbol
  _atom_site_label
  _atom_site_symmetry_multiplicity
  _atom_site_fract_x
  _atom_site_fract_y
  _atom_site_fract_z
  _atom_site_occupancy
  Na  Na1       1.0  0.50000  0.00000  0.50000  1.0000
  Na  Na2       1.0  0.00000  0.50000  0.50000  1.0000
  Na  Na3       1.0  0.75900  0.24100  0.24100  1.0000
  Na  Na4       1.0  0.24100  0.75900  0.75900  1.0000
  Na  Na5       1.0  0.50000  0.00000  0.00000  1.0000
  Na  Na6       1.0  0.00000  0.50000  0.00000  1.0000
  Na  Na7       1.0  0.00000  0.00000  0.50000  1.0000
  Na  Na8       1.0  0.50000  0.50000  0.00000  1.0000
  O   O1        1.0  0.45600  0.20900  0.20900  1.0000
  O   O2        1.0  0.20900  0.45600  0.79100  1.0000
  O   O3        1.0  0.54400  0.79100  0.79100  1.0000
  O   O4        1.0  0.79100  0.54400  0.20900  1.0000
  O   O5        1.0  0.20900  0.79100  0.45600  1.0000
  O   O6        1.0  0.79100  0.20900  0.54400  1.0000
  O   O7        1.0  0.50000  0.75800  0.24200  1.0000
  O   O8        1.0  0.75800  0.50000  0.75800  1.0000
  O   O9        1.0  0.50000  0.24200  0.75800  1.0000
  O   O10       1.0  0.24200  0.50000  0.24200  1.0000
  O   O11       1.0  0.81000  0.92200  0.19000  1.0000
  O   O12       1.0  0.92200  0.81000  0.81000  1.0000
  O   O13       1.0  0.19000  0.07770  0.81000  1.0000
  O   O14       1.0  0.07770  0.19000  0.19000  1.0000
  O   O15       1.0  0.24200  0.24200  0.50000  1.0000
  O   O16       1.0  0.75800  0.75800  0.50000  1.0000
  O   O17       1.0  0.19000  0.81000  0.07780  1.0000
  O   O18       1.0  0.81000  0.19000  0.92200  1.0000
  Si  Si1       1.0  0.72200  0.73300  0.27700  1.0000
  Si  Si2       1.0  0.73300  0.72200  0.72300  1.0000
  Si  Si3       1.0  0.27800  0.26700  0.72300  1.0000
  Si  Si4       1.0  0.26700  0.27800  0.27700  1.0000
  Si  Si5       1.0  0.27700  0.72300  0.26700  1.0000
  Si  Si6       1.0  0.72300  0.27700  0.73300  1.0000
  Sn  Sn1       1.0  0.00000  0.00000  0.00000  1.0000
