# generated using pymatgen
data_CePbAu
_symmetry_space_group_name_H-M   'P 1'
_cell_length_a   4.94602722
_cell_length_b   4.94602722
_cell_length_c   7.47591300
_cell_angle_alpha   90.00000000
_cell_angle_beta   90.00000000
_cell_angle_gamma   119.99998962
_symmetry_Int_Tables_number   1
_chemical_formula_structural   CePbAu
_chemical_formula_sum   'Ce2 Pb2 Au2'
_cell_volume   158.38276511
_cell_formula_units_Z   2
loop_
 _symmetry_equiv_pos_site_id
 _symmetry_equiv_pos_as_xyz
  1  'x, y, z'
loop_
 _atom_site_type_symbol
 _atom_site_label
 _atom_site_symmetry_multiplicity
 _atom_site_fract_x
 _atom_site_fract_y
 _atom_site_fract_z
 _atom_site_occupancy
  Ce  Ce0  1  0.00000000  0.00000000  0.50000000  1
  Ce  Ce1  1  0.00000000  0.00000000  0.00000000  1
  Pb  Pb2  1  0.33333300  0.66666700  0.75000000  1
  Pb  Pb3  1  0.66666700  0.33333300  0.25000000  1
  Au  Au4  1  0.33333300  0.66666700  0.25000000  1
  Au  Au5  1  0.66666700  0.33333300  0.75000000  1
