# generated using pymatgen
data_Sb5(PO4)6
_symmetry_space_group_name_H-M   'P 1'
_cell_length_a   8.69427600
_cell_length_b   8.80465624
_cell_length_c   8.95251029
_cell_angle_alpha   104.75174454
_cell_angle_beta   111.67280383
_cell_angle_gamma   110.91579603
_symmetry_Int_Tables_number   1
_chemical_formula_structural   Sb5(PO4)6
_chemical_formula_sum   'Sb5 P6 O24'
_cell_volume   532.69304277
_cell_formula_units_Z   1
loop_
 _symmetry_equiv_pos_site_id
 _symmetry_equiv_pos_as_xyz
  1  'x, y, z'
loop_
 _atom_site_type_symbol
 _atom_site_label
 _atom_site_symmetry_multiplicity
 _atom_site_fract_x
 _atom_site_fract_y
 _atom_site_fract_z
 _atom_site_occupancy
  Sb  Sb0  1  0.95677900  0.28088200  0.44522600  1
  Sb  Sb1  1  0.31327900  0.49251400  0.02342800  1
  Sb  Sb2  1  0.02857700  0.82995600  0.47642300  1
  Sb  Sb3  1  0.68698100  0.67383200  0.69853800  1
  Sb  Sb4  1  0.55384300  0.07480000  0.89744800  1
  P  P5  1  0.64052900  0.39566700  0.22946800  1
  P  P6  1  0.36332700  0.28605800  0.67157300  1
  P  P7  1  0.73551900  0.84080100  0.11401000  1
  P  P8  1  0.13318500  0.73404600  0.85038600  1
  P  P9  1  0.25122100  0.60694500  0.37668600  1
  P  P10  1  0.87870200  0.11982600  0.75602100  1
  O  O11  1  0.14717300  0.56654700  0.87905900  1
  O  O12  1  0.42676200  0.68575900  0.56851200  1
  O  O13  1  0.68233500  0.34241000  0.07264500  1
  O  O14  1  0.66687700  0.28446200  0.33155100  1
  O  O15  1  0.55524700  0.72262200  0.11687600  1
  O  O16  1  0.94588900  0.70434300  0.85789700  1
  O  O17  1  0.09649800  0.69469600  0.65732900  1
  O  O18  1  0.17651000  0.74383900  0.38542700  1
  O  O19  1  0.72802600  0.14490300  0.79414600  1
  O  O20  1  0.32384000  0.39561100  0.80465600  1
  O  O21  1  0.90054200  0.81168800  0.20566900  1
  O  O22  1  0.09579600  0.41413200  0.30825700  1
  O  O23  1  0.67959200  0.80080000  0.91498200  1
  O  O24  1  0.77078600  0.60135500  0.35557400  1
  O  O25  1  0.78347900  0.04274300  0.20078800  1
  O  O26  1  0.30449400  0.91712100  0.99077000  1
  O  O27  1  0.55419800  0.41527100  0.69394800  1
  O  O28  1  0.37952600  0.12749200  0.71209800  1
  O  O29  1  0.85985700  0.93077900  0.72985200  1
  O  O30  1  0.18486300  0.19758500  0.48561800  1
  O  O31  1  0.33232900  0.62405500  0.24833000  1
  O  O32  1  0.07767000  0.26083700  0.93001400  1
  O  O33  1  0.43188600  0.36539500  0.14278300  1
  O  O34  1  0.85992500  0.13626900  0.58553200  1
