data_image0
_chemical_formula_structural       B20H44N8
_chemical_formula_sum              "B20 H44 N8"
_cell_length_a       7.43932
_cell_length_b       9.22135
_cell_length_c       7.43932
_cell_angle_alpha    84.1011
_cell_angle_beta     80.3121
_cell_angle_gamma    84.1011

_space_group_name_H-M_alt    "P 1"
_space_group_IT_number       1

loop_
  _space_group_symop_operation_xyz
  'x, y, z'

loop_
  _atom_site_type_symbol
  _atom_site_label
  _atom_site_symmetry_multiplicity
  _atom_site_fract_x
  _atom_site_fract_y
  _atom_site_fract_z
  _atom_site_occupancy
  B   B1        1.0  0.20500  0.34300  0.82800  1.0000
  B   B2        1.0  0.17200  0.15700  0.79500  1.0000
  B   B3        1.0  0.79500  0.65700  0.17200  1.0000
  B   B4        1.0  0.82800  0.84300  0.20500  1.0000
  B   B5        1.0  0.44200  0.36600  0.77600  1.0000
  B   B6        1.0  0.22400  0.13400  0.55800  1.0000
  B   B7        1.0  0.55800  0.63400  0.22400  1.0000
  B   B8        1.0  0.77600  0.86600  0.44200  1.0000
  B   B9        1.0  0.28100  0.31300  0.43200  1.0000
  B   B10       1.0  0.56800  0.18700  0.71900  1.0000
  B   B11       1.0  0.71900  0.68700  0.56800  1.0000
  B   B12       1.0  0.43200  0.81300  0.28100  1.0000
  B   B13       1.0  0.12600  0.30200  0.63200  1.0000
  B   B14       1.0  0.36800  0.19800  0.87400  1.0000
  B   B15       1.0  0.87400  0.69800  0.36800  1.0000
  B   B16       1.0  0.63200  0.80200  0.12600  1.0000
  B   B17       1.0  0.28400  0.43300  0.61400  1.0000
  B   B18       1.0  0.38600  0.06710  0.71600  1.0000
  B   B19       1.0  0.71600  0.56700  0.38600  1.0000
  B   B20       1.0  0.61400  0.93300  0.28400  1.0000
  H   H1        1.0  0.50300  0.44900  0.85800  1.0000
  H   H2        1.0  0.14200  0.05060  0.49700  1.0000
  H   H3        1.0  0.49700  0.55100  0.14200  1.0000
  H   H4        1.0  0.85800  0.94900  0.50300  1.0000
  H   H5        1.0  0.27000  0.38700  0.14600  1.0000
  H   H6        1.0  0.85400  0.11300  0.73000  1.0000
  H   H7        1.0  0.73000  0.61300  0.85400  1.0000
  H   H8        1.0  0.14600  0.88700  0.27000  1.0000
  H   H9        1.0  0.44200  0.28500  0.38200  1.0000
  H   H10       1.0  0.61800  0.21500  0.55800  1.0000
  H   H11       1.0  0.55800  0.71500  0.61800  1.0000
  H   H12       1.0  0.38200  0.78500  0.44200  1.0000
  H   H13       1.0  0.11700  0.48100  0.28700  1.0000
  H   H14       1.0  0.71300  0.01930  0.88300  1.0000
  H   H15       1.0  0.88300  0.51900  0.71300  1.0000
  H   H16       1.0  0.28700  0.98100  0.11700  1.0000
  H   H17       1.0  0.90900  0.10600  0.20200  1.0000
  H   H18       1.0  0.79800  0.39400  0.09110  1.0000
  H   H19       1.0  0.09110  0.89400  0.79800  1.0000
  H   H20       1.0  0.20200  0.60600  0.90900  1.0000
  H   H21       1.0  0.97400  0.34100  0.60300  1.0000
  H   H22       1.0  0.39700  0.15900  0.02640  1.0000
  H   H23       1.0  0.02640  0.65900  0.39700  1.0000
  H   H24       1.0  0.60300  0.84100  0.97400  1.0000
  H   H25       1.0  0.24500  0.56100  0.58500  1.0000
  H   H26       1.0  0.41500  0.93900  0.75500  1.0000
  H   H27       1.0  0.75500  0.43900  0.41500  1.0000
  H   H28       1.0  0.58500  0.06120  0.24500  1.0000
  H   H29       1.0  0.07780  0.31200  0.24600  1.0000
  H   H30       1.0  0.75400  0.18800  0.92200  1.0000
  H   H31       1.0  0.92200  0.68800  0.75400  1.0000
  H   H32       1.0  0.24600  0.81200  0.07780  1.0000
  H   H33       1.0  0.10100  0.40500  0.94200  1.0000
  H   H34       1.0  0.05760  0.09540  0.89900  1.0000
  H   H35       1.0  0.89900  0.59500  0.05760  1.0000
  H   H36       1.0  0.94200  0.90500  0.10100  1.0000
  H   H37       1.0  0.82100  0.21100  0.36500  1.0000
  H   H38       1.0  0.63500  0.28900  0.17900  1.0000
  H   H39       1.0  0.17900  0.78900  0.63500  1.0000
  H   H40       1.0  0.36500  0.71100  0.82100  1.0000
  H   H41       1.0  0.46400  0.40700  0.59900  1.0000
  H   H42       1.0  0.40100  0.09330  0.53600  1.0000
  H   H43       1.0  0.53600  0.59300  0.40100  1.0000
  H   H44       1.0  0.59900  0.90700  0.46400  1.0000
  N   N1        1.0  0.88800  0.21300  0.23200  1.0000
  N   N2        1.0  0.76800  0.28700  0.11200  1.0000
  N   N3        1.0  0.11200  0.78700  0.76800  1.0000
  N   N4        1.0  0.23200  0.71300  0.88800  1.0000
  N   N5        1.0  0.18100  0.37800  0.26800  1.0000
  N   N6        1.0  0.73200  0.12200  0.81900  1.0000
  N   N7        1.0  0.81900  0.62200  0.73200  1.0000
  N   N8        1.0  0.26800  0.87800  0.18100  1.0000
