# generated using pymatgen
data_Eu2H3Cl
_symmetry_space_group_name_H-M   'P 1'
_cell_length_a   4.02604504
_cell_length_b   4.02604504
_cell_length_c   6.84540800
_cell_angle_alpha   90.00000000
_cell_angle_beta   90.00000000
_cell_angle_gamma   119.99998416
_symmetry_Int_Tables_number   1
_chemical_formula_structural   Eu2H3Cl
_chemical_formula_sum   'Eu2 H3 Cl1'
_cell_volume   96.09201413
_cell_formula_units_Z   1
loop_
 _symmetry_equiv_pos_site_id
 _symmetry_equiv_pos_as_xyz
  1  'x, y, z'
loop_
 _atom_site_type_symbol
 _atom_site_label
 _atom_site_symmetry_multiplicity
 _atom_site_fract_x
 _atom_site_fract_y
 _atom_site_fract_z
 _atom_site_occupancy
  Eu  Eu0  1  0.66666700  0.33333300  0.69930900  1
  Eu  Eu1  1  0.33333300  0.66666700  0.30069100  1
  H  H2  1  0.66666700  0.33333300  0.35083600  1
  H  H3  1  0.33333300  0.66666700  0.64916400  1
  H  H4  1  0.00000000  0.00000000  0.50000000  1
  Cl  Cl5  1  0.00000000  0.00000000  0.00000000  1
