# generated using pymatgen
data_Fe(PO3)3
_symmetry_space_group_name_H-M   'P 1'
_cell_length_a   9.45070100
_cell_length_b   9.45662839
_cell_length_c   9.65869468
_cell_angle_alpha   104.51748443
_cell_angle_beta   109.54135950
_cell_angle_gamma   108.51006787
_symmetry_Int_Tables_number   1
_chemical_formula_structural   Fe(PO3)3
_chemical_formula_sum   'Fe4 P12 O36'
_cell_volume   707.23232334
_cell_formula_units_Z   4
loop_
 _symmetry_equiv_pos_site_id
 _symmetry_equiv_pos_as_xyz
  1  'x, y, z'
loop_
 _atom_site_type_symbol
 _atom_site_label
 _atom_site_symmetry_multiplicity
 _atom_site_fract_x
 _atom_site_fract_y
 _atom_site_fract_z
 _atom_site_occupancy
  Fe  Fe0  1  0.69460600  0.89291900  0.79368200  1
  Fe  Fe1  1  0.22412800  0.74099900  0.27257400  1
  Fe  Fe2  1  0.30539400  0.10708100  0.20631800  1
  Fe  Fe3  1  0.77587200  0.25900100  0.72742600  1
  P  P4  1  0.79971100  0.06719300  0.16970200  1
  P  P5  1  0.43235500  0.29618900  0.59147600  1
  P  P6  1  0.56764500  0.70381100  0.40852400  1
  P  P7  1  0.09309700  0.18403300  0.92119000  1
  P  P8  1  0.84109000  0.49177800  0.09844300  1
  P  P9  1  0.15891000  0.50822200  0.90155700  1
  P  P10  1  0.66630500  0.43192300  0.30634600  1
  P  P11  1  0.90690300  0.81596700  0.07881000  1
  P  P12  1  0.20028900  0.93280700  0.83029800  1
  P  P13  1  0.33369500  0.56807700  0.69365400  1
  P  P14  1  0.60880400  0.00235100  0.35101000  1
  P  P15  1  0.39119600  0.99764900  0.64899000  1
  O  O16  1  0.13982300  0.17201000  0.08211600  1
  O  O17  1  0.81317400  0.48183000  0.45431400  1
  O  O18  1  0.36592800  0.98358100  0.79828400  1
  O  O19  1  0.86017700  0.82799000  0.91788400  1
  O  O20  1  0.42500600  0.96546100  0.30954100  1
  O  O21  1  0.72423600  0.03763500  0.99348700  1
  O  O22  1  0.67473900  0.76281500  0.58584500  1
  O  O23  1  0.83868000  0.90994400  0.17953600  1
  O  O24  1  0.18682600  0.51817000  0.54568600  1
  O  O25  1  0.98466800  0.42699900  0.76533900  1
  O  O26  1  0.27576400  0.96236500  0.00651300  1
  O  O27  1  0.38271400  0.65326700  0.35275700  1
  O  O28  1  0.73638700  0.14260500  0.50632900  1
  O  O29  1  0.57499400  0.03453900  0.69045900  1
  O  O30  1  0.09412700  0.87369700  0.18164400  1
  O  O31  1  0.63407200  0.01641900  0.20171600  1
  O  O32  1  0.50996600  0.27273600  0.23876500  1
  O  O33  1  0.01533200  0.57300100  0.23466100  1
  O  O34  1  0.32526100  0.23718500  0.41415500  1
  O  O35  1  0.80629400  0.36093200  0.94905700  1
  O  O36  1  0.80219500  0.63297500  0.05007900  1
  O  O37  1  0.61728600  0.34673300  0.64724300  1
  O  O38  1  0.16132000  0.09005600  0.82046400  1
  O  O39  1  0.36367600  0.15541100  0.64954400  1
  O  O40  1  0.19370600  0.63906800  0.05094300  1
  O  O41  1  0.93740700  0.22139600  0.29257600  1
  O  O42  1  0.29981400  0.57963100  0.85215700  1
  O  O43  1  0.06259300  0.77860400  0.70742400  1
  O  O44  1  0.59303900  0.56831700  0.30244300  1
  O  O45  1  0.49003400  0.72726400  0.76123500  1
  O  O46  1  0.70018600  0.42036900  0.14784300  1
  O  O47  1  0.19780500  0.36702500  0.94992100  1
  O  O48  1  0.90587300  0.12630300  0.81835600  1
  O  O49  1  0.26361300  0.85739500  0.49367100  1
  O  O50  1  0.40696100  0.43168300  0.69755700  1
  O  O51  1  0.63632400  0.84458900  0.35045600  1
