# generated using pymatgen
data_Ce3Zr5O16
_symmetry_space_group_name_H-M   'P 1'
_cell_length_a   7.49510175
_cell_length_b   7.49510175
_cell_length_c   5.35908100
_cell_angle_alpha   90.00000000
_cell_angle_beta   90.00000000
_cell_angle_gamma   90.52096615
_symmetry_Int_Tables_number   1
_chemical_formula_structural   Ce3Zr5O16
_chemical_formula_sum   'Ce3 Zr5 O16'
_cell_volume   301.04223799
_cell_formula_units_Z   1
loop_
 _symmetry_equiv_pos_site_id
 _symmetry_equiv_pos_as_xyz
  1  'x, y, z'
loop_
 _atom_site_type_symbol
 _atom_site_label
 _atom_site_symmetry_multiplicity
 _atom_site_fract_x
 _atom_site_fract_y
 _atom_site_fract_z
 _atom_site_occupancy
  Ce  Ce0  1  0.25689200  0.74310800  0.00000000  1
  Ce  Ce1  1  0.00000000  0.00000000  0.50000000  1
  Ce  Ce2  1  0.74310800  0.25689200  0.00000000  1
  Zr  Zr3  1  0.50000000  0.00000000  0.50008400  1
  Zr  Zr4  1  0.24717900  0.24717900  0.00000000  1
  Zr  Zr5  1  0.50000000  0.50000000  0.50000000  1
  Zr  Zr6  1  0.75282100  0.75282100  0.00000000  1
  Zr  Zr7  1  0.00000000  0.50000000  0.49991600  1
  O  O8  1  0.48131900  0.75971700  0.30799300  1
  O  O9  1  0.24427700  0.01940800  0.22203900  1
  O  O10  1  0.27027100  0.98902900  0.72351600  1
  O  O11  1  0.52141800  0.72441300  0.79020700  1
  O  O12  1  0.51868100  0.24028300  0.30799300  1
  O  O13  1  0.27558700  0.47858200  0.20979300  1
  O  O14  1  0.24028300  0.51868100  0.69200700  1
  O  O15  1  0.47858200  0.27558700  0.79020700  1
  O  O16  1  0.01097100  0.72972900  0.27648400  1
  O  O17  1  0.75572300  0.98059200  0.22203900  1
  O  O18  1  0.72972900  0.01097100  0.72351600  1
  O  O19  1  0.98059200  0.75572300  0.77796100  1
  O  O20  1  0.98902900  0.27027100  0.27648400  1
  O  O21  1  0.72441300  0.52141800  0.20979300  1
  O  O22  1  0.75971700  0.48131900  0.69200700  1
  O  O23  1  0.01940800  0.24427700  0.77796100  1
