# generated using pymatgen
data_K2ZrSi2O7
_symmetry_space_group_name_H-M   'P 1'
_cell_length_a   11.27597830
_cell_length_b   11.27597830
_cell_length_c   14.33145659
_cell_angle_alpha   67.18764485
_cell_angle_beta   67.18764485
_cell_angle_gamma   59.89285515
_symmetry_Int_Tables_number   1
_chemical_formula_structural   K2ZrSi2O7
_chemical_formula_sum   'K16 Zr8 Si16 O56'
_cell_volume   1409.76414070
_cell_formula_units_Z   8
loop_
 _symmetry_equiv_pos_site_id
 _symmetry_equiv_pos_as_xyz
  1  'x, y, z'
loop_
 _atom_site_type_symbol
 _atom_site_label
 _atom_site_symmetry_multiplicity
 _atom_site_fract_x
 _atom_site_fract_y
 _atom_site_fract_z
 _atom_site_occupancy
  K  K0  1  0.38237700  0.88980200  0.59022900  1
  K  K1  1  0.88980200  0.38237700  0.59022900  1
  K  K2  1  0.61762300  0.11019800  0.40977100  1
  K  K3  1  0.11019800  0.61762300  0.40977100  1
  K  K4  1  0.60857800  0.11671800  0.91845600  1
  K  K5  1  0.11671800  0.60857800  0.91845600  1
  K  K6  1  0.39142200  0.88328200  0.08154400  1
  K  K7  1  0.88328200  0.39142200  0.08154400  1
  K  K8  1  0.39036900  0.39036900  0.57661500  1
  K  K9  1  0.60963100  0.60963100  0.42338500  1
  K  K10  1  0.11122100  0.11122100  0.92127300  1
  K  K11  1  0.88877900  0.88877900  0.07872700  1
  K  K12  1  0.62143700  0.62143700  0.88920000  1
  K  K13  1  0.37856300  0.37856300  0.11080000  1
  K  K14  1  0.88214800  0.88214800  0.60426900  1
  K  K15  1  0.11785200  0.11785200  0.39573100  1
  Zr  Zr16  1  0.98849200  0.98849200  0.78164900  1
  Zr  Zr17  1  0.01150800  0.01150800  0.21835100  1
  Zr  Zr18  1  0.51237300  0.51237300  0.71890900  1
  Zr  Zr19  1  0.48762700  0.48762700  0.28109100  1
  Zr  Zr20  1  0.49803800  0.00382100  0.75025100  1
  Zr  Zr21  1  0.00382100  0.49803800  0.75025100  1
  Zr  Zr22  1  0.50196200  0.99617900  0.24974900  1
  Zr  Zr23  1  0.99617900  0.50196200  0.24974900  1
  Si  Si24  1  0.19837200  0.72084600  0.62080200  1
  Si  Si25  1  0.72084600  0.19837200  0.62080200  1
  Si  Si26  1  0.80162800  0.27915400  0.37919800  1
  Si  Si27  1  0.27915400  0.80162800  0.37919800  1
  Si  Si28  1  0.30288300  0.78033400  0.87956600  1
  Si  Si29  1  0.78033400  0.30288300  0.87956600  1
  Si  Si30  1  0.69711700  0.21966600  0.12043400  1
  Si  Si31  1  0.21966600  0.69711700  0.12043400  1
  Si  Si32  1  0.19965200  0.19965200  0.63287600  1
  Si  Si33  1  0.80034800  0.80034800  0.36712400  1
  Si  Si34  1  0.30139800  0.30139800  0.86781500  1
  Si  Si35  1  0.69860200  0.69860200  0.13218500  1
  Si  Si36  1  0.71607700  0.71607700  0.61101100  1
  Si  Si37  1  0.28392300  0.28392300  0.38898900  1
  Si  Si38  1  0.78528200  0.78528200  0.88919100  1
  Si  Si39  1  0.21471800  0.21471800  0.11080900  1
  O  O40  1  0.86769400  0.86769400  0.89257900  1
  O  O41  1  0.13230600  0.13230600  0.10742100  1
  O  O42  1  0.13520700  0.86268700  0.87969400  1
  O  O43  1  0.86268700  0.13520700  0.87969400  1
  O  O44  1  0.86479300  0.13731300  0.12030600  1
  O  O45  1  0.13731300  0.86479300  0.12030600  1
  O  O46  1  0.66608200  0.39456000  0.80643700  1
  O  O47  1  0.39456000  0.66608200  0.80643700  1
  O  O48  1  0.33391800  0.60544000  0.19356300  1
  O  O49  1  0.60544000  0.33391800  0.19356300  1
  O  O50  1  0.63860200  0.36613600  0.62028000  1
  O  O51  1  0.36613600  0.63860200  0.62028000  1
  O  O52  1  0.36139800  0.63386400  0.37972000  1
  O  O53  1  0.63386400  0.36139800  0.37972000  1
  O  O54  1  0.18075500  0.81924500  0.50000000  1
  O  O55  1  0.81924500  0.18075500  0.50000000  1
  O  O56  1  0.31969100  0.68030900  0.00000000  1
  O  O57  1  0.68030900  0.31969100  0.00000000  1
  O  O58  1  0.39436100  0.39436100  0.80149500  1
  O  O59  1  0.60563900  0.60563900  0.19850500  1
  O  O60  1  0.63302100  0.63302100  0.60940800  1
  O  O61  1  0.36697900  0.36697900  0.39059200  1
  O  O62  1  0.37520900  0.88805100  0.85190700  1
  O  O63  1  0.88805100  0.37520900  0.85190700  1
  O  O64  1  0.62479100  0.11194900  0.14809300  1
  O  O65  1  0.11194900  0.62479100  0.14809300  1
  O  O66  1  0.61243400  0.12661800  0.64967500  1
  O  O67  1  0.12661800  0.61243400  0.64967500  1
  O  O68  1  0.38756600  0.87338200  0.35032500  1
  O  O69  1  0.87338200  0.38756600  0.35032500  1
  O  O70  1  0.65210100  0.89255600  0.83625600  1
  O  O71  1  0.89255600  0.65210100  0.83625600  1
  O  O72  1  0.34789900  0.10744400  0.16374400  1
  O  O73  1  0.10744400  0.34789900  0.16374400  1
  O  O74  1  0.84916000  0.60957900  0.66423900  1
  O  O75  1  0.60957900  0.84916000  0.66423900  1
  O  O76  1  0.15084000  0.39042100  0.33576100  1
  O  O77  1  0.39042100  0.15084000  0.33576100  1
  O  O78  1  0.38197900  0.14253700  0.85018400  1
  O  O79  1  0.14253700  0.38197900  0.85018400  1
  O  O80  1  0.61802100  0.85746300  0.14981600  1
  O  O81  1  0.85746300  0.61802100  0.14981600  1
  O  O82  1  0.11899900  0.35816700  0.65110100  1
  O  O83  1  0.35816700  0.11899900  0.65110100  1
  O  O84  1  0.88100100  0.64183300  0.34889900  1
  O  O85  1  0.64183300  0.88100100  0.34889900  1
  O  O86  1  0.21220900  0.21220900  0.50987800  1
  O  O87  1  0.78779100  0.78779100  0.49012200  1
  O  O88  1  0.28822100  0.28822100  0.99113100  1
  O  O89  1  0.71177900  0.71177900  0.00886900  1
  O  O90  1  0.83652500  0.10711400  0.69255200  1
  O  O91  1  0.10711400  0.83652500  0.69255200  1
  O  O92  1  0.16347500  0.89288600  0.30744800  1
  O  O93  1  0.89288600  0.16347500  0.30744800  1
  O  O94  1  0.10658700  0.10658700  0.69939900  1
  O  O95  1  0.89341300  0.89341300  0.30060100  1
