# generated using pymatgen
data_Cs2Ba3(P2O7)2
_symmetry_space_group_name_H-M   'P 1'
_cell_length_a   9.12952200
_cell_length_b   9.78993200
_cell_length_c   19.05096300
_cell_angle_alpha   90.00000000
_cell_angle_beta   90.00000000
_cell_angle_gamma   90.00000000
_symmetry_Int_Tables_number   1
_chemical_formula_structural   Cs2Ba3(P2O7)2
_chemical_formula_sum   'Cs8 Ba12 P16 O56'
_cell_volume   1702.72553229
_cell_formula_units_Z   4
loop_
 _symmetry_equiv_pos_site_id
 _symmetry_equiv_pos_as_xyz
  1  'x, y, z'
loop_
 _atom_site_type_symbol
 _atom_site_label
 _atom_site_symmetry_multiplicity
 _atom_site_fract_x
 _atom_site_fract_y
 _atom_site_fract_z
 _atom_site_occupancy
  Cs  Cs0  1  0.73139600  0.16694300  0.32938700  1
  Cs  Cs1  1  0.76860400  0.83305700  0.82938700  1
  Cs  Cs2  1  0.23139600  0.33305700  0.67061300  1
  Cs  Cs3  1  0.26860400  0.66694300  0.17061300  1
  Cs  Cs4  1  0.91800400  0.30834700  0.12852300  1
  Cs  Cs5  1  0.58199600  0.69165300  0.62852300  1
  Cs  Cs6  1  0.41800400  0.19165300  0.87147700  1
  Cs  Cs7  1  0.08199600  0.80834700  0.37147700  1
  Ba  Ba8  1  0.43539500  0.03054400  0.49298600  1
  Ba  Ba9  1  0.06460500  0.96945600  0.99298600  1
  Ba  Ba10  1  0.93539500  0.46945600  0.50701400  1
  Ba  Ba11  1  0.56460500  0.53054400  0.00701400  1
  Ba  Ba12  1  0.58422200  0.64953800  0.38455800  1
  Ba  Ba13  1  0.91577800  0.35046200  0.88455800  1
  Ba  Ba14  1  0.08422200  0.85046200  0.61544200  1
  Ba  Ba15  1  0.41577800  0.14953800  0.11544200  1
  Ba  Ba16  1  0.24906800  0.33112500  0.33780900  1
  Ba  Ba17  1  0.25093200  0.66887500  0.83780900  1
  Ba  Ba18  1  0.74906800  0.16887500  0.66219100  1
  Ba  Ba19  1  0.75093200  0.83112500  0.16219100  1
  P  P20  1  0.78679300  0.90965300  0.49510300  1
  P  P21  1  0.71320700  0.09034700  0.99510300  1
  P  P22  1  0.28679300  0.59034700  0.50489700  1
  P  P23  1  0.21320700  0.40965300  0.00489700  1
  P  P24  1  0.51906800  0.37220500  0.50996100  1
  P  P25  1  0.98093200  0.62779500  0.00996100  1
  P  P26  1  0.01906800  0.12779500  0.49003900  1
  P  P27  1  0.48093200  0.87220500  0.99003900  1
  P  P28  1  0.87910600  0.54464200  0.29499800  1
  P  P29  1  0.62089400  0.45535800  0.79499800  1
  P  P30  1  0.37910600  0.95535800  0.70500200  1
  P  P31  1  0.12089400  0.04464200  0.20500200  1
  P  P32  1  0.60361000  0.45874500  0.21443300  1
  P  P33  1  0.89639000  0.54125500  0.71443300  1
  P  P34  1  0.10361000  0.04125500  0.78556700  1
  P  P35  1  0.39639000  0.95874500  0.28556700  1
  O  O36  1  0.14442700  0.02571800  0.50071900  1
  O  O37  1  0.35557300  0.97428200  0.00071900  1
  O  O38  1  0.64442700  0.47428200  0.49928100  1
  O  O39  1  0.85557300  0.52571800  0.99928100  1
  O  O40  1  0.66744500  0.88960100  0.43925900  1
  O  O41  1  0.83255500  0.11039900  0.93925900  1
  O  O42  1  0.16744500  0.61039900  0.56074100  1
  O  O43  1  0.33255500  0.38960100  0.06074100  1
  O  O44  1  0.72395300  0.96413600  0.56432200  1
  O  O45  1  0.77604700  0.03586400  0.06432200  1
  O  O46  1  0.22395300  0.53586400  0.43567800  1
  O  O47  1  0.27604700  0.46413600  0.93567800  1
  O  O48  1  0.54540100  0.26595200  0.56763800  1
  O  O49  1  0.95459900  0.73404800  0.06763800  1
  O  O50  1  0.04540100  0.23404800  0.43236200  1
  O  O51  1  0.45459900  0.76595200  0.93236200  1
  O  O52  1  0.38306300  0.46546200  0.54104600  1
  O  O53  1  0.11693700  0.53453800  0.04104600  1
  O  O54  1  0.88306300  0.03453800  0.45895400  1
  O  O55  1  0.61693700  0.96546200  0.95895400  1
  O  O56  1  0.46623900  0.30480900  0.44168900  1
  O  O57  1  0.03376100  0.69519100  0.94168900  1
  O  O58  1  0.96623900  0.19519100  0.55831100  1
  O  O59  1  0.53376100  0.80480900  0.05831100  1
  O  O60  1  0.49348600  0.48518300  0.27425300  1
  O  O61  1  0.00651400  0.51481700  0.77425300  1
  O  O62  1  0.99348600  0.01481700  0.72574700  1
  O  O63  1  0.50651400  0.98518300  0.22574700  1
  O  O64  1  0.58724900  0.31832400  0.18086200  1
  O  O65  1  0.91275100  0.68167600  0.68086200  1
  O  O66  1  0.08724900  0.18167600  0.81913800  1
  O  O67  1  0.41275100  0.81832400  0.31913800  1
  O  O68  1  0.61324800  0.57527700  0.16062200  1
  O  O69  1  0.88675200  0.42472300  0.66062200  1
  O  O70  1  0.11324700  0.92472300  0.83937800  1
  O  O71  1  0.38675200  0.07527700  0.33937800  1
  O  O72  1  0.76813600  0.44217900  0.25113600  1
  O  O73  1  0.73186400  0.55782100  0.75113600  1
  O  O74  1  0.26813600  0.05782100  0.74886400  1
  O  O75  1  0.23186400  0.94217900  0.24886400  1
  O  O76  1  0.85187100  0.50980200  0.37276000  1
  O  O77  1  0.64812900  0.49019800  0.87276000  1
  O  O78  1  0.35187100  0.99019800  0.62724000  1
  O  O79  1  0.14812900  0.00980200  0.12724000  1
  O  O80  1  0.82502600  0.69040700  0.27936600  1
  O  O81  1  0.67497400  0.30959300  0.77936600  1
  O  O82  1  0.32502600  0.80959300  0.72063400  1
  O  O83  1  0.17497400  0.19040700  0.22063400  1
  O  O84  1  0.03297200  0.50964500  0.26962600  1
  O  O85  1  0.46702800  0.49035500  0.76962600  1
  O  O86  1  0.53297200  0.99035500  0.73037400  1
  O  O87  1  0.96702800  0.00964500  0.23037400  1
  O  O88  1  0.88704000  0.78579900  0.50483600  1
  O  O89  1  0.61296000  0.21420100  0.00483600  1
  O  O90  1  0.38704000  0.71420100  0.49516400  1
  O  O91  1  0.11296000  0.28579900  0.99516400  1
