# generated using pymatgen
data_Ba2Mg(BO2)6
_symmetry_space_group_name_H-M   'P 1'
_cell_length_a   7.02751782
_cell_length_b   7.02751782
_cell_length_c   7.02751726
_cell_angle_alpha   61.15119468
_cell_angle_beta   61.15119468
_cell_angle_gamma   61.15119399
_symmetry_Int_Tables_number   1
_chemical_formula_structural   Ba2Mg(BO2)6
_chemical_formula_sum   'Ba2 Mg1 B6 O12'
_cell_volume   251.76623919
_cell_formula_units_Z   1
loop_
 _symmetry_equiv_pos_site_id
 _symmetry_equiv_pos_as_xyz
  1  'x, y, z'
loop_
 _atom_site_type_symbol
 _atom_site_label
 _atom_site_symmetry_multiplicity
 _atom_site_fract_x
 _atom_site_fract_y
 _atom_site_fract_z
 _atom_site_occupancy
  Ba  Ba0  1  0.79095700  0.79095700  0.79095700  1
  Ba  Ba1  1  0.20904300  0.20904300  0.20904300  1
  Mg  Mg2  1  0.00000000  0.00000000  0.00000000  1
  B  B3  1  0.63542400  0.35499100  0.24419800  1
  B  B4  1  0.35499100  0.24419800  0.63542400  1
  B  B5  1  0.24419800  0.63542400  0.35499100  1
  B  B6  1  0.36457600  0.64500900  0.75580200  1
  B  B7  1  0.64500900  0.75580200  0.36457600  1
  B  B8  1  0.75580200  0.36457600  0.64500900  1
  O  O9  1  0.08615900  0.84081800  0.31043600  1
  O  O10  1  0.84081800  0.31043600  0.08615900  1
  O  O11  1  0.31043600  0.08615900  0.84081800  1
  O  O12  1  0.91384100  0.15918200  0.68956400  1
  O  O13  1  0.15918200  0.68956400  0.91384100  1
  O  O14  1  0.68956400  0.91384100  0.15918200  1
  O  O15  1  0.46552300  0.57286400  0.19650000  1
  O  O16  1  0.57286400  0.19650000  0.46552300  1
  O  O17  1  0.19650000  0.46552300  0.57286400  1
  O  O18  1  0.53447700  0.42713600  0.80350000  1
  O  O19  1  0.42713600  0.80350000  0.53447700  1
  O  O20  1  0.80350000  0.53447700  0.42713600  1
