data_image0
_chemical_formula_structural       B40H72N8
_chemical_formula_sum              "B40 H72 N8"
_cell_length_a       17.3743
_cell_length_b       7.11827
_cell_length_c       7.05418
_cell_angle_alpha    90
_cell_angle_beta     90
_cell_angle_gamma    90

_space_group_name_H-M_alt    "P 1"
_space_group_IT_number       1

loop_
  _space_group_symop_operation_xyz
  'x, y, z'

loop_
  _atom_site_type_symbol
  _atom_site_label
  _atom_site_symmetry_multiplicity
  _atom_site_fract_x
  _atom_site_fract_y
  _atom_site_fract_z
  _atom_site_occupancy
  B   B1        1.0  0.14400  0.04620  0.42600  1.0000
  B   B2        1.0  0.35600  0.95400  0.92600  1.0000
  B   B3        1.0  0.64400  0.45400  0.07370  1.0000
  B   B4        1.0  0.85600  0.54600  0.57400  1.0000
  B   B5        1.0  0.85600  0.95400  0.57400  1.0000
  B   B6        1.0  0.64400  0.04620  0.07370  1.0000
  B   B7        1.0  0.35600  0.54600  0.92600  1.0000
  B   B8        1.0  0.14400  0.45400  0.42600  1.0000
  B   B9        1.0  0.06160  0.04590  0.25900  1.0000
  B   B10       1.0  0.43800  0.95400  0.75900  1.0000
  B   B11       1.0  0.56200  0.45400  0.24100  1.0000
  B   B12       1.0  0.93800  0.54600  0.74100  1.0000
  B   B13       1.0  0.93800  0.95400  0.74100  1.0000
  B   B14       1.0  0.56200  0.04590  0.24100  1.0000
  B   B15       1.0  0.43800  0.54600  0.75900  1.0000
  B   B16       1.0  0.06160  0.45400  0.25900  1.0000
  B   B17       1.0  0.07160  0.25000  0.12400  1.0000
  B   B18       1.0  0.42800  0.75000  0.62400  1.0000
  B   B19       1.0  0.57200  0.25000  0.37600  1.0000
  B   B20       1.0  0.92800  0.75000  0.87600  1.0000
  B   B21       1.0  0.99700  0.25000  0.28300  1.0000
  B   B22       1.0  0.50300  0.75000  0.78300  1.0000
  B   B23       1.0  0.49700  0.25000  0.21700  1.0000
  B   B24       1.0  0.00302  0.75000  0.71700  1.0000
  B   B25       1.0  0.14800  0.25000  0.58700  1.0000
  B   B26       1.0  0.35200  0.75000  0.08730  1.0000
  B   B27       1.0  0.64800  0.25000  0.91300  1.0000
  B   B28       1.0  0.85200  0.75000  0.41300  1.0000
  B   B29       1.0  0.19600  0.25000  0.37400  1.0000
  B   B30       1.0  0.30400  0.75000  0.87400  1.0000
  B   B31       1.0  0.69600  0.25000  0.12600  1.0000
  B   B32       1.0  0.80400  0.75000  0.62600  1.0000
  B   B33       1.0  0.15400  0.12200  0.18900  1.0000
  B   B34       1.0  0.34600  0.87800  0.68900  1.0000
  B   B35       1.0  0.65400  0.37800  0.31100  1.0000
  B   B36       1.0  0.84600  0.62200  0.81100  1.0000
  B   B37       1.0  0.84600  0.87800  0.81100  1.0000
  B   B38       1.0  0.65400  0.12200  0.31100  1.0000
  B   B39       1.0  0.34600  0.62200  0.68900  1.0000
  B   B40       1.0  0.15400  0.37800  0.18900  1.0000
  H   H1        1.0  0.17200  0.90000  0.47400  1.0000
  H   H2        1.0  0.32800  0.10000  0.97400  1.0000
  H   H3        1.0  0.67200  0.60000  0.02630  1.0000
  H   H4        1.0  0.82800  0.40000  0.52600  1.0000
  H   H5        1.0  0.82800  0.10000  0.52600  1.0000
  H   H6        1.0  0.67200  0.90000  0.02630  1.0000
  H   H7        1.0  0.32800  0.40000  0.97400  1.0000
  H   H8        1.0  0.17200  0.60000  0.47400  1.0000
  H   H9        1.0  0.06790  0.03660  0.44700  1.0000
  H   H10       1.0  0.43200  0.96300  0.94700  1.0000
  H   H11       1.0  0.56800  0.46300  0.05340  1.0000
  H   H12       1.0  0.93200  0.53700  0.55300  1.0000
  H   H13       1.0  0.93200  0.96300  0.55300  1.0000
  H   H14       1.0  0.56800  0.03660  0.05340  1.0000
  H   H15       1.0  0.43200  0.53700  0.94700  1.0000
  H   H16       1.0  0.06790  0.46300  0.44700  1.0000
  H   H17       1.0  0.24800  0.13500  0.74000  1.0000
  H   H18       1.0  0.25200  0.86500  0.24000  1.0000
  H   H19       1.0  0.74800  0.36500  0.76000  1.0000
  H   H20       1.0  0.75200  0.63500  0.26000  1.0000
  H   H21       1.0  0.75200  0.86500  0.26000  1.0000
  H   H22       1.0  0.74800  0.13500  0.76000  1.0000
  H   H23       1.0  0.25200  0.63500  0.24000  1.0000
  H   H24       1.0  0.24800  0.36500  0.74000  1.0000
  H   H25       1.0  0.91100  0.36500  0.08380  1.0000
  H   H26       1.0  0.58900  0.63500  0.58400  1.0000
  H   H27       1.0  0.41100  0.13500  0.41600  1.0000
  H   H28       1.0  0.08860  0.86500  0.91600  1.0000
  H   H29       1.0  0.08860  0.63500  0.91600  1.0000
  H   H30       1.0  0.41100  0.36500  0.41600  1.0000
  H   H31       1.0  0.58900  0.86500  0.58400  1.0000
  H   H32       1.0  0.91100  0.13500  0.08380  1.0000
  H   H33       1.0  0.98600  0.25000  0.45100  1.0000
  H   H34       1.0  0.51400  0.75000  0.95100  1.0000
  H   H35       1.0  0.48600  0.25000  0.04940  1.0000
  H   H36       1.0  0.01430  0.75000  0.54900  1.0000
  H   H37       1.0  0.18900  0.25000  0.88300  1.0000
  H   H38       1.0  0.31100  0.75000  0.38300  1.0000
  H   H39       1.0  0.68900  0.25000  0.61700  1.0000
  H   H40       1.0  0.81100  0.75000  0.11700  1.0000
  H   H41       1.0  0.26400  0.25000  0.40100  1.0000
  H   H42       1.0  0.23600  0.75000  0.90100  1.0000
  H   H43       1.0  0.76400  0.25000  0.09930  1.0000
  H   H44       1.0  0.73600  0.75000  0.59900  1.0000
  H   H45       1.0  0.19200  0.03770  0.07460  1.0000
  H   H46       1.0  0.30800  0.96200  0.57500  1.0000
  H   H47       1.0  0.69200  0.46200  0.42500  1.0000
  H   H48       1.0  0.80800  0.53800  0.92500  1.0000
  H   H49       1.0  0.80800  0.96200  0.92500  1.0000
  H   H50       1.0  0.69200  0.03770  0.42500  1.0000
  H   H51       1.0  0.30800  0.53800  0.57500  1.0000
  H   H52       1.0  0.19200  0.46200  0.07460  1.0000
  H   H53       1.0  0.87100  0.25000  0.26400  1.0000
  H   H54       1.0  0.62900  0.75000  0.76400  1.0000
  H   H55       1.0  0.37100  0.25000  0.23600  1.0000
  H   H56       1.0  0.12900  0.75000  0.73600  1.0000
  H   H57       1.0  0.08410  0.25000  0.65200  1.0000
  H   H58       1.0  0.41600  0.75000  0.15200  1.0000
  H   H59       1.0  0.58400  0.25000  0.84800  1.0000
  H   H60       1.0  0.91600  0.75000  0.34800  1.0000
  H   H61       1.0  0.03790  0.89900  0.20000  1.0000
  H   H62       1.0  0.46200  0.10100  0.70000  1.0000
  H   H63       1.0  0.53800  0.60100  0.30000  1.0000
  H   H64       1.0  0.96200  0.39900  0.80000  1.0000
  H   H65       1.0  0.96200  0.10100  0.80000  1.0000
  H   H66       1.0  0.53800  0.89900  0.30000  1.0000
  H   H67       1.0  0.46200  0.39900  0.70000  1.0000
  H   H68       1.0  0.03790  0.60100  0.20000  1.0000
  H   H69       1.0  0.04870  0.25000  0.96400  1.0000
  H   H70       1.0  0.45100  0.75000  0.46400  1.0000
  H   H71       1.0  0.54900  0.25000  0.53600  1.0000
  H   H72       1.0  0.95100  0.75000  0.03580  1.0000
  N   N1        1.0  0.21200  0.25000  0.74800  1.0000
  N   N2        1.0  0.28800  0.75000  0.24800  1.0000
  N   N3        1.0  0.71200  0.25000  0.75200  1.0000
  N   N4        1.0  0.78800  0.75000  0.25200  1.0000
  N   N5        1.0  0.91700  0.25000  0.17100  1.0000
  N   N6        1.0  0.58300  0.75000  0.67100  1.0000
  N   N7        1.0  0.41700  0.25000  0.32900  1.0000
  N   N8        1.0  0.08270  0.75000  0.82900  1.0000
