# generated using pymatgen
data_Rb8PO3
_symmetry_space_group_name_H-M   'P 1'
_cell_length_a   7.22398100
_cell_length_b   7.22398100
_cell_length_c   7.22398100
_cell_angle_alpha   90.00000000
_cell_angle_beta   90.00000000
_cell_angle_gamma   90.00000000
_symmetry_Int_Tables_number   1
_chemical_formula_structural   Rb8PO3
_chemical_formula_sum   'Rb8 P1 O3'
_cell_volume   376.98996082
_cell_formula_units_Z   1
loop_
 _symmetry_equiv_pos_site_id
 _symmetry_equiv_pos_as_xyz
  1  'x, y, z'
loop_
 _atom_site_type_symbol
 _atom_site_label
 _atom_site_symmetry_multiplicity
 _atom_site_fract_x
 _atom_site_fract_y
 _atom_site_fract_z
 _atom_site_occupancy
  Rb  Rb0  1  0.26222700  0.26222700  0.26222700  1
  Rb  Rb1  1  0.73777300  0.73777300  0.26222700  1
  Rb  Rb2  1  0.73777300  0.26222700  0.73777300  1
  Rb  Rb3  1  0.26222700  0.73777300  0.73777300  1
  Rb  Rb4  1  0.26222700  0.26222700  0.73777300  1
  Rb  Rb5  1  0.73777300  0.73777300  0.73777300  1
  Rb  Rb6  1  0.73777300  0.26222700  0.26222700  1
  Rb  Rb7  1  0.26222700  0.73777300  0.26222700  1
  P  P8  1  0.00000000  0.00000000  0.00000000  1
  O  O9  1  0.00000000  0.50000000  0.50000000  1
  O  O10  1  0.50000000  0.50000000  0.00000000  1
  O  O11  1  0.50000000  0.00000000  0.50000000  1
