# generated using pymatgen
data_Y(PO3)3
_symmetry_space_group_name_H-M   'P 1'
_cell_length_a   20.31421600
_cell_length_b   10.25497200
_cell_length_c   11.48415467
_cell_angle_alpha   82.20866447
_cell_angle_beta   90.00000000
_cell_angle_gamma   90.00000000
_symmetry_Int_Tables_number   1
_chemical_formula_structural   Y(PO3)3
_chemical_formula_sum   'Y12 P36 O108'
_cell_volume   2370.31302793
_cell_formula_units_Z   12
loop_
 _symmetry_equiv_pos_site_id
 _symmetry_equiv_pos_as_xyz
  1  'x, y, z'
loop_
 _atom_site_type_symbol
 _atom_site_label
 _atom_site_symmetry_multiplicity
 _atom_site_fract_x
 _atom_site_fract_y
 _atom_site_fract_z
 _atom_site_occupancy
  Y  Y0  1  0.17676000  0.47407400  0.49745900  1
  Y  Y1  1  0.67676000  0.02592600  0.50254100  1
  Y  Y2  1  0.82324000  0.52592600  0.50254100  1
  Y  Y3  1  0.32324000  0.97407400  0.49745900  1
  Y  Y4  1  0.65458000  0.01764100  0.99997200  1
  Y  Y5  1  0.15458000  0.48235900  0.00002800  1
  Y  Y6  1  0.34542000  0.98235900  0.00002800  1
  Y  Y7  1  0.84542000  0.51764100  0.99997200  1
  Y  Y8  1  0.00000000  0.00000000  0.50000000  1
  Y  Y9  1  0.50000000  0.50000000  0.50000000  1
  Y  Y10  1  0.00000000  0.00000000  0.00000000  1
  Y  Y11  1  0.50000000  0.50000000  0.00000000  1
  P  P12  1  0.55161700  0.03081500  0.72975300  1
  P  P13  1  0.05161700  0.46918500  0.27024700  1
  P  P14  1  0.44838300  0.96918500  0.27024700  1
  P  P15  1  0.94838300  0.53081500  0.72975300  1
  P  P16  1  0.54114800  0.18250400  0.17845900  1
  P  P17  1  0.04114800  0.31749600  0.82154100  1
  P  P18  1  0.45885200  0.81749600  0.82154100  1
  P  P19  1  0.95885200  0.68250400  0.17845900  1
  P  P20  1  0.37537600  0.67759500  0.65368000  1
  P  P21  1  0.87537600  0.82240500  0.34632000  1
  P  P22  1  0.62462400  0.32240500  0.34632000  1
  P  P23  1  0.12462400  0.17759500  0.65368000  1
  P  P24  1  0.27342000  0.49125000  0.76149300  1
  P  P25  1  0.77342000  0.00875000  0.23850700  1
  P  P26  1  0.72658000  0.50875000  0.23850700  1
  P  P27  1  0.22658000  0.99125000  0.76149300  1
  P  P28  1  0.11718500  0.80765800  0.85352300  1
  P  P29  1  0.61718500  0.69234200  0.14647700  1
  P  P30  1  0.88281500  0.19234200  0.14647700  1
  P  P31  1  0.38281500  0.30765800  0.85352300  1
  P  P32  1  0.06537200  0.69126300  0.63965200  1
  P  P33  1  0.56537200  0.80873700  0.36034800  1
  P  P34  1  0.93462800  0.30873700  0.36034800  1
  P  P35  1  0.43462800  0.19126300  0.63965200  1
  P  P36  1  0.20859100  0.80246500  0.32362800  1
  P  P37  1  0.70859100  0.69753500  0.67637200  1
  P  P38  1  0.79140900  0.19753500  0.67637200  1
  P  P39  1  0.29140900  0.30246500  0.32362800  1
  P  P40  1  0.77829700  0.82347200  0.86633800  1
  P  P41  1  0.27829700  0.67652800  0.13366200  1
  P  P42  1  0.22170300  0.17652800  0.13366200  1
  P  P43  1  0.72170300  0.32347200  0.86633800  1
  P  P44  1  0.88847800  0.97837700  0.75348800  1
  P  P45  1  0.38847800  0.52162300  0.24651200  1
  P  P46  1  0.11152200  0.02162300  0.24651200  1
  P  P47  1  0.61152200  0.47837700  0.75348800  1
  O  O48  1  0.58784200  0.04851700  0.61537600  1
  O  O49  1  0.08784200  0.45148300  0.38462400  1
  O  O50  1  0.41215800  0.95148300  0.38462400  1
  O  O51  1  0.91215800  0.54851700  0.61537600  1
  O  O52  1  0.58967100  0.03778000  0.84041700  1
  O  O53  1  0.08967100  0.46222000  0.15958300  1
  O  O54  1  0.41032900  0.96222000  0.15958300  1
  O  O55  1  0.91032900  0.53778000  0.84041700  1
  O  O56  1  0.51343500  0.30750400  0.11538100  1
  O  O57  1  0.01343500  0.19249600  0.88461900  1
  O  O58  1  0.48656500  0.69249600  0.88461900  1
  O  O59  1  0.98656500  0.80750400  0.11538100  1
  O  O60  1  0.57249600  0.08710700  0.10768100  1
  O  O61  1  0.07249600  0.41289300  0.89231900  1
  O  O62  1  0.42750400  0.91289300  0.89231900  1
  O  O63  1  0.92750400  0.58710700  0.10768100  1
  O  O64  1  0.42549800  0.58212500  0.62004000  1
  O  O65  1  0.92549800  0.91787500  0.37996000  1
  O  O66  1  0.57450200  0.41787500  0.37996000  1
  O  O67  1  0.07450200  0.08212500  0.62004000  1
  O  O68  1  0.33536200  0.75491600  0.55864000  1
  O  O69  1  0.83536200  0.74508400  0.44136000  1
  O  O70  1  0.66463800  0.24508400  0.44136000  1
  O  O71  1  0.16463800  0.25491600  0.55864000  1
  O  O72  1  0.25737200  0.46387500  0.63922600  1
  O  O73  1  0.75737200  0.03612500  0.36077400  1
  O  O74  1  0.74262800  0.53612500  0.36077400  1
  O  O75  1  0.24262800  0.96387500  0.63922600  1
  O  O76  1  0.21742000  0.52371900  0.83695600  1
  O  O77  1  0.71742000  0.97628100  0.16304400  1
  O  O78  1  0.78258000  0.47628100  0.16304400  1
  O  O79  1  0.28258000  0.02371900  0.83695600  1
  O  O80  1  0.06777600  0.91014100  0.87540900  1
  O  O81  1  0.56777600  0.58985900  0.12459100  1
  O  O82  1  0.93222400  0.08985900  0.12459100  1
  O  O83  1  0.43222400  0.41014100  0.87540900  1
  O  O84  1  0.12114700  0.68898300  0.94464400  1
  O  O85  1  0.62114700  0.81101700  0.05535600  1
  O  O86  1  0.87885300  0.31101700  0.05535600  1
  O  O87  1  0.37885300  0.18898300  0.94464400  1
  O  O88  1  0.10446400  0.57773200  0.60696700  1
  O  O89  1  0.60446400  0.92226800  0.39303300  1
  O  O90  1  0.89553600  0.42226800  0.39303300  1
  O  O91  1  0.39553600  0.07773200  0.60696700  1
  O  O92  1  0.04016000  0.79259400  0.54333600  1
  O  O93  1  0.54016000  0.70740600  0.45666400  1
  O  O94  1  0.95984000  0.20740600  0.45666400  1
  O  O95  1  0.45984000  0.29259400  0.54333600  1
  O  O96  1  0.48530000  0.10914500  0.26261500  1
  O  O97  1  0.98530000  0.39085500  0.73738500  1
  O  O98  1  0.51470000  0.89085500  0.73738500  1
  O  O99  1  0.01470000  0.60914500  0.26261500  1
  O  O100  1  0.59311600  0.21294200  0.27598500  1
  O  O101  1  0.09311600  0.28705800  0.72401500  1
  O  O102  1  0.40688400  0.78705800  0.72401500  1
  O  O103  1  0.90688400  0.71294200  0.27598500  1
  O  O104  1  0.32755400  0.60661500  0.75558900  1
  O  O105  1  0.82755400  0.89338500  0.24441100  1
  O  O106  1  0.67244600  0.39338500  0.24441100  1
  O  O107  1  0.17244600  0.10661500  0.75558900  1
  O  O108  1  0.18985000  0.86938700  0.83806400  1
  O  O109  1  0.68985000  0.63061300  0.16193600  1
  O  O110  1  0.81015000  0.13061300  0.16193600  1
  O  O111  1  0.31015000  0.36938700  0.83806400  1
  O  O112  1  0.10891100  0.76752700  0.72453400  1
  O  O113  1  0.60891100  0.73247300  0.27546600  1
  O  O114  1  0.89108900  0.23247300  0.27546600  1
  O  O115  1  0.39108900  0.26752700  0.72453400  1
  O  O116  1  0.49368000  0.13790200  0.72766300  1
  O  O117  1  0.99368000  0.36209800  0.27233700  1
  O  O118  1  0.50632000  0.86209800  0.27233700  1
  O  O119  1  0.00632000  0.63790200  0.72766300  1
  O  O120  1  0.19311700  0.67824800  0.40314100  1
  O  O121  1  0.69311700  0.82175200  0.59685900  1
  O  O122  1  0.80688300  0.32175200  0.59685900  1
  O  O123  1  0.30688300  0.17824800  0.40314100  1
  O  O124  1  0.25665100  0.89722100  0.36483700  1
  O  O125  1  0.75665100  0.60277900  0.63516300  1
  O  O126  1  0.74334900  0.10277900  0.63516300  1
  O  O127  1  0.24334900  0.39722100  0.36483700  1
  O  O128  1  0.74051900  0.93535100  0.90536100  1
  O  O129  1  0.24051900  0.56464900  0.09463900  1
  O  O130  1  0.25948100  0.06464900  0.09463900  1
  O  O131  1  0.75948100  0.43535100  0.90536100  1
  O  O132  1  0.81495100  0.73182300  0.95684800  1
  O  O133  1  0.31495100  0.76817700  0.04315200  1
  O  O134  1  0.18504900  0.26817700  0.04315200  1
  O  O135  1  0.68504900  0.23182300  0.95684800  1
  O  O136  1  0.93214700  0.94833900  0.65550000  1
  O  O137  1  0.43214700  0.55166100  0.34450000  1
  O  O138  1  0.06785300  0.05166100  0.34450000  1
  O  O139  1  0.56785300  0.44833900  0.65550000  1
  O  O140  1  0.91621200  0.97331400  0.87498900  1
  O  O141  1  0.41621200  0.52668600  0.12501100  1
  O  O142  1  0.08378800  0.02668600  0.12501100  1
  O  O143  1  0.58378800  0.47331400  0.87498900  1
  O  O144  1  0.22946500  0.76681700  0.19715600  1
  O  O145  1  0.72946500  0.73318300  0.80284400  1
  O  O146  1  0.77053500  0.23318300  0.80284400  1
  O  O147  1  0.27053500  0.26681700  0.19715600  1
  O  O148  1  0.82646200  0.87945400  0.75837300  1
  O  O149  1  0.32646200  0.62054600  0.24162700  1
  O  O150  1  0.17353800  0.12054600  0.24162700  1
  O  O151  1  0.67353800  0.37945400  0.75837300  1
  O  O152  1  0.14094000  0.87670400  0.28664700  1
  O  O153  1  0.64094000  0.62329600  0.71335300  1
  O  O154  1  0.85906000  0.12329600  0.71335300  1
  O  O155  1  0.35906000  0.37670400  0.28664700  1
