# generated using pymatgen
data_ZrSiO4
_symmetry_space_group_name_H-M   'P 1'
_cell_length_a   5.18392200
_cell_length_b   4.71959200
_cell_length_c   4.93593347
_cell_angle_alpha   81.36516035
_cell_angle_beta   90.00000000
_cell_angle_gamma   90.00000000
_symmetry_Int_Tables_number   1
_chemical_formula_structural   ZrSiO4
_chemical_formula_sum   'Zr2 Si2 O8'
_cell_volume   119.39372186
_cell_formula_units_Z   2
loop_
 _symmetry_equiv_pos_site_id
 _symmetry_equiv_pos_as_xyz
  1  'x, y, z'
loop_
 _atom_site_type_symbol
 _atom_site_label
 _atom_site_symmetry_multiplicity
 _atom_site_fract_x
 _atom_site_fract_y
 _atom_site_fract_z
 _atom_site_occupancy
  Zr  Zr0  1  0.72236000  0.50000000  0.25000000  1
  Zr  Zr1  1  0.27764000  0.50000000  0.75000000  1
  Si  Si2  1  0.83370700  0.00000000  0.75000000  1
  Si  Si3  1  0.16629300  0.00000000  0.25000000  1
  O  O4  1  0.60728000  0.24742900  0.60976500  1
  O  O5  1  0.60728000  0.75257100  0.89023500  1
  O  O6  1  0.39272000  0.75257100  0.39023500  1
  O  O7  1  0.39272000  0.24742900  0.10976500  1
  O  O8  1  0.92154300  0.21825300  0.01684700  1
  O  O9  1  0.92154300  0.78174700  0.48315300  1
  O  O10  1  0.07845700  0.78174700  0.98315300  1
  O  O11  1  0.07845700  0.21825300  0.51684700  1
