# generated using pymatgen
data_ZnGeO3
_symmetry_space_group_name_H-M   'P 1'
_cell_length_a   5.30977994
_cell_length_b   5.30977994
_cell_length_c   5.30978004
_cell_angle_alpha   57.32585723
_cell_angle_beta   57.32585723
_cell_angle_gamma   57.32585470
_symmetry_Int_Tables_number   1
_chemical_formula_structural   ZnGeO3
_chemical_formula_sum   'Zn2 Ge2 O6'
_cell_volume   99.33942066
_cell_formula_units_Z   2
loop_
 _symmetry_equiv_pos_site_id
 _symmetry_equiv_pos_as_xyz
  1  'x, y, z'
loop_
 _atom_site_type_symbol
 _atom_site_label
 _atom_site_symmetry_multiplicity
 _atom_site_fract_x
 _atom_site_fract_y
 _atom_site_fract_z
 _atom_site_occupancy
  Zn  Zn0  1  0.72247000  0.72247000  0.72247000  1
  Zn  Zn1  1  0.22247000  0.22247000  0.22247000  1
  Ge  Ge2  1  0.49887800  0.49887800  0.49887800  1
  Ge  Ge3  1  0.99887800  0.99887800  0.99887800  1
  O  O4  1  0.63512400  0.87344100  0.27268600  1
  O  O5  1  0.27268600  0.63512400  0.87344100  1
  O  O6  1  0.87344100  0.27268600  0.63512400  1
  O  O7  1  0.77268600  0.37344100  0.13512400  1
  O  O8  1  0.13512400  0.77268600  0.37344100  1
  O  O9  1  0.37344100  0.13512400  0.77268600  1
