# generated using pymatgen
data_ZnSiO3
_symmetry_space_group_name_H-M   'P 1'
_cell_length_a   5.43233385
_cell_length_b   5.43233385
_cell_length_c   5.43233429
_cell_angle_alpha   52.52246245
_cell_angle_beta   52.52246245
_cell_angle_gamma   52.52246670
_symmetry_Int_Tables_number   1
_chemical_formula_structural   ZnSiO3
_chemical_formula_sum   'Zn2 Si2 O6'
_cell_volume   93.45862086
_cell_formula_units_Z   2
loop_
 _symmetry_equiv_pos_site_id
 _symmetry_equiv_pos_as_xyz
  1  'x, y, z'
loop_
 _atom_site_type_symbol
 _atom_site_label
 _atom_site_symmetry_multiplicity
 _atom_site_fract_x
 _atom_site_fract_y
 _atom_site_fract_z
 _atom_site_occupancy
  Zn  Zn0  1  0.36948100  0.36948100  0.36948100  1
  Zn  Zn1  1  0.63051900  0.63051900  0.63051900  1
  Si  Si2  1  0.16087500  0.16087500  0.16087500  1
  Si  Si3  1  0.83912500  0.83912500  0.83912500  1
  O  O4  1  0.43735600  0.80248700  0.04604600  1
  O  O5  1  0.80248700  0.04604600  0.43735600  1
  O  O6  1  0.04604600  0.43735600  0.80248700  1
  O  O7  1  0.56264400  0.19751300  0.95395400  1
  O  O8  1  0.19751300  0.95395400  0.56264400  1
  O  O9  1  0.95395400  0.56264400  0.19751300  1
