# generated using pymatgen
data_NaAl(SiO3)2
_symmetry_space_group_name_H-M   'P 1'
_cell_length_a   11.95374480
_cell_length_b   11.95374480
_cell_length_c   13.87794420
_cell_angle_alpha   54.75402814
_cell_angle_beta   54.75402814
_cell_angle_gamma   69.60725749
_symmetry_Int_Tables_number   1
_chemical_formula_structural   NaAl(SiO3)2
_chemical_formula_sum   'Na8 Al8 Si16 O48'
_cell_volume   1322.27886762
_cell_formula_units_Z   8
loop_
 _symmetry_equiv_pos_site_id
 _symmetry_equiv_pos_as_xyz
  1  'x, y, z'
loop_
 _atom_site_type_symbol
 _atom_site_label
 _atom_site_symmetry_multiplicity
 _atom_site_fract_x
 _atom_site_fract_y
 _atom_site_fract_z
 _atom_site_occupancy
  Na  Na0  1  0.72016300  0.75071300  0.61310400  1
  Na  Na1  1  0.24928700  0.27983700  0.88689600  1
  Na  Na2  1  0.27983700  0.24928700  0.38689600  1
  Na  Na3  1  0.75071300  0.72016300  0.11310400  1
  Na  Na4  1  0.13919200  0.64685000  0.60288000  1
  Na  Na5  1  0.35315000  0.86080800  0.89712000  1
  Na  Na6  1  0.86080800  0.35315000  0.39712000  1
  Na  Na7  1  0.64685000  0.13919200  0.10288000  1
  Al  Al8  1  0.28275000  0.46258100  0.46709700  1
  Al  Al9  1  0.53741900  0.71725000  0.03290300  1
  Al  Al10  1  0.71725000  0.53741900  0.53290300  1
  Al  Al11  1  0.46258100  0.28275000  0.96709700  1
  Al  Al12  1  0.96376800  0.78458500  0.78437100  1
  Al  Al13  1  0.21541500  0.03623200  0.71562900  1
  Al  Al14  1  0.03623200  0.21541500  0.21562900  1
  Al  Al15  1  0.78458500  0.96376800  0.28437100  1
  Si  Si16  1  0.74808800  0.43242300  0.79106200  1
  Si  Si17  1  0.56757700  0.25191200  0.70893800  1
  Si  Si18  1  0.25191200  0.56757700  0.20893800  1
  Si  Si19  1  0.43242300  0.74808800  0.29106200  1
  Si  Si20  1  0.93258900  0.25154200  0.02887100  1
  Si  Si21  1  0.74845800  0.06741100  0.47112900  1
  Si  Si22  1  0.06741100  0.74845800  0.97112900  1
  Si  Si23  1  0.25154200  0.93258900  0.52887100  1
  Si  Si24  1  0.95706400  0.70066200  0.25276000  1
  Si  Si25  1  0.29933800  0.04293600  0.24724000  1
  Si  Si26  1  0.04293600  0.29933800  0.74724000  1
  Si  Si27  1  0.70066200  0.95706400  0.75276000  1
  Si  Si28  1  0.20085800  0.45532700  0.08852700  1
  Si  Si29  1  0.54467300  0.79914200  0.41147300  1
  Si  Si30  1  0.79914200  0.54467300  0.91147300  1
  Si  Si31  1  0.45532700  0.20085800  0.58852700  1
  O  O32  1  0.13164900  0.43775600  0.62198400  1
  O  O33  1  0.56224400  0.86835100  0.87801600  1
  O  O34  1  0.86835100  0.56224400  0.37801600  1
  O  O35  1  0.43775600  0.13164900  0.12198400  1
  O  O36  1  0.93914100  0.63197400  0.80583100  1
  O  O37  1  0.36802600  0.06085900  0.69416900  1
  O  O38  1  0.06085900  0.36802600  0.19416900  1
  O  O39  1  0.63197400  0.93914100  0.30583100  1
  O  O40  1  0.66344500  0.38399000  0.58383300  1
  O  O41  1  0.61601000  0.33655500  0.91616700  1
  O  O42  1  0.33655500  0.61601000  0.41616700  1
  O  O43  1  0.38399000  0.66344500  0.08383300  1
  O  O44  1  0.88155700  0.16174500  0.36982500  1
  O  O45  1  0.83825500  0.11844300  0.13017500  1
  O  O46  1  0.11844300  0.83825500  0.63017500  1
  O  O47  1  0.16174500  0.88155700  0.86982500  1
  O  O48  1  0.74798400  0.52444200  0.64837600  1
  O  O49  1  0.47555800  0.25201600  0.85162400  1
  O  O50  1  0.25201600  0.47555800  0.35162400  1
  O  O51  1  0.52444200  0.74798400  0.14837600  1
  O  O52  1  0.02517100  0.25370900  0.07859100  1
  O  O53  1  0.74629100  0.97482900  0.42140900  1
  O  O54  1  0.97482900  0.74629100  0.92140900  1
  O  O55  1  0.25370900  0.02517100  0.57859100  1
  O  O56  1  0.10051300  0.17388600  0.71685000  1
  O  O57  1  0.82611400  0.89948700  0.78315000  1
  O  O58  1  0.89948700  0.82611400  0.28315000  1
  O  O59  1  0.17388600  0.10051300  0.21685000  1
  O  O60  1  0.67941700  0.60575900  0.00919200  1
  O  O61  1  0.39424100  0.32058300  0.49080800  1
  O  O62  1  0.32058300  0.39424100  0.99080800  1
  O  O63  1  0.60575900  0.67941700  0.50919200  1
  O  O64  1  0.11833700  0.67076700  0.21478100  1
  O  O65  1  0.32923300  0.88166300  0.28521900  1
  O  O66  1  0.88166300  0.32923300  0.78521900  1
  O  O67  1  0.67076700  0.11833700  0.71478100  1
  O  O68  1  0.17281300  0.61617100  0.99359400  1
  O  O69  1  0.38382900  0.82718700  0.50640600  1
  O  O70  1  0.82718700  0.38382900  0.00640600  1
  O  O71  1  0.61617100  0.17281300  0.49359400  1
  O  O72  1  0.24966300  0.45021700  0.18174900  1
  O  O73  1  0.54978300  0.75033700  0.31825100  1
  O  O74  1  0.75033700  0.54978300  0.81825100  1
  O  O75  1  0.45021700  0.24966300  0.68174900  1
  O  O76  1  0.95019300  0.74049900  0.11971000  1
  O  O77  1  0.25950100  0.04980700  0.38029000  1
  O  O78  1  0.04980700  0.25950100  0.88029000  1
  O  O79  1  0.74049900  0.95019300  0.61971000  1
