# generated using pymatgen
data_Lu3NbO7
_symmetry_space_group_name_H-M   'P 1'
_cell_length_a   8.01483275
_cell_length_b   8.01483275
_cell_length_c   5.25338200
_cell_angle_alpha   90.00000000
_cell_angle_beta   90.00000000
_cell_angle_gamma   125.54555406
_symmetry_Int_Tables_number   1
_chemical_formula_structural   Lu3NbO7
_chemical_formula_sum   'Lu6 Nb2 O14'
_cell_volume   274.57907653
_cell_formula_units_Z   2
loop_
 _symmetry_equiv_pos_site_id
 _symmetry_equiv_pos_as_xyz
  1  'x, y, z'
loop_
 _atom_site_type_symbol
 _atom_site_label
 _atom_site_symmetry_multiplicity
 _atom_site_fract_x
 _atom_site_fract_y
 _atom_site_fract_z
 _atom_site_occupancy
  Lu  Lu0  1  0.00000000  0.50000000  0.00000000  1
  Lu  Lu1  1  0.50000000  0.00000000  0.00000000  1
  Lu  Lu2  1  0.62222200  0.37777800  0.47039500  1
  Lu  Lu3  1  0.12222200  0.87777800  0.52960500  1
  Lu  Lu4  1  0.87777800  0.12222200  0.47039500  1
  Lu  Lu5  1  0.37777800  0.62222200  0.52960500  1
  Nb  Nb6  1  0.75000000  0.75000000  0.00000000  1
  Nb  Nb7  1  0.25000000  0.25000000  0.00000000  1
  O  O8  1  0.75000000  0.25000000  0.24091600  1
  O  O9  1  0.83790400  0.59011300  0.76024400  1
  O  O10  1  0.25000000  0.75000000  0.75908400  1
  O  O11  1  0.98595900  0.01404100  0.21716000  1
  O  O12  1  0.33790400  0.09011300  0.23975600  1
  O  O13  1  0.40988700  0.16209600  0.76024400  1
  O  O14  1  0.09011300  0.33790400  0.76024400  1
  O  O15  1  0.51404100  0.48595900  0.21716000  1
  O  O16  1  0.48595900  0.51404100  0.78284000  1
  O  O17  1  0.90988700  0.66209600  0.23975600  1
  O  O18  1  0.66209600  0.90988700  0.76024400  1
  O  O19  1  0.59011300  0.83790400  0.23975600  1
  O  O20  1  0.01404100  0.98595900  0.78284000  1
  O  O21  1  0.16209600  0.40988700  0.23975600  1
