# generated using pymatgen
data_Y3TaO7
_symmetry_space_group_name_H-M   'P 1'
_cell_length_a   8.16658381
_cell_length_b   8.16658381
_cell_length_c   5.37517900
_cell_angle_alpha   90.00000000
_cell_angle_beta   90.00000000
_cell_angle_gamma   125.50806050
_symmetry_Int_Tables_number   1
_chemical_formula_structural   Y3TaO7
_chemical_formula_sum   'Y6 Ta2 O14'
_cell_volume   291.82078700
_cell_formula_units_Z   2
loop_
 _symmetry_equiv_pos_site_id
 _symmetry_equiv_pos_as_xyz
  1  'x, y, z'
loop_
 _atom_site_type_symbol
 _atom_site_label
 _atom_site_symmetry_multiplicity
 _atom_site_fract_x
 _atom_site_fract_y
 _atom_site_fract_z
 _atom_site_occupancy
  Y  Y0  1  0.38073500  0.61926500  0.97158900  1
  Y  Y1  1  0.88073500  0.11926500  0.02841100  1
  Y  Y2  1  0.00000000  0.50000000  0.50000000  1
  Y  Y3  1  0.11926500  0.88073500  0.97158900  1
  Y  Y4  1  0.50000000  0.00000000  0.50000000  1
  Y  Y5  1  0.61926500  0.38073500  0.02841100  1
  Ta  Ta6  1  0.25000000  0.25000000  0.50000000  1
  Ta  Ta7  1  0.75000000  0.75000000  0.50000000  1
  O  O8  1  0.59971700  0.83836600  0.26443100  1
  O  O9  1  0.16163400  0.40028300  0.26443100  1
  O  O10  1  0.09971700  0.33836600  0.73556900  1
  O  O11  1  0.25000000  0.75000000  0.74344000  1
  O  O12  1  0.66163400  0.90028300  0.73556900  1
  O  O13  1  0.33836600  0.09971700  0.26443100  1
  O  O14  1  0.75000000  0.25000000  0.25656000  1
  O  O15  1  0.48824000  0.51176000  0.71158100  1
  O  O16  1  0.83836600  0.59971700  0.73556900  1
  O  O17  1  0.90028300  0.66163400  0.26443100  1
  O  O18  1  0.98824000  0.01176000  0.28841900  1
  O  O19  1  0.01176000  0.98824000  0.71158100  1
  O  O20  1  0.40028300  0.16163400  0.73556900  1
  O  O21  1  0.51176000  0.48824000  0.28841900  1
