# generated using pymatgen
data_H6PbCNCl3
_symmetry_space_group_name_H-M   'P 1'
_cell_length_a   5.76467100
_cell_length_b   5.75283200
_cell_length_c   5.85520158
_cell_angle_alpha   89.97451869
_cell_angle_beta   90.00000000
_cell_angle_gamma   90.00000000
_symmetry_Int_Tables_number   1
_chemical_formula_structural   H6PbCNCl3
_chemical_formula_sum   'H6 Pb1 C1 N1 Cl3'
_cell_volume   194.17710694
_cell_formula_units_Z   1
loop_
 _symmetry_equiv_pos_site_id
 _symmetry_equiv_pos_as_xyz
  1  'x, y, z'
loop_
 _atom_site_type_symbol
 _atom_site_label
 _atom_site_symmetry_multiplicity
 _atom_site_fract_x
 _atom_site_fract_y
 _atom_site_fract_z
 _atom_site_occupancy
  H  H0  1  0.50000000  0.12052400  0.79042300  1
  H  H1  1  0.34407200  0.18674800  0.04738700  1
  H  H2  1  0.65592800  0.18674800  0.04738700  1
  H  H3  1  0.35431600  0.77033900  0.97853800  1
  H  H4  1  0.64568400  0.77033900  0.97853800  1
  H  H5  1  0.50000000  0.82904300  0.21641200  1
  Pb  Pb6  1  0.00000000  0.52601200  0.48387400  1
  C  C7  1  0.50000000  0.10573200  0.97684800  1
  N  N8  1  0.50000000  0.85506800  0.04073100  1
  Cl  Cl9  1  0.00000000  0.57210900  0.97555800  1
  Cl  Cl10  1  0.50000000  0.57080800  0.52003600  1
  Cl  Cl11  1  0.00000000  0.02817400  0.43966000  1
