# generated using pymatgen
data_NaFeBO3
_symmetry_space_group_name_H-M   'P 1'
_cell_length_a   5.11799842
_cell_length_b   9.01573308
_cell_length_c   5.70291125
_cell_angle_alpha   89.98474562
_cell_angle_beta   79.10550244
_cell_angle_gamma   89.99416942
_symmetry_Int_Tables_number   1
_chemical_formula_structural   NaFeBO3
_chemical_formula_sum   'Na4 Fe4 B4 O12'
_cell_volume   258.40389021
_cell_formula_units_Z   4
loop_
 _symmetry_equiv_pos_site_id
 _symmetry_equiv_pos_as_xyz
  1  'x, y, z'
loop_
 _atom_site_type_symbol
 _atom_site_label
 _atom_site_symmetry_multiplicity
 _atom_site_fract_x
 _atom_site_fract_y
 _atom_site_fract_z
 _atom_site_occupancy
  Na  Na0  1  0.00035300  0.33908700  0.74986000  1
  Na  Na1  1  0.49954200  0.83949800  0.75013800  1
  Na  Na2  1  0.50043900  0.16049700  0.24984900  1
  Na  Na3  1  0.99964100  0.66092900  0.25014600  1
  Fe  Fe4  1  0.50008100  0.49977200  0.49994700  1
  Fe  Fe5  1  0.50008300  0.50017500  0.00006300  1
  Fe  Fe6  1  0.99991800  0.99999800  0.50005400  1
  Fe  Fe7  1  0.99995400  0.00001900  0.99997900  1
  B  B8  1  0.50006000  0.17327500  0.74995100  1
  B  B9  1  0.99992000  0.67325600  0.75007900  1
  B  B10  1  0.00010500  0.32674000  0.24990600  1
  B  B11  1  0.49991600  0.82673300  0.25005100  1
  O  O12  1  0.50055700  0.32890300  0.74978700  1
  O  O13  1  0.99937600  0.82888900  0.75014200  1
  O  O14  1  0.00060700  0.17111400  0.24985800  1
  O  O15  1  0.49945300  0.67110100  0.25024900  1
  O  O16  1  0.28143500  0.09975800  0.69743800  1
  O  O17  1  0.78220000  0.59940900  0.69637600  1
  O  O18  1  0.71820400  0.09938100  0.80263700  1
  O  O19  1  0.21813600  0.59978700  0.80373100  1
  O  O20  1  0.78187400  0.40020300  0.19624800  1
  O  O21  1  0.28178700  0.90063200  0.19735700  1
  O  O22  1  0.21779800  0.40059300  0.30360400  1
  O  O23  1  0.71855700  0.90025200  0.30255000  1
