# generated using pymatgen
data_NaGe2(PO4)3
_symmetry_space_group_name_H-M   'P 1'
_cell_length_a   8.68668617
_cell_length_b   8.68668617
_cell_length_c   8.68668625
_cell_angle_alpha   57.45533948
_cell_angle_beta   57.45533948
_cell_angle_gamma   57.45533956
_symmetry_Int_Tables_number   1
_chemical_formula_structural   NaGe2(PO4)3
_chemical_formula_sum   'Na2 Ge4 P6 O24'
_cell_volume   436.36467521
_cell_formula_units_Z   2
loop_
 _symmetry_equiv_pos_site_id
 _symmetry_equiv_pos_as_xyz
  1  'x, y, z'
loop_
 _atom_site_type_symbol
 _atom_site_label
 _atom_site_symmetry_multiplicity
 _atom_site_fract_x
 _atom_site_fract_y
 _atom_site_fract_z
 _atom_site_occupancy
  Na  Na0  1  0.00000000  0.00000000  0.00000000  1
  Na  Na1  1  0.50000000  0.50000000  0.50000000  1
  Ge  Ge2  1  0.35467000  0.35467000  0.35467000  1
  Ge  Ge3  1  0.14533000  0.14533000  0.14533000  1
  Ge  Ge4  1  0.85467000  0.85467000  0.85467000  1
  Ge  Ge5  1  0.64533000  0.64533000  0.64533000  1
  P  P6  1  0.46454300  0.75000000  0.03545700  1
  P  P7  1  0.03545700  0.46454300  0.75000000  1
  P  P8  1  0.53545700  0.25000000  0.96454300  1
  P  P9  1  0.96454300  0.53545700  0.25000000  1
  P  P10  1  0.75000000  0.03545700  0.46454300  1
  P  P11  1  0.25000000  0.96454300  0.53545700  1
  O  O12  1  0.43082100  0.77796900  0.55906900  1
  O  O13  1  0.55906900  0.43082100  0.77796900  1
  O  O14  1  0.77796900  0.55906900  0.43082100  1
  O  O15  1  0.06917900  0.94093100  0.72203100  1
  O  O16  1  0.72203100  0.06917900  0.94093100  1
  O  O17  1  0.94093100  0.72203100  0.06917900  1
  O  O18  1  0.56917900  0.22203100  0.44093100  1
  O  O19  1  0.44093100  0.56917900  0.22203100  1
  O  O20  1  0.22203100  0.44093100  0.56917900  1
  O  O21  1  0.93082100  0.05906900  0.27796900  1
  O  O22  1  0.27796900  0.93082100  0.05906900  1
  O  O23  1  0.05906900  0.27796900  0.93082100  1
  O  O24  1  0.98617200  0.35923500  0.22868800  1
  O  O25  1  0.35923500  0.22868900  0.98617200  1
  O  O26  1  0.22868800  0.98617200  0.35923500  1
  O  O27  1  0.14076500  0.51382800  0.27131200  1
  O  O28  1  0.51382800  0.27131100  0.14076500  1
  O  O29  1  0.27131200  0.14076500  0.51382800  1
  O  O30  1  0.01382800  0.64076500  0.77131100  1
  O  O31  1  0.64076500  0.77131100  0.01382800  1
  O  O32  1  0.77131200  0.01382800  0.64076500  1
  O  O33  1  0.85923500  0.48617200  0.72868900  1
  O  O34  1  0.48617200  0.72868900  0.85923500  1
  O  O35  1  0.72868900  0.85923500  0.48617200  1
