# generated using pymatgen
data_VO2
_symmetry_space_group_name_H-M   'P 1'
_cell_length_a   5.15044300
_cell_length_b   5.48363800
_cell_length_c   9.21873729
_cell_angle_alpha   89.42372213
_cell_angle_beta   90.00000000
_cell_angle_gamma   90.00000000
_symmetry_Int_Tables_number   1
_chemical_formula_structural   VO2
_chemical_formula_sum   'V8 O16'
_cell_volume   260.35314842
_cell_formula_units_Z   8
loop_
 _symmetry_equiv_pos_site_id
 _symmetry_equiv_pos_as_xyz
  1  'x, y, z'
loop_
 _atom_site_type_symbol
 _atom_site_label
 _atom_site_symmetry_multiplicity
 _atom_site_fract_x
 _atom_site_fract_y
 _atom_site_fract_z
 _atom_site_occupancy
  V  V0  1  0.86881500  0.11030400  0.63044700  1
  V  V1  1  0.14284900  0.40239400  0.12672800  1
  V  V2  1  0.64284900  0.59760600  0.37327200  1
  V  V3  1  0.36881500  0.88969600  0.86955300  1
  V  V4  1  0.13118500  0.88969600  0.36955300  1
  V  V5  1  0.85715100  0.59760600  0.87327200  1
  V  V6  1  0.35715100  0.40239400  0.62672800  1
  V  V7  1  0.63118500  0.11030400  0.13044700  1
  O  O8  1  0.17107600  0.15030500  0.51528700  1
  O  O9  1  0.81340900  0.35536000  0.00409500  1
  O  O10  1  0.31340900  0.64464000  0.49590500  1
  O  O11  1  0.67107600  0.84969500  0.98471300  1
  O  O12  1  0.82892400  0.84969500  0.48471300  1
  O  O13  1  0.18659100  0.64464000  0.99590500  1
  O  O14  1  0.68659100  0.35536000  0.50409500  1
  O  O15  1  0.32892400  0.15030500  0.01528700  1
  O  O16  1  0.54540700  0.11277400  0.72525000  1
  O  O17  1  0.46145100  0.38867100  0.23037300  1
  O  O18  1  0.96145100  0.61132900  0.26962700  1
  O  O19  1  0.04540700  0.88722600  0.77475000  1
  O  O20  1  0.45459300  0.88722600  0.27475000  1
  O  O21  1  0.53854900  0.61132900  0.76962700  1
  O  O22  1  0.03854900  0.38867100  0.73037300  1
  O  O23  1  0.95459300  0.11277400  0.22525000  1
