# generated using pymatgen
data_Bi3O2
_symmetry_space_group_name_H-M   'P 1'
_cell_length_a   7.65683471
_cell_length_b   7.65683471
_cell_length_c   7.65683471
_cell_angle_alpha   150.09551903
_cell_angle_beta   150.09551903
_cell_angle_gamma   42.80120951
_symmetry_Int_Tables_number   1
_chemical_formula_structural   Bi3O2
_chemical_formula_sum   'Bi3 O2'
_cell_volume   111.29293345
_cell_formula_units_Z   1
loop_
 _symmetry_equiv_pos_site_id
 _symmetry_equiv_pos_as_xyz
  1  'x, y, z'
loop_
 _atom_site_type_symbol
 _atom_site_label
 _atom_site_symmetry_multiplicity
 _atom_site_fract_x
 _atom_site_fract_y
 _atom_site_fract_z
 _atom_site_occupancy
  Bi  Bi0  1  0.33923200  0.33923200  0.00000000  1
  Bi  Bi1  1  0.66076800  0.66076800  0.00000000  1
  Bi  Bi2  1  0.00000000  0.00000000  0.00000000  1
  O  O3  1  0.25000000  0.75000000  0.50000000  1
  O  O4  1  0.75000000  0.25000000  0.50000000  1
