# generated using pymatgen
data_Na4Zn3S5
_symmetry_space_group_name_H-M   'P 1'
_cell_length_a   3.93137100
_cell_length_b   13.18878400
_cell_length_c   18.87495200
_cell_angle_alpha   90.00000000
_cell_angle_beta   90.00000000
_cell_angle_gamma   90.00000000
_symmetry_Int_Tables_number   1
_chemical_formula_structural   Na4Zn3S5
_chemical_formula_sum   'Na16 Zn12 S20'
_cell_volume   978.66631675
_cell_formula_units_Z   4
loop_
 _symmetry_equiv_pos_site_id
 _symmetry_equiv_pos_as_xyz
  1  'x, y, z'
loop_
 _atom_site_type_symbol
 _atom_site_label
 _atom_site_symmetry_multiplicity
 _atom_site_fract_x
 _atom_site_fract_y
 _atom_site_fract_z
 _atom_site_occupancy
  Na  Na0  1  0.25000000  0.99767800  0.76480500  1
  Na  Na1  1  0.25000000  0.49767800  0.73519500  1
  Na  Na2  1  0.75000000  0.00232200  0.23519500  1
  Na  Na3  1  0.75000000  0.50232200  0.26480500  1
  Na  Na4  1  0.25000000  0.00746200  0.41719200  1
  Na  Na5  1  0.25000000  0.50746200  0.08280800  1
  Na  Na6  1  0.75000000  0.99253800  0.58280800  1
  Na  Na7  1  0.75000000  0.49253800  0.91719200  1
  Na  Na8  1  0.25000000  0.10942400  0.95058500  1
  Na  Na9  1  0.25000000  0.60942400  0.54941500  1
  Na  Na10  1  0.75000000  0.89057600  0.04941500  1
  Na  Na11  1  0.75000000  0.39057600  0.45058500  1
  Na  Na12  1  0.25000000  0.27322400  0.83375200  1
  Na  Na13  1  0.25000000  0.77322400  0.66624800  1
  Na  Na14  1  0.75000000  0.72677600  0.16624800  1
  Na  Na15  1  0.75000000  0.22677600  0.33375200  1
  Zn  Zn16  1  0.25000000  0.20932400  0.54100800  1
  Zn  Zn17  1  0.25000000  0.70932400  0.95899200  1
  Zn  Zn18  1  0.75000000  0.79067600  0.45899200  1
  Zn  Zn19  1  0.75000000  0.29067600  0.04100800  1
  Zn  Zn20  1  0.25000000  0.31927600  0.21698100  1
  Zn  Zn21  1  0.25000000  0.81927600  0.28301900  1
  Zn  Zn22  1  0.75000000  0.68072400  0.78301900  1
  Zn  Zn23  1  0.75000000  0.18072400  0.71698100  1
  Zn  Zn24  1  0.25000000  0.57589600  0.36879600  1
  Zn  Zn25  1  0.25000000  0.07589600  0.13120400  1
  Zn  Zn26  1  0.75000000  0.42410400  0.63120400  1
  Zn  Zn27  1  0.75000000  0.92410400  0.86879600  1
  S  S28  1  0.25000000  0.12506900  0.65325700  1
  S  S29  1  0.25000000  0.62506900  0.84674300  1
  S  S30  1  0.75000000  0.87493100  0.34674300  1
  S  S31  1  0.75000000  0.37493100  0.15325700  1
  S  S32  1  0.25000000  0.14826500  0.24522100  1
  S  S33  1  0.25000000  0.64826500  0.25477900  1
  S  S34  1  0.75000000  0.85173500  0.75477900  1
  S  S35  1  0.75000000  0.35173500  0.74522100  1
  S  S36  1  0.25000000  0.34265800  0.97741000  1
  S  S37  1  0.25000000  0.84265800  0.52259000  1
  S  S38  1  0.75000000  0.65734200  0.02259000  1
  S  S39  1  0.75000000  0.15734200  0.47741000  1
  S  S40  1  0.25000000  0.39307700  0.33848100  1
  S  S41  1  0.25000000  0.89307700  0.16151900  1
  S  S42  1  0.75000000  0.60692300  0.66151900  1
  S  S43  1  0.75000000  0.10692300  0.83848100  1
  S  S44  1  0.25000000  0.38831000  0.56332500  1
  S  S45  1  0.25000000  0.88831000  0.93667500  1
  S  S46  1  0.75000000  0.61169000  0.43667500  1
  S  S47  1  0.75000000  0.11169000  0.06332500  1
