# generated using pymatgen
data_La4Al6O15
_symmetry_space_group_name_H-M   'P 1'
_cell_length_a   6.96468759
_cell_length_b   6.96468759
_cell_length_c   21.22585307
_cell_angle_alpha   86.98343271
_cell_angle_beta   86.98343271
_cell_angle_gamma   42.60128320
_symmetry_Int_Tables_number   1
_chemical_formula_structural   La4Al6O15
_chemical_formula_sum   'La8 Al12 O30'
_cell_volume   695.81569903
_cell_formula_units_Z   2
loop_
 _symmetry_equiv_pos_site_id
 _symmetry_equiv_pos_as_xyz
  1  'x, y, z'
loop_
 _atom_site_type_symbol
 _atom_site_label
 _atom_site_symmetry_multiplicity
 _atom_site_fract_x
 _atom_site_fract_y
 _atom_site_fract_z
 _atom_site_occupancy
  La  La0  1  0.67048000  0.05282700  0.79884500  1
  La  La1  1  0.64353000  0.06770000  0.60193600  1
  La  La2  1  0.05282700  0.67048000  0.29884500  1
  La  La3  1  0.06770000  0.64353000  0.10193600  1
  La  La4  1  0.93230000  0.35647000  0.89806400  1
  La  La5  1  0.94717300  0.32952000  0.70115500  1
  La  La6  1  0.35647000  0.93230000  0.39806400  1
  La  La7  1  0.32952000  0.94717300  0.20115500  1
  Al  Al8  1  0.20385500  0.62360400  0.91413300  1
  Al  Al9  1  0.19054600  0.64963100  0.69468600  1
  Al  Al10  1  0.65066500  0.02052200  0.97373200  1
  Al  Al11  1  0.62360400  0.20385500  0.41413300  1
  Al  Al12  1  0.64963100  0.19054600  0.19468600  1
  Al  Al13  1  0.02052200  0.65066500  0.47373200  1
  Al  Al14  1  0.97947800  0.34933500  0.52626800  1
  Al  Al15  1  0.35036900  0.80945400  0.80531400  1
  Al  Al16  1  0.37639600  0.79614500  0.58586700  1
  Al  Al17  1  0.34933500  0.97947800  0.02626800  1
  Al  Al18  1  0.80945400  0.35036900  0.30531400  1
  Al  Al19  1  0.79614500  0.37639600  0.08586700  1
  O  O20  1  0.13040200  0.80842100  0.62018600  1
  O  O21  1  0.55807200  0.27855000  0.91939800  1
  O  O22  1  0.54014600  0.30785200  0.69750200  1
  O  O23  1  0.01933000  0.74347500  0.98778800  1
  O  O24  1  0.80842100  0.13040200  0.12018600  1
  O  O25  1  0.27855000  0.55807200  0.41939800  1
  O  O26  1  0.01330100  0.62021100  0.86265800  1
  O  O27  1  0.30785200  0.54014600  0.19750200  1
  O  O28  1  0.74347500  0.01933000  0.48778800  1
  O  O29  1  0.91398700  0.68584700  0.70760900  1
  O  O30  1  0.10299100  0.48575900  0.55083800  1
  O  O31  1  0.51424100  0.89700900  0.94916200  1
  O  O32  1  0.62021100  0.01330100  0.36265800  1
  O  O33  1  0.68584700  0.91398700  0.20760900  1
  O  O34  1  0.31415300  0.08601300  0.79239100  1
  O  O35  1  0.37978900  0.98669900  0.63734200  1
  O  O36  1  0.48575900  0.10299100  0.05083800  1
  O  O37  1  0.89700900  0.51424100  0.44916200  1
  O  O38  1  0.08601300  0.31415300  0.29239100  1
  O  O39  1  0.25652500  0.98067000  0.51221200  1
  O  O40  1  0.69214800  0.45985400  0.80249800  1
  O  O41  1  0.98669900  0.37978900  0.13734200  1
  O  O42  1  0.72145000  0.44192800  0.58060200  1
  O  O43  1  0.19157900  0.86959800  0.87981400  1
  O  O44  1  0.12269800  0.87730200  0.75000000  1
  O  O45  1  0.98067000  0.25652500  0.01221200  1
  O  O46  1  0.45985400  0.69214800  0.30249800  1
  O  O47  1  0.44192800  0.72145000  0.08060200  1
  O  O48  1  0.86959800  0.19157900  0.37981400  1
  O  O49  1  0.87730200  0.12269800  0.25000000  1
