# generated using pymatgen
data_NaFe5O8
_symmetry_space_group_name_H-M   'P 1'
_cell_length_a   8.62192200
_cell_length_b   8.62192200
_cell_length_c   8.62192200
_cell_angle_alpha   90.00000000
_cell_angle_beta   90.00000000
_cell_angle_gamma   90.00000000
_symmetry_Int_Tables_number   1
_chemical_formula_structural   NaFe5O8
_chemical_formula_sum   'Na4 Fe20 O32'
_cell_volume   640.93246271
_cell_formula_units_Z   4
loop_
 _symmetry_equiv_pos_site_id
 _symmetry_equiv_pos_as_xyz
  1  'x, y, z'
loop_
 _atom_site_type_symbol
 _atom_site_label
 _atom_site_symmetry_multiplicity
 _atom_site_fract_x
 _atom_site_fract_y
 _atom_site_fract_z
 _atom_site_occupancy
  Na  Na0  1  0.12500000  0.87500000  0.37500000  1
  Na  Na1  1  0.37500000  0.12500000  0.87500000  1
  Na  Na2  1  0.62500000  0.62500000  0.62500000  1
  Na  Na3  1  0.87500000  0.37500000  0.12500000  1
  Fe  Fe4  1  0.99675800  0.99675800  0.99675800  1
  Fe  Fe5  1  0.00324200  0.49675800  0.50324200  1
  Fe  Fe6  1  0.12788800  0.12211200  0.62500000  1
  Fe  Fe7  1  0.12211200  0.62500000  0.12788800  1
  Fe  Fe8  1  0.12500000  0.37211200  0.87788800  1
  Fe  Fe9  1  0.25324200  0.25324200  0.25324200  1
  Fe  Fe10  1  0.24675800  0.74675800  0.75324200  1
  Fe  Fe11  1  0.37788800  0.37500000  0.62788800  1
  Fe  Fe12  1  0.37500000  0.62788800  0.37788800  1
  Fe  Fe13  1  0.37211200  0.87788800  0.12500000  1
  Fe  Fe14  1  0.50324200  0.00324200  0.49675800  1
  Fe  Fe15  1  0.49675800  0.50324200  0.00324200  1
  Fe  Fe16  1  0.62500000  0.12788800  0.12211200  1
  Fe  Fe17  1  0.62788800  0.37788800  0.37500000  1
  Fe  Fe18  1  0.62211200  0.87500000  0.87211200  1
  Fe  Fe19  1  0.75324200  0.24675800  0.74675800  1
  Fe  Fe20  1  0.74675800  0.75324200  0.24675800  1
  Fe  Fe21  1  0.87788800  0.12500000  0.37211200  1
  Fe  Fe22  1  0.87211200  0.62211200  0.87500000  1
  Fe  Fe23  1  0.87500000  0.87211200  0.62211200  1
  O  O24  1  0.14072800  0.38459000  0.11093500  1
  O  O25  1  0.13641700  0.36358300  0.63641700  1
  O  O26  1  0.13906500  0.86541000  0.10927200  1
  O  O27  1  0.11541000  0.88906500  0.64072800  1
  O  O28  1  0.11093500  0.14072800  0.38459000  1
  O  O29  1  0.10927200  0.13906500  0.86541000  1
  O  O30  1  0.13459000  0.60927200  0.36093500  1
  O  O31  1  0.11358300  0.61358300  0.88641700  1
  O  O32  1  0.38459000  0.11093500  0.14072800  1
  O  O33  1  0.38641700  0.38641700  0.38641700  1
  O  O34  1  0.36093500  0.13459000  0.60927200  1
  O  O35  1  0.36541000  0.39072800  0.86093500  1
  O  O36  1  0.36358300  0.63641700  0.13641700  1
  O  O37  1  0.39072800  0.86093500  0.36541000  1
  O  O38  1  0.35927200  0.61541000  0.61093500  1
  O  O39  1  0.38906500  0.85927200  0.88459000  1
  O  O40  1  0.63641700  0.13641700  0.36358300  1
  O  O41  1  0.60927200  0.36093500  0.13459000  1
  O  O42  1  0.61093500  0.35927200  0.61541000  1
  O  O43  1  0.61541000  0.61093500  0.35927200  1
  O  O44  1  0.64072800  0.11541000  0.88906500  1
  O  O45  1  0.63906500  0.63459000  0.89072800  1
  O  O46  1  0.61358300  0.88641700  0.11358300  1
  O  O47  1  0.63459000  0.89072800  0.63906500  1
  O  O48  1  0.86541000  0.10927200  0.13906500  1
  O  O49  1  0.88641700  0.11358300  0.61358300  1
  O  O50  1  0.86093500  0.36541000  0.39072800  1
  O  O51  1  0.88906500  0.64072800  0.11541000  1
  O  O52  1  0.89072800  0.63906500  0.63459000  1
  O  O53  1  0.88459000  0.38906500  0.85927200  1
  O  O54  1  0.85927200  0.88459000  0.38906500  1
  O  O55  1  0.86358300  0.86358300  0.86358300  1
