# generated using pymatgen
data_Ba2NbFeO6
_symmetry_space_group_name_H-M   'P 1'
_cell_length_a   5.85269204
_cell_length_b   5.85269204
_cell_length_c   19.23891100
_cell_angle_alpha   90.00000000
_cell_angle_beta   90.00000000
_cell_angle_gamma   120.00000046
_symmetry_Int_Tables_number   1
_chemical_formula_structural   Ba2NbFeO6
_chemical_formula_sum   'Ba8 Nb4 Fe4 O24'
_cell_volume   570.71917075
_cell_formula_units_Z   4
loop_
 _symmetry_equiv_pos_site_id
 _symmetry_equiv_pos_as_xyz
  1  'x, y, z'
loop_
 _atom_site_type_symbol
 _atom_site_label
 _atom_site_symmetry_multiplicity
 _atom_site_fract_x
 _atom_site_fract_y
 _atom_site_fract_z
 _atom_site_occupancy
  Ba  Ba0  1  0.00000000  0.00000000  0.50000000  1
  Ba  Ba1  1  0.00000000  0.00000000  0.00000000  1
  Ba  Ba2  1  0.33333300  0.66666700  0.75000000  1
  Ba  Ba3  1  0.66666700  0.33333300  0.25000000  1
  Ba  Ba4  1  0.33333300  0.66666700  0.35824000  1
  Ba  Ba5  1  0.66666700  0.33333300  0.64176000  1
  Ba  Ba6  1  0.66666700  0.33333300  0.85824000  1
  Ba  Ba7  1  0.33333300  0.66666700  0.14176000  1
  Nb  Nb8  1  0.33333300  0.66666700  0.93631800  1
  Nb  Nb9  1  0.66666700  0.33333300  0.06368200  1
  Nb  Nb10  1  0.66666700  0.33333300  0.43631800  1
  Nb  Nb11  1  0.33333300  0.66666700  0.56368200  1
  Fe  Fe12  1  0.00000000  0.00000000  0.31758500  1
  Fe  Fe13  1  0.00000000  0.00000000  0.68241500  1
  Fe  Fe14  1  0.00000000  0.00000000  0.81758500  1
  Fe  Fe15  1  0.00000000  0.00000000  0.18241500  1
  O  O16  1  0.50000000  0.50000000  0.50000000  1
  O  O17  1  0.50000000  0.00000000  0.50000000  1
  O  O18  1  0.00000000  0.50000000  0.50000000  1
  O  O19  1  0.50000000  0.50000000  0.00000000  1
  O  O20  1  0.50000000  0.00000000  0.00000000  1
  O  O21  1  0.00000000  0.50000000  0.00000000  1
  O  O22  1  0.15378900  0.84621100  0.25000000  1
  O  O23  1  0.15378900  0.30757800  0.25000000  1
  O  O24  1  0.69242200  0.84621100  0.25000000  1
  O  O25  1  0.84621100  0.15378900  0.75000000  1
  O  O26  1  0.84621100  0.69242200  0.75000000  1
  O  O27  1  0.30757800  0.15378900  0.75000000  1
  O  O28  1  0.17026500  0.82973500  0.87961900  1
  O  O29  1  0.17026500  0.34053000  0.87961900  1
  O  O30  1  0.65947000  0.82973500  0.87961900  1
  O  O31  1  0.82973500  0.17026500  0.12038100  1
  O  O32  1  0.82973500  0.65947000  0.12038100  1
  O  O33  1  0.34053000  0.17026500  0.12038100  1
  O  O34  1  0.82973500  0.17026500  0.37961900  1
  O  O35  1  0.82973500  0.65947000  0.37961900  1
  O  O36  1  0.34053000  0.17026500  0.37961900  1
  O  O37  1  0.17026500  0.82973500  0.62038100  1
  O  O38  1  0.17026500  0.34053000  0.62038100  1
  O  O39  1  0.65947000  0.82973500  0.62038100  1
