# generated using pymatgen
data_K3V2(PO4)3
_symmetry_space_group_name_H-M   'P 1'
_cell_length_a   8.99107624
_cell_length_b   8.99107624
_cell_length_c   9.13437311
_cell_angle_alpha   61.49046129
_cell_angle_beta   61.49046129
_cell_angle_gamma   61.35076200
_symmetry_Int_Tables_number   1
_chemical_formula_structural   K3V2(PO4)3
_chemical_formula_sum   'K6 V4 P6 O24'
_cell_volume   539.06824136
_cell_formula_units_Z   2
loop_
 _symmetry_equiv_pos_site_id
 _symmetry_equiv_pos_as_xyz
  1  'x, y, z'
loop_
 _atom_site_type_symbol
 _atom_site_label
 _atom_site_symmetry_multiplicity
 _atom_site_fract_x
 _atom_site_fract_y
 _atom_site_fract_z
 _atom_site_occupancy
  K  K0  1  0.00000000  0.50000000  0.00000000  1
  K  K1  1  0.50000000  0.00000000  0.50000000  1
  K  K2  1  0.09478700  0.25489300  0.75772100  1
  K  K3  1  0.74510700  0.90521300  0.74227900  1
  K  K4  1  0.25489300  0.09478700  0.25772100  1
  K  K5  1  0.90521300  0.74510700  0.24227900  1
  V  V6  1  0.15716100  0.65031400  0.54803300  1
  V  V7  1  0.65031400  0.15716100  0.04803300  1
  V  V8  1  0.34968600  0.84283900  0.95196700  1
  V  V9  1  0.84283900  0.34968600  0.45196700  1
  P  P10  1  0.54637800  0.74038200  0.24537500  1
  P  P11  1  0.04557400  0.95442600  0.75000000  1
  P  P12  1  0.25961800  0.45362200  0.25462500  1
  P  P13  1  0.74038200  0.54637800  0.74537500  1
  P  P14  1  0.95442600  0.04557400  0.25000000  1
  P  P15  1  0.45362200  0.25961800  0.75462500  1
  O  O16  1  0.71072600  0.57225800  0.27380000  1
  O  O17  1  0.58362600  0.90667400  0.21909500  1
  O  O18  1  0.21292100  0.92299700  0.78502600  1
  O  O19  1  0.51734100  0.77531100  0.07489200  1
  O  O20  1  0.37204600  0.72962100  0.40235200  1
  O  O21  1  0.87435200  0.98067100  0.91172600  1
  O  O22  1  0.07700300  0.78707900  0.71497400  1
  O  O23  1  0.42774200  0.28927400  0.22620000  1
  O  O24  1  0.22468900  0.48265900  0.42510800  1
  O  O25  1  0.27037900  0.62795400  0.09764800  1
  O  O26  1  0.98067100  0.87435200  0.41172600  1
  O  O27  1  0.90667400  0.58362600  0.71909500  1
  O  O28  1  0.09332600  0.41637400  0.28090500  1
  O  O29  1  0.01932900  0.12564800  0.58827400  1
  O  O30  1  0.72962100  0.37204600  0.90235200  1
  O  O31  1  0.77531100  0.51734100  0.57489200  1
  O  O32  1  0.57225800  0.71072600  0.77380000  1
  O  O33  1  0.92299700  0.21292100  0.28502600  1
  O  O34  1  0.12564800  0.01932900  0.08827400  1
  O  O35  1  0.62795400  0.27037900  0.59764800  1
  O  O36  1  0.48265900  0.22468900  0.92510800  1
  O  O37  1  0.78708000  0.07700300  0.21497400  1
  O  O38  1  0.41637400  0.09332600  0.78090500  1
  O  O39  1  0.28927400  0.42774200  0.72620000  1
