# generated using pymatgen
data_TeMoSe
_symmetry_space_group_name_H-M   'P 1'
_cell_length_a   3.43856643
_cell_length_b   3.43856643
_cell_length_c   24.36528500
_cell_angle_alpha   90.00000000
_cell_angle_beta   90.00000000
_cell_angle_gamma   120.00000819
_symmetry_Int_Tables_number   1
_chemical_formula_structural   TeMoSe
_chemical_formula_sum   'Te2 Mo2 Se2'
_cell_volume   249.49217454
_cell_formula_units_Z   2
loop_
 _symmetry_equiv_pos_site_id
 _symmetry_equiv_pos_as_xyz
  1  'x, y, z'
loop_
 _atom_site_type_symbol
 _atom_site_label
 _atom_site_symmetry_multiplicity
 _atom_site_fract_x
 _atom_site_fract_y
 _atom_site_fract_z
 _atom_site_occupancy
  Te  Te0  1  0.33333300  0.66666700  0.52761200  1
  Te  Te1  1  0.33333300  0.66666700  0.37520300  1
  Mo  Mo2  1  0.33333300  0.66666700  0.15043000  1
  Mo  Mo3  1  0.66666700  0.33333300  0.45141600  1
  Se  Se4  1  0.66666700  0.33333300  0.08328300  1
  Se  Se5  1  0.66666700  0.33333300  0.21765900  1
