# generated using pymatgen
data_Ti2VSe4
_symmetry_space_group_name_H-M   'P 1'
_cell_length_a   3.53664900
_cell_length_b   6.42000567
_cell_length_c   7.01147301
_cell_angle_alpha   116.10551616
_cell_angle_beta   104.60800118
_cell_angle_gamma   90.00000000
_symmetry_Int_Tables_number   1
_chemical_formula_structural   Ti2VSe4
_chemical_formula_sum   'Ti2 V1 Se4'
_cell_volume   137.20309736
_cell_formula_units_Z   1
loop_
 _symmetry_equiv_pos_site_id
 _symmetry_equiv_pos_as_xyz
  1  'x, y, z'
loop_
 _atom_site_type_symbol
 _atom_site_label
 _atom_site_symmetry_multiplicity
 _atom_site_fract_x
 _atom_site_fract_y
 _atom_site_fract_z
 _atom_site_occupancy
  Ti  Ti0  1  0.25403100  0.29364500  0.50806100  1
  Ti  Ti1  1  0.74596900  0.70635500  0.49193900  1
  V  V2  1  0.00000000  0.00000000  0.00000000  1
  Se  Se3  1  0.11049300  0.44450300  0.22098700  1
  Se  Se4  1  0.88950700  0.55549700  0.77901300  1
  Se  Se5  1  0.36733400  0.03079500  0.73466900  1
  Se  Se6  1  0.63266600  0.96920500  0.26533100  1
