data_image0
_chemical_formula_structural       Al2Cl6H24O12
_chemical_formula_sum              "Al2 Cl6 H24 O12"
_cell_length_a       7.62794
_cell_length_b       7.62794
_cell_length_c       7.62794
_cell_angle_alpha    100.592
_cell_angle_beta     100.592
_cell_angle_gamma    100.592

_space_group_name_H-M_alt    "P 1"
_space_group_IT_number       1

loop_
  _space_group_symop_operation_xyz
  'x, y, z'

loop_
  _atom_site_type_symbol
  _atom_site_label
  _atom_site_symmetry_multiplicity
  _atom_site_fract_x
  _atom_site_fract_y
  _atom_site_fract_z
  _atom_site_occupancy
  Al  Al1       1.0  0.00000  0.00000  0.00000  1.0000
  Al  Al2       1.0  0.50000  0.50000  0.50000  1.0000
  Cl  Cl1       1.0  0.52100  0.97900  0.25000  1.0000
  Cl  Cl2       1.0  0.25000  0.52100  0.97900  1.0000
  Cl  Cl3       1.0  0.97900  0.25000  0.52100  1.0000
  Cl  Cl4       1.0  0.47900  0.02120  0.75000  1.0000
  Cl  Cl5       1.0  0.75000  0.47900  0.02120  1.0000
  Cl  Cl6       1.0  0.02120  0.75000  0.47900  1.0000
  H   H1        1.0  0.30700  0.08080  0.89600  1.0000
  H   H2        1.0  0.89600  0.30700  0.08080  1.0000
  H   H3        1.0  0.08080  0.89600  0.30700  1.0000
  H   H4        1.0  0.41900  0.19300  0.60400  1.0000
  H   H5        1.0  0.19300  0.60400  0.41900  1.0000
  H   H6        1.0  0.60400  0.41900  0.19300  1.0000
  H   H7        1.0  0.69300  0.91900  0.10400  1.0000
  H   H8        1.0  0.10400  0.69300  0.91900  1.0000
  H   H9        1.0  0.91900  0.10400  0.69300  1.0000
  H   H10       1.0  0.58100  0.80700  0.39600  1.0000
  H   H11       1.0  0.80700  0.39600  0.58100  1.0000
  H   H12       1.0  0.39600  0.58100  0.80700  1.0000
  H   H13       1.0  0.23700  0.26400  0.96900  1.0000
  H   H14       1.0  0.96900  0.23700  0.26400  1.0000
  H   H15       1.0  0.26400  0.96900  0.23700  1.0000
  H   H16       1.0  0.23600  0.26300  0.53100  1.0000
  H   H17       1.0  0.26300  0.53100  0.23600  1.0000
  H   H18       1.0  0.53100  0.23600  0.26300  1.0000
  H   H19       1.0  0.76300  0.73600  0.03050  1.0000
  H   H20       1.0  0.03050  0.76300  0.73600  1.0000
  H   H21       1.0  0.73600  0.03050  0.76300  1.0000
  H   H22       1.0  0.76400  0.73700  0.46900  1.0000
  H   H23       1.0  0.73700  0.46900  0.76400  1.0000
  H   H24       1.0  0.46900  0.76400  0.73700  1.0000
  O   O1        1.0  0.22000  0.13000  0.96400  1.0000
  O   O2        1.0  0.96400  0.22000  0.13000  1.0000
  O   O3        1.0  0.13000  0.96400  0.22000  1.0000
  O   O4        1.0  0.37000  0.28000  0.53600  1.0000
  O   O5        1.0  0.28000  0.53600  0.37000  1.0000
  O   O6        1.0  0.53600  0.37000  0.28000  1.0000
  O   O7        1.0  0.78000  0.87000  0.03580  1.0000
  O   O8        1.0  0.03580  0.78000  0.87000  1.0000
  O   O9        1.0  0.87000  0.03580  0.78000  1.0000
  O   O10       1.0  0.63000  0.72000  0.46400  1.0000
  O   O11       1.0  0.72000  0.46400  0.63000  1.0000
  O   O12       1.0  0.46400  0.63000  0.72000  1.0000
