# generated using pymatgen
data_Na5SbO5
_symmetry_space_group_name_H-M   'P 1'
_cell_length_a   5.89821459
_cell_length_b   5.89821459
_cell_length_c   6.48939595
_cell_angle_alpha   72.75778761
_cell_angle_beta   72.75778761
_cell_angle_gamma   44.53218555
_symmetry_Int_Tables_number   1
_chemical_formula_structural   Na5SbO5
_chemical_formula_sum   'Na5 Sb1 O5'
_cell_volume   149.98612236
_cell_formula_units_Z   1
loop_
 _symmetry_equiv_pos_site_id
 _symmetry_equiv_pos_as_xyz
  1  'x, y, z'
loop_
 _atom_site_type_symbol
 _atom_site_label
 _atom_site_symmetry_multiplicity
 _atom_site_fract_x
 _atom_site_fract_y
 _atom_site_fract_z
 _atom_site_occupancy
  Na  Na0  1  0.32149100  0.32149100  0.86019500  1
  Na  Na1  1  0.30196700  0.30196700  0.32374000  1
  Na  Na2  1  0.69803300  0.69803300  0.67626000  1
  Na  Na3  1  0.67850900  0.67850900  0.13980500  1
  Na  Na4  1  0.00000000  0.00000000  0.50000000  1
  Sb  Sb5  1  0.00000000  0.00000000  0.00000000  1
  O  O6  1  0.86814700  0.86814700  0.84404600  1
  O  O7  1  0.85640500  0.85640500  0.29244200  1
  O  O8  1  0.14359500  0.14359500  0.70755800  1
  O  O9  1  0.13185300  0.13185300  0.15595400  1
  O  O10  1  0.50000000  0.50000000  0.00000000  1
