# generated using pymatgen
data_Cu2WSe4
_symmetry_space_group_name_H-M   'P 1'
_cell_length_a   5.62703600
_cell_length_b   5.62703600
_cell_length_c   5.39103500
_cell_angle_alpha   90.00000000
_cell_angle_beta   90.00000000
_cell_angle_gamma   90.00000000
_symmetry_Int_Tables_number   1
_chemical_formula_structural   Cu2WSe4
_chemical_formula_sum   'Cu2 W1 Se4'
_cell_volume   170.69922080
_cell_formula_units_Z   1
loop_
 _symmetry_equiv_pos_site_id
 _symmetry_equiv_pos_as_xyz
  1  'x, y, z'
loop_
 _atom_site_type_symbol
 _atom_site_label
 _atom_site_symmetry_multiplicity
 _atom_site_fract_x
 _atom_site_fract_y
 _atom_site_fract_z
 _atom_site_occupancy
  Cu  Cu0  1  0.50000000  0.00000000  0.50000000  1
  Cu  Cu1  1  0.00000000  0.50000000  0.50000000  1
  W  W2  1  0.00000000  0.00000000  0.00000000  1
  Se  Se3  1  0.25032000  0.74968000  0.23806200  1
  Se  Se4  1  0.74968000  0.25032000  0.23806200  1
  Se  Se5  1  0.25032000  0.25032000  0.76193800  1
  Se  Se6  1  0.74968000  0.74968000  0.76193800  1
