# generated using pymatgen
data_Na5VO4
_symmetry_space_group_name_H-M   'P 1'
_cell_length_a   7.31779800
_cell_length_b   10.93671600
_cell_length_c   7.51316900
_cell_angle_alpha   89.99984516
_cell_angle_beta   89.99996909
_cell_angle_gamma   90.00029545
_symmetry_Int_Tables_number   1
_chemical_formula_structural   Na5VO4
_chemical_formula_sum   'Na20 V4 O16'
_cell_volume   601.29903887
_cell_formula_units_Z   4
loop_
 _symmetry_equiv_pos_site_id
 _symmetry_equiv_pos_as_xyz
  1  'x, y, z'
loop_
 _atom_site_type_symbol
 _atom_site_label
 _atom_site_symmetry_multiplicity
 _atom_site_fract_x
 _atom_site_fract_y
 _atom_site_fract_z
 _atom_site_occupancy
  Na  Na0  1  0.75000000  0.09501800  0.25000100  1
  Na  Na1  1  0.74999600  0.59497600  0.25000100  1
  Na  Na2  1  0.25000300  0.40497300  0.75000000  1
  Na  Na3  1  0.25000000  0.90501500  0.75000000  1
  Na  Na4  1  0.01097900  0.37185500  0.05647700  1
  Na  Na5  1  0.01099800  0.87185600  0.05651700  1
  Na  Na6  1  0.48902600  0.37185400  0.05648100  1
  Na  Na7  1  0.48900300  0.87185200  0.05652600  1
  Na  Na8  1  0.48902300  0.37185100  0.44351500  1
  Na  Na9  1  0.48900200  0.87185300  0.44347500  1
  Na  Na10  1  0.01097800  0.37185100  0.44351500  1
  Na  Na11  1  0.01099500  0.87185400  0.44348000  1
  Na  Na12  1  0.51101700  0.12817200  0.55653200  1
  Na  Na13  1  0.51100200  0.62812700  0.55651400  1
  Na  Na14  1  0.98899000  0.12817200  0.55653500  1
  Na  Na15  1  0.98899900  0.62812500  0.55651200  1
  Na  Na16  1  0.51101100  0.12816700  0.94347400  1
  Na  Na17  1  0.51100100  0.62812500  0.94348800  1
  Na  Na18  1  0.98898300  0.12817500  0.94346300  1
  Na  Na19  1  0.98899800  0.62812400  0.94349500  1
  V  V20  1  0.24997300  0.61005600  0.24999200  1
  V  V21  1  0.75000500  0.38988600  0.75000200  1
  V  V22  1  0.25000500  0.11013600  0.25000100  1
  V  V23  1  0.75000600  0.88985700  0.75000100  1
  O  O24  1  0.25000000  0.01388100  0.02882200  1
  O  O25  1  0.25000000  0.51391800  0.02890700  1
  O  O26  1  0.25000100  0.01387900  0.47117600  1
  O  O27  1  0.24999800  0.51391600  0.47108900  1
  O  O28  1  0.75000200  0.48623800  0.52862100  1
  O  O29  1  0.75000300  0.98612300  0.52883400  1
  O  O30  1  0.75000100  0.48623800  0.97138200  1
  O  O31  1  0.75000100  0.98612100  0.97117000  1
  O  O32  1  0.47596300  0.20448600  0.25000100  1
  O  O33  1  0.47590300  0.70448900  0.25000200  1
  O  O34  1  0.02403900  0.20448600  0.25000000  1
  O  O35  1  0.02408900  0.70449100  0.24999900  1
  O  O36  1  0.52382500  0.29537600  0.75000300  1
  O  O37  1  0.52402600  0.79552600  0.75000000  1
  O  O38  1  0.97618100  0.29537700  0.75000100  1
  O  O39  1  0.97597900  0.79552500  0.74999900  1
