# generated using pymatgen
data_CdIBr
_symmetry_space_group_name_H-M   'P 1'
_cell_length_a   14.36987850
_cell_length_b   14.36987850
_cell_length_c   14.36987930
_cell_angle_alpha   16.88664375
_cell_angle_beta   16.88664375
_cell_angle_gamma   16.88664044
_symmetry_Int_Tables_number   1
_chemical_formula_structural   CdIBr
_chemical_formula_sum   'Cd2 I2 Br2'
_cell_volume   218.39956104
_cell_formula_units_Z   2
loop_
 _symmetry_equiv_pos_site_id
 _symmetry_equiv_pos_as_xyz
  1  'x, y, z'
loop_
 _atom_site_type_symbol
 _atom_site_label
 _atom_site_symmetry_multiplicity
 _atom_site_fract_x
 _atom_site_fract_y
 _atom_site_fract_z
 _atom_site_occupancy
  Cd  Cd0  1  0.28825000  0.28825000  0.28825000  1
  Cd  Cd1  1  0.78818300  0.78818300  0.78818300  1
  I  I2  1  0.99612600  0.99612600  0.99612600  1
  I  I3  1  0.16282200  0.16282200  0.16282200  1
  Br  Br4  1  0.41885000  0.41885000  0.41885000  1
  Br  Br5  1  0.58576900  0.58576900  0.58576900  1
