# generated using pymatgen
data_HfAl5Ni2
_symmetry_space_group_name_H-M   'P 1'
_cell_length_a   7.80930086
_cell_length_b   7.80930086
_cell_length_c   7.80930086
_cell_angle_alpha   150.20620034
_cell_angle_beta   150.20620034
_cell_angle_gamma   42.63880746
_symmetry_Int_Tables_number   1
_chemical_formula_structural   HfAl5Ni2
_chemical_formula_sum   'Hf1 Al5 Ni2'
_cell_volume   117.28686413
_cell_formula_units_Z   1
loop_
 _symmetry_equiv_pos_site_id
 _symmetry_equiv_pos_as_xyz
  1  'x, y, z'
loop_
 _atom_site_type_symbol
 _atom_site_label
 _atom_site_symmetry_multiplicity
 _atom_site_fract_x
 _atom_site_fract_y
 _atom_site_fract_z
 _atom_site_occupancy
  Hf  Hf0  1  0.00000000  0.00000000  0.00000000  1
  Al  Al1  1  0.64660100  0.14660100  0.50000000  1
  Al  Al2  1  0.35339900  0.85339900  0.50000000  1
  Al  Al3  1  0.14660100  0.64660100  0.50000000  1
  Al  Al4  1  0.85339900  0.35339900  0.50000000  1
  Al  Al5  1  0.50000000  0.50000000  0.00000000  1
  Ni  Ni6  1  0.23987700  0.23987700  0.00000000  1
  Ni  Ni7  1  0.76012300  0.76012300  0.00000000  1
