# generated using pymatgen
data_CsCuC2
_symmetry_space_group_name_H-M   'P 1'
_cell_length_a   4.93673800
_cell_length_b   4.93673800
_cell_length_c   9.22528100
_cell_angle_alpha   90.00000000
_cell_angle_beta   90.00000000
_cell_angle_gamma   90.00000000
_symmetry_Int_Tables_number   1
_chemical_formula_structural   CsCuC2
_chemical_formula_sum   'Cs2 Cu2 C4'
_cell_volume   224.83284805
_cell_formula_units_Z   2
loop_
 _symmetry_equiv_pos_site_id
 _symmetry_equiv_pos_as_xyz
  1  'x, y, z'
loop_
 _atom_site_type_symbol
 _atom_site_label
 _atom_site_symmetry_multiplicity
 _atom_site_fract_x
 _atom_site_fract_y
 _atom_site_fract_z
 _atom_site_occupancy
  Cs  Cs0  1  0.50000000  0.50000000  0.25000000  1
  Cs  Cs1  1  0.50000000  0.50000000  0.75000000  1
  Cu  Cu2  1  0.00000000  0.00000000  0.00000000  1
  Cu  Cu3  1  0.00000000  0.00000000  0.50000000  1
  C  C4  1  0.37285800  0.00000000  0.00000000  1
  C  C5  1  0.62714200  0.00000000  0.00000000  1
  C  C6  1  0.00000000  0.37285800  0.50000000  1
  C  C7  1  0.00000000  0.62714200  0.50000000  1
