# generated using pymatgen
data_EuClO2
_symmetry_space_group_name_H-M   'P 1'
_cell_length_a   3.77257400
_cell_length_b   6.38965200
_cell_length_c   6.49841541
_cell_angle_alpha   64.16035573
_cell_angle_beta   90.00000000
_cell_angle_gamma   90.00000000
_symmetry_Int_Tables_number   1
_chemical_formula_structural   EuClO2
_chemical_formula_sum   'Eu2 Cl2 O4'
_cell_volume   140.98514434
_cell_formula_units_Z   2
loop_
 _symmetry_equiv_pos_site_id
 _symmetry_equiv_pos_as_xyz
  1  'x, y, z'
loop_
 _atom_site_type_symbol
 _atom_site_label
 _atom_site_symmetry_multiplicity
 _atom_site_fract_x
 _atom_site_fract_y
 _atom_site_fract_z
 _atom_site_occupancy
  Eu  Eu0  1  0.25000000  0.18945400  0.62091800  1
  Eu  Eu1  1  0.75000000  0.81054600  0.37908200  1
  Cl  Cl2  1  0.25000000  0.74407000  0.05260200  1
  Cl  Cl3  1  0.75000000  0.25593000  0.94739800  1
  O  O4  1  0.25000000  0.59432100  0.56512500  1
  O  O5  1  0.75000000  0.40567900  0.43487500  1
  O  O6  1  0.25000000  0.04771600  0.34364000  1
  O  O7  1  0.75000000  0.95228400  0.65636000  1
