# generated using pymatgen
data_TlCu4Se3
_symmetry_space_group_name_H-M   'P 1'
_cell_length_a   3.86703600
_cell_length_b   3.86703600
_cell_length_c   10.13096100
_cell_angle_alpha   90.00000000
_cell_angle_beta   90.00000000
_cell_angle_gamma   90.00000000
_symmetry_Int_Tables_number   1
_chemical_formula_structural   TlCu4Se3
_chemical_formula_sum   'Tl1 Cu4 Se3'
_cell_volume   151.49806078
_cell_formula_units_Z   1
loop_
 _symmetry_equiv_pos_site_id
 _symmetry_equiv_pos_as_xyz
  1  'x, y, z'
loop_
 _atom_site_type_symbol
 _atom_site_label
 _atom_site_symmetry_multiplicity
 _atom_site_fract_x
 _atom_site_fract_y
 _atom_site_fract_z
 _atom_site_occupancy
  Tl  Tl0  1  0.00000000  0.00000000  0.50000000  1
  Cu  Cu1  1  0.00000000  0.50000000  0.16170100  1
  Cu  Cu2  1  0.00000000  0.50000000  0.83829900  1
  Cu  Cu3  1  0.50000000  0.00000000  0.16170100  1
  Cu  Cu4  1  0.50000000  0.00000000  0.83829900  1
  Se  Se5  1  0.50000000  0.50000000  0.30643600  1
  Se  Se6  1  0.50000000  0.50000000  0.69356400  1
  Se  Se7  1  0.00000000  0.00000000  0.00000000  1
