# generated using pymatgen
data_Te4Mo3Se2
_symmetry_space_group_name_H-M   'P 1'
_cell_length_a   3.47913586
_cell_length_b   3.47913586
_cell_length_c   32.03364000
_cell_angle_alpha   90.00000000
_cell_angle_beta   90.00000000
_cell_angle_gamma   119.99999738
_symmetry_Int_Tables_number   1
_chemical_formula_structural   Te4Mo3Se2
_chemical_formula_sum   'Te4 Mo3 Se2'
_cell_volume   335.79924146
_cell_formula_units_Z   1
loop_
 _symmetry_equiv_pos_site_id
 _symmetry_equiv_pos_as_xyz
  1  'x, y, z'
loop_
 _atom_site_type_symbol
 _atom_site_label
 _atom_site_symmetry_multiplicity
 _atom_site_fract_x
 _atom_site_fract_y
 _atom_site_fract_z
 _atom_site_occupancy
  Te  Te0  1  0.00000000  0.00000000  0.40439400  1
  Te  Te1  1  0.33333300  0.66666700  0.52089400  1
  Te  Te2  1  0.33333300  0.66666700  0.63576900  1
  Te  Te3  1  0.00000000  0.00000000  0.28948800  1
  Mo  Mo4  1  0.00000000  0.00000000  0.11566500  1
  Mo  Mo5  1  0.00000000  0.00000000  0.57837000  1
  Mo  Mo6  1  0.33333300  0.66666700  0.34697500  1
  Se  Se7  1  0.33333300  0.66666700  0.06494600  1
  Se  Se8  1  0.33333300  0.66666700  0.16633900  1
