# generated using pymatgen
data_Te2Mo2WSe4
_symmetry_space_group_name_H-M   'P 1'
_cell_length_a   3.40317028
_cell_length_b   3.40317028
_cell_length_c   31.41739800
_cell_angle_alpha   90.00000000
_cell_angle_beta   90.00000000
_cell_angle_gamma   120.00000550
_symmetry_Int_Tables_number   1
_chemical_formula_structural   Te2Mo2WSe4
_chemical_formula_sum   'Te2 Mo2 W1 Se4'
_cell_volume   315.11435065
_cell_formula_units_Z   1
loop_
 _symmetry_equiv_pos_site_id
 _symmetry_equiv_pos_as_xyz
  1  'x, y, z'
loop_
 _atom_site_type_symbol
 _atom_site_label
 _atom_site_symmetry_multiplicity
 _atom_site_fract_x
 _atom_site_fract_y
 _atom_site_fract_z
 _atom_site_occupancy
  Te  Te0  1  0.33333300  0.66666700  0.05989500  1
  Te  Te1  1  0.33333300  0.66666700  0.94010500  1
  Mo  Mo2  1  0.33333300  0.66666700  0.76865500  1
  Mo  Mo3  1  0.33333300  0.66666700  0.23134500  1
  W  W4  1  0.66666700  0.33333300  0.00000000  1
  Se  Se5  1  0.66666700  0.33333300  0.71618900  1
  Se  Se6  1  0.66666700  0.33333300  0.17882700  1
  Se  Se7  1  0.66666700  0.33333300  0.82117300  1
  Se  Se8  1  0.66666700  0.33333300  0.28381100  1
