# generated using pymatgen
data_TiSiO4
_symmetry_space_group_name_H-M   'P 1'
_cell_length_a   5.37215942
_cell_length_b   5.37215942
_cell_length_c   5.37215942
_cell_angle_alpha   107.83570841
_cell_angle_beta   107.83570841
_cell_angle_gamma   112.79422822
_symmetry_Int_Tables_number   1
_chemical_formula_structural   TiSiO4
_chemical_formula_sum   'Ti2 Si2 O8'
_cell_volume   119.04767657
_cell_formula_units_Z   2
loop_
 _symmetry_equiv_pos_site_id
 _symmetry_equiv_pos_as_xyz
  1  'x, y, z'
loop_
 _atom_site_type_symbol
 _atom_site_label
 _atom_site_symmetry_multiplicity
 _atom_site_fract_x
 _atom_site_fract_y
 _atom_site_fract_z
 _atom_site_occupancy
  Ti  Ti0  1  0.87500000  0.12500000  0.25000000  1
  Ti  Ti1  1  0.12500000  0.87500000  0.75000000  1
  Si  Si2  1  0.62500000  0.37500000  0.75000000  1
  Si  Si3  1  0.37500000  0.62500000  0.25000000  1
  O  O4  1  0.63290000  0.19131500  0.94158500  1
  O  O5  1  0.19131500  0.63290000  0.44158500  1
  O  O6  1  0.19131500  0.24973000  0.05841500  1
  O  O7  1  0.24973000  0.19131500  0.55841500  1
  O  O8  1  0.36710000  0.80868500  0.05841500  1
  O  O9  1  0.80868500  0.36710000  0.55841500  1
  O  O10  1  0.80868500  0.75027000  0.94158500  1
  O  O11  1  0.75027000  0.80868500  0.44158500  1
