# generated using pymatgen
data_Te2Mo3W(SeS2)2
_symmetry_space_group_name_H-M   'P 1'
_cell_length_a   3.30546778
_cell_length_b   3.30546778
_cell_length_c   37.56760300
_cell_angle_alpha   90.00000000
_cell_angle_beta   90.00000000
_cell_angle_gamma   119.99999550
_symmetry_Int_Tables_number   1
_chemical_formula_structural   Te2Mo3W(SeS2)2
_chemical_formula_sum   'Te2 Mo3 W1 Se2 S4'
_cell_volume   355.47576084
_cell_formula_units_Z   1
loop_
 _symmetry_equiv_pos_site_id
 _symmetry_equiv_pos_as_xyz
  1  'x, y, z'
loop_
 _atom_site_type_symbol
 _atom_site_label
 _atom_site_symmetry_multiplicity
 _atom_site_fract_x
 _atom_site_fract_y
 _atom_site_fract_z
 _atom_site_occupancy
  Te  Te0  1  0.00000000  0.00000000  0.70838600  1
  Te  Te1  1  0.00000000  0.00000000  0.60672600  1
  Mo  Mo2  1  0.00000000  0.00000000  0.09390700  1
  Mo  Mo3  1  0.33333300  0.66666700  0.28180100  1
  Mo  Mo4  1  0.33333300  0.66666700  0.65756100  1
  W  W5  1  0.00000000  0.00000000  0.46963700  1
  Se  Se6  1  0.33333300  0.66666700  0.04927200  1
  Se  Se7  1  0.33333300  0.66666700  0.13857100  1
  S  S8  1  0.00000000  0.00000000  0.32248000  1
  S  S9  1  0.33333300  0.66666700  0.42885800  1
  S  S10  1  0.33333300  0.66666700  0.51043700  1
  S  S11  1  0.00000000  0.00000000  0.24111100  1
