data_image0
_chemical_formula_structural       H12N4O16S4
_chemical_formula_sum              "H12 N4 O16 S4"
_cell_length_a       6.12714
_cell_length_b       10.0486
_cell_length_c       4.61939
_cell_angle_alpha    90
_cell_angle_beta     89.3909
_cell_angle_gamma    90

_space_group_name_H-M_alt    "P 1"
_space_group_IT_number       1

loop_
  _space_group_symop_operation_xyz
  'x, y, z'

loop_
  _atom_site_type_symbol
  _atom_site_label
  _atom_site_symmetry_multiplicity
  _atom_site_fract_x
  _atom_site_fract_y
  _atom_site_fract_z
  _atom_site_occupancy
  H   H1        1.0  0.38600  0.13900  0.49700  1.0000
  H   H2        1.0  0.11400  0.63900  0.00342  1.0000
  H   H3        1.0  0.61400  0.86100  0.50300  1.0000
  H   H4        1.0  0.88600  0.36100  0.99700  1.0000
  H   H5        1.0  0.31100  0.26300  0.74000  1.0000
  H   H6        1.0  0.18900  0.76300  0.76000  1.0000
  H   H7        1.0  0.68900  0.73700  0.26000  1.0000
  H   H8        1.0  0.81100  0.23700  0.24000  1.0000
  H   H9        1.0  0.32600  0.09910  0.85400  1.0000
  H   H10       1.0  0.17400  0.59900  0.64600  1.0000
  H   H11       1.0  0.67400  0.90100  0.14600  1.0000
  H   H12       1.0  0.82600  0.40100  0.35400  1.0000
  N   N1        1.0  0.39200  0.17100  0.71300  1.0000
  N   N2        1.0  0.10800  0.67100  0.78700  1.0000
  N   N3        1.0  0.60800  0.82900  0.28700  1.0000
  N   N4        1.0  0.89200  0.32900  0.21300  1.0000
  O   O1        1.0  0.76100  0.08870  0.36900  1.0000
  O   O2        1.0  0.73900  0.58900  0.13100  1.0000
  O   O3        1.0  0.23900  0.91100  0.63100  1.0000
  O   O4        1.0  0.26100  0.41100  0.86900  1.0000
  O   O5        1.0  0.60800  0.20000  0.79900  1.0000
  O   O6        1.0  0.89200  0.70000  0.70100  1.0000
  O   O7        1.0  0.39200  0.80000  0.20100  1.0000
  O   O8        1.0  0.10800  0.30000  0.29900  1.0000
  O   O9        1.0  0.97700  0.14100  0.80000  1.0000
  O   O10       1.0  0.52300  0.64100  0.70000  1.0000
  O   O11       1.0  0.02270  0.85900  0.20000  1.0000
  O   O12       1.0  0.47700  0.35900  0.30000  1.0000
  O   O13       1.0  0.70400  0.96000  0.79800  1.0000
  O   O14       1.0  0.79600  0.46000  0.70200  1.0000
  O   O15       1.0  0.29600  0.04030  0.20200  1.0000
  O   O16       1.0  0.20400  0.54000  0.29800  1.0000
  S   S1        1.0  0.78200  0.08570  0.68200  1.0000
  S   S2        1.0  0.71800  0.58600  0.81800  1.0000
  S   S3        1.0  0.21800  0.91400  0.31800  1.0000
  S   S4        1.0  0.28200  0.41400  0.18200  1.0000
