# generated using pymatgen
data_Te2Mo(WS2)2
_symmetry_space_group_name_H-M   'P 1'
_cell_length_a   3.29743210
_cell_length_b   3.29743210
_cell_length_c   30.50206600
_cell_angle_alpha   90.00000000
_cell_angle_beta   90.00000000
_cell_angle_gamma   120.00000210
_symmetry_Int_Tables_number   1
_chemical_formula_structural   Te2Mo(WS2)2
_chemical_formula_sum   'Te2 Mo1 W2 S4'
_cell_volume   287.21796645
_cell_formula_units_Z   1
loop_
 _symmetry_equiv_pos_site_id
 _symmetry_equiv_pos_as_xyz
  1  'x, y, z'
loop_
 _atom_site_type_symbol
 _atom_site_label
 _atom_site_symmetry_multiplicity
 _atom_site_fract_x
 _atom_site_fract_y
 _atom_site_fract_z
 _atom_site_occupancy
  Te  Te0  1  0.33333300  0.66666700  0.05291700  1
  Te  Te1  1  0.33333300  0.66666700  0.17833700  1
  Mo  Mo2  1  0.00000000  0.00000000  0.11561400  1
  W  W3  1  0.00000000  0.00000000  0.57831900  1
  W  W4  1  0.33333300  0.66666700  0.34702000  1
  S  S5  1  0.00000000  0.00000000  0.39736700  1
  S  S6  1  0.33333300  0.66666700  0.52793000  1
  S  S7  1  0.33333300  0.66666700  0.62869600  1
  S  S8  1  0.00000000  0.00000000  0.29664200  1
