# generated using pymatgen
data_W3(SeS2)2
_symmetry_space_group_name_H-M   'P 1'
_cell_length_a   3.23216252
_cell_length_b   3.23216252
_cell_length_c   29.69453600
_cell_angle_alpha   90.00000000
_cell_angle_beta   90.00000000
_cell_angle_gamma   120.00001062
_symmetry_Int_Tables_number   1
_chemical_formula_structural   W3(SeS2)2
_chemical_formula_sum   'W3 Se2 S4'
_cell_volume   268.65412185
_cell_formula_units_Z   1
loop_
 _symmetry_equiv_pos_site_id
 _symmetry_equiv_pos_as_xyz
  1  'x, y, z'
loop_
 _atom_site_type_symbol
 _atom_site_label
 _atom_site_symmetry_multiplicity
 _atom_site_fract_x
 _atom_site_fract_y
 _atom_site_fract_z
 _atom_site_occupancy
  W  W0  1  0.00000000  0.00000000  0.76863800  1
  W  W1  1  0.00000000  0.00000000  0.23136200  1
  W  W2  1  0.33333300  0.66666700  0.00000000  1
  Se  Se3  1  0.00000000  0.00000000  0.05776400  1
  Se  Se4  1  0.00000000  0.00000000  0.94223600  1
  S  S5  1  0.33333300  0.66666700  0.71622800  1
  S  S6  1  0.33333300  0.66666700  0.17894800  1
  S  S7  1  0.33333300  0.66666700  0.82105200  1
  S  S8  1  0.33333300  0.66666700  0.28377200  1
