# generated using pymatgen
data_Mg14FeC
_symmetry_space_group_name_H-M   'P 1'
_cell_length_a   6.26229893
_cell_length_b   6.26229893
_cell_length_c   8.74360200
_cell_angle_alpha   90.00000000
_cell_angle_beta   90.00000000
_cell_angle_gamma   104.59708899
_symmetry_Int_Tables_number   1
_chemical_formula_structural   Mg14FeC
_chemical_formula_sum   'Mg14 Fe1 C1'
_cell_volume   331.82459586
_cell_formula_units_Z   1
loop_
 _symmetry_equiv_pos_site_id
 _symmetry_equiv_pos_as_xyz
  1  'x, y, z'
loop_
 _atom_site_type_symbol
 _atom_site_label
 _atom_site_symmetry_multiplicity
 _atom_site_fract_x
 _atom_site_fract_y
 _atom_site_fract_z
 _atom_site_occupancy
  Mg  Mg0  1  0.86317700  0.13682300  0.00000000  1
  Mg  Mg1  1  0.32089600  0.67910400  0.00000000  1
  Mg  Mg2  1  0.34710300  0.05256200  0.50000000  1
  Mg  Mg3  1  0.39034200  0.20301000  0.00000000  1
  Mg  Mg4  1  0.94743800  0.65289700  0.50000000  1
  Mg  Mg5  1  0.79699000  0.60965800  0.00000000  1
  Mg  Mg6  1  0.20201300  0.41362300  0.32228700  1
  Mg  Mg7  1  0.20201300  0.41362300  0.67771300  1
  Mg  Mg8  1  0.58637700  0.79798700  0.32228700  1
  Mg  Mg9  1  0.58637700  0.79798700  0.67771300  1
  Mg  Mg10  1  0.69336600  0.30663400  0.28696700  1
  Mg  Mg11  1  0.69336600  0.30663400  0.71303300  1
  Mg  Mg12  1  0.07883400  0.92116600  0.23458100  1
  Mg  Mg13  1  0.07883400  0.92116600  0.76541900  1
  Fe  Fe14  1  0.89741600  0.10258400  0.50000000  1
  C  C15  1  0.31546600  0.68453400  0.50000000  1
