# generated using pymatgen
data_Te2Mo2SeS
_symmetry_space_group_name_H-M   'P 1'
_cell_length_a   3.39870623
_cell_length_b   3.39870623
_cell_length_c   40.02570500
_cell_angle_alpha   90.00000000
_cell_angle_beta   90.00000000
_cell_angle_gamma   120.00000445
_symmetry_Int_Tables_number   1
_chemical_formula_structural   Te2Mo2SeS
_chemical_formula_sum   'Te4 Mo4 Se2 S2'
_cell_volume   400.40257083
_cell_formula_units_Z   2
loop_
 _symmetry_equiv_pos_site_id
 _symmetry_equiv_pos_as_xyz
  1  'x, y, z'
loop_
 _atom_site_type_symbol
 _atom_site_label
 _atom_site_symmetry_multiplicity
 _atom_site_fract_x
 _atom_site_fract_y
 _atom_site_fract_z
 _atom_site_occupancy
  Te  Te0  1  0.33333300  0.66666700  0.70575200  1
  Te  Te1  1  0.66666700  0.33333300  0.42157600  1
  Te  Te2  1  0.66666700  0.33333300  0.51522100  1
  Te  Te3  1  0.33333300  0.66666700  0.61215100  1
  Mo  Mo4  1  0.33333300  0.66666700  0.09409100  1
  Mo  Mo5  1  0.33333300  0.66666700  0.46838900  1
  Mo  Mo6  1  0.66666700  0.33333300  0.28146700  1
  Mo  Mo7  1  0.66666700  0.33333300  0.65897200  1
  Se  Se8  1  0.33333300  0.66666700  0.32263600  1
  Se  Se9  1  0.33333300  0.66666700  0.24030600  1
  S  S10  1  0.66666700  0.33333300  0.05657600  1
  S  S11  1  0.66666700  0.33333300  0.13161100  1
