# generated using pymatgen
data_MoW3(SeS)4
_symmetry_space_group_name_H-M   'P 1'
_cell_length_a   3.25708581
_cell_length_b   3.25708581
_cell_length_c   36.94139800
_cell_angle_alpha   90.00000000
_cell_angle_beta   90.00000000
_cell_angle_gamma   119.99999616
_symmetry_Int_Tables_number   1
_chemical_formula_structural   MoW3(SeS)4
_chemical_formula_sum   'Mo1 W3 Se4 S4'
_cell_volume   339.39260592
_cell_formula_units_Z   1
loop_
 _symmetry_equiv_pos_site_id
 _symmetry_equiv_pos_as_xyz
  1  'x, y, z'
loop_
 _atom_site_type_symbol
 _atom_site_label
 _atom_site_symmetry_multiplicity
 _atom_site_fract_x
 _atom_site_fract_y
 _atom_site_fract_z
 _atom_site_occupancy
  Mo  Mo0  1  0.00000000  0.00000000  0.09391000  1
  W  W1  1  0.00000000  0.00000000  0.46971900  1
  W  W2  1  0.33333300  0.66666700  0.28175800  1
  W  W3  1  0.33333300  0.66666700  0.65756600  1
  Se  Se4  1  0.00000000  0.00000000  0.32797200  1
  Se  Se5  1  0.33333300  0.66666700  0.42346700  1
  Se  Se6  1  0.33333300  0.66666700  0.51591100  1
  Se  Se7  1  0.00000000  0.00000000  0.23551400  1
  S  S8  1  0.00000000  0.00000000  0.69952400  1
  S  S9  1  0.33333300  0.66666700  0.05215700  1
  S  S10  1  0.33333300  0.66666700  0.13565900  1
  S  S11  1  0.00000000  0.00000000  0.61559000  1
