# generated using pymatgen
data_Mo3WSe8
_symmetry_space_group_name_H-M   'P 1'
_cell_length_a   3.32354577
_cell_length_b   3.32354577
_cell_length_c   37.82531500
_cell_angle_alpha   90.00000000
_cell_angle_beta   90.00000000
_cell_angle_gamma   119.99999540
_symmetry_Int_Tables_number   1
_chemical_formula_structural   Mo3WSe8
_chemical_formula_sum   'Mo3 W1 Se8'
_cell_volume   361.83996523
_cell_formula_units_Z   1
loop_
 _symmetry_equiv_pos_site_id
 _symmetry_equiv_pos_as_xyz
  1  'x, y, z'
loop_
 _atom_site_type_symbol
 _atom_site_label
 _atom_site_symmetry_multiplicity
 _atom_site_fract_x
 _atom_site_fract_y
 _atom_site_fract_z
 _atom_site_occupancy
  Mo  Mo0  1  0.00000000  0.00000000  0.09392100  1
  Mo  Mo1  1  0.33333300  0.66666700  0.28180000  1
  Mo  Mo2  1  0.33333300  0.66666700  0.65754100  1
  W  W3  1  0.00000000  0.00000000  0.46966000  1
  Se  Se4  1  0.00000000  0.00000000  0.32611300  1
  Se  Se5  1  0.00000000  0.00000000  0.70184100  1
  Se  Se6  1  0.33333300  0.66666700  0.04962300  1
  Se  Se7  1  0.33333300  0.66666700  0.42513800  1
  Se  Se8  1  0.33333300  0.66666700  0.13823000  1
  Se  Se9  1  0.33333300  0.66666700  0.51417700  1
  Se  Se10  1  0.00000000  0.00000000  0.23748200  1
  Se  Se11  1  0.00000000  0.00000000  0.61322300  1
