# generated using pymatgen
data_TeMoWS3
_symmetry_space_group_name_H-M   'P 1'
_cell_length_a   3.27366161
_cell_length_b   3.27366161
_cell_length_c   39.65945300
_cell_angle_alpha   90.00000000
_cell_angle_beta   90.00000000
_cell_angle_gamma   119.99999203
_symmetry_Int_Tables_number   1
_chemical_formula_structural   TeMoWS3
_chemical_formula_sum   'Te2 Mo2 W2 S6'
_cell_volume   368.08231892
_cell_formula_units_Z   2
loop_
 _symmetry_equiv_pos_site_id
 _symmetry_equiv_pos_as_xyz
  1  'x, y, z'
loop_
 _atom_site_type_symbol
 _atom_site_label
 _atom_site_symmetry_multiplicity
 _atom_site_fract_x
 _atom_site_fract_y
 _atom_site_fract_z
 _atom_site_occupancy
  Te  Te0  1  0.66666700  0.33333300  0.42018000  1
  Te  Te1  1  0.66666700  0.33333300  0.51810700  1
  Mo  Mo2  1  0.33333300  0.66666700  0.09348300  1
  Mo  Mo3  1  0.66666700  0.33333300  0.28049000  1
  W  W4  1  0.33333300  0.66666700  0.46914600  1
  W  W5  1  0.66666700  0.33333300  0.65981800  1
  S  S6  1  0.33333300  0.66666700  0.31925100  1
  S  S7  1  0.33333300  0.66666700  0.69869500  1
  S  S8  1  0.66666700  0.33333300  0.05468600  1
  S  S9  1  0.66666700  0.33333300  0.13228100  1
  S  S10  1  0.33333300  0.66666700  0.24171500  1
  S  S11  1  0.33333300  0.66666700  0.62089500  1
