# generated using pymatgen
data_TeMo2Se3
_symmetry_space_group_name_H-M   'P 1'
_cell_length_a   3.38257399
_cell_length_b   3.38257399
_cell_length_c   38.40151400
_cell_angle_alpha   90.00000000
_cell_angle_beta   90.00000000
_cell_angle_gamma   119.99999976
_symmetry_Int_Tables_number   1
_chemical_formula_structural   TeMo2Se3
_chemical_formula_sum   'Te2 Mo4 Se6'
_cell_volume   380.51658400
_cell_formula_units_Z   2
loop_
 _symmetry_equiv_pos_site_id
 _symmetry_equiv_pos_as_xyz
  1  'x, y, z'
loop_
 _atom_site_type_symbol
 _atom_site_label
 _atom_site_symmetry_multiplicity
 _atom_site_fract_x
 _atom_site_fract_y
 _atom_site_fract_z
 _atom_site_occupancy
  Te  Te0  1  0.33333300  0.66666700  0.70642700  1
  Te  Te1  1  0.33333300  0.66666700  0.60864700  1
  Mo  Mo2  1  0.33333300  0.66666700  0.09391100  1
  Mo  Mo3  1  0.33333300  0.66666700  0.46966500  1
  Mo  Mo4  1  0.66666700  0.33333300  0.28179700  1
  Mo  Mo5  1  0.66666700  0.33333300  0.65755400  1
  Se  Se6  1  0.33333300  0.66666700  0.32486500  1
  Se  Se7  1  0.66666700  0.33333300  0.05086000  1
  Se  Se8  1  0.66666700  0.33333300  0.42659700  1
  Se  Se9  1  0.66666700  0.33333300  0.13698600  1
  Se  Se10  1  0.66666700  0.33333300  0.51271800  1
  Se  Se11  1  0.33333300  0.66666700  0.23872100  1
