# generated using pymatgen
data_Te4Mo3W(SeS)2
_symmetry_space_group_name_H-M   'P 1'
_cell_length_a   3.40020037
_cell_length_b   3.40020037
_cell_length_c   38.76650800
_cell_angle_alpha   90.00000000
_cell_angle_beta   90.00000000
_cell_angle_gamma   120.00000711
_symmetry_Int_Tables_number   1
_chemical_formula_structural   Te4Mo3W(SeS)2
_chemical_formula_sum   'Te4 Mo3 W1 Se2 S2'
_cell_volume   388.14706136
_cell_formula_units_Z   1
loop_
 _symmetry_equiv_pos_site_id
 _symmetry_equiv_pos_as_xyz
  1  'x, y, z'
loop_
 _atom_site_type_symbol
 _atom_site_label
 _atom_site_symmetry_multiplicity
 _atom_site_fract_x
 _atom_site_fract_y
 _atom_site_fract_z
 _atom_site_occupancy
  Te  Te0  1  0.00000000  0.00000000  0.70585300  1
  Te  Te1  1  0.33333300  0.66666700  0.42100900  1
  Te  Te2  1  0.33333300  0.66666700  0.51817200  1
  Te  Te3  1  0.00000000  0.00000000  0.60930900  1
  Mo  Mo4  1  0.00000000  0.00000000  0.09395400  1
  Mo  Mo5  1  0.33333300  0.66666700  0.28180100  1
  Mo  Mo6  1  0.33333300  0.66666700  0.65761500  1
  W  W7  1  0.00000000  0.00000000  0.46960700  1
  Se  Se8  1  0.00000000  0.00000000  0.32431000  1
  Se  Se9  1  0.00000000  0.00000000  0.23924300  1
  S  S10  1  0.33333300  0.66666700  0.05513600  1
  S  S11  1  0.33333300  0.66666700  0.13274000  1
