# generated using pymatgen
data_Te4MoW3Se4
_symmetry_space_group_name_H-M   'P 1'
_cell_length_a   3.43966811
_cell_length_b   3.43966811
_cell_length_c   39.20426800
_cell_angle_alpha   90.00000000
_cell_angle_beta   90.00000000
_cell_angle_gamma   120.00000219
_symmetry_Int_Tables_number   1
_chemical_formula_structural   Te4MoW3Se4
_chemical_formula_sum   'Te4 Mo1 W3 Se4'
_cell_volume   401.69557937
_cell_formula_units_Z   1
loop_
 _symmetry_equiv_pos_site_id
 _symmetry_equiv_pos_as_xyz
  1  'x, y, z'
loop_
 _atom_site_type_symbol
 _atom_site_label
 _atom_site_symmetry_multiplicity
 _atom_site_fract_x
 _atom_site_fract_y
 _atom_site_fract_z
 _atom_site_occupancy
  Te  Te0  1  0.33333300  0.66666700  0.70515000  1
  Te  Te1  1  0.66666700  0.33333300  0.42203300  1
  Te  Te2  1  0.66666700  0.33333300  0.51720200  1
  Te  Te3  1  0.33333300  0.66666700  0.60998800  1
  Mo  Mo4  1  0.66666700  0.33333300  0.28180400  1
  W  W5  1  0.33333300  0.66666700  0.09391900  1
  W  W6  1  0.33333300  0.66666700  0.46961900  1
  W  W7  1  0.66666700  0.33333300  0.65760000  1
  Se  Se8  1  0.33333300  0.66666700  0.32353600  1
  Se  Se9  1  0.66666700  0.33333300  0.05206300  1
  Se  Se10  1  0.66666700  0.33333300  0.13577100  1
  Se  Se11  1  0.33333300  0.66666700  0.24006300  1
