# generated using pymatgen
data_Te4MoW3Se4
_symmetry_space_group_name_H-M   'P 1'
_cell_length_a   3.43981956
_cell_length_b   3.43981956
_cell_length_c   39.16529700
_cell_angle_alpha   90.00000000
_cell_angle_beta   90.00000000
_cell_angle_gamma   119.99999160
_symmetry_Int_Tables_number   1
_chemical_formula_structural   Te4MoW3Se4
_chemical_formula_sum   'Te4 Mo1 W3 Se4'
_cell_volume   401.33165584
_cell_formula_units_Z   1
loop_
 _symmetry_equiv_pos_site_id
 _symmetry_equiv_pos_as_xyz
  1  'x, y, z'
loop_
 _atom_site_type_symbol
 _atom_site_label
 _atom_site_symmetry_multiplicity
 _atom_site_fract_x
 _atom_site_fract_y
 _atom_site_fract_z
 _atom_site_occupancy
  Te  Te0  1  0.00000000  0.00000000  0.32942000  1
  Te  Te1  1  0.00000000  0.00000000  0.70514900  1
  Te  Te2  1  0.00000000  0.00000000  0.23418000  1
  Te  Te3  1  0.00000000  0.00000000  0.60991100  1
  Mo  Mo4  1  0.00000000  0.00000000  0.46967500  1
  W  W5  1  0.00000000  0.00000000  0.09391500  1
  W  W6  1  0.33333300  0.66666700  0.28182800  1
  W  W7  1  0.33333300  0.66666700  0.65753700  1
  Se  Se8  1  0.33333300  0.66666700  0.05205200  1
  Se  Se9  1  0.33333300  0.66666700  0.42787700  1
  Se  Se10  1  0.33333300  0.66666700  0.13577900  1
  Se  Se11  1  0.33333300  0.66666700  0.51142500  1
