data_image0
_chemical_formula_structural       C12Fe4O12S4
_chemical_formula_sum              "C12 Fe4 O12 S4"
_cell_length_a       6.07694
_cell_length_b       7.3968
_cell_length_c       10.6515
_cell_angle_alpha    84.4294
_cell_angle_beta     76.2357
_cell_angle_gamma    78.9601

_space_group_name_H-M_alt    "P 1"
_space_group_IT_number       1

loop_
  _space_group_symop_operation_xyz
  'x, y, z'

loop_
  _atom_site_type_symbol
  _atom_site_label
  _atom_site_symmetry_multiplicity
  _atom_site_fract_x
  _atom_site_fract_y
  _atom_site_fract_z
  _atom_site_occupancy
  C   C1        1.0  0.64800  0.50900  0.21700  1.0000
  C   C2        1.0  0.35200  0.49100  0.78300  1.0000
  C   C3        1.0  0.33100  0.39300  0.14500  1.0000
  C   C4        1.0  0.66900  0.60700  0.85500  1.0000
  C   C5        1.0  0.38500  0.27500  0.37400  1.0000
  C   C6        1.0  0.61500  0.72500  0.62600  1.0000
  C   C7        1.0  0.46800  0.90300  0.17700  1.0000
  C   C8        1.0  0.53200  0.09710  0.82300  1.0000
  C   C9        1.0  0.14900  0.79400  0.08680  1.0000
  C   C10       1.0  0.85100  0.20600  0.91300  1.0000
  C   C11       1.0  0.02740  0.03050  0.27400  1.0000
  C   C12       1.0  0.97300  0.97000  0.72600  1.0000
  Fe  Fe1       1.0  0.20900  0.81900  0.23800  1.0000
  Fe  Fe2       1.0  0.79100  0.18100  0.76200  1.0000
  Fe  Fe3       1.0  0.36100  0.48600  0.28300  1.0000
  Fe  Fe4       1.0  0.63900  0.51400  0.71700  1.0000
  O   O1        1.0  0.10800  0.77600  0.98900  1.0000
  O   O2        1.0  0.89200  0.22400  0.01130  1.0000
  O   O3        1.0  0.63900  0.95900  0.14200  1.0000
  O   O4        1.0  0.36100  0.04060  0.85800  1.0000
  O   O5        1.0  0.31700  0.32500  0.05410  1.0000
  O   O6        1.0  0.68300  0.67500  0.94600  1.0000
  O   O7        1.0  0.39600  0.13100  0.42800  1.0000
  O   O8        1.0  0.60400  0.86900  0.57200  1.0000
  O   O9        1.0  0.90900  0.17100  0.29700  1.0000
  O   O10       1.0  0.09140  0.82900  0.70300  1.0000
  O   O11       1.0  0.83500  0.52800  0.17100  1.0000
  O   O12       1.0  0.16500  0.47200  0.82900  1.0000
  S   S1        1.0  0.26500  0.69900  0.43000  1.0000
  S   S2        1.0  0.73500  0.30100  0.57000  1.0000
  S   S3        1.0  0.01030  0.62600  0.36500  1.0000
  S   S4        1.0  0.99000  0.37400  0.63500  1.0000
