# generated using pymatgen
data_Te4MoW3(SeS)2
_symmetry_space_group_name_H-M   'P 1'
_cell_length_a   3.40010499
_cell_length_b   3.40010499
_cell_length_c   38.82667300
_cell_angle_alpha   90.00000000
_cell_angle_beta   90.00000000
_cell_angle_gamma   119.99998026
_symmetry_Int_Tables_number   1
_chemical_formula_structural   Te4MoW3(SeS)2
_chemical_formula_sum   'Te4 Mo1 W3 Se2 S2'
_cell_volume   388.72775501
_cell_formula_units_Z   1
loop_
 _symmetry_equiv_pos_site_id
 _symmetry_equiv_pos_as_xyz
  1  'x, y, z'
loop_
 _atom_site_type_symbol
 _atom_site_label
 _atom_site_symmetry_multiplicity
 _atom_site_fract_x
 _atom_site_fract_y
 _atom_site_fract_z
 _atom_site_occupancy
  Te  Te0  1  0.33333300  0.66666700  0.70613200  1
  Te  Te1  1  0.66666700  0.33333300  0.42105100  1
  Te  Te2  1  0.66666700  0.33333300  0.51801300  1
  Te  Te3  1  0.33333300  0.66666700  0.60919000  1
  Mo  Mo4  1  0.66666700  0.33333300  0.28178100  1
  W  W5  1  0.33333300  0.66666700  0.09392600  1
  W  W6  1  0.33333300  0.66666700  0.46951500  1
  W  W7  1  0.66666700  0.33333300  0.65768300  1
  Se  Se8  1  0.66666700  0.33333300  0.05125100  1
  Se  Se9  1  0.66666700  0.33333300  0.13661500  1
  S  S10  1  0.33333300  0.66666700  0.32049500  1
  S  S11  1  0.33333300  0.66666700  0.24309700  1
