# generated using pymatgen
data_Te2Mo(WSe2)3
_symmetry_space_group_name_H-M   'P 1'
_cell_length_a   3.38162015
_cell_length_b   3.38162015
_cell_length_c   38.48617200
_cell_angle_alpha   90.00000000
_cell_angle_beta   90.00000000
_cell_angle_gamma   120.00000295
_symmetry_Int_Tables_number   1
_chemical_formula_structural   Te2Mo(WSe2)3
_chemical_formula_sum   'Te2 Mo1 W3 Se6'
_cell_volume   381.14039588
_cell_formula_units_Z   1
loop_
 _symmetry_equiv_pos_site_id
 _symmetry_equiv_pos_as_xyz
  1  'x, y, z'
loop_
 _atom_site_type_symbol
 _atom_site_label
 _atom_site_symmetry_multiplicity
 _atom_site_fract_x
 _atom_site_fract_y
 _atom_site_fract_z
 _atom_site_occupancy
  Te  Te0  1  0.33333300  0.66666700  0.70665600  1
  Te  Te1  1  0.33333300  0.66666700  0.60841900  1
  Mo  Mo2  1  0.66666700  0.33333300  0.28181800  1
  W  W3  1  0.33333300  0.66666700  0.09392200  1
  W  W4  1  0.33333300  0.66666700  0.46966200  1
  W  W5  1  0.66666700  0.33333300  0.65756000  1
  Se  Se6  1  0.33333300  0.66666700  0.32481300  1
  Se  Se7  1  0.66666700  0.33333300  0.05077200  1
  Se  Se8  1  0.66666700  0.33333300  0.42649200  1
  Se  Se9  1  0.66666700  0.33333300  0.13707600  1
  Se  Se10  1  0.66666700  0.33333300  0.51279300  1
  Se  Se11  1  0.33333300  0.66666700  0.23876500  1
