data_image0
_chemical_formula_structural       Be4F16Rb8
_chemical_formula_sum              "Be4 F16 Rb8"
_cell_length_a       7.16134
_cell_length_b       5.36873
_cell_length_c       9.27168
_cell_angle_alpha    90
_cell_angle_beta     90
_cell_angle_gamma    90

_space_group_name_H-M_alt    "P 1"
_space_group_IT_number       1

loop_
  _space_group_symop_operation_xyz
  'x, y, z'

loop_
  _atom_site_type_symbol
  _atom_site_label
  _atom_site_symmetry_multiplicity
  _atom_site_fract_x
  _atom_site_fract_y
  _atom_site_fract_z
  _atom_site_occupancy
  Be  Be1       1.0  0.25300  0.24600  0.41500  1.0000
  Be  Be2       1.0  0.74700  0.74600  0.58500  1.0000
  Be  Be3       1.0  0.24700  0.74600  0.91500  1.0000
  Be  Be4       1.0  0.75300  0.24600  0.08520  1.0000
  F   F1        1.0  0.33500  0.47700  0.34400  1.0000
  F   F2        1.0  0.66500  0.97700  0.65600  1.0000
  F   F3        1.0  0.16500  0.97700  0.84400  1.0000
  F   F4        1.0  0.83500  0.47700  0.15600  1.0000
  F   F5        1.0  0.33500  0.01440  0.34400  1.0000
  F   F6        1.0  0.66500  0.51400  0.65600  1.0000
  F   F7        1.0  0.16500  0.51400  0.84400  1.0000
  F   F8        1.0  0.83500  0.01440  0.15600  1.0000
  F   F9        1.0  0.04060  0.24600  0.39500  1.0000
  F   F10       1.0  0.95900  0.74600  0.60500  1.0000
  F   F11       1.0  0.45900  0.74600  0.89500  1.0000
  F   F12       1.0  0.54100  0.24600  0.10500  1.0000
  F   F13       1.0  0.18700  0.74500  0.07240  1.0000
  F   F14       1.0  0.81300  0.24500  0.92800  1.0000
  F   F15       1.0  0.31300  0.24500  0.57200  1.0000
  F   F16       1.0  0.68700  0.74500  0.42800  1.0000
  Rb  Rb1       1.0  0.02900  0.74500  0.32600  1.0000
  Rb  Rb2       1.0  0.97100  0.24500  0.67400  1.0000
  Rb  Rb3       1.0  0.47100  0.24500  0.82600  1.0000
  Rb  Rb4       1.0  0.52900  0.74500  0.17400  1.0000
  Rb  Rb5       1.0  0.16700  0.24500  0.09840  1.0000
  Rb  Rb6       1.0  0.83300  0.74500  0.90200  1.0000
  Rb  Rb7       1.0  0.33300  0.74500  0.59800  1.0000
  Rb  Rb8       1.0  0.66700  0.24500  0.40200  1.0000
