# generated using pymatgen
data_ZnSiN2
_symmetry_space_group_name_H-M   'P 1'
_cell_length_a   6.43711606
_cell_length_b   6.43711606
_cell_length_c   5.63798800
_cell_angle_alpha   90.00000000
_cell_angle_beta   90.00000000
_cell_angle_gamma   129.15432036
_symmetry_Int_Tables_number   1
_chemical_formula_structural   ZnSiN2
_chemical_formula_sum   'Zn4 Si4 N8'
_cell_volume   181.15886096
_cell_formula_units_Z   4
loop_
 _symmetry_equiv_pos_site_id
 _symmetry_equiv_pos_as_xyz
  1  'x, y, z'
loop_
 _atom_site_type_symbol
 _atom_site_label
 _atom_site_symmetry_multiplicity
 _atom_site_fract_x
 _atom_site_fract_y
 _atom_site_fract_z
 _atom_site_occupancy
  Zn  Zn0  1  0.32850100  0.67149900  0.07101300  1
  Zn  Zn1  1  0.67149900  0.32850100  0.92898700  1
  Zn  Zn2  1  0.17149900  0.82850100  0.57101300  1
  Zn  Zn3  1  0.82850100  0.17149900  0.42898700  1
  Si  Si4  1  0.07968400  0.92031600  0.13427300  1
  Si  Si5  1  0.92031600  0.07968400  0.86572700  1
  Si  Si6  1  0.42031600  0.57968400  0.63427300  1
  Si  Si7  1  0.57968400  0.42031600  0.36572700  1
  N  N8  1  0.43179400  0.56820600  0.33011800  1
  N  N9  1  0.56820600  0.43179400  0.66988200  1
  N  N10  1  0.06820600  0.93179400  0.83011800  1
  N  N11  1  0.93179400  0.06820600  0.16988200  1
  N  N12  1  0.90777300  0.59222700  0.25000000  1
  N  N13  1  0.59222700  0.90777300  0.75000000  1
  N  N14  1  0.09222700  0.40777300  0.75000000  1
  N  N15  1  0.40777300  0.09222700  0.25000000  1
