# generated using pymatgen
data_Sr3(BN2)2
_symmetry_space_group_name_H-M   'P 1'
_cell_length_a   6.09940436
_cell_length_b   6.09940436
_cell_length_c   7.68142124
_cell_angle_alpha   88.83885088
_cell_angle_beta   88.83885088
_cell_angle_gamma   75.03026456
_symmetry_Int_Tables_number   1
_chemical_formula_structural   Sr3(BN2)2
_chemical_formula_sum   'Sr6 B4 N8'
_cell_volume   275.98141481
_cell_formula_units_Z   2
loop_
 _symmetry_equiv_pos_site_id
 _symmetry_equiv_pos_as_xyz
  1  'x, y, z'
loop_
 _atom_site_type_symbol
 _atom_site_label
 _atom_site_symmetry_multiplicity
 _atom_site_fract_x
 _atom_site_fract_y
 _atom_site_fract_z
 _atom_site_occupancy
  Sr  Sr0  1  0.01604600  0.23527200  0.90647200  1
  Sr  Sr1  1  0.76472800  0.98395400  0.59352800  1
  Sr  Sr2  1  0.98395400  0.76472800  0.09352800  1
  Sr  Sr3  1  0.23527200  0.01604600  0.40647200  1
  Sr  Sr4  1  0.57211300  0.42788700  0.25000000  1
  Sr  Sr5  1  0.42788700  0.57211300  0.75000000  1
  B  B6  1  0.00027600  0.45683800  0.37927500  1
  B  B7  1  0.54316200  0.99972400  0.12072500  1
  B  B8  1  0.99972400  0.54316200  0.62072500  1
  B  B9  1  0.45683800  0.00027600  0.87927500  1
  N  N10  1  0.86705300  0.39357500  0.53848000  1
  N  N11  1  0.60642500  0.13294700  0.96152000  1
  N  N12  1  0.13294700  0.60642500  0.46152000  1
  N  N13  1  0.39357500  0.86705300  0.03848000  1
  N  N14  1  0.00324900  0.37786300  0.20683200  1
  N  N15  1  0.62213700  0.99675100  0.29316800  1
  N  N16  1  0.99675100  0.62213700  0.79316800  1
  N  N17  1  0.37786300  0.00324900  0.70683200  1
