# generated using pymatgen
data_TeMoWSe3
_symmetry_space_group_name_H-M   'P 1'
_cell_length_a   3.37925913
_cell_length_b   3.37925913
_cell_length_c   38.46220300
_cell_angle_alpha   90.00000000
_cell_angle_beta   90.00000000
_cell_angle_gamma   119.99998294
_symmetry_Int_Tables_number   1
_chemical_formula_structural   TeMoWSe3
_chemical_formula_sum   'Te2 Mo2 W2 Se6'
_cell_volume   380.37139857
_cell_formula_units_Z   2
loop_
 _symmetry_equiv_pos_site_id
 _symmetry_equiv_pos_as_xyz
  1  'x, y, z'
loop_
 _atom_site_type_symbol
 _atom_site_label
 _atom_site_symmetry_multiplicity
 _atom_site_fract_x
 _atom_site_fract_y
 _atom_site_fract_z
 _atom_site_occupancy
  Te  Te0  1  0.33333300  0.66666700  0.04503700  1
  Te  Te1  1  0.33333300  0.66666700  0.14280900  1
  Mo  Mo2  1  0.00000000  0.00000000  0.09390300  1
  Mo  Mo3  1  0.33333300  0.66666700  0.28180100  1
  W  W4  1  0.00000000  0.00000000  0.46965600  1
  W  W5  1  0.33333300  0.66666700  0.65753800  1
  Se  Se6  1  0.00000000  0.00000000  0.32487900  1
  Se  Se7  1  0.00000000  0.00000000  0.70073400  1
  Se  Se8  1  0.33333300  0.66666700  0.42646500  1
  Se  Se9  1  0.33333300  0.66666700  0.51286100  1
  Se  Se10  1  0.00000000  0.00000000  0.23873900  1
  Se  Se11  1  0.00000000  0.00000000  0.61432600  1
