# generated using pymatgen
data_Te4Mo3WS4
_symmetry_space_group_name_H-M   'P 1'
_cell_length_a   3.36157445
_cell_length_b   3.36157445
_cell_length_c   38.23365700
_cell_angle_alpha   90.00000000
_cell_angle_beta   90.00000000
_cell_angle_gamma   120.00000885
_symmetry_Int_Tables_number   1
_chemical_formula_structural   Te4Mo3WS4
_chemical_formula_sum   'Te4 Mo3 W1 S4'
_cell_volume   374.16391488
_cell_formula_units_Z   1
loop_
 _symmetry_equiv_pos_site_id
 _symmetry_equiv_pos_as_xyz
  1  'x, y, z'
loop_
 _atom_site_type_symbol
 _atom_site_label
 _atom_site_symmetry_multiplicity
 _atom_site_fract_x
 _atom_site_fract_y
 _atom_site_fract_z
 _atom_site_occupancy
  Te  Te0  1  0.33333300  0.66666700  0.70724000  1
  Te  Te1  1  0.66666700  0.33333300  0.04453300  1
  Te  Te2  1  0.66666700  0.33333300  0.14333100  1
  Te  Te3  1  0.33333300  0.66666700  0.60781300  1
  Mo  Mo4  1  0.33333300  0.66666700  0.09391000  1
  Mo  Mo5  1  0.33333300  0.66666700  0.46964500  1
  Mo  Mo6  1  0.66666700  0.33333300  0.28180900  1
  W  W7  1  0.66666700  0.33333300  0.65755100  1
  S  S8  1  0.33333300  0.66666700  0.32137900  1
  S  S9  1  0.66666700  0.33333300  0.43004400  1
  S  S10  1  0.66666700  0.33333300  0.50926100  1
  S  S11  1  0.33333300  0.66666700  0.24223200  1
