# generated using pymatgen
data_TeMoWSe3
_symmetry_space_group_name_H-M   'P 1'
_cell_length_a   3.37928058
_cell_length_b   3.37928058
_cell_length_c   38.47430800
_cell_angle_alpha   90.00000000
_cell_angle_beta   90.00000000
_cell_angle_gamma   120.00001142
_symmetry_Int_Tables_number   1
_chemical_formula_structural   TeMoWSe3
_chemical_formula_sum   'Te2 Mo2 W2 Se6'
_cell_volume   380.49583300
_cell_formula_units_Z   2
loop_
 _symmetry_equiv_pos_site_id
 _symmetry_equiv_pos_as_xyz
  1  'x, y, z'
loop_
 _atom_site_type_symbol
 _atom_site_label
 _atom_site_symmetry_multiplicity
 _atom_site_fract_x
 _atom_site_fract_y
 _atom_site_fract_z
 _atom_site_occupancy
  Te  Te0  1  0.33333300  0.66666700  0.70640400  1
  Te  Te1  1  0.33333300  0.66666700  0.60868500  1
  Mo  Mo2  1  0.33333300  0.66666700  0.09391600  1
  Mo  Mo3  1  0.66666700  0.33333300  0.65755100  1
  W  W4  1  0.33333300  0.66666700  0.46965400  1
  W  W5  1  0.66666700  0.33333300  0.28180500  1
  Se  Se6  1  0.33333300  0.66666700  0.32499600  1
  Se  Se7  1  0.66666700  0.33333300  0.05086800  1
  Se  Se8  1  0.66666700  0.33333300  0.42646200  1
  Se  Se9  1  0.66666700  0.33333300  0.13697500  1
  Se  Se10  1  0.66666700  0.33333300  0.51284200  1
  Se  Se11  1  0.33333300  0.66666700  0.23858900  1
