# generated using pymatgen
data_ReN2
_symmetry_space_group_name_H-M   'P 1'
_cell_length_a   2.90344400
_cell_length_b   4.96439900
_cell_length_c   7.88388000
_cell_angle_alpha   90.00000000
_cell_angle_beta   90.00000000
_cell_angle_gamma   90.00000000
_symmetry_Int_Tables_number   1
_chemical_formula_structural   ReN2
_chemical_formula_sum   'Re4 N8'
_cell_volume   113.63709914
_cell_formula_units_Z   4
loop_
 _symmetry_equiv_pos_site_id
 _symmetry_equiv_pos_as_xyz
  1  'x, y, z'
loop_
 _atom_site_type_symbol
 _atom_site_label
 _atom_site_symmetry_multiplicity
 _atom_site_fract_x
 _atom_site_fract_y
 _atom_site_fract_z
 _atom_site_occupancy
  Re  Re0  1  0.29553100  0.25000000  0.50000000  1
  Re  Re1  1  0.70446900  0.75000000  0.00000000  1
  Re  Re2  1  0.29553100  0.25000000  0.00000000  1
  Re  Re3  1  0.70446900  0.75000000  0.50000000  1
  N  N4  1  0.79181900  0.08030200  0.66375300  1
  N  N5  1  0.20818100  0.91969800  0.16375300  1
  N  N6  1  0.79181900  0.41969800  0.16375300  1
  N  N7  1  0.20818100  0.58030200  0.66375300  1
  N  N8  1  0.79181900  0.08030200  0.83624700  1
  N  N9  1  0.20818100  0.91969800  0.33624700  1
  N  N10  1  0.79181900  0.41969800  0.33624700  1
  N  N11  1  0.20818100  0.58030200  0.83624700  1
