data_image0
_chemical_formula_structural       Ca4Nb4O14
_chemical_formula_sum              "Ca4 Nb4 O14"
_cell_length_a       7.47464
_cell_length_b       7.47464
_cell_length_c       7.47464
_cell_angle_alpha    60
_cell_angle_beta     60
_cell_angle_gamma    60

_space_group_name_H-M_alt    "P 1"
_space_group_IT_number       1

loop_
  _space_group_symop_operation_xyz
  'x, y, z'

loop_
  _atom_site_type_symbol
  _atom_site_label
  _atom_site_symmetry_multiplicity
  _atom_site_fract_x
  _atom_site_fract_y
  _atom_site_fract_z
  _atom_site_occupancy
  Ca  Ca1       1.0  0.62500  0.62500  0.62500  1.0000
  Ca  Ca2       1.0  0.62500  0.62500  0.12500  1.0000
  Ca  Ca3       1.0  0.12500  0.62500  0.62500  1.0000
  Ca  Ca4       1.0  0.62500  0.12500  0.62500  1.0000
  Nb  Nb1       1.0  0.12500  0.12500  0.12500  1.0000
  Nb  Nb2       1.0  0.12500  0.12500  0.62500  1.0000
  Nb  Nb3       1.0  0.62500  0.12500  0.12500  1.0000
  Nb  Nb4       1.0  0.12500  0.62500  0.12500  1.0000
  O   O1        1.0  0.50000  0.50000  0.50000  1.0000
  O   O2        1.0  0.75000  0.75000  0.75000  1.0000
  O   O3        1.0  0.80700  0.19300  0.19300  1.0000
  O   O4        1.0  0.19300  0.80700  0.80700  1.0000
  O   O5        1.0  0.19300  0.80700  0.19300  1.0000
  O   O6        1.0  0.19300  0.19300  0.80700  1.0000
  O   O7        1.0  0.80700  0.19300  0.80700  1.0000
  O   O8        1.0  0.80700  0.80700  0.19300  1.0000
  O   O9        1.0  0.05710  0.44300  0.05710  1.0000
  O   O10       1.0  0.44300  0.05710  0.44300  1.0000
  O   O11       1.0  0.44300  0.05710  0.05710  1.0000
  O   O12       1.0  0.05710  0.05710  0.44300  1.0000
  O   O13       1.0  0.05710  0.44300  0.44300  1.0000
  O   O14       1.0  0.44300  0.44300  0.05710  1.0000
