# generated using pymatgen
data_MoWSeS3
_symmetry_space_group_name_H-M   'P 1'
_cell_length_a   3.22202928
_cell_length_b   3.22202928
_cell_length_c   36.35350700
_cell_angle_alpha   90.00000000
_cell_angle_beta   90.00000000
_cell_angle_gamma   119.99998521
_symmetry_Int_Tables_number   1
_chemical_formula_structural   MoWSeS3
_chemical_formula_sum   'Mo2 W2 Se2 S6'
_cell_volume   326.84058196
_cell_formula_units_Z   2
loop_
 _symmetry_equiv_pos_site_id
 _symmetry_equiv_pos_as_xyz
  1  'x, y, z'
loop_
 _atom_site_type_symbol
 _atom_site_label
 _atom_site_symmetry_multiplicity
 _atom_site_fract_x
 _atom_site_fract_y
 _atom_site_fract_z
 _atom_site_occupancy
  Mo  Mo0  1  0.00000000  0.00000000  0.46963100  1
  Mo  Mo1  1  0.33333300  0.66666700  0.28177600  1
  W  W2  1  0.00000000  0.00000000  0.09390800  1
  W  W3  1  0.33333300  0.66666700  0.65756200  1
  Se  Se4  1  0.00000000  0.00000000  0.70486700  1
  Se  Se5  1  0.00000000  0.00000000  0.61027400  1
  S  S6  1  0.00000000  0.00000000  0.32449600  1
  S  S7  1  0.33333300  0.66666700  0.05101800  1
  S  S8  1  0.33333300  0.66666700  0.42693500  1
  S  S9  1  0.33333300  0.66666700  0.13681700  1
  S  S10  1  0.33333300  0.66666700  0.51236700  1
  S  S11  1  0.00000000  0.00000000  0.23909800  1
