# generated using pymatgen
data_Te4Mo3W(SeS)2
_symmetry_space_group_name_H-M   'P 1'
_cell_length_a   3.39800555
_cell_length_b   3.39800555
_cell_length_c   38.69759000
_cell_angle_alpha   90.00000000
_cell_angle_beta   90.00000000
_cell_angle_gamma   119.99999126
_symmetry_Int_Tables_number   1
_chemical_formula_structural   Te4Mo3W(SeS)2
_chemical_formula_sum   'Te4 Mo3 W1 Se2 S2'
_cell_volume   386.95704416
_cell_formula_units_Z   1
loop_
 _symmetry_equiv_pos_site_id
 _symmetry_equiv_pos_as_xyz
  1  'x, y, z'
loop_
 _atom_site_type_symbol
 _atom_site_label
 _atom_site_symmetry_multiplicity
 _atom_site_fract_x
 _atom_site_fract_y
 _atom_site_fract_z
 _atom_site_occupancy
  Te  Te0  1  0.00000000  0.00000000  0.70598100  1
  Te  Te1  1  0.33333300  0.66666700  0.04550800  1
  Te  Te2  1  0.33333300  0.66666700  0.14238000  1
  Te  Te3  1  0.00000000  0.00000000  0.60912000  1
  Mo  Mo4  1  0.00000000  0.00000000  0.09391100  1
  Mo  Mo5  1  0.33333300  0.66666700  0.28178300  1
  Mo  Mo6  1  0.33333300  0.66666700  0.65758000  1
  W  W7  1  0.00000000  0.00000000  0.46963800  1
  Se  Se8  1  0.33333300  0.66666700  0.42681700  1
  Se  Se9  1  0.33333300  0.66666700  0.51245400  1
  S  S10  1  0.00000000  0.00000000  0.32059500  1
  S  S11  1  0.00000000  0.00000000  0.24298000  1
