# generated using pymatgen
data_Mg14TiFeO16
_symmetry_space_group_name_H-M   'P 1'
_cell_length_a   8.59764100
_cell_length_b   8.54590200
_cell_length_c   4.27671700
_cell_angle_alpha   90.00000000
_cell_angle_beta   90.00000000
_cell_angle_gamma   90.00000000
_symmetry_Int_Tables_number   1
_chemical_formula_structural   Mg14TiFeO16
_chemical_formula_sum   'Mg14 Ti1 Fe1 O16'
_cell_volume   314.23005984
_cell_formula_units_Z   1
loop_
 _symmetry_equiv_pos_site_id
 _symmetry_equiv_pos_as_xyz
  1  'x, y, z'
loop_
 _atom_site_type_symbol
 _atom_site_label
 _atom_site_symmetry_multiplicity
 _atom_site_fract_x
 _atom_site_fract_y
 _atom_site_fract_z
 _atom_site_occupancy
  Mg  Mg0  1  0.50000000  0.00000000  0.00000000  1
  Mg  Mg1  1  0.50000000  0.50000000  0.00000000  1
  Mg  Mg2  1  0.00000000  0.24626000  0.50000000  1
  Mg  Mg3  1  0.00000000  0.75374000  0.50000000  1
  Mg  Mg4  1  0.50000000  0.24911300  0.50000000  1
  Mg  Mg5  1  0.50000000  0.75088700  0.50000000  1
  Mg  Mg6  1  0.24996200  0.00000000  0.50000000  1
  Mg  Mg7  1  0.25312600  0.50000000  0.50000000  1
  Mg  Mg8  1  0.75003800  0.00000000  0.50000000  1
  Mg  Mg9  1  0.74687400  0.50000000  0.50000000  1
  Mg  Mg10  1  0.25169500  0.24872400  0.00000000  1
  Mg  Mg11  1  0.25169500  0.75127600  0.00000000  1
  Mg  Mg12  1  0.74830500  0.24872400  0.00000000  1
  Mg  Mg13  1  0.74830500  0.75127600  0.00000000  1
  Ti  Ti14  1  0.00000000  0.50000000  0.00000000  1
  Fe  Fe15  1  0.00000000  0.00000000  0.00000000  1
  O  O16  1  0.25858900  0.00000000  0.00000000  1
  O  O17  1  0.25598100  0.50000000  0.00000000  1
  O  O18  1  0.74141100  0.00000000  0.00000000  1
  O  O19  1  0.74401900  0.50000000  0.00000000  1
  O  O20  1  0.24901600  0.25077200  0.50000000  1
  O  O21  1  0.24901600  0.74922800  0.50000000  1
  O  O22  1  0.75098400  0.25077200  0.50000000  1
  O  O23  1  0.75098400  0.74922800  0.50000000  1
  O  O24  1  0.00000000  0.00000000  0.50000000  1
  O  O25  1  0.00000000  0.50000000  0.50000000  1
  O  O26  1  0.50000000  0.00000000  0.50000000  1
  O  O27  1  0.50000000  0.50000000  0.50000000  1
  O  O28  1  0.00000000  0.24594800  0.00000000  1
  O  O29  1  0.00000000  0.75405200  0.00000000  1
  O  O30  1  0.50000000  0.25074500  0.00000000  1
  O  O31  1  0.50000000  0.74925500  0.00000000  1
