# generated using pymatgen
data_YMg14CuO16
_symmetry_space_group_name_H-M   'P 1'
_cell_length_a   4.32081400
_cell_length_b   8.67028700
_cell_length_c   8.70644200
_cell_angle_alpha   90.00000000
_cell_angle_beta   90.00000000
_cell_angle_gamma   90.00000000
_symmetry_Int_Tables_number   1
_chemical_formula_structural   YMg14CuO16
_chemical_formula_sum   'Y1 Mg14 Cu1 O16'
_cell_volume   326.16680254
_cell_formula_units_Z   1
loop_
 _symmetry_equiv_pos_site_id
 _symmetry_equiv_pos_as_xyz
  1  'x, y, z'
loop_
 _atom_site_type_symbol
 _atom_site_label
 _atom_site_symmetry_multiplicity
 _atom_site_fract_x
 _atom_site_fract_y
 _atom_site_fract_z
 _atom_site_occupancy
  Y  Y0  1  0.00000000  0.00000000  0.00000000  1
  Mg  Mg1  1  0.00000000  0.50000000  0.00000000  1
  Mg  Mg2  1  0.00000000  0.50000000  0.50000000  1
  Mg  Mg3  1  0.50000000  0.00000000  0.26866500  1
  Mg  Mg4  1  0.50000000  0.00000000  0.73133500  1
  Mg  Mg5  1  0.50000000  0.50000000  0.25411300  1
  Mg  Mg6  1  0.50000000  0.50000000  0.74588700  1
  Mg  Mg7  1  0.50000000  0.26220600  0.00000000  1
  Mg  Mg8  1  0.50000000  0.24820100  0.50000000  1
  Mg  Mg9  1  0.50000000  0.73779400  0.00000000  1
  Mg  Mg10  1  0.50000000  0.75179900  0.50000000  1
  Mg  Mg11  1  0.00000000  0.25378400  0.26216700  1
  Mg  Mg12  1  0.00000000  0.25378400  0.73783300  1
  Mg  Mg13  1  0.00000000  0.74621600  0.26216700  1
  Mg  Mg14  1  0.00000000  0.74621600  0.73783300  1
  Cu  Cu15  1  0.00000000  0.00000000  0.50000000  1
  O  O16  1  0.00000000  0.26025700  0.00000000  1
  O  O17  1  0.00000000  0.26948200  0.50000000  1
  O  O18  1  0.00000000  0.73974300  0.00000000  1
  O  O19  1  0.00000000  0.73051800  0.50000000  1
  O  O20  1  0.50000000  0.24858400  0.24892900  1
  O  O21  1  0.50000000  0.24858400  0.75107100  1
  O  O22  1  0.50000000  0.75141600  0.24892900  1
  O  O23  1  0.50000000  0.75141600  0.75107100  1
  O  O24  1  0.50000000  0.00000000  0.00000000  1
  O  O25  1  0.50000000  0.00000000  0.50000000  1
  O  O26  1  0.50000000  0.50000000  0.00000000  1
  O  O27  1  0.50000000  0.50000000  0.50000000  1
  O  O28  1  0.00000000  0.00000000  0.25028700  1
  O  O29  1  0.00000000  0.00000000  0.74971300  1
  O  O30  1  0.00000000  0.50000000  0.24721500  1
  O  O31  1  0.00000000  0.50000000  0.75278500  1
