# generated using pymatgen
data_CaMg14CO16
_symmetry_space_group_name_H-M   'P 1'
_cell_length_a   4.29573100
_cell_length_b   8.56186700
_cell_length_c   8.58571600
_cell_angle_alpha   90.00000000
_cell_angle_beta   90.00000000
_cell_angle_gamma   90.00000000
_symmetry_Int_Tables_number   1
_chemical_formula_structural   CaMg14CO16
_chemical_formula_sum   'Ca1 Mg14 C1 O16'
_cell_volume   315.77814836
_cell_formula_units_Z   1
loop_
 _symmetry_equiv_pos_site_id
 _symmetry_equiv_pos_as_xyz
  1  'x, y, z'
loop_
 _atom_site_type_symbol
 _atom_site_label
 _atom_site_symmetry_multiplicity
 _atom_site_fract_x
 _atom_site_fract_y
 _atom_site_fract_z
 _atom_site_occupancy
  Ca  Ca0  1  0.00000000  0.00000000  0.00000000  1
  Mg  Mg1  1  0.00000000  0.00000000  0.50000000  1
  Mg  Mg2  1  0.00000000  0.50000000  0.50000000  1
  Mg  Mg3  1  0.50000000  0.74170200  0.00000000  1
  Mg  Mg4  1  0.50000000  0.25829800  0.00000000  1
  Mg  Mg5  1  0.50000000  0.74958300  0.50000000  1
  Mg  Mg6  1  0.50000000  0.25041700  0.50000000  1
  Mg  Mg7  1  0.50000000  0.00000000  0.74472700  1
  Mg  Mg8  1  0.50000000  0.50000000  0.75323900  1
  Mg  Mg9  1  0.50000000  0.00000000  0.25527300  1
  Mg  Mg10  1  0.50000000  0.50000000  0.24676100  1
  Mg  Mg11  1  0.00000000  0.74523600  0.74884700  1
  Mg  Mg12  1  0.00000000  0.25476400  0.74884700  1
  Mg  Mg13  1  0.00000000  0.74523600  0.25115300  1
  Mg  Mg14  1  0.00000000  0.25476400  0.25115300  1
  C  C15  1  0.00000000  0.50000000  0.00000000  1
  O  O16  1  0.00000000  0.00000000  0.73716400  1
  O  O17  1  0.00000000  0.50000000  0.74689100  1
  O  O18  1  0.00000000  0.00000000  0.26283600  1
  O  O19  1  0.00000000  0.50000000  0.25310900  1
  O  O20  1  0.50000000  0.74980500  0.75151600  1
  O  O21  1  0.50000000  0.25019500  0.75151600  1
  O  O22  1  0.50000000  0.74980500  0.24848400  1
  O  O23  1  0.50000000  0.25019500  0.24848400  1
  O  O24  1  0.50000000  0.00000000  0.00000000  1
  O  O25  1  0.50000000  0.50000000  0.00000000  1
  O  O26  1  0.50000000  0.00000000  0.50000000  1
  O  O27  1  0.50000000  0.50000000  0.50000000  1
  O  O28  1  0.00000000  0.73703300  0.00000000  1
  O  O29  1  0.00000000  0.26296700  0.00000000  1
  O  O30  1  0.00000000  0.74741300  0.50000000  1
  O  O31  1  0.00000000  0.25258700  0.50000000  1
