# generated using pymatgen
data_TiOs2
_symmetry_space_group_name_H-M   'P 1'
_cell_length_a   5.12980660
_cell_length_b   5.12980660
_cell_length_c   8.37397600
_cell_angle_alpha   90.00000000
_cell_angle_beta   90.00000000
_cell_angle_gamma   120.00000768
_symmetry_Int_Tables_number   1
_chemical_formula_structural   TiOs2
_chemical_formula_sum   'Ti4 Os8'
_cell_volume   190.83775247
_cell_formula_units_Z   4
loop_
 _symmetry_equiv_pos_site_id
 _symmetry_equiv_pos_as_xyz
  1  'x, y, z'
loop_
 _atom_site_type_symbol
 _atom_site_label
 _atom_site_symmetry_multiplicity
 _atom_site_fract_x
 _atom_site_fract_y
 _atom_site_fract_z
 _atom_site_occupancy
  Ti  Ti0  1  0.33333300  0.66666700  0.43086300  1
  Ti  Ti1  1  0.66666700  0.33333300  0.56913700  1
  Ti  Ti2  1  0.66666700  0.33333300  0.93086300  1
  Ti  Ti3  1  0.33333300  0.66666700  0.06913700  1
  Os  Os4  1  0.00000000  0.00000000  0.50000000  1
  Os  Os5  1  0.00000000  0.00000000  0.00000000  1
  Os  Os6  1  0.82648900  0.17351100  0.25000000  1
  Os  Os7  1  0.82648900  0.65297700  0.25000000  1
  Os  Os8  1  0.34702300  0.17351100  0.25000000  1
  Os  Os9  1  0.17351100  0.82648900  0.75000000  1
  Os  Os10  1  0.17351100  0.34702300  0.75000000  1
  Os  Os11  1  0.65297700  0.82648900  0.75000000  1
