# generated using pymatgen
data_Mg14ZnBiO16
_symmetry_space_group_name_H-M   'P 1'
_cell_length_a   4.40998400
_cell_length_b   8.74632200
_cell_length_c   8.75814600
_cell_angle_alpha   90.00000000
_cell_angle_beta   90.00000000
_cell_angle_gamma   90.00000000
_symmetry_Int_Tables_number   1
_chemical_formula_structural   Mg14ZnBiO16
_chemical_formula_sum   'Mg14 Zn1 Bi1 O16'
_cell_volume   337.81167620
_cell_formula_units_Z   1
loop_
 _symmetry_equiv_pos_site_id
 _symmetry_equiv_pos_as_xyz
  1  'x, y, z'
loop_
 _atom_site_type_symbol
 _atom_site_label
 _atom_site_symmetry_multiplicity
 _atom_site_fract_x
 _atom_site_fract_y
 _atom_site_fract_z
 _atom_site_occupancy
  Mg  Mg0  1  0.00000000  0.50000000  0.00000000  1
  Mg  Mg1  1  0.00000000  0.50000000  0.50000000  1
  Mg  Mg2  1  0.50000000  0.00000000  0.23392100  1
  Mg  Mg3  1  0.50000000  0.00000000  0.76607900  1
  Mg  Mg4  1  0.50000000  0.50000000  0.24692500  1
  Mg  Mg5  1  0.50000000  0.50000000  0.75307500  1
  Mg  Mg6  1  0.50000000  0.25244400  0.00000000  1
  Mg  Mg7  1  0.50000000  0.26436500  0.50000000  1
  Mg  Mg8  1  0.50000000  0.74755600  0.00000000  1
  Mg  Mg9  1  0.50000000  0.73563500  0.50000000  1
  Mg  Mg10  1  0.00000000  0.25762600  0.24063200  1
  Mg  Mg11  1  0.00000000  0.25762600  0.75936800  1
  Mg  Mg12  1  0.00000000  0.74237400  0.24063200  1
  Mg  Mg13  1  0.00000000  0.74237400  0.75936800  1
  Zn  Zn14  1  0.00000000  0.00000000  0.00000000  1
  Bi  Bi15  1  0.00000000  0.00000000  0.50000000  1
  O  O16  1  0.00000000  0.26599300  0.00000000  1
  O  O17  1  0.00000000  0.26930700  0.50000000  1
  O  O18  1  0.00000000  0.73400700  0.00000000  1
  O  O19  1  0.00000000  0.73069300  0.50000000  1
  O  O20  1  0.50000000  0.24874100  0.25211100  1
  O  O21  1  0.50000000  0.24874100  0.74788900  1
  O  O22  1  0.50000000  0.75125900  0.25211100  1
  O  O23  1  0.50000000  0.75125900  0.74788900  1
  O  O24  1  0.50000000  0.00000000  0.00000000  1
  O  O25  1  0.50000000  0.00000000  0.50000000  1
  O  O26  1  0.50000000  0.50000000  0.00000000  1
  O  O27  1  0.50000000  0.50000000  0.50000000  1
  O  O28  1  0.00000000  0.00000000  0.23148300  1
  O  O29  1  0.00000000  0.00000000  0.76851700  1
  O  O30  1  0.00000000  0.50000000  0.24982800  1
  O  O31  1  0.00000000  0.50000000  0.75017200  1
