# generated using pymatgen
data_YMg14CoO16
_symmetry_space_group_name_H-M   'P 1'
_cell_length_a   4.33214700
_cell_length_b   8.64134300
_cell_length_c   8.68316200
_cell_angle_alpha   90.00000000
_cell_angle_beta   90.00000000
_cell_angle_gamma   90.00000000
_symmetry_Int_Tables_number   1
_chemical_formula_structural   YMg14CoO16
_chemical_formula_sum   'Y1 Mg14 Co1 O16'
_cell_volume   325.05910284
_cell_formula_units_Z   1
loop_
 _symmetry_equiv_pos_site_id
 _symmetry_equiv_pos_as_xyz
  1  'x, y, z'
loop_
 _atom_site_type_symbol
 _atom_site_label
 _atom_site_symmetry_multiplicity
 _atom_site_fract_x
 _atom_site_fract_y
 _atom_site_fract_z
 _atom_site_occupancy
  Y  Y0  1  0.00000000  0.00000000  0.00000000  1
  Mg  Mg1  1  0.00000000  0.50000000  0.00000000  1
  Mg  Mg2  1  0.00000000  0.50000000  0.50000000  1
  Mg  Mg3  1  0.50000000  0.00000000  0.26920200  1
  Mg  Mg4  1  0.50000000  0.00000000  0.73079800  1
  Mg  Mg5  1  0.50000000  0.50000000  0.25425800  1
  Mg  Mg6  1  0.50000000  0.50000000  0.74574200  1
  Mg  Mg7  1  0.50000000  0.26209400  0.00000000  1
  Mg  Mg8  1  0.50000000  0.24709800  0.50000000  1
  Mg  Mg9  1  0.50000000  0.73790600  0.00000000  1
  Mg  Mg10  1  0.50000000  0.75290200  0.50000000  1
  Mg  Mg11  1  0.00000000  0.25320300  0.26216800  1
  Mg  Mg12  1  0.00000000  0.25320300  0.73783200  1
  Mg  Mg13  1  0.00000000  0.74679700  0.26216800  1
  Mg  Mg14  1  0.00000000  0.74679700  0.73783200  1
  Co  Co15  1  0.00000000  0.00000000  0.50000000  1
  O  O16  1  0.00000000  0.26070700  0.00000000  1
  O  O17  1  0.00000000  0.26592600  0.50000000  1
  O  O18  1  0.00000000  0.73929300  0.00000000  1
  O  O19  1  0.00000000  0.73407400  0.50000000  1
  O  O20  1  0.50000000  0.24924700  0.24893200  1
  O  O21  1  0.50000000  0.24924700  0.75106800  1
  O  O22  1  0.50000000  0.75075300  0.24893200  1
  O  O23  1  0.50000000  0.75075300  0.75106800  1
  O  O24  1  0.50000000  0.00000000  0.00000000  1
  O  O25  1  0.50000000  0.00000000  0.50000000  1
  O  O26  1  0.50000000  0.50000000  0.00000000  1
  O  O27  1  0.50000000  0.50000000  0.50000000  1
  O  O28  1  0.00000000  0.00000000  0.25130500  1
  O  O29  1  0.00000000  0.00000000  0.74869500  1
  O  O30  1  0.00000000  0.50000000  0.24848600  1
  O  O31  1  0.00000000  0.50000000  0.75151400  1
