# generated using pymatgen
data_KMg14BO15
_symmetry_space_group_name_H-M   'P 1'
_cell_length_a   4.49324200
_cell_length_b   8.49023900
_cell_length_c   8.62329700
_cell_angle_alpha   90.00000000
_cell_angle_beta   90.00000000
_cell_angle_gamma   90.00000000
_symmetry_Int_Tables_number   1
_chemical_formula_structural   KMg14BO15
_chemical_formula_sum   'K1 Mg14 B1 O15'
_cell_volume   328.96755703
_cell_formula_units_Z   1
loop_
 _symmetry_equiv_pos_site_id
 _symmetry_equiv_pos_as_xyz
  1  'x, y, z'
loop_
 _atom_site_type_symbol
 _atom_site_label
 _atom_site_symmetry_multiplicity
 _atom_site_fract_x
 _atom_site_fract_y
 _atom_site_fract_z
 _atom_site_occupancy
  K  K0  1  0.00000000  0.96470800  0.00000000  1
  Mg  Mg1  1  0.00000000  0.00636800  0.50000000  1
  Mg  Mg2  1  0.00000000  0.51239300  0.00000000  1
  Mg  Mg3  1  0.50000000  0.00414700  0.25092700  1
  Mg  Mg4  1  0.50000000  0.00414700  0.74907300  1
  Mg  Mg5  1  0.50000000  0.49941700  0.26954500  1
  Mg  Mg6  1  0.50000000  0.49941700  0.73045500  1
  Mg  Mg7  1  0.50000000  0.74161600  0.00000000  1
  Mg  Mg8  1  0.50000000  0.75128200  0.50000000  1
  Mg  Mg9  1  0.50000000  0.25215700  0.00000000  1
  Mg  Mg10  1  0.50000000  0.25092500  0.50000000  1
  Mg  Mg11  1  0.00000000  0.74853300  0.27854300  1
  Mg  Mg12  1  0.00000000  0.74853300  0.72145700  1
  Mg  Mg13  1  0.00000000  0.24493800  0.24232500  1
  Mg  Mg14  1  0.00000000  0.24493800  0.75767500  1
  B  B15  1  0.00000000  0.43854500  0.50000000  1
  O  O16  1  0.00000000  0.77361000  0.50000000  1
  O  O17  1  0.00000000  0.28064300  0.00000000  1
  O  O18  1  0.00000000  0.26692400  0.50000000  1
  O  O19  1  0.50000000  0.74758900  0.25292200  1
  O  O20  1  0.50000000  0.74758900  0.74707800  1
  O  O21  1  0.50000000  0.25549200  0.24996100  1
  O  O22  1  0.50000000  0.25549200  0.75003900  1
  O  O23  1  0.50000000  0.00510300  0.00000000  1
  O  O24  1  0.50000000  0.01059100  0.50000000  1
  O  O25  1  0.50000000  0.50015500  0.00000000  1
  O  O26  1  0.50000000  0.49200800  0.50000000  1
  O  O27  1  0.00000000  0.00864500  0.27250600  1
  O  O28  1  0.00000000  0.00864500  0.72749400  1
  O  O29  1  0.00000000  0.49272500  0.33715300  1
  O  O30  1  0.00000000  0.49272500  0.66284700  1
