# generated using pymatgen
data_RbMg14BO15
_symmetry_space_group_name_H-M   'P 1'
_cell_length_a   4.15876900
_cell_length_b   8.46789600
_cell_length_c   10.21883100
_cell_angle_alpha   90.00000000
_cell_angle_beta   90.00000000
_cell_angle_gamma   90.00000000
_symmetry_Int_Tables_number   1
_chemical_formula_structural   RbMg14BO15
_chemical_formula_sum   'Rb1 Mg14 B1 O15'
_cell_volume   359.86659141
_cell_formula_units_Z   1
loop_
 _symmetry_equiv_pos_site_id
 _symmetry_equiv_pos_as_xyz
  1  'x, y, z'
loop_
 _atom_site_type_symbol
 _atom_site_label
 _atom_site_symmetry_multiplicity
 _atom_site_fract_x
 _atom_site_fract_y
 _atom_site_fract_z
 _atom_site_occupancy
  Rb  Rb0  1  0.00000000  0.00000000  0.05121300  1
  Mg  Mg1  1  0.00000000  0.50000000  0.00482900  1
  Mg  Mg2  1  0.00000000  0.00000000  0.51607700  1
  Mg  Mg3  1  0.50000000  0.75062300  0.93082000  1
  Mg  Mg4  1  0.50000000  0.24937700  0.93082000  1
  Mg  Mg5  1  0.50000000  0.74646200  0.50701500  1
  Mg  Mg6  1  0.50000000  0.25353800  0.50701500  1
  Mg  Mg7  1  0.50000000  0.00000000  0.72824900  1
  Mg  Mg8  1  0.50000000  0.50000000  0.67911800  1
  Mg  Mg9  1  0.50000000  0.00000000  0.31269300  1
  Mg  Mg10  1  0.50000000  0.50000000  0.27363800  1
  Mg  Mg11  1  0.00000000  0.75902200  0.72515100  1
  Mg  Mg12  1  0.00000000  0.24097800  0.72515100  1
  Mg  Mg13  1  0.00000000  0.75643600  0.31353200  1
  Mg  Mg14  1  0.00000000  0.24356400  0.31353200  1
  B  B15  1  0.00000000  0.50000000  0.49001400  1
  O  O16  1  0.00000000  0.00000000  0.71163500  1
  O  O17  1  0.00000000  0.00000000  0.30967200  1
  O  O18  1  0.00000000  0.50000000  0.34608000  1
  O  O19  1  0.50000000  0.73032500  0.72114600  1
  O  O20  1  0.50000000  0.26967500  0.72114600  1
  O  O21  1  0.50000000  0.75441500  0.29039400  1
  O  O22  1  0.50000000  0.24558500  0.29039400  1
  O  O23  1  0.50000000  0.00000000  0.92127700  1
  O  O24  1  0.50000000  0.50000000  0.06081000  1
  O  O25  1  0.50000000  0.00000000  0.51378400  1
  O  O26  1  0.50000000  0.50000000  0.48768100  1
  O  O27  1  0.00000000  0.70815600  0.92325200  1
  O  O28  1  0.00000000  0.29184400  0.92325200  1
  O  O29  1  0.00000000  0.75594700  0.51030300  1
  O  O30  1  0.00000000  0.24405300  0.51030300  1
