# generated using pymatgen
data_RbNaMg6O7
_symmetry_space_group_name_H-M   'P 1'
_cell_length_a   4.25104100
_cell_length_b   4.25104100
_cell_length_c   11.55967100
_cell_angle_alpha   90.00000000
_cell_angle_beta   90.00000000
_cell_angle_gamma   90.00000000
_symmetry_Int_Tables_number   1
_chemical_formula_structural   RbNaMg6O7
_chemical_formula_sum   'Rb1 Na1 Mg6 O7'
_cell_volume   208.89885571
_cell_formula_units_Z   1
loop_
 _symmetry_equiv_pos_site_id
 _symmetry_equiv_pos_as_xyz
  1  'x, y, z'
loop_
 _atom_site_type_symbol
 _atom_site_label
 _atom_site_symmetry_multiplicity
 _atom_site_fract_x
 _atom_site_fract_y
 _atom_site_fract_z
 _atom_site_occupancy
  Rb  Rb0  1  0.50000000  0.50000000  0.96651500  1
  Na  Na1  1  0.00000000  0.00000000  0.06623400  1
  Mg  Mg2  1  0.00000000  0.00000000  0.49629700  1
  Mg  Mg3  1  0.50000000  0.50000000  0.48053100  1
  Mg  Mg4  1  0.00000000  0.50000000  0.26974600  1
  Mg  Mg5  1  0.00000000  0.50000000  0.67046600  1
  Mg  Mg6  1  0.50000000  0.00000000  0.26974600  1
  Mg  Mg7  1  0.50000000  0.00000000  0.67046600  1
  O  O8  1  0.00000000  0.00000000  0.67970800  1
  O  O9  1  0.50000000  0.50000000  0.30794600  1
  O  O10  1  0.50000000  0.50000000  0.68123400  1
  O  O11  1  0.00000000  0.50000000  0.10625300  1
  O  O12  1  0.00000000  0.50000000  0.48930200  1
  O  O13  1  0.50000000  0.00000000  0.10625300  1
  O  O14  1  0.50000000  0.00000000  0.48930200  1
