# generated using pymatgen
data_RbMg14FeO16
_symmetry_space_group_name_H-M   'P 1'
_cell_length_a   8.74446800
_cell_length_b   8.66095600
_cell_length_c   4.37887100
_cell_angle_alpha   90.00000000
_cell_angle_beta   90.00000000
_cell_angle_gamma   90.00000000
_symmetry_Int_Tables_number   1
_chemical_formula_structural   RbMg14FeO16
_chemical_formula_sum   'Rb1 Mg14 Fe1 O16'
_cell_volume   331.63577702
_cell_formula_units_Z   1
loop_
 _symmetry_equiv_pos_site_id
 _symmetry_equiv_pos_as_xyz
  1  'x, y, z'
loop_
 _atom_site_type_symbol
 _atom_site_label
 _atom_site_symmetry_multiplicity
 _atom_site_fract_x
 _atom_site_fract_y
 _atom_site_fract_z
 _atom_site_occupancy
  Rb  Rb0  1  0.00000000  0.50000000  0.00000000  1
  Mg  Mg1  1  0.50000000  0.00000000  0.00000000  1
  Mg  Mg2  1  0.50000000  0.50000000  0.00000000  1
  Mg  Mg3  1  0.00000000  0.24476400  0.50000000  1
  Mg  Mg4  1  0.00000000  0.75523600  0.50000000  1
  Mg  Mg5  1  0.50000000  0.24956700  0.50000000  1
  Mg  Mg6  1  0.50000000  0.75043300  0.50000000  1
  Mg  Mg7  1  0.25354900  0.00000000  0.50000000  1
  Mg  Mg8  1  0.26017500  0.50000000  0.50000000  1
  Mg  Mg9  1  0.74645100  0.00000000  0.50000000  1
  Mg  Mg10  1  0.73982500  0.50000000  0.50000000  1
  Mg  Mg11  1  0.25726100  0.24945200  0.00000000  1
  Mg  Mg12  1  0.25726100  0.75054800  0.00000000  1
  Mg  Mg13  1  0.74273900  0.24945200  0.00000000  1
  Mg  Mg14  1  0.74273900  0.75054800  0.00000000  1
  Fe  Fe15  1  0.00000000  0.00000000  0.00000000  1
  O  O16  1  0.25489700  0.00000000  0.00000000  1
  O  O17  1  0.27966000  0.50000000  0.00000000  1
  O  O18  1  0.74510300  0.00000000  0.00000000  1
  O  O19  1  0.72034000  0.50000000  0.00000000  1
  O  O20  1  0.24910900  0.24954400  0.50000000  1
  O  O21  1  0.24910900  0.75045600  0.50000000  1
  O  O22  1  0.75089100  0.24954400  0.50000000  1
  O  O23  1  0.75089100  0.75045600  0.50000000  1
  O  O24  1  0.00000000  0.00000000  0.50000000  1
  O  O25  1  0.00000000  0.50000000  0.50000000  1
  O  O26  1  0.50000000  0.00000000  0.50000000  1
  O  O27  1  0.50000000  0.50000000  0.50000000  1
  O  O28  1  0.00000000  0.21899100  0.00000000  1
  O  O29  1  0.00000000  0.78100900  0.00000000  1
  O  O30  1  0.50000000  0.24262200  0.00000000  1
  O  O31  1  0.50000000  0.75737800  0.00000000  1
