# generated using pymatgen
data_YMg14BO16
_symmetry_space_group_name_H-M   'P 1'
_cell_length_a   4.31724000
_cell_length_b   8.65567500
_cell_length_c   8.74490200
_cell_angle_alpha   90.00000000
_cell_angle_beta   90.00000000
_cell_angle_gamma   90.00000000
_symmetry_Int_Tables_number   1
_chemical_formula_structural   YMg14BO16
_chemical_formula_sum   'Y1 Mg14 B1 O16'
_cell_volume   326.78497519
_cell_formula_units_Z   1
loop_
 _symmetry_equiv_pos_site_id
 _symmetry_equiv_pos_as_xyz
  1  'x, y, z'
loop_
 _atom_site_type_symbol
 _atom_site_label
 _atom_site_symmetry_multiplicity
 _atom_site_fract_x
 _atom_site_fract_y
 _atom_site_fract_z
 _atom_site_occupancy
  Y  Y0  1  0.00000000  0.00000000  0.00000000  1
  Mg  Mg1  1  0.00000000  0.50000000  0.00000000  1
  Mg  Mg2  1  0.00000000  0.50000000  0.50000000  1
  Mg  Mg3  1  0.50000000  0.00000000  0.26953500  1
  Mg  Mg4  1  0.50000000  0.00000000  0.73046500  1
  Mg  Mg5  1  0.50000000  0.50000000  0.25420300  1
  Mg  Mg6  1  0.50000000  0.50000000  0.74579700  1
  Mg  Mg7  1  0.50000000  0.26201400  0.00000000  1
  Mg  Mg8  1  0.50000000  0.24771000  0.50000000  1
  Mg  Mg9  1  0.50000000  0.73798600  0.00000000  1
  Mg  Mg10  1  0.50000000  0.75229000  0.50000000  1
  Mg  Mg11  1  0.00000000  0.25310000  0.26259800  1
  Mg  Mg12  1  0.00000000  0.25310000  0.73740200  1
  Mg  Mg13  1  0.00000000  0.74690000  0.26259800  1
  Mg  Mg14  1  0.00000000  0.74690000  0.73740200  1
  B  B15  1  0.00000000  0.00000000  0.50000000  1
  O  O16  1  0.00000000  0.26036900  0.00000000  1
  O  O17  1  0.00000000  0.26869200  0.50000000  1
  O  O18  1  0.00000000  0.73963100  0.00000000  1
  O  O19  1  0.00000000  0.73130800  0.50000000  1
  O  O20  1  0.50000000  0.24837400  0.24936400  1
  O  O21  1  0.50000000  0.24837400  0.75063600  1
  O  O22  1  0.50000000  0.75162600  0.24936400  1
  O  O23  1  0.50000000  0.75162600  0.75063600  1
  O  O24  1  0.50000000  0.00000000  0.00000000  1
  O  O25  1  0.50000000  0.00000000  0.50000000  1
  O  O26  1  0.50000000  0.50000000  0.00000000  1
  O  O27  1  0.50000000  0.50000000  0.50000000  1
  O  O28  1  0.00000000  0.00000000  0.24874000  1
  O  O29  1  0.00000000  0.00000000  0.75126000  1
  O  O30  1  0.00000000  0.50000000  0.24747200  1
  O  O31  1  0.00000000  0.50000000  0.75252800  1
