# generated using pymatgen
data_KRbMg14O15
_symmetry_space_group_name_H-M   'P 1'
_cell_length_a   4.16908700
_cell_length_b   8.57593800
_cell_length_c   10.42442100
_cell_angle_alpha   90.00000000
_cell_angle_beta   90.00000000
_cell_angle_gamma   90.00000000
_symmetry_Int_Tables_number   1
_chemical_formula_structural   KRbMg14O15
_chemical_formula_sum   'K1 Rb1 Mg14 O15'
_cell_volume   372.71299326
_cell_formula_units_Z   1
loop_
 _symmetry_equiv_pos_site_id
 _symmetry_equiv_pos_as_xyz
  1  'x, y, z'
loop_
 _atom_site_type_symbol
 _atom_site_label
 _atom_site_symmetry_multiplicity
 _atom_site_fract_x
 _atom_site_fract_y
 _atom_site_fract_z
 _atom_site_occupancy
  K  K0  1  0.00000000  0.00000000  0.91282900  1
  Rb  Rb1  1  0.00000000  0.50000000  0.44459400  1
  Mg  Mg2  1  0.00000000  0.50000000  0.98923300  1
  Mg  Mg3  1  0.00000000  0.00000000  0.47637300  1
  Mg  Mg4  1  0.50000000  0.76579200  0.99743100  1
  Mg  Mg5  1  0.50000000  0.23420800  0.99743100  1
  Mg  Mg6  1  0.50000000  0.73940400  0.57150300  1
  Mg  Mg7  1  0.50000000  0.26059600  0.57150300  1
  Mg  Mg8  1  0.50000000  0.00000000  0.70095600  1
  Mg  Mg9  1  0.50000000  0.50000000  0.78201600  1
  Mg  Mg10  1  0.50000000  0.00000000  0.22402500  1
  Mg  Mg11  1  0.50000000  0.50000000  0.17873700  1
  Mg  Mg12  1  0.00000000  0.72367600  0.77195100  1
  Mg  Mg13  1  0.00000000  0.27632400  0.77195100  1
  Mg  Mg14  1  0.00000000  0.75622600  0.18768100  1
  Mg  Mg15  1  0.00000000  0.24377400  0.18768100  1
  O  O16  1  0.00000000  0.50000000  0.79094000  1
  O  O17  1  0.00000000  0.00000000  0.27492200  1
  O  O18  1  0.00000000  0.50000000  0.18989100  1
  O  O19  1  0.50000000  0.78598300  0.77691500  1
  O  O20  1  0.50000000  0.21401700  0.77691500  1
  O  O21  1  0.50000000  0.74211500  0.20659100  1
  O  O22  1  0.50000000  0.25788500  0.20659100  1
  O  O23  1  0.50000000  0.00000000  0.03207200  1
  O  O24  1  0.50000000  0.50000000  0.98096900  1
  O  O25  1  0.50000000  0.00000000  0.51396300  1
  O  O26  1  0.50000000  0.50000000  0.58919900  1
  O  O27  1  0.00000000  0.73609500  0.98611500  1
  O  O28  1  0.00000000  0.26390500  0.98611500  1
  O  O29  1  0.00000000  0.79390500  0.58645000  1
  O  O30  1  0.00000000  0.20609500  0.58645000  1
