data_image0
_chemical_formula_structural       Li16O32P8Zn4
_chemical_formula_sum              "Li16 O32 P8 Zn4"
_cell_length_a       7.89547
_cell_length_b       7.89608
_cell_length_c       9.92488
_cell_angle_alpha    90
_cell_angle_beta     90
_cell_angle_gamma    105.354

_space_group_name_H-M_alt    "P 1"
_space_group_IT_number       1

loop_
  _space_group_symop_operation_xyz
  'x, y, z'

loop_
  _atom_site_type_symbol
  _atom_site_label
  _atom_site_symmetry_multiplicity
  _atom_site_fract_x
  _atom_site_fract_y
  _atom_site_fract_z
  _atom_site_occupancy
  Li  Li1       1.0  0.66300  0.41500  0.32100  1.0000
  Li  Li2       1.0  0.33700  0.58500  0.82100  1.0000
  Li  Li3       1.0  0.41300  0.15600  0.49800  1.0000
  Li  Li4       1.0  0.58700  0.84400  0.99800  1.0000
  Li  Li5       1.0  0.91300  0.15600  0.31200  1.0000
  Li  Li6       1.0  0.08680  0.84400  0.81200  1.0000
  Li  Li7       1.0  0.98800  0.48900  0.23900  1.0000
  Li  Li8       1.0  0.01170  0.51100  0.73900  1.0000
  Li  Li9       1.0  0.08340  0.32600  0.99400  1.0000
  Li  Li10      1.0  0.91700  0.67400  0.49400  1.0000
  Li  Li11      1.0  0.58400  0.32600  0.81600  1.0000
  Li  Li12      1.0  0.41600  0.67400  0.31600  1.0000
  Li  Li13      1.0  0.16300  0.41500  0.48900  1.0000
  Li  Li14      1.0  0.83700  0.58500  0.98900  1.0000
  Li  Li15      1.0  0.48800  0.48800  0.57100  1.0000
  Li  Li16      1.0  0.51200  0.51200  0.07080  1.0000
  O   O1        1.0  0.13000  0.33900  0.30700  1.0000
  O   O2        1.0  0.87000  0.66100  0.80700  1.0000
  O   O3        1.0  0.95600  0.46100  0.54800  1.0000
  O   O4        1.0  0.04430  0.53900  0.04770  1.0000
  O   O5        1.0  0.45500  0.46000  0.26100  1.0000
  O   O6        1.0  0.54500  0.54000  0.76100  1.0000
  O   O7        1.0  0.27300  0.27400  0.59300  1.0000
  O   O8        1.0  0.72700  0.72600  0.09350  1.0000
  O   O9        1.0  0.77200  0.27400  0.21600  1.0000
  O   O10       1.0  0.22800  0.72600  0.71600  1.0000
  O   O11       1.0  0.76600  0.27100  0.71800  1.0000
  O   O12       1.0  0.23400  0.72900  0.21800  1.0000
  O   O13       1.0  0.26500  0.27000  0.09140  1.0000
  O   O14       1.0  0.73500  0.73000  0.59100  1.0000
  O   O15       1.0  0.05080  0.05030  0.73800  1.0000
  O   O16       1.0  0.94900  0.95000  0.23800  1.0000
  O   O17       1.0  0.55000  0.05020  0.07230  1.0000
  O   O18       1.0  0.45000  0.95000  0.57200  1.0000
  O   O19       1.0  0.86100  0.16400  0.99800  1.0000
  O   O20       1.0  0.13900  0.83600  0.49800  1.0000
  O   O21       1.0  0.36200  0.16400  0.81100  1.0000
  O   O22       1.0  0.63800  0.83600  0.31100  1.0000
  O   O23       1.0  0.65500  0.36500  0.00000  1.0000
  O   O24       1.0  0.34500  0.63500  0.50000  1.0000
  O   O25       1.0  0.15600  0.36500  0.81000  1.0000
  O   O26       1.0  0.84400  0.63500  0.31000  1.0000
  O   O27       1.0  0.83900  0.14200  0.49700  1.0000
  O   O28       1.0  0.16100  0.85800  0.99700  1.0000
  O   O29       1.0  0.33800  0.14200  0.31300  1.0000
  O   O30       1.0  0.66200  0.85800  0.81300  1.0000
  O   O31       1.0  0.63000  0.33900  0.50200  1.0000
  O   O32       1.0  0.37000  0.66100  0.00240  1.0000
  P   P1        1.0  0.79500  0.30200  0.56400  1.0000
  P   P2        1.0  0.20500  0.69800  0.06410  1.0000
  P   P3        1.0  0.21000  0.21500  0.73600  1.0000
  P   P4        1.0  0.79000  0.78500  0.23600  1.0000
  P   P5        1.0  0.29400  0.30200  0.24500  1.0000
  P   P6        1.0  0.70600  0.69800  0.74500  1.0000
  P   P7        1.0  0.71000  0.21500  0.07370  1.0000
  P   P8        1.0  0.29000  0.78500  0.57400  1.0000
  Zn  Zn1       1.0  0.83500  0.08360  0.81200  1.0000
  Zn  Zn2       1.0  0.16500  0.91600  0.31200  1.0000
  Zn  Zn3       1.0  0.33500  0.08330  0.99700  1.0000
  Zn  Zn4       1.0  0.66500  0.91700  0.49700  1.0000
