# generated using pymatgen
data_YMg14CO16
_symmetry_space_group_name_H-M   'P 1'
_cell_length_a   4.28914100
_cell_length_b   8.60629900
_cell_length_c   8.84187600
_cell_angle_alpha   90.00000000
_cell_angle_beta   90.00000000
_cell_angle_gamma   90.00000000
_symmetry_Int_Tables_number   1
_chemical_formula_structural   YMg14CO16
_chemical_formula_sum   'Y1 Mg14 C1 O16'
_cell_volume   326.38573828
_cell_formula_units_Z   1
loop_
 _symmetry_equiv_pos_site_id
 _symmetry_equiv_pos_as_xyz
  1  'x, y, z'
loop_
 _atom_site_type_symbol
 _atom_site_label
 _atom_site_symmetry_multiplicity
 _atom_site_fract_x
 _atom_site_fract_y
 _atom_site_fract_z
 _atom_site_occupancy
  Y  Y0  1  0.00000000  0.00000000  0.00000000  1
  Mg  Mg1  1  0.00000000  0.00000000  0.50000000  1
  Mg  Mg2  1  0.00000000  0.50000000  0.50000000  1
  Mg  Mg3  1  0.50000000  0.73120300  0.00000000  1
  Mg  Mg4  1  0.50000000  0.26879700  0.00000000  1
  Mg  Mg5  1  0.50000000  0.74451700  0.50000000  1
  Mg  Mg6  1  0.50000000  0.25548300  0.50000000  1
  Mg  Mg7  1  0.50000000  0.00000000  0.73647000  1
  Mg  Mg8  1  0.50000000  0.50000000  0.75014600  1
  Mg  Mg9  1  0.50000000  0.00000000  0.26353000  1
  Mg  Mg10  1  0.50000000  0.50000000  0.24985400  1
  Mg  Mg11  1  0.00000000  0.73499300  0.74523500  1
  Mg  Mg12  1  0.00000000  0.26500700  0.74523500  1
  Mg  Mg13  1  0.00000000  0.73499300  0.25476500  1
  Mg  Mg14  1  0.00000000  0.26500700  0.25476500  1
  C  C15  1  0.00000000  0.50000000  0.00000000  1
  O  O16  1  0.00000000  0.00000000  0.74165700  1
  O  O17  1  0.00000000  0.50000000  0.71985000  1
  O  O18  1  0.00000000  0.00000000  0.25834300  1
  O  O19  1  0.00000000  0.50000000  0.28015000  1
  O  O20  1  0.50000000  0.75067100  0.75336400  1
  O  O21  1  0.50000000  0.24932900  0.75336400  1
  O  O22  1  0.50000000  0.75067100  0.24663600  1
  O  O23  1  0.50000000  0.24932900  0.24663600  1
  O  O24  1  0.50000000  0.00000000  0.00000000  1
  O  O25  1  0.50000000  0.50000000  0.00000000  1
  O  O26  1  0.50000000  0.00000000  0.50000000  1
  O  O27  1  0.50000000  0.50000000  0.50000000  1
  O  O28  1  0.00000000  0.74322600  0.00000000  1
  O  O29  1  0.00000000  0.25677400  0.00000000  1
  O  O30  1  0.00000000  0.75480100  0.50000000  1
  O  O31  1  0.00000000  0.24519900  0.50000000  1
