# generated using pymatgen
data_KRbMg14O15
_symmetry_space_group_name_H-M   'P 1'
_cell_length_a   4.26476400
_cell_length_b   8.58858800
_cell_length_c   9.61444200
_cell_angle_alpha   90.00000000
_cell_angle_beta   90.00000000
_cell_angle_gamma   90.00000000
_symmetry_Int_Tables_number   1
_chemical_formula_structural   KRbMg14O15
_chemical_formula_sum   'K1 Rb1 Mg14 O15'
_cell_volume   352.16067469
_cell_formula_units_Z   1
loop_
 _symmetry_equiv_pos_site_id
 _symmetry_equiv_pos_as_xyz
  1  'x, y, z'
loop_
 _atom_site_type_symbol
 _atom_site_label
 _atom_site_symmetry_multiplicity
 _atom_site_fract_x
 _atom_site_fract_y
 _atom_site_fract_z
 _atom_site_occupancy
  K  K0  1  0.00000000  0.00000000  0.03416300  1
  Rb  Rb1  1  0.00000000  0.50000000  0.59612800  1
  Mg  Mg2  1  0.00000000  0.50000000  0.03103200  1
  Mg  Mg3  1  0.00000000  0.00000000  0.50130000  1
  Mg  Mg4  1  0.50000000  0.75857200  0.99576600  1
  Mg  Mg5  1  0.50000000  0.24142800  0.99576600  1
  Mg  Mg6  1  0.50000000  0.73619700  0.50465200  1
  Mg  Mg7  1  0.50000000  0.26380300  0.50465200  1
  Mg  Mg8  1  0.50000000  0.00000000  0.72967700  1
  Mg  Mg9  1  0.50000000  0.50000000  0.80989400  1
  Mg  Mg10  1  0.50000000  0.00000000  0.28886600  1
  Mg  Mg11  1  0.50000000  0.50000000  0.24844500  1
  Mg  Mg12  1  0.00000000  0.77938100  0.74789800  1
  Mg  Mg13  1  0.00000000  0.22061900  0.74789800  1
  Mg  Mg14  1  0.00000000  0.74364100  0.28549000  1
  Mg  Mg15  1  0.00000000  0.25635900  0.28549000  1
  O  O16  1  0.00000000  0.00000000  0.71683100  1
  O  O17  1  0.00000000  0.00000000  0.28842500  1
  O  O18  1  0.00000000  0.50000000  0.23433800  1
  O  O19  1  0.50000000  0.71601000  0.72710500  1
  O  O20  1  0.50000000  0.28399000  0.72710500  1
  O  O21  1  0.50000000  0.76387500  0.22827300  1
  O  O22  1  0.50000000  0.23612500  0.22827300  1
  O  O23  1  0.50000000  0.00000000  0.93502500  1
  O  O24  1  0.50000000  0.50000000  0.01213700  1
  O  O25  1  0.50000000  0.00000000  0.50727800  1
  O  O26  1  0.50000000  0.50000000  0.45571200  1
  O  O27  1  0.00000000  0.70902600  0.94308300  1
  O  O28  1  0.00000000  0.29097400  0.94308300  1
  O  O29  1  0.00000000  0.76590700  0.49810700  1
  O  O30  1  0.00000000  0.23409300  0.49810700  1
