# generated using pymatgen
data_KMg14BO15
_symmetry_space_group_name_H-M   'P 1'
_cell_length_a   4.47281800
_cell_length_b   8.20411200
_cell_length_c   8.83933300
_cell_angle_alpha   90.00000000
_cell_angle_beta   90.00000000
_cell_angle_gamma   90.00000000
_symmetry_Int_Tables_number   1
_chemical_formula_structural   KMg14BO15
_chemical_formula_sum   'K1 Mg14 B1 O15'
_cell_volume   324.36374258
_cell_formula_units_Z   1
loop_
 _symmetry_equiv_pos_site_id
 _symmetry_equiv_pos_as_xyz
  1  'x, y, z'
loop_
 _atom_site_type_symbol
 _atom_site_label
 _atom_site_symmetry_multiplicity
 _atom_site_fract_x
 _atom_site_fract_y
 _atom_site_fract_z
 _atom_site_occupancy
  K  K0  1  0.00000000  0.00000000  0.00771800  1
  Mg  Mg1  1  0.00000000  0.00000000  0.50513700  1
  Mg  Mg2  1  0.00000000  0.50000000  0.49810700  1
  Mg  Mg3  1  0.50000000  0.73999200  0.99774000  1
  Mg  Mg4  1  0.50000000  0.26000800  0.99774000  1
  Mg  Mg5  1  0.50000000  0.74887100  0.50582000  1
  Mg  Mg6  1  0.50000000  0.25112900  0.50582000  1
  Mg  Mg7  1  0.50000000  0.00000000  0.75146600  1
  Mg  Mg8  1  0.50000000  0.50000000  0.75665700  1
  Mg  Mg9  1  0.50000000  0.00000000  0.25603400  1
  Mg  Mg10  1  0.50000000  0.50000000  0.23689300  1
  Mg  Mg11  1  0.00000000  0.75028600  0.74594100  1
  Mg  Mg12  1  0.00000000  0.24971400  0.74594100  1
  Mg  Mg13  1  0.00000000  0.74253500  0.26528600  1
  Mg  Mg14  1  0.00000000  0.25746500  0.26528600  1
  B  B15  1  0.00000000  0.50000000  0.93293500  1
  O  O16  1  0.00000000  0.00000000  0.73266400  1
  O  O17  1  0.00000000  0.00000000  0.27863400  1
  O  O18  1  0.00000000  0.50000000  0.27458800  1
  O  O19  1  0.50000000  0.74964100  0.75266000  1
  O  O20  1  0.50000000  0.25035900  0.75266000  1
  O  O21  1  0.50000000  0.74930700  0.24671400  1
  O  O22  1  0.50000000  0.25069300  0.24671400  1
  O  O23  1  0.50000000  0.00000000  0.99668100  1
  O  O24  1  0.50000000  0.50000000  0.99083600  1
  O  O25  1  0.50000000  0.00000000  0.50275500  1
  O  O26  1  0.50000000  0.50000000  0.51382700  1
  O  O27  1  0.00000000  0.66852500  0.98408400  1
  O  O28  1  0.00000000  0.33147500  0.98408400  1
  O  O29  1  0.00000000  0.74533600  0.50928900  1
  O  O30  1  0.00000000  0.25466400  0.50928900  1
