# generated using pymatgen
data_Mg14AlSnO16
_symmetry_space_group_name_H-M   'P 1'
_cell_length_a   4.34471200
_cell_length_b   8.63438700
_cell_length_c   8.79449800
_cell_angle_alpha   90.00000000
_cell_angle_beta   90.00000000
_cell_angle_gamma   90.00000000
_symmetry_Int_Tables_number   1
_chemical_formula_structural   Mg14AlSnO16
_chemical_formula_sum   'Mg14 Al1 Sn1 O16'
_cell_volume   329.91613673
_cell_formula_units_Z   1
loop_
 _symmetry_equiv_pos_site_id
 _symmetry_equiv_pos_as_xyz
  1  'x, y, z'
loop_
 _atom_site_type_symbol
 _atom_site_label
 _atom_site_symmetry_multiplicity
 _atom_site_fract_x
 _atom_site_fract_y
 _atom_site_fract_z
 _atom_site_occupancy
  Mg  Mg0  1  0.00000000  0.50000000  0.00000000  1
  Mg  Mg1  1  0.00000000  0.50000000  0.50000000  1
  Mg  Mg2  1  0.50000000  0.00000000  0.24356800  1
  Mg  Mg3  1  0.50000000  0.00000000  0.75643200  1
  Mg  Mg4  1  0.50000000  0.50000000  0.24904600  1
  Mg  Mg5  1  0.50000000  0.50000000  0.75095400  1
  Mg  Mg6  1  0.50000000  0.25151100  0.00000000  1
  Mg  Mg7  1  0.50000000  0.25881400  0.50000000  1
  Mg  Mg8  1  0.50000000  0.74848900  0.00000000  1
  Mg  Mg9  1  0.50000000  0.74118600  0.50000000  1
  Mg  Mg10  1  0.00000000  0.25357700  0.24766100  1
  Mg  Mg11  1  0.00000000  0.25357700  0.75233900  1
  Mg  Mg12  1  0.00000000  0.74642300  0.24766100  1
  Mg  Mg13  1  0.00000000  0.74642300  0.75233900  1
  Al  Al14  1  0.00000000  0.00000000  0.00000000  1
  Sn  Sn15  1  0.00000000  0.00000000  0.50000000  1
  O  O16  1  0.00000000  0.24335700  0.00000000  1
  O  O17  1  0.00000000  0.27327500  0.50000000  1
  O  O18  1  0.00000000  0.75664300  0.00000000  1
  O  O19  1  0.00000000  0.72672500  0.50000000  1
  O  O20  1  0.50000000  0.24993100  0.25029800  1
  O  O21  1  0.50000000  0.24993100  0.74970200  1
  O  O22  1  0.50000000  0.75006900  0.25029800  1
  O  O23  1  0.50000000  0.75006900  0.74970200  1
  O  O24  1  0.50000000  0.00000000  0.00000000  1
  O  O25  1  0.50000000  0.00000000  0.50000000  1
  O  O26  1  0.50000000  0.50000000  0.00000000  1
  O  O27  1  0.50000000  0.50000000  0.50000000  1
  O  O28  1  0.00000000  0.00000000  0.20272000  1
  O  O29  1  0.00000000  0.00000000  0.79728000  1
  O  O30  1  0.00000000  0.50000000  0.24282900  1
  O  O31  1  0.00000000  0.50000000  0.75717100  1
