# generated using pymatgen
data_SrGe(PO4)2
_symmetry_space_group_name_H-M   'P 1'
_cell_length_a   4.74764627
_cell_length_b   4.74764627
_cell_length_c   7.49772328
_cell_angle_alpha   86.73209818
_cell_angle_beta   86.73209818
_cell_angle_gamma   65.41342548
_symmetry_Int_Tables_number   1
_chemical_formula_structural   SrGe(PO4)2
_chemical_formula_sum   'Sr1 Ge1 P2 O8'
_cell_volume   153.32411627
_cell_formula_units_Z   1
loop_
 _symmetry_equiv_pos_site_id
 _symmetry_equiv_pos_as_xyz
  1  'x, y, z'
loop_
 _atom_site_type_symbol
 _atom_site_label
 _atom_site_symmetry_multiplicity
 _atom_site_fract_x
 _atom_site_fract_y
 _atom_site_fract_z
 _atom_site_occupancy
  Sr  Sr0  1  0.00000000  0.00000000  0.50000000  1
  Ge  Ge1  1  0.00000000  0.00000000  0.00000000  1
  P  P2  1  0.36525600  0.36525600  0.79386100  1
  P  P3  1  0.63474400  0.63474400  0.20613900  1
  O  O4  1  0.23045300  0.23045300  0.94999000  1
  O  O5  1  0.76954700  0.76954700  0.05001000  1
  O  O6  1  0.30796200  0.30796200  0.60487500  1
  O  O7  1  0.69203800  0.69203800  0.39512500  1
  O  O8  1  0.23058100  0.72648600  0.81379900  1
  O  O9  1  0.72648600  0.23058100  0.81379900  1
  O  O10  1  0.76941900  0.27351400  0.18620100  1
  O  O11  1  0.27351400  0.76941900  0.18620100  1
