# generated using pymatgen
data_CaYMg14O16
_symmetry_space_group_name_H-M   'P 1'
_cell_length_a   4.41531900
_cell_length_b   8.75487900
_cell_length_c   8.83351000
_cell_angle_alpha   90.00000000
_cell_angle_beta   90.00000000
_cell_angle_gamma   90.00000000
_symmetry_Int_Tables_number   1
_chemical_formula_structural   CaYMg14O16
_chemical_formula_sum   'Ca1 Y1 Mg14 O16'
_cell_volume   341.46448421
_cell_formula_units_Z   1
loop_
 _symmetry_equiv_pos_site_id
 _symmetry_equiv_pos_as_xyz
  1  'x, y, z'
loop_
 _atom_site_type_symbol
 _atom_site_label
 _atom_site_symmetry_multiplicity
 _atom_site_fract_x
 _atom_site_fract_y
 _atom_site_fract_z
 _atom_site_occupancy
  Ca  Ca0  1  0.00000000  0.00000000  0.00000000  1
  Y  Y1  1  0.00000000  0.00000000  0.50000000  1
  Mg  Mg2  1  0.00000000  0.50000000  0.00000000  1
  Mg  Mg3  1  0.00000000  0.50000000  0.50000000  1
  Mg  Mg4  1  0.50000000  0.00000000  0.24211900  1
  Mg  Mg5  1  0.50000000  0.00000000  0.75788100  1
  Mg  Mg6  1  0.50000000  0.50000000  0.24838100  1
  Mg  Mg7  1  0.50000000  0.50000000  0.75161900  1
  Mg  Mg8  1  0.50000000  0.25782000  0.00000000  1
  Mg  Mg9  1  0.50000000  0.26339000  0.50000000  1
  Mg  Mg10  1  0.50000000  0.74218000  0.00000000  1
  Mg  Mg11  1  0.50000000  0.73661000  0.50000000  1
  Mg  Mg12  1  0.00000000  0.26075000  0.24534700  1
  Mg  Mg13  1  0.00000000  0.26075000  0.75465300  1
  Mg  Mg14  1  0.00000000  0.73925000  0.24534700  1
  Mg  Mg15  1  0.00000000  0.73925000  0.75465300  1
  O  O16  1  0.00000000  0.26477200  0.00000000  1
  O  O17  1  0.00000000  0.26041000  0.50000000  1
  O  O18  1  0.00000000  0.73522800  0.00000000  1
  O  O19  1  0.00000000  0.73959000  0.50000000  1
  O  O20  1  0.50000000  0.24902100  0.25013700  1
  O  O21  1  0.50000000  0.24902100  0.74986300  1
  O  O22  1  0.50000000  0.75097900  0.25013700  1
  O  O23  1  0.50000000  0.75097900  0.74986300  1
  O  O24  1  0.50000000  0.00000000  0.00000000  1
  O  O25  1  0.50000000  0.00000000  0.50000000  1
  O  O26  1  0.50000000  0.50000000  0.00000000  1
  O  O27  1  0.50000000  0.50000000  0.50000000  1
  O  O28  1  0.00000000  0.00000000  0.25213100  1
  O  O29  1  0.00000000  0.00000000  0.74786900  1
  O  O30  1  0.00000000  0.50000000  0.25125800  1
  O  O31  1  0.00000000  0.50000000  0.74874200  1
