# generated using pymatgen
data_Mg14TiAlO16
_symmetry_space_group_name_H-M   'P 1'
_cell_length_a   4.27672800
_cell_length_b   8.55011100
_cell_length_c   8.57467000
_cell_angle_alpha   90.00000000
_cell_angle_beta   90.00000000
_cell_angle_gamma   90.00000000
_symmetry_Int_Tables_number   1
_chemical_formula_structural   Mg14TiAlO16
_chemical_formula_sum   'Mg14 Ti1 Al1 O16'
_cell_volume   313.54566298
_cell_formula_units_Z   1
loop_
 _symmetry_equiv_pos_site_id
 _symmetry_equiv_pos_as_xyz
  1  'x, y, z'
loop_
 _atom_site_type_symbol
 _atom_site_label
 _atom_site_symmetry_multiplicity
 _atom_site_fract_x
 _atom_site_fract_y
 _atom_site_fract_z
 _atom_site_occupancy
  Mg  Mg0  1  0.00000000  0.00000000  0.50000000  1
  Mg  Mg1  1  0.00000000  0.50000000  0.50000000  1
  Mg  Mg2  1  0.50000000  0.74924000  0.00000000  1
  Mg  Mg3  1  0.50000000  0.25076000  0.00000000  1
  Mg  Mg4  1  0.50000000  0.74925500  0.50000000  1
  Mg  Mg5  1  0.50000000  0.25074500  0.50000000  1
  Mg  Mg6  1  0.50000000  0.00000000  0.74964800  1
  Mg  Mg7  1  0.50000000  0.50000000  0.74857900  1
  Mg  Mg8  1  0.50000000  0.00000000  0.25035200  1
  Mg  Mg9  1  0.50000000  0.50000000  0.25142100  1
  Mg  Mg10  1  0.00000000  0.74794600  0.74926200  1
  Mg  Mg11  1  0.00000000  0.25205400  0.74926200  1
  Mg  Mg12  1  0.00000000  0.74794600  0.25073800  1
  Mg  Mg13  1  0.00000000  0.25205400  0.25073800  1
  Ti  Ti14  1  0.00000000  0.50000000  0.00000000  1
  Al  Al15  1  0.00000000  0.00000000  0.00000000  1
  O  O16  1  0.00000000  0.00000000  0.76578400  1
  O  O17  1  0.00000000  0.50000000  0.73985600  1
  O  O18  1  0.00000000  0.00000000  0.23421600  1
  O  O19  1  0.00000000  0.50000000  0.26014400  1
  O  O20  1  0.50000000  0.75090100  0.75057200  1
  O  O21  1  0.50000000  0.24909900  0.75057200  1
  O  O22  1  0.50000000  0.75090100  0.24942800  1
  O  O23  1  0.50000000  0.24909900  0.24942800  1
  O  O24  1  0.50000000  0.00000000  0.00000000  1
  O  O25  1  0.50000000  0.50000000  0.00000000  1
  O  O26  1  0.50000000  0.00000000  0.50000000  1
  O  O27  1  0.50000000  0.50000000  0.50000000  1
  O  O28  1  0.00000000  0.77739000  0.00000000  1
  O  O29  1  0.00000000  0.22261000  0.00000000  1
  O  O30  1  0.00000000  0.75507500  0.50000000  1
  O  O31  1  0.00000000  0.24492500  0.50000000  1
