# generated using pymatgen
data_Mg30TiCoO32
_symmetry_space_group_name_H-M   'P 1'
_cell_length_a   8.53604000
_cell_length_b   8.53604000
_cell_length_c   8.52299300
_cell_angle_alpha   90.00000000
_cell_angle_beta   90.00000000
_cell_angle_gamma   90.00000000
_symmetry_Int_Tables_number   1
_chemical_formula_structural   Mg30TiCoO32
_chemical_formula_sum   'Mg30 Ti1 Co1 O32'
_cell_volume   621.01918196
_cell_formula_units_Z   1
loop_
 _symmetry_equiv_pos_site_id
 _symmetry_equiv_pos_as_xyz
  1  'x, y, z'
loop_
 _atom_site_type_symbol
 _atom_site_label
 _atom_site_symmetry_multiplicity
 _atom_site_fract_x
 _atom_site_fract_y
 _atom_site_fract_z
 _atom_site_occupancy
  Mg  Mg0  1  0.00000000  0.50000000  0.00000000  1
  Mg  Mg1  1  0.00000000  0.50000000  0.50000000  1
  Mg  Mg2  1  0.50000000  0.00000000  0.00000000  1
  Mg  Mg3  1  0.50000000  0.00000000  0.50000000  1
  Mg  Mg4  1  0.50000000  0.50000000  0.00000000  1
  Mg  Mg5  1  0.50000000  0.50000000  0.50000000  1
  Mg  Mg6  1  0.00000000  0.25091200  0.24504200  1
  Mg  Mg7  1  0.00000000  0.25091200  0.75495800  1
  Mg  Mg8  1  0.00000000  0.74908800  0.24504200  1
  Mg  Mg9  1  0.00000000  0.74908800  0.75495800  1
  Mg  Mg10  1  0.50000000  0.25003500  0.24892500  1
  Mg  Mg11  1  0.50000000  0.25003500  0.75107500  1
  Mg  Mg12  1  0.50000000  0.74996500  0.24892500  1
  Mg  Mg13  1  0.50000000  0.74996500  0.75107500  1
  Mg  Mg14  1  0.25091200  0.00000000  0.24504200  1
  Mg  Mg15  1  0.25091200  0.00000000  0.75495800  1
  Mg  Mg16  1  0.25003500  0.50000000  0.24892500  1
  Mg  Mg17  1  0.25003500  0.50000000  0.75107500  1
  Mg  Mg18  1  0.74908800  0.00000000  0.24504200  1
  Mg  Mg19  1  0.74908800  0.00000000  0.75495800  1
  Mg  Mg20  1  0.74996500  0.50000000  0.24892500  1
  Mg  Mg21  1  0.74996500  0.50000000  0.75107500  1
  Mg  Mg22  1  0.24790500  0.24790500  0.00000000  1
  Mg  Mg23  1  0.25137000  0.25137000  0.50000000  1
  Mg  Mg24  1  0.24790500  0.75209500  0.00000000  1
  Mg  Mg25  1  0.25137000  0.74863000  0.50000000  1
  Mg  Mg26  1  0.75209500  0.24790500  0.00000000  1
  Mg  Mg27  1  0.74863000  0.25137000  0.50000000  1
  Mg  Mg28  1  0.75209500  0.75209500  0.00000000  1
  Mg  Mg29  1  0.74863000  0.74863000  0.50000000  1
  Ti  Ti30  1  0.00000000  0.00000000  0.50000000  1
  Co  Co31  1  0.00000000  0.00000000  0.00000000  1
  O  O32  1  0.26025800  0.00000000  0.00000000  1
  O  O33  1  0.24961700  0.00000000  0.50000000  1
  O  O34  1  0.25113600  0.50000000  0.00000000  1
  O  O35  1  0.24992300  0.50000000  0.50000000  1
  O  O36  1  0.73974200  0.00000000  0.00000000  1
  O  O37  1  0.75038300  0.00000000  0.50000000  1
  O  O38  1  0.74886400  0.50000000  0.00000000  1
  O  O39  1  0.75007700  0.50000000  0.50000000  1
  O  O40  1  0.24916800  0.24916800  0.25063100  1
  O  O41  1  0.24916800  0.24916800  0.74936900  1
  O  O42  1  0.24916800  0.75083200  0.25063100  1
  O  O43  1  0.24916800  0.75083200  0.74936900  1
  O  O44  1  0.75083200  0.24916800  0.25063100  1
  O  O45  1  0.75083200  0.24916800  0.74936900  1
  O  O46  1  0.75083200  0.75083200  0.25063100  1
  O  O47  1  0.75083200  0.75083200  0.74936900  1
  O  O48  1  0.00000000  0.00000000  0.26498300  1
  O  O49  1  0.00000000  0.00000000  0.73501700  1
  O  O50  1  0.00000000  0.50000000  0.25220900  1
  O  O51  1  0.00000000  0.50000000  0.74779100  1
  O  O52  1  0.50000000  0.00000000  0.25220900  1
  O  O53  1  0.50000000  0.00000000  0.74779100  1
  O  O54  1  0.50000000  0.50000000  0.25082600  1
  O  O55  1  0.50000000  0.50000000  0.74917400  1
  O  O56  1  0.00000000  0.26025800  0.00000000  1
  O  O57  1  0.00000000  0.24961700  0.50000000  1
  O  O58  1  0.00000000  0.73974200  0.00000000  1
  O  O59  1  0.00000000  0.75038300  0.50000000  1
  O  O60  1  0.50000000  0.25113600  0.00000000  1
  O  O61  1  0.50000000  0.24992300  0.50000000  1
  O  O62  1  0.50000000  0.74886400  0.00000000  1
  O  O63  1  0.50000000  0.75007700  0.50000000  1
