# generated using pymatgen
data_Mg14AlVO16
_symmetry_space_group_name_H-M   'P 1'
_cell_length_a   4.26287400
_cell_length_b   8.49450700
_cell_length_c   8.70181400
_cell_angle_alpha   90.00000000
_cell_angle_beta   90.00000000
_cell_angle_gamma   90.00000000
_symmetry_Int_Tables_number   1
_chemical_formula_structural   Mg14AlVO16
_chemical_formula_sum   'Mg14 Al1 V1 O16'
_cell_volume   315.10150017
_cell_formula_units_Z   1
loop_
 _symmetry_equiv_pos_site_id
 _symmetry_equiv_pos_as_xyz
  1  'x, y, z'
loop_
 _atom_site_type_symbol
 _atom_site_label
 _atom_site_symmetry_multiplicity
 _atom_site_fract_x
 _atom_site_fract_y
 _atom_site_fract_z
 _atom_site_occupancy
  Mg  Mg0  1  0.00000000  0.50000000  0.00000000  1
  Mg  Mg1  1  0.00000000  0.50000000  0.50000000  1
  Mg  Mg2  1  0.50000000  0.00000000  0.25033100  1
  Mg  Mg3  1  0.50000000  0.00000000  0.74966900  1
  Mg  Mg4  1  0.50000000  0.50000000  0.25098400  1
  Mg  Mg5  1  0.50000000  0.50000000  0.74901600  1
  Mg  Mg6  1  0.50000000  0.25037800  0.00000000  1
  Mg  Mg7  1  0.50000000  0.24973800  0.50000000  1
  Mg  Mg8  1  0.50000000  0.74962200  0.00000000  1
  Mg  Mg9  1  0.50000000  0.75026200  0.50000000  1
  Mg  Mg10  1  0.00000000  0.24905100  0.25114100  1
  Mg  Mg11  1  0.00000000  0.24905100  0.74885900  1
  Mg  Mg12  1  0.00000000  0.75094900  0.25114100  1
  Mg  Mg13  1  0.00000000  0.75094900  0.74885900  1
  Al  Al14  1  0.00000000  0.00000000  0.00000000  1
  V  V15  1  0.00000000  0.00000000  0.50000000  1
  O  O16  1  0.00000000  0.23965100  0.00000000  1
  O  O17  1  0.00000000  0.25769600  0.50000000  1
  O  O18  1  0.00000000  0.76034900  0.00000000  1
  O  O19  1  0.00000000  0.74230400  0.50000000  1
  O  O20  1  0.50000000  0.24947600  0.24902700  1
  O  O21  1  0.50000000  0.24947600  0.75097300  1
  O  O22  1  0.50000000  0.75052400  0.24902700  1
  O  O23  1  0.50000000  0.75052400  0.75097300  1
  O  O24  1  0.50000000  0.00000000  0.00000000  1
  O  O25  1  0.50000000  0.00000000  0.50000000  1
  O  O26  1  0.50000000  0.50000000  0.00000000  1
  O  O27  1  0.50000000  0.50000000  0.50000000  1
  O  O28  1  0.00000000  0.00000000  0.21100000  1
  O  O29  1  0.00000000  0.00000000  0.78900000  1
  O  O30  1  0.00000000  0.50000000  0.24582700  1
  O  O31  1  0.00000000  0.50000000  0.75417300  1
