data_image0
_chemical_formula_structural       Ca8O20U4
_chemical_formula_sum              "Ca8 O20 U4"
_cell_length_a       7.80098
_cell_length_b       5.38022
_cell_length_c       11.2972
_cell_angle_alpha    90
_cell_angle_beta     108.565
_cell_angle_gamma    90

_space_group_name_H-M_alt    "P 1"
_space_group_IT_number       1

loop_
  _space_group_symop_operation_xyz
  'x, y, z'

loop_
  _atom_site_type_symbol
  _atom_site_label
  _atom_site_symmetry_multiplicity
  _atom_site_fract_x
  _atom_site_fract_y
  _atom_site_fract_z
  _atom_site_occupancy
  Ca  Ca1       1.0  0.34300  0.99100  0.64000  1.0000
  Ca  Ca2       1.0  0.65700  0.49100  0.86000  1.0000
  Ca  Ca3       1.0  0.65700  0.00890  0.36000  1.0000
  Ca  Ca4       1.0  0.34300  0.50900  0.14000  1.0000
  Ca  Ca5       1.0  0.15600  0.07090  0.31600  1.0000
  Ca  Ca6       1.0  0.84400  0.57100  0.18400  1.0000
  Ca  Ca7       1.0  0.84400  0.92900  0.68400  1.0000
  Ca  Ca8       1.0  0.15600  0.42900  0.81600  1.0000
  O   O1        1.0  0.25000  0.19000  0.99800  1.0000
  O   O2        1.0  0.75000  0.69000  0.50200  1.0000
  O   O3        1.0  0.75000  0.81000  0.00237  1.0000
  O   O4        1.0  0.25000  0.31000  0.49800  1.0000
  O   O5        1.0  0.01500  0.27000  0.12900  1.0000
  O   O6        1.0  0.98500  0.77000  0.37100  1.0000
  O   O7        1.0  0.98500  0.73000  0.87100  1.0000
  O   O8        1.0  0.01500  0.23000  0.62900  1.0000
  O   O9        1.0  0.62100  0.30700  0.07200  1.0000
  O   O10       1.0  0.37900  0.80700  0.42800  1.0000
  O   O11       1.0  0.37900  0.69300  0.92800  1.0000
  O   O12       1.0  0.62100  0.19300  0.57200  1.0000
  O   O13       1.0  0.87600  0.28500  0.34900  1.0000
  O   O14       1.0  0.12400  0.78500  0.15100  1.0000
  O   O15       1.0  0.12400  0.71500  0.65100  1.0000
  O   O16       1.0  0.87600  0.21500  0.84900  1.0000
  O   O17       1.0  0.44000  0.31700  0.32200  1.0000
  O   O18       1.0  0.56000  0.81700  0.17800  1.0000
  O   O19       1.0  0.56000  0.68300  0.67800  1.0000
  O   O20       1.0  0.44000  0.18300  0.82200  1.0000
  U   U1        1.0  0.00000  0.00000  0.00000  1.0000
  U   U2        1.0  0.00000  0.50000  0.50000  1.0000
  U   U3        1.0  0.50000  0.00000  0.00000  1.0000
  U   U4        1.0  0.50000  0.50000  0.50000  1.0000
