# generated using pymatgen
data_Mg30CrCdO32
_symmetry_space_group_name_H-M   'P 1'
_cell_length_a   8.58744900
_cell_length_b   8.58744900
_cell_length_c   8.55436800
_cell_angle_alpha   90.00000000
_cell_angle_beta   90.00000000
_cell_angle_gamma   90.00000000
_symmetry_Int_Tables_number   1
_chemical_formula_structural   Mg30CrCdO32
_chemical_formula_sum   'Mg30 Cr1 Cd1 O32'
_cell_volume   630.83571182
_cell_formula_units_Z   1
loop_
 _symmetry_equiv_pos_site_id
 _symmetry_equiv_pos_as_xyz
  1  'x, y, z'
loop_
 _atom_site_type_symbol
 _atom_site_label
 _atom_site_symmetry_multiplicity
 _atom_site_fract_x
 _atom_site_fract_y
 _atom_site_fract_z
 _atom_site_occupancy
  Mg  Mg0  1  0.50000000  0.00000000  0.00000000  1
  Mg  Mg1  1  0.50000000  0.00000000  0.50000000  1
  Mg  Mg2  1  0.00000000  0.50000000  0.00000000  1
  Mg  Mg3  1  0.00000000  0.50000000  0.50000000  1
  Mg  Mg4  1  0.50000000  0.50000000  0.00000000  1
  Mg  Mg5  1  0.50000000  0.50000000  0.50000000  1
  Mg  Mg6  1  0.25397600  0.00000000  0.24751800  1
  Mg  Mg7  1  0.25397600  0.00000000  0.75248200  1
  Mg  Mg8  1  0.74602400  0.00000000  0.24751800  1
  Mg  Mg9  1  0.74602400  0.00000000  0.75248200  1
  Mg  Mg10  1  0.25033400  0.50000000  0.24956700  1
  Mg  Mg11  1  0.25033400  0.50000000  0.75043300  1
  Mg  Mg12  1  0.74966600  0.50000000  0.24956700  1
  Mg  Mg13  1  0.74966600  0.50000000  0.75043300  1
  Mg  Mg14  1  0.00000000  0.25397600  0.24751800  1
  Mg  Mg15  1  0.00000000  0.25397600  0.75248200  1
  Mg  Mg16  1  0.50000000  0.25033400  0.24956700  1
  Mg  Mg17  1  0.50000000  0.25033400  0.75043300  1
  Mg  Mg18  1  0.00000000  0.74602400  0.24751800  1
  Mg  Mg19  1  0.00000000  0.74602400  0.75248200  1
  Mg  Mg20  1  0.50000000  0.74966600  0.24956700  1
  Mg  Mg21  1  0.50000000  0.74966600  0.75043300  1
  Mg  Mg22  1  0.25061400  0.25061400  0.00000000  1
  Mg  Mg23  1  0.25235200  0.25235200  0.50000000  1
  Mg  Mg24  1  0.74938600  0.25061400  0.00000000  1
  Mg  Mg25  1  0.74764800  0.25235200  0.50000000  1
  Mg  Mg26  1  0.25061400  0.74938600  0.00000000  1
  Mg  Mg27  1  0.25235200  0.74764800  0.50000000  1
  Mg  Mg28  1  0.74938600  0.74938600  0.00000000  1
  Mg  Mg29  1  0.74764800  0.74764800  0.50000000  1
  Cr  Cr30  1  0.00000000  0.00000000  0.00000000  1
  Cd  Cd31  1  0.00000000  0.00000000  0.50000000  1
  O  O32  1  0.00000000  0.26035900  0.00000000  1
  O  O33  1  0.00000000  0.26326400  0.50000000  1
  O  O34  1  0.50000000  0.25162700  0.00000000  1
  O  O35  1  0.50000000  0.25200200  0.50000000  1
  O  O36  1  0.00000000  0.73964100  0.00000000  1
  O  O37  1  0.00000000  0.73673600  0.50000000  1
  O  O38  1  0.50000000  0.74837300  0.00000000  1
  O  O39  1  0.50000000  0.74799800  0.50000000  1
  O  O40  1  0.24932400  0.24932400  0.25020800  1
  O  O41  1  0.24932400  0.24932400  0.74979200  1
  O  O42  1  0.75067600  0.24932400  0.25020800  1
  O  O43  1  0.75067600  0.24932400  0.74979200  1
  O  O44  1  0.24932400  0.75067600  0.25020800  1
  O  O45  1  0.24932400  0.75067600  0.74979200  1
  O  O46  1  0.75067600  0.75067600  0.25020800  1
  O  O47  1  0.75067600  0.75067600  0.74979200  1
  O  O48  1  0.00000000  0.00000000  0.23699500  1
  O  O49  1  0.00000000  0.00000000  0.76300500  1
  O  O50  1  0.50000000  0.00000000  0.24957900  1
  O  O51  1  0.50000000  0.00000000  0.75042100  1
  O  O52  1  0.00000000  0.50000000  0.24957900  1
  O  O53  1  0.00000000  0.50000000  0.75042100  1
  O  O54  1  0.50000000  0.50000000  0.24984000  1
  O  O55  1  0.50000000  0.50000000  0.75016000  1
  O  O56  1  0.26035900  0.00000000  0.00000000  1
  O  O57  1  0.26326400  0.00000000  0.50000000  1
  O  O58  1  0.73964100  0.00000000  0.00000000  1
  O  O59  1  0.73673600  0.00000000  0.50000000  1
  O  O60  1  0.25162700  0.50000000  0.00000000  1
  O  O61  1  0.25200200  0.50000000  0.50000000  1
  O  O62  1  0.74837300  0.50000000  0.00000000  1
  O  O63  1  0.74799800  0.50000000  0.50000000  1
