# generated using pymatgen
data_NiP
_symmetry_space_group_name_H-M   'P 1'
_cell_length_a   5.87888112
_cell_length_b   5.87888112
_cell_length_c   4.96948800
_cell_angle_alpha   90.00000000
_cell_angle_beta   90.00000000
_cell_angle_gamma   119.60837759
_symmetry_Int_Tables_number   1
_chemical_formula_structural   NiP
_chemical_formula_sum   'Ni6 P6'
_cell_volume   149.32481213
_cell_formula_units_Z   6
loop_
 _symmetry_equiv_pos_site_id
 _symmetry_equiv_pos_as_xyz
  1  'x, y, z'
loop_
 _atom_site_type_symbol
 _atom_site_label
 _atom_site_symmetry_multiplicity
 _atom_site_fract_x
 _atom_site_fract_y
 _atom_site_fract_z
 _atom_site_occupancy
  Ni  Ni0  1  0.59049900  0.29726500  0.88548200  1
  Ni  Ni1  1  0.29726500  0.59049900  0.88548200  1
  Ni  Ni2  1  0.40950100  0.70273500  0.38548200  1
  Ni  Ni3  1  0.70273500  0.40950100  0.38548200  1
  Ni  Ni4  1  0.94625100  0.94625100  0.35733300  1
  Ni  Ni5  1  0.05374900  0.05374900  0.85733300  1
  P  P6  1  0.34684700  0.02527200  0.55094100  1
  P  P7  1  0.02527200  0.34684700  0.55094100  1
  P  P8  1  0.65315300  0.97472800  0.05094100  1
  P  P9  1  0.97472800  0.65315300  0.05094100  1
  P  P10  1  0.68830600  0.68830600  0.69852100  1
  P  P11  1  0.31169400  0.31169400  0.19852100  1
