# generated using pymatgen
data_CaMg2
_symmetry_space_group_name_H-M   'P 1'
_cell_length_a   3.44507434
_cell_length_b   3.44507434
_cell_length_c   16.88729900
_cell_angle_alpha   90.00000000
_cell_angle_beta   90.00000000
_cell_angle_gamma   120.00000662
_symmetry_Int_Tables_number   1
_chemical_formula_structural   CaMg2
_chemical_formula_sum   'Ca2 Mg4'
_cell_volume   173.57532715
_cell_formula_units_Z   2
loop_
 _symmetry_equiv_pos_site_id
 _symmetry_equiv_pos_as_xyz
  1  'x, y, z'
loop_
 _atom_site_type_symbol
 _atom_site_label
 _atom_site_symmetry_multiplicity
 _atom_site_fract_x
 _atom_site_fract_y
 _atom_site_fract_z
 _atom_site_occupancy
  Ca  Ca0  1  0.66666700  0.33333300  0.09556700  1
  Ca  Ca1  1  0.33333300  0.66666700  0.90443300  1
  Mg  Mg2  1  0.33333300  0.66666700  0.26598700  1
  Mg  Mg3  1  0.66666700  0.33333300  0.42201400  1
  Mg  Mg4  1  0.33333300  0.66666700  0.57798600  1
  Mg  Mg5  1  0.66666700  0.33333300  0.73401300  1
