data_image0
_chemical_formula_structural       Ca22N16
_chemical_formula_sum              "Ca22 N16"
_cell_length_a       13.7878
_cell_length_b       13.7878
_cell_length_c       3.58747
_cell_angle_alpha    90
_cell_angle_beta     90
_cell_angle_gamma    90

_space_group_name_H-M_alt    "P 1"
_space_group_IT_number       1

loop_
  _space_group_symop_operation_xyz
  'x, y, z'

loop_
  _atom_site_type_symbol
  _atom_site_label
  _atom_site_symmetry_multiplicity
  _atom_site_fract_x
  _atom_site_fract_y
  _atom_site_fract_z
  _atom_site_occupancy
  Ca  Ca1       1.0  0.00000  0.00000  0.00000  1.0000
  Ca  Ca2       1.0  0.50000  0.50000  0.50000  1.0000
  Ca  Ca3       1.0  0.37400  0.12300  0.50000  1.0000
  Ca  Ca4       1.0  0.62600  0.87700  0.50000  1.0000
  Ca  Ca5       1.0  0.87400  0.37700  0.00000  1.0000
  Ca  Ca6       1.0  0.12600  0.62300  0.00000  1.0000
  Ca  Ca7       1.0  0.87700  0.62600  0.50000  1.0000
  Ca  Ca8       1.0  0.12300  0.37400  0.50000  1.0000
  Ca  Ca9       1.0  0.62300  0.12600  0.00000  1.0000
  Ca  Ca10      1.0  0.37700  0.87400  0.00000  1.0000
  Ca  Ca11      1.0  0.21100  0.96800  0.50000  1.0000
  Ca  Ca12      1.0  0.78900  0.03250  0.50000  1.0000
  Ca  Ca13      1.0  0.71100  0.53200  0.00000  1.0000
  Ca  Ca14      1.0  0.28900  0.46800  0.00000  1.0000
  Ca  Ca15      1.0  0.03250  0.78900  0.50000  1.0000
  Ca  Ca16      1.0  0.96800  0.21100  0.50000  1.0000
  Ca  Ca17      1.0  0.46800  0.28900  0.00000  1.0000
  Ca  Ca18      1.0  0.53200  0.71100  0.00000  1.0000
  Ca  Ca19      1.0  0.17000  0.17000  0.00000  1.0000
  Ca  Ca20      1.0  0.83000  0.83000  0.00000  1.0000
  Ca  Ca21      1.0  0.67000  0.33000  0.50000  1.0000
  Ca  Ca22      1.0  0.33000  0.67000  0.50000  1.0000
  N   N1        1.0  0.30600  0.03070  0.00000  1.0000
  N   N2        1.0  0.69400  0.96900  0.00000  1.0000
  N   N3        1.0  0.80600  0.46900  0.50000  1.0000
  N   N4        1.0  0.19400  0.53100  0.50000  1.0000
  N   N5        1.0  0.96900  0.69400  0.00000  1.0000
  N   N6        1.0  0.03070  0.30600  0.00000  1.0000
  N   N7        1.0  0.53100  0.19400  0.50000  1.0000
  N   N8        1.0  0.46900  0.80600  0.50000  1.0000
  N   N9        1.0  0.08540  0.08540  0.50000  1.0000
  N   N10       1.0  0.91500  0.91500  0.50000  1.0000
  N   N11       1.0  0.58500  0.41500  0.00000  1.0000
  N   N12       1.0  0.41500  0.58500  0.00000  1.0000
  N   N13       1.0  0.29300  0.29300  0.00000  1.0000
  N   N14       1.0  0.70700  0.70700  0.00000  1.0000
  N   N15       1.0  0.79300  0.20700  0.50000  1.0000
  N   N16       1.0  0.20700  0.79300  0.50000  1.0000
