# generated using pymatgen
data_CeMg
_symmetry_space_group_name_H-M   'P 1'
_cell_length_a   5.84168275
_cell_length_b   5.84168275
_cell_length_c   5.95061315
_cell_angle_alpha   68.25308233
_cell_angle_beta   68.25308233
_cell_angle_gamma   33.81271139
_symmetry_Int_Tables_number   1
_chemical_formula_structural   CeMg
_chemical_formula_sum   'Ce2 Mg2'
_cell_volume   104.18554569
_cell_formula_units_Z   2
loop_
 _symmetry_equiv_pos_site_id
 _symmetry_equiv_pos_as_xyz
  1  'x, y, z'
loop_
 _atom_site_type_symbol
 _atom_site_label
 _atom_site_symmetry_multiplicity
 _atom_site_fract_x
 _atom_site_fract_y
 _atom_site_fract_z
 _atom_site_occupancy
  Ce  Ce0  1  0.14344100  0.14344100  0.55404800  1
  Ce  Ce1  1  0.85655900  0.85655900  0.44595200  1
  Mg  Mg2  1  0.37275600  0.37275600  0.93980100  1
  Mg  Mg3  1  0.62724400  0.62724400  0.06019900  1
