# generated using pymatgen
data_NaMg30BO31
_symmetry_space_group_name_H-M   'P 1'
_cell_length_a   8.43320400
_cell_length_b   8.55545500
_cell_length_c   8.66678200
_cell_angle_alpha   90.00000000
_cell_angle_beta   90.00000000
_cell_angle_gamma   90.00000000
_symmetry_Int_Tables_number   1
_chemical_formula_structural   NaMg30BO31
_chemical_formula_sum   'Na1 Mg30 B1 O31'
_cell_volume   625.30743146
_cell_formula_units_Z   1
loop_
 _symmetry_equiv_pos_site_id
 _symmetry_equiv_pos_as_xyz
  1  'x, y, z'
loop_
 _atom_site_type_symbol
 _atom_site_label
 _atom_site_symmetry_multiplicity
 _atom_site_fract_x
 _atom_site_fract_y
 _atom_site_fract_z
 _atom_site_occupancy
  Na  Na0  1  0.00000000  0.99093300  0.00000000  1
  Mg  Mg1  1  0.00000000  0.99989600  0.50000000  1
  Mg  Mg2  1  0.50000000  0.99741400  0.50000000  1
  Mg  Mg3  1  0.00000000  0.50074700  0.00000000  1
  Mg  Mg4  1  0.50000000  0.49450200  0.00000000  1
  Mg  Mg5  1  0.00000000  0.49985200  0.50000000  1
  Mg  Mg6  1  0.50000000  0.50148900  0.50000000  1
  Mg  Mg7  1  0.25633500  0.99979700  0.25660600  1
  Mg  Mg8  1  0.74366500  0.99979700  0.25660600  1
  Mg  Mg9  1  0.25633500  0.99979700  0.74339400  1
  Mg  Mg10  1  0.74366500  0.99979700  0.74339400  1
  Mg  Mg11  1  0.24990600  0.49958300  0.24971800  1
  Mg  Mg12  1  0.75009400  0.49958300  0.24971800  1
  Mg  Mg13  1  0.24990600  0.49958300  0.75028200  1
  Mg  Mg14  1  0.75009400  0.49958300  0.75028200  1
  Mg  Mg15  1  0.26541700  0.74618900  0.00000000  1
  Mg  Mg16  1  0.73458300  0.74618900  0.00000000  1
  Mg  Mg17  1  0.25123000  0.74929100  0.50000000  1
  Mg  Mg18  1  0.74877000  0.74929100  0.50000000  1
  Mg  Mg19  1  0.24447500  0.25237200  0.00000000  1
  Mg  Mg20  1  0.75552500  0.25237200  0.00000000  1
  Mg  Mg21  1  0.24784500  0.25012300  0.50000000  1
  Mg  Mg22  1  0.75215500  0.25012300  0.50000000  1
  Mg  Mg23  1  0.00000000  0.75246500  0.25231200  1
  Mg  Mg24  1  0.50000000  0.75383900  0.24425100  1
  Mg  Mg25  1  0.00000000  0.75246500  0.74768800  1
  Mg  Mg26  1  0.50000000  0.75383900  0.75574900  1
  Mg  Mg27  1  0.00000000  0.24668500  0.24915400  1
  Mg  Mg28  1  0.50000000  0.24794000  0.26178700  1
  Mg  Mg29  1  0.00000000  0.24668500  0.75084600  1
  Mg  Mg30  1  0.50000000  0.24794000  0.73821300  1
  B  B31  1  0.50000000  0.06289300  0.00000000  1
  O  O32  1  0.50000000  0.72438900  0.00000000  1
  O  O33  1  0.00000000  0.74762400  0.50000000  1
  O  O34  1  0.50000000  0.74605000  0.50000000  1
  O  O35  1  0.00000000  0.25452900  0.00000000  1
  O  O36  1  0.50000000  0.23448600  0.00000000  1
  O  O37  1  0.00000000  0.25210700  0.50000000  1
  O  O38  1  0.50000000  0.25394700  0.50000000  1
  O  O39  1  0.25163200  0.75171200  0.24802800  1
  O  O40  1  0.74836800  0.75171200  0.24802800  1
  O  O41  1  0.25163200  0.75171200  0.75197200  1
  O  O42  1  0.74836800  0.75171200  0.75197200  1
  O  O43  1  0.25020900  0.24765600  0.24747200  1
  O  O44  1  0.74979100  0.24765600  0.24747200  1
  O  O45  1  0.25020900  0.24765600  0.75252800  1
  O  O46  1  0.74979100  0.24765600  0.75252800  1
  O  O47  1  0.33755500  0.00810200  0.00000000  1
  O  O48  1  0.66244500  0.00810200  0.00000000  1
  O  O49  1  0.24855300  0.99993200  0.50000000  1
  O  O50  1  0.75144700  0.99993200  0.50000000  1
  O  O51  1  0.25146600  0.49363900  0.00000000  1
  O  O52  1  0.74853400  0.49363900  0.00000000  1
  O  O53  1  0.24981400  0.49957000  0.50000000  1
  O  O54  1  0.75018600  0.49957000  0.50000000  1
  O  O55  1  0.00000000  0.00005600  0.25849700  1
  O  O56  1  0.50000000  0.00337800  0.26894800  1
  O  O57  1  0.00000000  0.00005600  0.74150300  1
  O  O58  1  0.50000000  0.00337800  0.73105200  1
  O  O59  1  0.00000000  0.49993500  0.25063100  1
  O  O60  1  0.50000000  0.49355500  0.24954500  1
  O  O61  1  0.00000000  0.49993500  0.74936900  1
  O  O62  1  0.50000000  0.49355500  0.75045500  1
