# generated using pymatgen
data_Ca2Mg
_symmetry_space_group_name_H-M   'P 1'
_cell_length_a   9.63275602
_cell_length_b   9.63275602
_cell_length_c   5.91677800
_cell_angle_alpha   90.00000000
_cell_angle_beta   90.00000000
_cell_angle_gamma   157.62036227
_symmetry_Int_Tables_number   1
_chemical_formula_structural   Ca2Mg
_chemical_formula_sum   'Ca4 Mg2'
_cell_volume   209.03399994
_cell_formula_units_Z   2
loop_
 _symmetry_equiv_pos_site_id
 _symmetry_equiv_pos_as_xyz
  1  'x, y, z'
loop_
 _atom_site_type_symbol
 _atom_site_label
 _atom_site_symmetry_multiplicity
 _atom_site_fract_x
 _atom_site_fract_y
 _atom_site_fract_z
 _atom_site_occupancy
  Ca  Ca0  1  0.09243800  0.90756200  0.25000000  1
  Ca  Ca1  1  0.78625900  0.21374100  0.25000000  1
  Ca  Ca2  1  0.21374100  0.78625900  0.75000000  1
  Ca  Ca3  1  0.90756200  0.09243800  0.75000000  1
  Mg  Mg4  1  0.44176800  0.55823200  0.25000000  1
  Mg  Mg5  1  0.55823200  0.44176800  0.75000000  1
