# generated using pymatgen
data_Ce2Mg
_symmetry_space_group_name_H-M   'P 1'
_cell_length_a   6.02698255
_cell_length_b   6.02698255
_cell_length_c   5.24150300
_cell_angle_alpha   90.00000000
_cell_angle_beta   90.00000000
_cell_angle_gamma   126.07569378
_symmetry_Int_Tables_number   1
_chemical_formula_structural   Ce2Mg
_chemical_formula_sum   'Ce4 Mg2'
_cell_volume   153.88486884
_cell_formula_units_Z   2
loop_
 _symmetry_equiv_pos_site_id
 _symmetry_equiv_pos_as_xyz
  1  'x, y, z'
loop_
 _atom_site_type_symbol
 _atom_site_label
 _atom_site_symmetry_multiplicity
 _atom_site_fract_x
 _atom_site_fract_y
 _atom_site_fract_z
 _atom_site_occupancy
  Ce  Ce0  1  0.96372600  0.33707200  0.75000000  1
  Ce  Ce1  1  0.33707200  0.96372600  0.75000000  1
  Ce  Ce2  1  0.66292800  0.03627400  0.25000000  1
  Ce  Ce3  1  0.03627400  0.66292800  0.25000000  1
  Mg  Mg4  1  0.66114500  0.66114500  0.75000000  1
  Mg  Mg5  1  0.33885500  0.33885500  0.25000000  1
