# generated using pymatgen
data_MgCd2
_symmetry_space_group_name_H-M   'P 1'
_cell_length_a   6.11866085
_cell_length_b   6.11866085
_cell_length_c   7.43515281
_cell_angle_alpha   72.69251950
_cell_angle_beta   72.69251950
_cell_angle_gamma   30.30274917
_symmetry_Int_Tables_number   1
_chemical_formula_structural   MgCd2
_chemical_formula_sum   'Mg2 Cd4'
_cell_volume   133.61297499
_cell_formula_units_Z   2
loop_
 _symmetry_equiv_pos_site_id
 _symmetry_equiv_pos_as_xyz
  1  'x, y, z'
loop_
 _atom_site_type_symbol
 _atom_site_label
 _atom_site_symmetry_multiplicity
 _atom_site_fract_x
 _atom_site_fract_y
 _atom_site_fract_z
 _atom_site_occupancy
  Mg  Mg0  1  0.80724900  0.80724900  0.63935300  1
  Mg  Mg1  1  0.19275100  0.19275100  0.36064700  1
  Cd  Cd2  1  0.13964000  0.13964000  0.97477500  1
  Cd  Cd3  1  0.53242100  0.53242100  0.68944800  1
  Cd  Cd4  1  0.46757900  0.46757900  0.31055200  1
  Cd  Cd5  1  0.86036000  0.86036000  0.02522500  1
