# generated using pymatgen
data_RbNaMg30O31
_symmetry_space_group_name_H-M   'P 1'
_cell_length_a   8.48097700
_cell_length_b   8.67500800
_cell_length_c   8.68983400
_cell_angle_alpha   90.00000000
_cell_angle_beta   90.00000000
_cell_angle_gamma   90.00000000
_symmetry_Int_Tables_number   1
_chemical_formula_structural   RbNaMg30O31
_chemical_formula_sum   'Rb1 Na1 Mg30 O31'
_cell_volume   639.33318843
_cell_formula_units_Z   1
loop_
 _symmetry_equiv_pos_site_id
 _symmetry_equiv_pos_as_xyz
  1  'x, y, z'
loop_
 _atom_site_type_symbol
 _atom_site_label
 _atom_site_symmetry_multiplicity
 _atom_site_fract_x
 _atom_site_fract_y
 _atom_site_fract_z
 _atom_site_occupancy
  Rb  Rb0  1  0.10088700  0.00000000  0.50000000  1
  Na  Na1  1  0.99277700  0.00000000  0.00000000  1
  Mg  Mg2  1  0.99413200  0.50000000  0.00000000  1
  Mg  Mg3  1  0.99008300  0.50000000  0.50000000  1
  Mg  Mg4  1  0.50114100  0.00000000  0.00000000  1
  Mg  Mg5  1  0.52016900  0.00000000  0.50000000  1
  Mg  Mg6  1  0.50058500  0.50000000  0.00000000  1
  Mg  Mg7  1  0.50458800  0.50000000  0.50000000  1
  Mg  Mg8  1  0.99652900  0.25005100  0.24615700  1
  Mg  Mg9  1  0.99652900  0.25005100  0.75384300  1
  Mg  Mg10  1  0.99652900  0.74994900  0.24615700  1
  Mg  Mg11  1  0.99652900  0.74994900  0.75384300  1
  Mg  Mg12  1  0.49831100  0.24740800  0.25170700  1
  Mg  Mg13  1  0.49831100  0.24740800  0.74829300  1
  Mg  Mg14  1  0.49831100  0.75259200  0.25170700  1
  Mg  Mg15  1  0.49831100  0.75259200  0.74829300  1
  Mg  Mg16  1  0.24457000  0.00000000  0.21793600  1
  Mg  Mg17  1  0.24457000  0.00000000  0.78206400  1
  Mg  Mg18  1  0.24715100  0.50000000  0.24502800  1
  Mg  Mg19  1  0.24715100  0.50000000  0.75497200  1
  Mg  Mg20  1  0.75916900  0.00000000  0.25162900  1
  Mg  Mg21  1  0.75916900  0.00000000  0.74837100  1
  Mg  Mg22  1  0.74777200  0.50000000  0.24913600  1
  Mg  Mg23  1  0.74777200  0.50000000  0.75086400  1
  Mg  Mg24  1  0.24651500  0.25448900  0.00000000  1
  Mg  Mg25  1  0.24873500  0.28052100  0.50000000  1
  Mg  Mg26  1  0.24651500  0.74551100  0.00000000  1
  Mg  Mg27  1  0.24873500  0.71947900  0.50000000  1
  Mg  Mg28  1  0.74885000  0.24727400  0.00000000  1
  Mg  Mg29  1  0.75834400  0.24417600  0.50000000  1
  Mg  Mg30  1  0.74885000  0.75272600  0.00000000  1
  Mg  Mg31  1  0.75834400  0.75582400  0.50000000  1
  O  O32  1  0.26533000  0.00000000  0.00000000  1
  O  O33  1  0.25257500  0.50000000  0.00000000  1
  O  O34  1  0.25687300  0.50000000  0.50000000  1
  O  O35  1  0.73185500  0.00000000  0.00000000  1
  O  O36  1  0.74933300  0.00000000  0.50000000  1
  O  O37  1  0.74398000  0.50000000  0.00000000  1
  O  O38  1  0.74352800  0.50000000  0.50000000  1
  O  O39  1  0.24731000  0.24540900  0.25578300  1
  O  O40  1  0.24731000  0.24540900  0.74421700  1
  O  O41  1  0.24731000  0.75459100  0.25578300  1
  O  O42  1  0.24731000  0.75459100  0.74421700  1
  O  O43  1  0.74693400  0.24902300  0.25122300  1
  O  O44  1  0.74693400  0.24902300  0.74877700  1
  O  O45  1  0.74693400  0.75097700  0.25122300  1
  O  O46  1  0.74693400  0.75097700  0.74877700  1
  O  O47  1  0.00042100  0.00000000  0.24221900  1
  O  O48  1  0.00042100  0.00000000  0.75778100  1
  O  O49  1  0.99920800  0.50000000  0.24877900  1
  O  O50  1  0.99920800  0.50000000  0.75122100  1
  O  O51  1  0.48767900  0.00000000  0.26115100  1
  O  O52  1  0.48767900  0.00000000  0.73884900  1
  O  O53  1  0.49619500  0.50000000  0.25192600  1
  O  O54  1  0.49619500  0.50000000  0.74807400  1
  O  O55  1  0.00007400  0.26590900  0.00000000  1
  O  O56  1  0.00186400  0.27174800  0.50000000  1
  O  O57  1  0.00007400  0.73409100  0.00000000  1
  O  O58  1  0.00186400  0.72825200  0.50000000  1
  O  O59  1  0.49555500  0.25145100  0.00000000  1
  O  O60  1  0.49081000  0.24340600  0.50000000  1
  O  O61  1  0.49555500  0.74854900  0.00000000  1
  O  O62  1  0.49081000  0.75659400  0.50000000  1
