# generated using pymatgen
data_Ce3Mg
_symmetry_space_group_name_H-M   'P 1'
_cell_length_a   6.90287156
_cell_length_b   6.90287156
_cell_length_c   5.35980200
_cell_angle_alpha   90.00000000
_cell_angle_beta   90.00000000
_cell_angle_gamma   119.99999576
_symmetry_Int_Tables_number   1
_chemical_formula_structural   Ce3Mg
_chemical_formula_sum   'Ce6 Mg2'
_cell_volume   221.17650019
_cell_formula_units_Z   2
loop_
 _symmetry_equiv_pos_site_id
 _symmetry_equiv_pos_as_xyz
  1  'x, y, z'
loop_
 _atom_site_type_symbol
 _atom_site_label
 _atom_site_symmetry_multiplicity
 _atom_site_fract_x
 _atom_site_fract_y
 _atom_site_fract_z
 _atom_site_occupancy
  Ce  Ce0  1  0.66462100  0.83231000  0.75000000  1
  Ce  Ce1  1  0.16769000  0.33537900  0.75000000  1
  Ce  Ce2  1  0.16769000  0.83231000  0.75000000  1
  Ce  Ce3  1  0.83231000  0.66462100  0.25000000  1
  Ce  Ce4  1  0.83231000  0.16769000  0.25000000  1
  Ce  Ce5  1  0.33537900  0.16769000  0.25000000  1
  Mg  Mg6  1  0.66666700  0.33333300  0.75000000  1
  Mg  Mg7  1  0.33333300  0.66666700  0.25000000  1
