# generated using pymatgen
data_RbMg30BO31
_symmetry_space_group_name_H-M   'P 1'
_cell_length_a   8.41484700
_cell_length_b   8.59504400
_cell_length_c   8.84210400
_cell_angle_alpha   90.00000000
_cell_angle_beta   90.00000000
_cell_angle_gamma   90.00000000
_symmetry_Int_Tables_number   1
_chemical_formula_structural   RbMg30BO31
_chemical_formula_sum   'Rb1 Mg30 B1 O31'
_cell_volume   639.51383899
_cell_formula_units_Z   1
loop_
 _symmetry_equiv_pos_site_id
 _symmetry_equiv_pos_as_xyz
  1  'x, y, z'
loop_
 _atom_site_type_symbol
 _atom_site_label
 _atom_site_symmetry_multiplicity
 _atom_site_fract_x
 _atom_site_fract_y
 _atom_site_fract_z
 _atom_site_occupancy
  Rb  Rb0  1  0.00000000  0.98045100  0.00000000  1
  Mg  Mg1  1  0.00000000  0.00142800  0.50000000  1
  Mg  Mg2  1  0.50000000  0.99665800  0.50000000  1
  Mg  Mg3  1  0.00000000  0.50863200  0.00000000  1
  Mg  Mg4  1  0.50000000  0.49236800  0.00000000  1
  Mg  Mg5  1  0.00000000  0.49794800  0.50000000  1
  Mg  Mg6  1  0.50000000  0.50154600  0.50000000  1
  Mg  Mg7  1  0.25751600  0.00042000  0.26447800  1
  Mg  Mg8  1  0.74248400  0.00042000  0.26447800  1
  Mg  Mg9  1  0.25751600  0.00042000  0.73552200  1
  Mg  Mg10  1  0.74248400  0.00042000  0.73552200  1
  Mg  Mg11  1  0.25050000  0.49873900  0.25023100  1
  Mg  Mg12  1  0.74950000  0.49873900  0.25023100  1
  Mg  Mg13  1  0.25050000  0.49873900  0.74976900  1
  Mg  Mg14  1  0.74950000  0.49873900  0.74976900  1
  Mg  Mg15  1  0.26778700  0.73751100  0.00000000  1
  Mg  Mg16  1  0.73221300  0.73751100  0.00000000  1
  Mg  Mg17  1  0.25316000  0.74793500  0.50000000  1
  Mg  Mg18  1  0.74684000  0.74793500  0.50000000  1
  Mg  Mg19  1  0.24506400  0.25607800  0.00000000  1
  Mg  Mg20  1  0.75493600  0.25607800  0.00000000  1
  Mg  Mg21  1  0.24833400  0.25145200  0.50000000  1
  Mg  Mg22  1  0.75166600  0.25145200  0.50000000  1
  Mg  Mg23  1  0.00000000  0.74605100  0.26316900  1
  Mg  Mg24  1  0.50000000  0.75473500  0.24369600  1
  Mg  Mg25  1  0.00000000  0.74605100  0.73683100  1
  Mg  Mg26  1  0.50000000  0.75473500  0.75630400  1
  Mg  Mg27  1  0.00000000  0.25061500  0.25347800  1
  Mg  Mg28  1  0.50000000  0.24771900  0.26384100  1
  Mg  Mg29  1  0.00000000  0.25061500  0.74652200  1
  Mg  Mg30  1  0.50000000  0.24771900  0.73615900  1
  B  B31  1  0.50000000  0.06663500  0.00000000  1
  O  O32  1  0.50000000  0.72213500  0.00000000  1
  O  O33  1  0.00000000  0.74420100  0.50000000  1
  O  O34  1  0.50000000  0.74509400  0.50000000  1
  O  O35  1  0.00000000  0.27173100  0.00000000  1
  O  O36  1  0.50000000  0.23669000  0.00000000  1
  O  O37  1  0.00000000  0.25426700  0.50000000  1
  O  O38  1  0.50000000  0.25494700  0.50000000  1
  O  O39  1  0.25140300  0.75275100  0.24804000  1
  O  O40  1  0.74859700  0.75275100  0.24804000  1
  O  O41  1  0.25140300  0.75275100  0.75196000  1
  O  O42  1  0.74859700  0.75275100  0.75196000  1
  O  O43  1  0.25000900  0.24711500  0.24809500  1
  O  O44  1  0.74999100  0.24711500  0.24809500  1
  O  O45  1  0.25000900  0.24711500  0.75190500  1
  O  O46  1  0.74999100  0.24711500  0.75190500  1
  O  O47  1  0.34004900  0.00976900  0.00000000  1
  O  O48  1  0.65995100  0.00976900  0.00000000  1
  O  O49  1  0.25099700  0.99977200  0.50000000  1
  O  O50  1  0.74900300  0.99977200  0.50000000  1
  O  O51  1  0.25531200  0.49261800  0.00000000  1
  O  O52  1  0.74468800  0.49261800  0.00000000  1
  O  O53  1  0.25112300  0.49969700  0.50000000  1
  O  O54  1  0.74887700  0.49969700  0.50000000  1
  O  O55  1  0.00000000  0.00050900  0.27614400  1
  O  O56  1  0.50000000  0.00306600  0.27374100  1
  O  O57  1  0.00000000  0.00050900  0.72385600  1
  O  O58  1  0.50000000  0.00306600  0.72625900  1
  O  O59  1  0.00000000  0.49861300  0.25746400  1
  O  O60  1  0.50000000  0.49344500  0.25055500  1
  O  O61  1  0.00000000  0.49861300  0.74253600  1
  O  O62  1  0.50000000  0.49344500  0.74944500  1
