# generated using pymatgen
data_Mg2Bi
_symmetry_space_group_name_H-M   'P 1'
_cell_length_a   8.64532717
_cell_length_b   8.64532717
_cell_length_c   5.62860200
_cell_angle_alpha   90.00000000
_cell_angle_beta   90.00000000
_cell_angle_gamma   158.16572651
_symmetry_Int_Tables_number   1
_chemical_formula_structural   Mg2Bi
_chemical_formula_sum   'Mg4 Bi2'
_cell_volume   156.46479945
_cell_formula_units_Z   2
loop_
 _symmetry_equiv_pos_site_id
 _symmetry_equiv_pos_as_xyz
  1  'x, y, z'
loop_
 _atom_site_type_symbol
 _atom_site_label
 _atom_site_symmetry_multiplicity
 _atom_site_fract_x
 _atom_site_fract_y
 _atom_site_fract_z
 _atom_site_occupancy
  Mg  Mg0  1  0.11512300  0.88487700  0.25000000  1
  Mg  Mg1  1  0.77326200  0.22673800  0.25000000  1
  Mg  Mg2  1  0.22673800  0.77326200  0.75000000  1
  Mg  Mg3  1  0.88487700  0.11512300  0.75000000  1
  Bi  Bi4  1  0.43672700  0.56327300  0.25000000  1
  Bi  Bi5  1  0.56327300  0.43672700  0.75000000  1
