# generated using pymatgen
data_Ca5Mg
_symmetry_space_group_name_H-M   'P 1'
_cell_length_a   7.43654687
_cell_length_b   7.43654687
_cell_length_c   8.83748004
_cell_angle_alpha   74.81988683
_cell_angle_beta   74.81988683
_cell_angle_gamma   29.75430184
_symmetry_Int_Tables_number   1
_chemical_formula_structural   Ca5Mg
_chemical_formula_sum   'Ca5 Mg1'
_cell_volume   233.47691873
_cell_formula_units_Z   1
loop_
 _symmetry_equiv_pos_site_id
 _symmetry_equiv_pos_as_xyz
  1  'x, y, z'
loop_
 _atom_site_type_symbol
 _atom_site_label
 _atom_site_symmetry_multiplicity
 _atom_site_fract_x
 _atom_site_fract_y
 _atom_site_fract_z
 _atom_site_occupancy
  Ca  Ca0  1  0.00524900  0.00524900  0.01421200  1
  Ca  Ca1  1  0.32499800  0.32499800  0.33028200  1
  Ca  Ca2  1  0.95129100  0.95129100  0.59369000  1
  Ca  Ca3  1  0.66667600  0.66667600  0.66345200  1
  Ca  Ca4  1  0.27362900  0.27362900  0.95443100  1
  Mg  Mg5  1  0.61149100  0.61149100  0.27726500  1
