# generated using pymatgen
data_NaHfMg30O31
_symmetry_space_group_name_H-M   'P 1'
_cell_length_a   8.58045100
_cell_length_b   8.61402300
_cell_length_c   8.61591400
_cell_angle_alpha   90.00000000
_cell_angle_beta   90.00000000
_cell_angle_gamma   90.00000000
_symmetry_Int_Tables_number   1
_chemical_formula_structural   NaHfMg30O31
_chemical_formula_sum   'Na1 Hf1 Mg30 O31'
_cell_volume   636.82117826
_cell_formula_units_Z   1
loop_
 _symmetry_equiv_pos_site_id
 _symmetry_equiv_pos_as_xyz
  1  'x, y, z'
loop_
 _atom_site_type_symbol
 _atom_site_label
 _atom_site_symmetry_multiplicity
 _atom_site_fract_x
 _atom_site_fract_y
 _atom_site_fract_z
 _atom_site_occupancy
  Na  Na0  1  0.99645400  0.00000000  0.00000000  1
  Hf  Hf1  1  0.00033400  0.50000000  0.00000000  1
  Mg  Mg2  1  0.00061400  0.00000000  0.50000000  1
  Mg  Mg3  1  0.00016600  0.50000000  0.50000000  1
  Mg  Mg4  1  0.50192000  0.00000000  0.00000000  1
  Mg  Mg5  1  0.49918400  0.50000000  0.00000000  1
  Mg  Mg6  1  0.49903700  0.00000000  0.50000000  1
  Mg  Mg7  1  0.49987000  0.50000000  0.50000000  1
  Mg  Mg8  1  0.99989600  0.75739200  0.74471400  1
  Mg  Mg9  1  0.99989600  0.24260800  0.74471400  1
  Mg  Mg10  1  0.99989600  0.75739200  0.25528600  1
  Mg  Mg11  1  0.99989600  0.24260800  0.25528600  1
  Mg  Mg12  1  0.49987500  0.75126200  0.74940600  1
  Mg  Mg13  1  0.49987500  0.24873800  0.74940600  1
  Mg  Mg14  1  0.49987500  0.75126200  0.25059400  1
  Mg  Mg15  1  0.49987500  0.24873800  0.25059400  1
  Mg  Mg16  1  0.74381200  0.75459900  0.00000000  1
  Mg  Mg17  1  0.74381200  0.24540100  0.00000000  1
  Mg  Mg18  1  0.74937700  0.75049900  0.50000000  1
  Mg  Mg19  1  0.74937700  0.24950100  0.50000000  1
  Mg  Mg20  1  0.25480600  0.75762100  0.00000000  1
  Mg  Mg21  1  0.25480600  0.24237900  0.00000000  1
  Mg  Mg22  1  0.25058700  0.75123800  0.50000000  1
  Mg  Mg23  1  0.25058700  0.24876200  0.50000000  1
  Mg  Mg24  1  0.74978000  0.00000000  0.74636700  1
  Mg  Mg25  1  0.74620200  0.50000000  0.74555300  1
  Mg  Mg26  1  0.74978000  0.00000000  0.25363300  1
  Mg  Mg27  1  0.74620200  0.50000000  0.25444700  1
  Mg  Mg28  1  0.24921600  0.00000000  0.75077200  1
  Mg  Mg29  1  0.25382900  0.50000000  0.74600200  1
  Mg  Mg30  1  0.24921600  0.00000000  0.24922800  1
  Mg  Mg31  1  0.25382900  0.50000000  0.25399800  1
  O  O32  1  0.74590900  0.50000000  0.00000000  1
  O  O33  1  0.74769000  0.00000000  0.50000000  1
  O  O34  1  0.74945500  0.50000000  0.50000000  1
  O  O35  1  0.26316100  0.00000000  0.00000000  1
  O  O36  1  0.25372200  0.50000000  0.00000000  1
  O  O37  1  0.25173800  0.00000000  0.50000000  1
  O  O38  1  0.25054000  0.50000000  0.50000000  1
  O  O39  1  0.75068400  0.74834500  0.74966900  1
  O  O40  1  0.75068400  0.25165500  0.74966900  1
  O  O41  1  0.75068400  0.74834500  0.25033100  1
  O  O42  1  0.75068400  0.25165500  0.25033100  1
  O  O43  1  0.24899700  0.74946900  0.75089300  1
  O  O44  1  0.24899700  0.25053100  0.75089300  1
  O  O45  1  0.24899700  0.74946900  0.24910700  1
  O  O46  1  0.24899700  0.25053100  0.24910700  1
  O  O47  1  0.00019700  0.73856100  0.00000000  1
  O  O48  1  0.00019700  0.26143900  0.00000000  1
  O  O49  1  0.99994300  0.74728200  0.50000000  1
  O  O50  1  0.99994300  0.25271800  0.50000000  1
  O  O51  1  0.49929700  0.74647700  0.00000000  1
  O  O52  1  0.49929700  0.25352300  0.00000000  1
  O  O53  1  0.49989300  0.74909300  0.50000000  1
  O  O54  1  0.49989300  0.25090700  0.50000000  1
  O  O55  1  0.99991700  0.00000000  0.73630200  1
  O  O56  1  0.00004900  0.50000000  0.74647500  1
  O  O57  1  0.99991700  0.00000000  0.26369800  1
  O  O58  1  0.00004900  0.50000000  0.25352500  1
  O  O59  1  0.49939100  0.00000000  0.74718200  1
  O  O60  1  0.49990300  0.50000000  0.74941800  1
  O  O61  1  0.49939100  0.00000000  0.25281800  1
  O  O62  1  0.49990300  0.50000000  0.25058200  1
