# generated using pymatgen
data_CaMg2
_symmetry_space_group_name_H-M   'P 1'
_cell_length_a   6.09817096
_cell_length_b   6.09817096
_cell_length_c   5.42343100
_cell_angle_alpha   90.00000000
_cell_angle_beta   90.00000000
_cell_angle_gamma   123.29721237
_symmetry_Int_Tables_number   1
_chemical_formula_structural   CaMg2
_chemical_formula_sum   'Ca2 Mg4'
_cell_volume   168.57508236
_cell_formula_units_Z   2
loop_
 _symmetry_equiv_pos_site_id
 _symmetry_equiv_pos_as_xyz
  1  'x, y, z'
loop_
 _atom_site_type_symbol
 _atom_site_label
 _atom_site_symmetry_multiplicity
 _atom_site_fract_x
 _atom_site_fract_y
 _atom_site_fract_z
 _atom_site_occupancy
  Ca  Ca0  1  0.70372600  0.70372600  0.75000000  1
  Ca  Ca1  1  0.29627400  0.29627400  0.25000000  1
  Mg  Mg2  1  0.98115100  0.35017400  0.75000000  1
  Mg  Mg3  1  0.35017400  0.98115100  0.75000000  1
  Mg  Mg4  1  0.64982600  0.01884900  0.25000000  1
  Mg  Mg5  1  0.01884900  0.64982600  0.25000000  1
