data_image0
_chemical_formula_structural       Ba4F20Ni6
_chemical_formula_sum              "Ba4 F20 Ni6"
_cell_length_a       9.42222
_cell_length_b       9.42222
_cell_length_c       7.41323
_cell_angle_alpha    69.6299
_cell_angle_beta     110.37
_cell_angle_gamma    144.796

_space_group_name_H-M_alt    "P 1"
_space_group_IT_number       1

loop_
  _space_group_symop_operation_xyz
  'x, y, z'

loop_
  _atom_site_type_symbol
  _atom_site_label
  _atom_site_symmetry_multiplicity
  _atom_site_fract_x
  _atom_site_fract_y
  _atom_site_fract_z
  _atom_site_occupancy
  Ba  Ba1       1.0  0.22700  0.77300  0.81500  1.0000
  Ba  Ba2       1.0  0.77300  0.22700  0.18500  1.0000
  Ba  Ba3       1.0  0.11600  0.88400  0.22100  1.0000
  Ba  Ba4       1.0  0.88400  0.11600  0.77900  1.0000
  F   F1        1.0  0.34300  0.11600  0.54300  1.0000
  F   F2        1.0  0.11600  0.34300  0.45700  1.0000
  F   F3        1.0  0.65700  0.88400  0.45700  1.0000
  F   F4        1.0  0.88400  0.65700  0.54300  1.0000
  F   F5        1.0  0.60000  0.89200  0.04260  1.0000
  F   F6        1.0  0.89200  0.60000  0.95700  1.0000
  F   F7        1.0  0.40000  0.10800  0.95700  1.0000
  F   F8        1.0  0.10800  0.40000  0.04260  1.0000
  F   F9        1.0  0.49000  0.51000  0.31900  1.0000
  F   F10       1.0  0.51000  0.49000  0.68100  1.0000
  F   F11       1.0  0.01800  0.98200  0.70300  1.0000
  F   F12       1.0  0.98200  0.01800  0.29700  1.0000
  F   F13       1.0  0.26200  0.73800  0.19900  1.0000
  F   F14       1.0  0.73800  0.26200  0.80100  1.0000
  F   F15       1.0  0.50000  0.00000  0.50000  1.0000
  F   F16       1.0  0.00000  0.50000  0.50000  1.0000
  F   F17       1.0  0.37000  0.63000  0.75600  1.0000
  F   F18       1.0  0.63000  0.37000  0.24400  1.0000
  F   F19       1.0  0.25900  0.25900  0.00000  1.0000
  F   F20       1.0  0.74100  0.74100  0.00000  1.0000
  Ni  Ni1       1.0  0.32400  0.67600  0.47200  1.0000
  Ni  Ni2       1.0  0.67600  0.32400  0.52800  1.0000
  Ni  Ni3       1.0  0.76000  0.76000  0.50000  1.0000
  Ni  Ni4       1.0  0.24000  0.24000  0.50000  1.0000
  Ni  Ni5       1.0  0.42800  0.57200  0.04590  1.0000
  Ni  Ni6       1.0  0.57200  0.42800  0.95400  1.0000
