# generated using pymatgen
data_RbNaMg30O31
_symmetry_space_group_name_H-M   'P 1'
_cell_length_a   8.68436700
_cell_length_b   8.68436700
_cell_length_c   8.61779500
_cell_angle_alpha   90.00000000
_cell_angle_beta   90.00000000
_cell_angle_gamma   90.00000000
_symmetry_Int_Tables_number   1
_chemical_formula_structural   RbNaMg30O31
_chemical_formula_sum   'Rb1 Na1 Mg30 O31'
_cell_volume   649.93884705
_cell_formula_units_Z   1
loop_
 _symmetry_equiv_pos_site_id
 _symmetry_equiv_pos_as_xyz
  1  'x, y, z'
loop_
 _atom_site_type_symbol
 _atom_site_label
 _atom_site_symmetry_multiplicity
 _atom_site_fract_x
 _atom_site_fract_y
 _atom_site_fract_z
 _atom_site_occupancy
  Rb  Rb0  1  0.50000000  0.50000000  0.99731500  1
  Na  Na1  1  0.00000000  0.00000000  0.99793400  1
  Mg  Mg2  1  0.50000000  0.00000000  0.99388800  1
  Mg  Mg3  1  0.00000000  0.50000000  0.99388800  1
  Mg  Mg4  1  0.00000000  0.00000000  0.51807800  1
  Mg  Mg5  1  0.50000000  0.00000000  0.50265800  1
  Mg  Mg6  1  0.00000000  0.50000000  0.50265800  1
  Mg  Mg7  1  0.50000000  0.50000000  0.49972800  1
  Mg  Mg8  1  0.24571000  0.24571000  0.00084400  1
  Mg  Mg9  1  0.75429000  0.24571000  0.00084400  1
  Mg  Mg10  1  0.24571000  0.75429000  0.00084400  1
  Mg  Mg11  1  0.75429000  0.75429000  0.00084400  1
  Mg  Mg12  1  0.24881300  0.24881300  0.49932800  1
  Mg  Mg13  1  0.75118700  0.24881300  0.49932800  1
  Mg  Mg14  1  0.24881300  0.75118700  0.49932800  1
  Mg  Mg15  1  0.75118700  0.75118700  0.49932800  1
  Mg  Mg16  1  0.27445700  0.00000000  0.24668200  1
  Mg  Mg17  1  0.72554300  0.00000000  0.24668200  1
  Mg  Mg18  1  0.25020600  0.50000000  0.25140700  1
  Mg  Mg19  1  0.74979400  0.50000000  0.25140700  1
  Mg  Mg20  1  0.24853000  0.00000000  0.75537100  1
  Mg  Mg21  1  0.75147000  0.00000000  0.75537100  1
  Mg  Mg22  1  0.24807200  0.50000000  0.74755000  1
  Mg  Mg23  1  0.75192800  0.50000000  0.74755000  1
  Mg  Mg24  1  0.00000000  0.27445700  0.24668200  1
  Mg  Mg25  1  0.50000000  0.25020600  0.25140700  1
  Mg  Mg26  1  0.00000000  0.72554300  0.24668200  1
  Mg  Mg27  1  0.50000000  0.74979400  0.25140700  1
  Mg  Mg28  1  0.00000000  0.24853000  0.75537100  1
  Mg  Mg29  1  0.50000000  0.24807200  0.74755000  1
  Mg  Mg30  1  0.00000000  0.75147000  0.75537100  1
  Mg  Mg31  1  0.50000000  0.75192800  0.74755000  1
  O  O32  1  0.50000000  0.00000000  0.26045300  1
  O  O33  1  0.00000000  0.50000000  0.26045300  1
  O  O34  1  0.50000000  0.50000000  0.27814000  1
  O  O35  1  0.00000000  0.00000000  0.74328300  1
  O  O36  1  0.50000000  0.00000000  0.74224700  1
  O  O37  1  0.00000000  0.50000000  0.74224700  1
  O  O38  1  0.50000000  0.50000000  0.71956700  1
  O  O39  1  0.24473500  0.24473500  0.25029200  1
  O  O40  1  0.75526500  0.24473500  0.25029200  1
  O  O41  1  0.24473500  0.75526500  0.25029200  1
  O  O42  1  0.75526500  0.75526500  0.25029200  1
  O  O43  1  0.24841300  0.24841300  0.74945800  1
  O  O44  1  0.75158700  0.24841300  0.74945800  1
  O  O45  1  0.24841300  0.75158700  0.74945800  1
  O  O46  1  0.75158700  0.75158700  0.74945800  1
  O  O47  1  0.25593100  0.00000000  0.00596300  1
  O  O48  1  0.74406900  0.00000000  0.00596300  1
  O  O49  1  0.22168100  0.50000000  0.00299200  1
  O  O50  1  0.77831900  0.50000000  0.00299200  1
  O  O51  1  0.24177900  0.00000000  0.49118400  1
  O  O52  1  0.75822100  0.00000000  0.49118400  1
  O  O53  1  0.24314300  0.50000000  0.49829600  1
  O  O54  1  0.75685700  0.50000000  0.49829600  1
  O  O55  1  0.00000000  0.25593100  0.00596300  1
  O  O56  1  0.50000000  0.22168100  0.00299200  1
  O  O57  1  0.00000000  0.74406900  0.00596300  1
  O  O58  1  0.50000000  0.77831900  0.00299200  1
  O  O59  1  0.00000000  0.24177900  0.49118400  1
  O  O60  1  0.50000000  0.24314300  0.49829600  1
  O  O61  1  0.00000000  0.75822100  0.49118400  1
  O  O62  1  0.50000000  0.75685700  0.49829600  1
