# generated using pymatgen
data_CeMg
_symmetry_space_group_name_H-M   'P 1'
_cell_length_a   6.71401147
_cell_length_b   6.71401147
_cell_length_c   7.65289500
_cell_angle_alpha   76.16426747
_cell_angle_beta   76.16426747
_cell_angle_gamma   27.30774492
_symmetry_Int_Tables_number   1
_chemical_formula_structural   CeMg
_chemical_formula_sum   'Ce3 Mg3'
_cell_volume   153.39762446
_cell_formula_units_Z   3
loop_
 _symmetry_equiv_pos_site_id
 _symmetry_equiv_pos_as_xyz
  1  'x, y, z'
loop_
 _atom_site_type_symbol
 _atom_site_label
 _atom_site_symmetry_multiplicity
 _atom_site_fract_x
 _atom_site_fract_y
 _atom_site_fract_z
 _atom_site_occupancy
  Ce  Ce0  1  0.66612600  0.66612600  0.65517600  1
  Ce  Ce1  1  0.07881300  0.07881300  0.39205700  1
  Ce  Ce2  1  0.69935000  0.69935000  0.07038500  1
  Mg  Mg3  1  0.98425400  0.98425400  0.00105200  1
  Mg  Mg4  1  0.39005200  0.39005200  0.72121200  1
  Mg  Mg5  1  0.34807300  0.34807300  0.32678600  1
