# generated using pymatgen
data_KRbMg30O31
_symmetry_space_group_name_H-M   'P 1'
_cell_length_a   8.54488400
_cell_length_b   8.71697000
_cell_length_c   8.73772400
_cell_angle_alpha   90.00000000
_cell_angle_beta   90.00000000
_cell_angle_gamma   90.00000000
_symmetry_Int_Tables_number   1
_chemical_formula_structural   KRbMg30O31
_chemical_formula_sum   'K1 Rb1 Mg30 O31'
_cell_volume   650.83371900
_cell_formula_units_Z   1
loop_
 _symmetry_equiv_pos_site_id
 _symmetry_equiv_pos_as_xyz
  1  'x, y, z'
loop_
 _atom_site_type_symbol
 _atom_site_label
 _atom_site_symmetry_multiplicity
 _atom_site_fract_x
 _atom_site_fract_y
 _atom_site_fract_z
 _atom_site_occupancy
  K  K0  1  0.99294800  0.00000000  0.00000000  1
  Rb  Rb1  1  0.12023900  0.00000000  0.50000000  1
  Mg  Mg2  1  0.99280500  0.50000000  0.00000000  1
  Mg  Mg3  1  0.98974900  0.50000000  0.50000000  1
  Mg  Mg4  1  0.49999100  0.00000000  0.00000000  1
  Mg  Mg5  1  0.51738100  0.00000000  0.50000000  1
  Mg  Mg6  1  0.50049300  0.50000000  0.00000000  1
  Mg  Mg7  1  0.50525800  0.50000000  0.50000000  1
  Mg  Mg8  1  0.99644100  0.25195400  0.25115600  1
  Mg  Mg9  1  0.99644100  0.25195400  0.74884400  1
  Mg  Mg10  1  0.99644100  0.74804600  0.25115600  1
  Mg  Mg11  1  0.99644100  0.74804600  0.74884400  1
  Mg  Mg12  1  0.49820100  0.24807600  0.25200400  1
  Mg  Mg13  1  0.49820100  0.24807600  0.74799600  1
  Mg  Mg14  1  0.49820100  0.75192400  0.25200400  1
  Mg  Mg15  1  0.49820100  0.75192400  0.74799600  1
  Mg  Mg16  1  0.24752600  0.00000000  0.21867600  1
  Mg  Mg17  1  0.24752600  0.00000000  0.78132400  1
  Mg  Mg18  1  0.24706200  0.50000000  0.24478700  1
  Mg  Mg19  1  0.24706200  0.50000000  0.75521300  1
  Mg  Mg20  1  0.75698200  0.00000000  0.25734300  1
  Mg  Mg21  1  0.75698200  0.00000000  0.74265700  1
  Mg  Mg22  1  0.74751100  0.50000000  0.25008100  1
  Mg  Mg23  1  0.74751100  0.50000000  0.74991900  1
  Mg  Mg24  1  0.24778600  0.25860400  0.00000000  1
  Mg  Mg25  1  0.24954200  0.28188900  0.50000000  1
  Mg  Mg26  1  0.24778600  0.74139600  0.00000000  1
  Mg  Mg27  1  0.24954200  0.71811100  0.50000000  1
  Mg  Mg28  1  0.74604100  0.24959000  0.00000000  1
  Mg  Mg29  1  0.75894900  0.24314600  0.50000000  1
  Mg  Mg30  1  0.74604100  0.75041000  0.00000000  1
  Mg  Mg31  1  0.75894900  0.75685400  0.50000000  1
  O  O32  1  0.27339500  0.00000000  0.00000000  1
  O  O33  1  0.25410300  0.50000000  0.00000000  1
  O  O34  1  0.25738500  0.50000000  0.50000000  1
  O  O35  1  0.72195800  0.00000000  0.00000000  1
  O  O36  1  0.74376200  0.00000000  0.50000000  1
  O  O37  1  0.74244700  0.50000000  0.00000000  1
  O  O38  1  0.74356600  0.50000000  0.50000000  1
  O  O39  1  0.24722900  0.24616500  0.25454400  1
  O  O40  1  0.24722900  0.24616500  0.74545600  1
  O  O41  1  0.24722900  0.75383500  0.25454400  1
  O  O42  1  0.24722900  0.75383500  0.74545600  1
  O  O43  1  0.74679100  0.24907500  0.25183000  1
  O  O44  1  0.74679100  0.24907500  0.74817000  1
  O  O45  1  0.74679100  0.75092500  0.25183000  1
  O  O46  1  0.74679100  0.75092500  0.74817000  1
  O  O47  1  0.99872200  0.00000000  0.26095900  1
  O  O48  1  0.99872200  0.00000000  0.73904100  1
  O  O49  1  0.99888300  0.50000000  0.25166000  1
  O  O50  1  0.99888300  0.50000000  0.74834000  1
  O  O51  1  0.48637900  0.00000000  0.26291300  1
  O  O52  1  0.48637900  0.00000000  0.73708700  1
  O  O53  1  0.49633300  0.50000000  0.25269900  1
  O  O54  1  0.49633300  0.50000000  0.74730100  1
  O  O55  1  0.00012700  0.27448100  0.00000000  1
  O  O56  1  0.00320400  0.27133400  0.50000000  1
  O  O57  1  0.00012700  0.72551900  0.00000000  1
  O  O58  1  0.00320400  0.72866600  0.50000000  1
  O  O59  1  0.49536200  0.25362900  0.00000000  1
  O  O60  1  0.48952400  0.24442100  0.50000000  1
  O  O61  1  0.49536200  0.74637100  0.00000000  1
  O  O62  1  0.48952400  0.75557900  0.50000000  1
