# generated using pymatgen
data_Ca3N2
_symmetry_space_group_name_H-M   'P 1'
_cell_length_a   6.60442118
_cell_length_b   6.60442118
_cell_length_c   6.60442117
_cell_angle_alpha   55.95518209
_cell_angle_beta   55.95518209
_cell_angle_gamma   55.95518226
_symmetry_Int_Tables_number   1
_chemical_formula_structural   Ca3N2
_chemical_formula_sum   'Ca6 N4'
_cell_volume   184.60737740
_cell_formula_units_Z   2
loop_
 _symmetry_equiv_pos_site_id
 _symmetry_equiv_pos_as_xyz
  1  'x, y, z'
loop_
 _atom_site_type_symbol
 _atom_site_label
 _atom_site_symmetry_multiplicity
 _atom_site_fract_x
 _atom_site_fract_y
 _atom_site_fract_z
 _atom_site_occupancy
  Ca  Ca0  1  0.44990900  0.75000000  0.05009100  1
  Ca  Ca1  1  0.75000000  0.05009100  0.44990900  1
  Ca  Ca2  1  0.05009100  0.44990900  0.75000000  1
  Ca  Ca3  1  0.25000000  0.94990900  0.55009100  1
  Ca  Ca4  1  0.55009100  0.25000000  0.94990900  1
  Ca  Ca5  1  0.94990900  0.55009100  0.25000000  1
  N  N6  1  0.85347500  0.85347500  0.85347500  1
  N  N7  1  0.64652600  0.64652600  0.64652600  1
  N  N8  1  0.14652500  0.14652500  0.14652600  1
  N  N9  1  0.35347500  0.35347500  0.35347400  1
