# generated using pymatgen
data_KHfMg30O31
_symmetry_space_group_name_H-M   'P 1'
_cell_length_a   8.63220700
_cell_length_b   8.65355000
_cell_length_c   8.65476200
_cell_angle_alpha   90.00000000
_cell_angle_beta   90.00000000
_cell_angle_gamma   90.00000000
_symmetry_Int_Tables_number   1
_chemical_formula_structural   KHfMg30O31
_chemical_formula_sum   'K1 Hf1 Mg30 O31'
_cell_volume   646.50409951
_cell_formula_units_Z   1
loop_
 _symmetry_equiv_pos_site_id
 _symmetry_equiv_pos_as_xyz
  1  'x, y, z'
loop_
 _atom_site_type_symbol
 _atom_site_label
 _atom_site_symmetry_multiplicity
 _atom_site_fract_x
 _atom_site_fract_y
 _atom_site_fract_z
 _atom_site_occupancy
  K  K0  1  0.00000000  0.00014100  0.00000000  1
  Hf  Hf1  1  0.50000000  0.00054400  0.50000000  1
  Mg  Mg2  1  0.50000000  0.00278700  0.00000000  1
  Mg  Mg3  1  0.00000000  0.00009300  0.50000000  1
  Mg  Mg4  1  0.00000000  0.49961800  0.00000000  1
  Mg  Mg5  1  0.50000000  0.49859500  0.00000000  1
  Mg  Mg6  1  0.00000000  0.49993300  0.50000000  1
  Mg  Mg7  1  0.50000000  0.49935500  0.50000000  1
  Mg  Mg8  1  0.24557700  0.99986800  0.24391500  1
  Mg  Mg9  1  0.75442300  0.99986800  0.24391500  1
  Mg  Mg10  1  0.24557700  0.99986800  0.75608500  1
  Mg  Mg11  1  0.75442300  0.99986800  0.75608500  1
  Mg  Mg12  1  0.24890600  0.50005500  0.24823000  1
  Mg  Mg13  1  0.75109400  0.50005500  0.24823000  1
  Mg  Mg14  1  0.24890600  0.50005500  0.75177000  1
  Mg  Mg15  1  0.75109400  0.50005500  0.75177000  1
  Mg  Mg16  1  0.24823800  0.74740200  0.00000000  1
  Mg  Mg17  1  0.75176200  0.74740200  0.00000000  1
  Mg  Mg18  1  0.24342400  0.74357400  0.50000000  1
  Mg  Mg19  1  0.75657600  0.74357400  0.50000000  1
  Mg  Mg20  1  0.24975500  0.25227500  0.00000000  1
  Mg  Mg21  1  0.75024500  0.25227500  0.00000000  1
  Mg  Mg22  1  0.24393300  0.25648500  0.50000000  1
  Mg  Mg23  1  0.75606700  0.25648500  0.50000000  1
  Mg  Mg24  1  0.00000000  0.74785700  0.25053500  1
  Mg  Mg25  1  0.50000000  0.74516300  0.24621700  1
  Mg  Mg26  1  0.00000000  0.74785700  0.74946500  1
  Mg  Mg27  1  0.50000000  0.74516300  0.75378300  1
  Mg  Mg28  1  0.00000000  0.25218100  0.24995400  1
  Mg  Mg29  1  0.50000000  0.25412400  0.24508100  1
  Mg  Mg30  1  0.00000000  0.25218100  0.75004600  1
  Mg  Mg31  1  0.50000000  0.25412400  0.75491900  1
  O  O32  1  0.00000000  0.72644900  0.00000000  1
  O  O33  1  0.00000000  0.74711100  0.50000000  1
  O  O34  1  0.50000000  0.74943800  0.50000000  1
  O  O35  1  0.00000000  0.27346500  0.00000000  1
  O  O36  1  0.50000000  0.25387200  0.00000000  1
  O  O37  1  0.00000000  0.25289500  0.50000000  1
  O  O38  1  0.50000000  0.25080200  0.50000000  1
  O  O39  1  0.24941400  0.75144300  0.25210400  1
  O  O40  1  0.75058600  0.75144300  0.25210400  1
  O  O41  1  0.24941400  0.75144300  0.74789600  1
  O  O42  1  0.75058600  0.75144300  0.74789600  1
  O  O43  1  0.25060400  0.24845300  0.25087600  1
  O  O44  1  0.74939600  0.24845300  0.25087600  1
  O  O45  1  0.25060400  0.24845300  0.74912400  1
  O  O46  1  0.74939600  0.24845300  0.74912400  1
  O  O47  1  0.27383700  0.99984500  0.00000000  1
  O  O48  1  0.72616300  0.99984500  0.00000000  1
  O  O49  1  0.25806300  0.99991300  0.50000000  1
  O  O50  1  0.74193700  0.99991300  0.50000000  1
  O  O51  1  0.25389700  0.49906600  0.00000000  1
  O  O52  1  0.74610300  0.49906600  0.00000000  1
  O  O53  1  0.25171700  0.50004600  0.50000000  1
  O  O54  1  0.74828300  0.50004600  0.50000000  1
  O  O55  1  0.00000000  0.00004000  0.27450300  1
  O  O56  1  0.50000000  0.00119700  0.25277600  1
  O  O57  1  0.00000000  0.00004000  0.72549700  1
  O  O58  1  0.50000000  0.00119700  0.74722400  1
  O  O59  1  0.00000000  0.50000500  0.25508500  1
  O  O60  1  0.50000000  0.49864100  0.25300400  1
  O  O61  1  0.00000000  0.50000500  0.74491500  1
  O  O62  1  0.50000000  0.49864100  0.74699600  1
