# generated using pymatgen
data_KMg30BO31
_symmetry_space_group_name_H-M   'P 1'
_cell_length_a   8.42552300
_cell_length_b   8.58459100
_cell_length_c   8.77514600
_cell_angle_alpha   90.00000000
_cell_angle_beta   90.00000000
_cell_angle_gamma   90.00000000
_symmetry_Int_Tables_number   1
_chemical_formula_structural   KMg30BO31
_chemical_formula_sum   'K1 Mg30 B1 O31'
_cell_volume   634.70340487
_cell_formula_units_Z   1
loop_
 _symmetry_equiv_pos_site_id
 _symmetry_equiv_pos_as_xyz
  1  'x, y, z'
loop_
 _atom_site_type_symbol
 _atom_site_label
 _atom_site_symmetry_multiplicity
 _atom_site_fract_x
 _atom_site_fract_y
 _atom_site_fract_z
 _atom_site_occupancy
  K  K0  1  0.00000000  0.98554000  0.00000000  1
  Mg  Mg1  1  0.00000000  0.00077000  0.50000000  1
  Mg  Mg2  1  0.50000000  0.99686100  0.50000000  1
  Mg  Mg3  1  0.00000000  0.50692900  0.00000000  1
  Mg  Mg4  1  0.50000000  0.49354200  0.00000000  1
  Mg  Mg5  1  0.00000000  0.49859300  0.50000000  1
  Mg  Mg6  1  0.50000000  0.50143100  0.50000000  1
  Mg  Mg7  1  0.25741700  0.00002800  0.26162700  1
  Mg  Mg8  1  0.74258300  0.00002800  0.26162700  1
  Mg  Mg9  1  0.25741700  0.00002800  0.73837300  1
  Mg  Mg10  1  0.74258300  0.00002800  0.73837300  1
  Mg  Mg11  1  0.25029800  0.49907900  0.25005900  1
  Mg  Mg12  1  0.74970200  0.49907900  0.25005900  1
  Mg  Mg13  1  0.25029800  0.49907900  0.74994100  1
  Mg  Mg14  1  0.74970200  0.49907900  0.74994100  1
  Mg  Mg15  1  0.26735200  0.74090400  0.00000000  1
  Mg  Mg16  1  0.73264800  0.74090400  0.00000000  1
  Mg  Mg17  1  0.25251600  0.74846600  0.50000000  1
  Mg  Mg18  1  0.74748400  0.74846600  0.50000000  1
  Mg  Mg19  1  0.24494600  0.25552000  0.00000000  1
  Mg  Mg20  1  0.75505400  0.25552000  0.00000000  1
  Mg  Mg21  1  0.24796000  0.25073900  0.50000000  1
  Mg  Mg22  1  0.75204000  0.25073900  0.50000000  1
  Mg  Mg23  1  0.00000000  0.74826200  0.25950000  1
  Mg  Mg24  1  0.50000000  0.75423400  0.24410600  1
  Mg  Mg25  1  0.00000000  0.74826200  0.74050000  1
  Mg  Mg26  1  0.50000000  0.75423400  0.75589400  1
  Mg  Mg27  1  0.00000000  0.24955800  0.25175300  1
  Mg  Mg28  1  0.50000000  0.24760900  0.26294700  1
  Mg  Mg29  1  0.00000000  0.24955800  0.74824700  1
  Mg  Mg30  1  0.50000000  0.24760900  0.73705300  1
  B  B31  1  0.50000000  0.06425900  0.00000000  1
  O  O32  1  0.50000000  0.72308600  0.00000000  1
  O  O33  1  0.00000000  0.74530900  0.50000000  1
  O  O34  1  0.50000000  0.74541500  0.50000000  1
  O  O35  1  0.00000000  0.26723200  0.00000000  1
  O  O36  1  0.50000000  0.23517400  0.00000000  1
  O  O37  1  0.00000000  0.25356000  0.50000000  1
  O  O38  1  0.50000000  0.25431900  0.50000000  1
  O  O39  1  0.25187000  0.75218600  0.24829500  1
  O  O40  1  0.74813000  0.75218600  0.24829500  1
  O  O41  1  0.25187000  0.75218600  0.75170500  1
  O  O42  1  0.74813000  0.75218600  0.75170500  1
  O  O43  1  0.25003400  0.24723000  0.24759800  1
  O  O44  1  0.74996600  0.24723000  0.24759800  1
  O  O45  1  0.25003400  0.24723000  0.75240200  1
  O  O46  1  0.74996600  0.24723000  0.75240200  1
  O  O47  1  0.33905100  0.00849000  0.00000000  1
  O  O48  1  0.66094900  0.00849000  0.00000000  1
  O  O49  1  0.25042800  0.99989000  0.50000000  1
  O  O50  1  0.74957200  0.99989000  0.50000000  1
  O  O51  1  0.25431000  0.49337200  0.00000000  1
  O  O52  1  0.74569000  0.49337200  0.00000000  1
  O  O53  1  0.25071600  0.49940300  0.50000000  1
  O  O54  1  0.74928400  0.49940300  0.50000000  1
  O  O55  1  0.00000000  0.99992300  0.27069600  1
  O  O56  1  0.50000000  0.00311300  0.27179200  1
  O  O57  1  0.00000000  0.99992300  0.72930400  1
  O  O58  1  0.50000000  0.00311300  0.72820800  1
  O  O59  1  0.00000000  0.49922900  0.25481800  1
  O  O60  1  0.50000000  0.49323000  0.24990800  1
  O  O61  1  0.00000000  0.49922900  0.74518200  1
  O  O62  1  0.50000000  0.49323000  0.75009200  1
