# generated using pymatgen
data_CsRbMg30O31
_symmetry_space_group_name_H-M   'P 1'
_cell_length_a   8.66877600
_cell_length_b   8.74809900
_cell_length_c   8.80381000
_cell_angle_alpha   90.00000000
_cell_angle_beta   90.00000000
_cell_angle_gamma   90.00000000
_symmetry_Int_Tables_number   1
_chemical_formula_structural   CsRbMg30O31
_chemical_formula_sum   'Cs1 Rb1 Mg30 O31'
_cell_volume   667.63966631
_cell_formula_units_Z   1
loop_
 _symmetry_equiv_pos_site_id
 _symmetry_equiv_pos_as_xyz
  1  'x, y, z'
loop_
 _atom_site_type_symbol
 _atom_site_label
 _atom_site_symmetry_multiplicity
 _atom_site_fract_x
 _atom_site_fract_y
 _atom_site_fract_z
 _atom_site_occupancy
  Cs  Cs0  1  0.00856600  0.00000000  0.50000000  1
  Rb  Rb1  1  0.86295200  0.50000000  0.50000000  1
  Mg  Mg2  1  0.01071100  0.50000000  0.00000000  1
  Mg  Mg3  1  0.00932400  0.00000000  0.00000000  1
  Mg  Mg4  1  0.48657200  0.50000000  0.50000000  1
  Mg  Mg5  1  0.50088900  0.00000000  0.50000000  1
  Mg  Mg6  1  0.49371000  0.50000000  0.00000000  1
  Mg  Mg7  1  0.49949800  0.00000000  0.00000000  1
  Mg  Mg8  1  0.00338000  0.25659200  0.24590400  1
  Mg  Mg9  1  0.00338000  0.74340800  0.24590400  1
  Mg  Mg10  1  0.00338000  0.25659200  0.75409600  1
  Mg  Mg11  1  0.00338000  0.74340800  0.75409600  1
  Mg  Mg12  1  0.50177300  0.25253700  0.25095700  1
  Mg  Mg13  1  0.50177300  0.74746300  0.25095700  1
  Mg  Mg14  1  0.50177300  0.25253700  0.74904300  1
  Mg  Mg15  1  0.50177300  0.74746300  0.74904300  1
  Mg  Mg16  1  0.74626900  0.21866500  0.50000000  1
  Mg  Mg17  1  0.74626900  0.78133500  0.50000000  1
  Mg  Mg18  1  0.75315400  0.24440100  0.00000000  1
  Mg  Mg19  1  0.75315400  0.75559900  0.00000000  1
  Mg  Mg20  1  0.24720700  0.26282300  0.50000000  1
  Mg  Mg21  1  0.24720700  0.73717700  0.50000000  1
  Mg  Mg22  1  0.25257100  0.25114100  0.00000000  1
  Mg  Mg23  1  0.25257100  0.74885900  0.00000000  1
  Mg  Mg24  1  0.74934600  0.50000000  0.21594500  1
  Mg  Mg25  1  0.75028600  0.00000000  0.23699600  1
  Mg  Mg26  1  0.74934600  0.50000000  0.78405500  1
  Mg  Mg27  1  0.75028600  0.00000000  0.76300400  1
  Mg  Mg28  1  0.23981100  0.50000000  0.25845100  1
  Mg  Mg29  1  0.25852100  0.00000000  0.24691200  1
  Mg  Mg30  1  0.23981100  0.50000000  0.74154900  1
  Mg  Mg31  1  0.25852100  0.00000000  0.75308800  1
  O  O32  1  0.71602900  0.00000000  0.50000000  1
  O  O33  1  0.74144100  0.50000000  0.00000000  1
  O  O34  1  0.74170900  0.00000000  0.00000000  1
  O  O35  1  0.26519000  0.50000000  0.50000000  1
  O  O36  1  0.28925300  0.00000000  0.50000000  1
  O  O37  1  0.25626800  0.50000000  0.00000000  1
  O  O38  1  0.25931600  0.00000000  0.00000000  1
  O  O39  1  0.75287500  0.25402200  0.25483400  1
  O  O40  1  0.75287500  0.74597800  0.25483400  1
  O  O41  1  0.75287500  0.25402200  0.74516600  1
  O  O42  1  0.75287500  0.74597800  0.74516600  1
  O  O43  1  0.25332600  0.25153200  0.25059300  1
  O  O44  1  0.25332600  0.74846800  0.25059300  1
  O  O45  1  0.25332600  0.25153200  0.74940700  1
  O  O46  1  0.25332600  0.74846800  0.74940700  1
  O  O47  1  0.00794500  0.28197700  0.50000000  1
  O  O48  1  0.00794500  0.71802300  0.50000000  1
  O  O49  1  0.00106200  0.25480300  0.00000000  1
  O  O50  1  0.00106200  0.74519700  0.00000000  1
  O  O51  1  0.51373000  0.26425400  0.50000000  1
  O  O52  1  0.51373000  0.73574600  0.50000000  1
  O  O53  1  0.50362700  0.25337900  0.00000000  1
  O  O54  1  0.50362700  0.74662100  0.00000000  1
  O  O55  1  0.99521300  0.50000000  0.22728200  1
  O  O56  1  0.99640600  0.00000000  0.21452800  1
  O  O57  1  0.99521300  0.50000000  0.77271800  1
  O  O58  1  0.99640600  0.00000000  0.78547200  1
  O  O59  1  0.51163800  0.50000000  0.25385500  1
  O  O60  1  0.50478900  0.00000000  0.24351400  1
  O  O61  1  0.51163800  0.50000000  0.74614500  1
  O  O62  1  0.50478900  0.00000000  0.75648600  1
