# generated using pymatgen
data_Ho5Ni2Sb
_symmetry_space_group_name_H-M   'P 1'
_cell_length_a   8.56053377
_cell_length_b   8.56053377
_cell_length_c   8.56053377
_cell_angle_alpha   127.42538082
_cell_angle_beta   127.42538082
_cell_angle_gamma   77.55775531
_symmetry_Int_Tables_number   1
_chemical_formula_structural   Ho5Ni2Sb
_chemical_formula_sum   'Ho10 Ni4 Sb2'
_cell_volume   383.68488983
_cell_formula_units_Z   2
loop_
 _symmetry_equiv_pos_site_id
 _symmetry_equiv_pos_as_xyz
  1  'x, y, z'
loop_
 _atom_site_type_symbol
 _atom_site_label
 _atom_site_symmetry_multiplicity
 _atom_site_fract_x
 _atom_site_fract_y
 _atom_site_fract_z
 _atom_site_occupancy
  Ho  Ho0  1  0.51989700  0.70618600  0.50000000  1
  Ho  Ho1  1  0.01989700  0.51989700  0.81371100  1
  Ho  Ho2  1  0.70618600  0.20618600  0.18628900  1
  Ho  Ho3  1  0.98010300  0.48010300  0.18628900  1
  Ho  Ho4  1  0.20618600  0.01989700  0.50000000  1
  Ho  Ho5  1  0.48010300  0.29381400  0.50000000  1
  Ho  Ho6  1  0.79381400  0.98010300  0.50000000  1
  Ho  Ho7  1  0.29381400  0.79381400  0.81371100  1
  Ho  Ho8  1  0.00000000  0.00000000  0.00000000  1
  Ho  Ho9  1  0.50000000  0.50000000  0.00000000  1
  Ni  Ni10  1  0.36875000  0.86875000  0.23750000  1
  Ni  Ni11  1  0.86875000  0.63125000  0.50000000  1
  Ni  Ni12  1  0.63125000  0.13125000  0.76250000  1
  Ni  Ni13  1  0.13125000  0.36875000  0.50000000  1
  Sb  Sb14  1  0.75000000  0.75000000  0.00000000  1
  Sb  Sb15  1  0.25000000  0.25000000  0.00000000  1
