# generated using pymatgen
data_Sr(Cu2As)2
_symmetry_space_group_name_H-M   'P 1'
_cell_length_a   8.22732940
_cell_length_b   8.22732940
_cell_length_c   8.22732982
_cell_angle_alpha   29.57040448
_cell_angle_beta   29.57040448
_cell_angle_gamma   29.57040519
_symmetry_Int_Tables_number   1
_chemical_formula_structural   Sr(Cu2As)2
_chemical_formula_sum   'Sr1 Cu4 As2'
_cell_volume   120.05775457
_cell_formula_units_Z   1
loop_
 _symmetry_equiv_pos_site_id
 _symmetry_equiv_pos_as_xyz
  1  'x, y, z'
loop_
 _atom_site_type_symbol
 _atom_site_label
 _atom_site_symmetry_multiplicity
 _atom_site_fract_x
 _atom_site_fract_y
 _atom_site_fract_z
 _atom_site_occupancy
  Sr  Sr0  1  0.00000000  0.00000000  0.00000000  1
  Cu  Cu1  1  0.44007400  0.44007400  0.44007400  1
  Cu  Cu2  1  0.14448400  0.14448400  0.14448400  1
  Cu  Cu3  1  0.55992600  0.55992600  0.55992600  1
  Cu  Cu4  1  0.85551600  0.85551600  0.85551600  1
  As  As5  1  0.24853500  0.24853500  0.24853500  1
  As  As6  1  0.75146500  0.75146500  0.75146500  1
