# generated using pymatgen
data_SrC2
_symmetry_space_group_name_H-M   'P 1'
_cell_length_a   4.17901144
_cell_length_b   4.17901144
_cell_length_c   7.89897176
_cell_angle_alpha   74.51461479
_cell_angle_beta   74.51461479
_cell_angle_gamma   64.01643718
_symmetry_Int_Tables_number   1
_chemical_formula_structural   SrC2
_chemical_formula_sum   'Sr2 C4'
_cell_volume   117.69771110
_cell_formula_units_Z   2
loop_
 _symmetry_equiv_pos_site_id
 _symmetry_equiv_pos_as_xyz
  1  'x, y, z'
loop_
 _atom_site_type_symbol
 _atom_site_label
 _atom_site_symmetry_multiplicity
 _atom_site_fract_x
 _atom_site_fract_y
 _atom_site_fract_z
 _atom_site_occupancy
  Sr  Sr0  1  0.17960000  0.82040000  0.25000000  1
  Sr  Sr1  1  0.82040000  0.17960000  0.75000000  1
  C  C2  1  0.42211400  0.12354300  0.44056300  1
  C  C3  1  0.87645700  0.57788600  0.05943700  1
  C  C4  1  0.12354300  0.42211400  0.94056300  1
  C  C5  1  0.57788600  0.87645700  0.55943700  1
