# generated using pymatgen
data_ScCoSn
_symmetry_space_group_name_H-M   'P 1'
_cell_length_a   4.44246400
_cell_length_b   6.89020000
_cell_length_c   7.15529700
_cell_angle_alpha   90.00000000
_cell_angle_beta   90.00000000
_cell_angle_gamma   90.00000000
_symmetry_Int_Tables_number   1
_chemical_formula_structural   ScCoSn
_chemical_formula_sum   'Sc4 Co4 Sn4'
_cell_volume   219.01981633
_cell_formula_units_Z   4
loop_
 _symmetry_equiv_pos_site_id
 _symmetry_equiv_pos_as_xyz
  1  'x, y, z'
loop_
 _atom_site_type_symbol
 _atom_site_label
 _atom_site_symmetry_multiplicity
 _atom_site_fract_x
 _atom_site_fract_y
 _atom_site_fract_z
 _atom_site_occupancy
  Sc  Sc0  1  0.25000000  0.97993500  0.78919800  1
  Sc  Sc1  1  0.25000000  0.47993500  0.71080200  1
  Sc  Sc2  1  0.75000000  0.02006500  0.21080200  1
  Sc  Sc3  1  0.75000000  0.52006500  0.28919800  1
  Co  Co4  1  0.25000000  0.14901300  0.45050700  1
  Co  Co5  1  0.25000000  0.64901300  0.04949300  1
  Co  Co6  1  0.75000000  0.85098700  0.54949300  1
  Co  Co7  1  0.75000000  0.35098700  0.95050700  1
  Sn  Sn8  1  0.25000000  0.78326100  0.38700200  1
  Sn  Sn9  1  0.25000000  0.28326100  0.11299800  1
  Sn  Sn10  1  0.75000000  0.21673900  0.61299800  1
  Sn  Sn11  1  0.75000000  0.71673900  0.88700200  1
