# generated using pymatgen
data_KHfMg30O31
_symmetry_space_group_name_H-M   'P 1'
_cell_length_a   8.61416000
_cell_length_b   8.64460400
_cell_length_c   8.64615600
_cell_angle_alpha   90.00000000
_cell_angle_beta   90.00000000
_cell_angle_gamma   90.00000000
_symmetry_Int_Tables_number   1
_chemical_formula_structural   KHfMg30O31
_chemical_formula_sum   'K1 Hf1 Mg30 O31'
_cell_volume   643.84466992
_cell_formula_units_Z   1
loop_
 _symmetry_equiv_pos_site_id
 _symmetry_equiv_pos_as_xyz
  1  'x, y, z'
loop_
 _atom_site_type_symbol
 _atom_site_label
 _atom_site_symmetry_multiplicity
 _atom_site_fract_x
 _atom_site_fract_y
 _atom_site_fract_z
 _atom_site_occupancy
  K  K0  1  0.00026200  0.00000000  0.00000000  1
  Hf  Hf1  1  0.01720200  0.00000000  0.50000000  1
  Mg  Mg2  1  0.99955000  0.50000000  0.00000000  1
  Mg  Mg3  1  0.99723900  0.50000000  0.50000000  1
  Mg  Mg4  1  0.50088900  0.00000000  0.00000000  1
  Mg  Mg5  1  0.50062500  0.00000000  0.50000000  1
  Mg  Mg6  1  0.50032300  0.50000000  0.00000000  1
  Mg  Mg7  1  0.50092200  0.50000000  0.50000000  1
  Mg  Mg8  1  0.99962800  0.25890900  0.24546600  1
  Mg  Mg9  1  0.99962800  0.25890900  0.75453400  1
  Mg  Mg10  1  0.99962800  0.74109100  0.24546600  1
  Mg  Mg11  1  0.99962800  0.74109100  0.75453400  1
  Mg  Mg12  1  0.50000500  0.25166000  0.24907800  1
  Mg  Mg13  1  0.50000500  0.25166000  0.75092200  1
  Mg  Mg14  1  0.50000500  0.74834000  0.24907800  1
  Mg  Mg15  1  0.50000500  0.74834000  0.75092200  1
  Mg  Mg16  1  0.25954300  0.00000000  0.24276500  1
  Mg  Mg17  1  0.25954300  0.00000000  0.75723500  1
  Mg  Mg18  1  0.25136500  0.50000000  0.24767900  1
  Mg  Mg19  1  0.25136500  0.50000000  0.75232100  1
  Mg  Mg20  1  0.74324900  0.00000000  0.24755700  1
  Mg  Mg21  1  0.74324900  0.00000000  0.75244300  1
  Mg  Mg22  1  0.74827000  0.50000000  0.24918500  1
  Mg  Mg23  1  0.74827000  0.50000000  0.75081500  1
  Mg  Mg24  1  0.25267500  0.25404700  0.00000000  1
  Mg  Mg25  1  0.25288000  0.25684700  0.50000000  1
  Mg  Mg26  1  0.25267500  0.74595300  0.00000000  1
  Mg  Mg27  1  0.25288000  0.74315300  0.50000000  1
  Mg  Mg28  1  0.74736700  0.25218900  0.00000000  1
  Mg  Mg29  1  0.74700000  0.25223500  0.50000000  1
  Mg  Mg30  1  0.74736700  0.74781100  0.00000000  1
  Mg  Mg31  1  0.74700000  0.74776500  0.50000000  1
  O  O32  1  0.27471600  0.00000000  0.00000000  1
  O  O33  1  0.25457800  0.50000000  0.00000000  1
  O  O34  1  0.25021300  0.50000000  0.50000000  1
  O  O35  1  0.72628800  0.00000000  0.00000000  1
  O  O36  1  0.74881300  0.00000000  0.50000000  1
  O  O37  1  0.74529000  0.50000000  0.00000000  1
  O  O38  1  0.74731800  0.50000000  0.50000000  1
  O  O39  1  0.24960300  0.25242400  0.24668300  1
  O  O40  1  0.24960300  0.25242400  0.75331700  1
  O  O41  1  0.24960300  0.74757600  0.24668300  1
  O  O42  1  0.24960300  0.74757600  0.75331700  1
  O  O43  1  0.75022800  0.24923400  0.24955500  1
  O  O44  1  0.75022800  0.24923400  0.75044500  1
  O  O45  1  0.75022800  0.75076600  0.24955500  1
  O  O46  1  0.75022800  0.75076600  0.75044500  1
  O  O47  1  0.99839200  0.00000000  0.26967600  1
  O  O48  1  0.99839200  0.00000000  0.73032400  1
  O  O49  1  0.99934500  0.50000000  0.25530300  1
  O  O50  1  0.99934500  0.50000000  0.74469700  1
  O  O51  1  0.50007600  0.00000000  0.25592400  1
  O  O52  1  0.50007600  0.00000000  0.74407600  1
  O  O53  1  0.50029100  0.50000000  0.25200200  1
  O  O54  1  0.50029100  0.50000000  0.74799800  1
  O  O55  1  0.99924900  0.27417700  0.00000000  1
  O  O56  1  0.99329700  0.25619700  0.50000000  1
  O  O57  1  0.99924900  0.72582300  0.00000000  1
  O  O58  1  0.99329700  0.74380300  0.50000000  1
  O  O59  1  0.50042500  0.25446800  0.00000000  1
  O  O60  1  0.50053200  0.25153700  0.50000000  1
  O  O61  1  0.50042500  0.74553200  0.00000000  1
  O  O62  1  0.50053200  0.74846300  0.50000000  1
