data_image0
_chemical_formula_structural       O22Re4V4
_chemical_formula_sum              "O22 Re4 V4"
_cell_length_a       7.52835
_cell_length_b       7.52835
_cell_length_c       8.63801
_cell_angle_alpha    90
_cell_angle_beta     90
_cell_angle_gamma    47.4241

_space_group_name_H-M_alt    "P 1"
_space_group_IT_number       1

loop_
  _space_group_symop_operation_xyz
  'x, y, z'

loop_
  _atom_site_type_symbol
  _atom_site_label
  _atom_site_symmetry_multiplicity
  _atom_site_fract_x
  _atom_site_fract_y
  _atom_site_fract_z
  _atom_site_occupancy
  O   O1        1.0  0.31300  0.79000  0.56800  1.0000
  O   O2        1.0  0.68700  0.21000  0.06780  1.0000
  O   O3        1.0  0.79000  0.31300  0.56800  1.0000
  O   O4        1.0  0.21000  0.68700  0.06780  1.0000
  O   O5        1.0  0.56900  0.94800  0.35400  1.0000
  O   O6        1.0  0.43100  0.05250  0.85400  1.0000
  O   O7        1.0  0.94800  0.56900  0.35400  1.0000
  O   O8        1.0  0.05250  0.43100  0.85400  1.0000
  O   O9        1.0  0.40600  0.40600  0.38400  1.0000
  O   O10       1.0  0.59400  0.59400  0.88400  1.0000
  O   O11       1.0  0.15700  0.15700  0.45100  1.0000
  O   O12       1.0  0.84300  0.84300  0.95100  1.0000
  O   O13       1.0  0.10400  0.10400  0.13000  1.0000
  O   O14       1.0  0.89600  0.89600  0.63000  1.0000
  O   O15       1.0  0.28500  0.28500  0.14700  1.0000
  O   O16       1.0  0.71500  0.71500  0.64700  1.0000
  O   O17       1.0  0.70300  0.70300  0.09830  1.0000
  O   O18       1.0  0.29700  0.29700  0.59800  1.0000
  O   O19       1.0  0.94700  0.94700  0.32600  1.0000
  O   O20       1.0  0.05320  0.05320  0.82600  1.0000
  O   O21       1.0  0.57400  0.57400  0.29000  1.0000
  O   O22       1.0  0.42600  0.42600  0.79000  1.0000
  Re  Re1       1.0  0.28200  0.28200  0.35400  1.0000
  Re  Re2       1.0  0.71800  0.71800  0.85400  1.0000
  Re  Re3       1.0  0.00319  0.00319  0.01520  1.0000
  Re  Re4       1.0  0.99700  0.99700  0.51500  1.0000
  V   V1        1.0  0.81000  0.81000  0.19300  1.0000
  V   V2        1.0  0.19000  0.19000  0.69300  1.0000
  V   V3        1.0  0.64100  0.64100  0.44200  1.0000
  V   V4        1.0  0.35900  0.35900  0.94200  1.0000
