# generated using pymatgen
data_Si2O
_symmetry_space_group_name_H-M   'P 1'
_cell_length_a   3.84139795
_cell_length_b   3.84139795
_cell_length_c   4.45685965
_cell_angle_alpha   68.00376448
_cell_angle_beta   68.00376448
_cell_angle_gamma   47.48871376
_symmetry_Int_Tables_number   1
_chemical_formula_structural   Si2O
_chemical_formula_sum   'Si2 O1'
_cell_volume   44.23543797
_cell_formula_units_Z   1
loop_
 _symmetry_equiv_pos_site_id
 _symmetry_equiv_pos_as_xyz
  1  'x, y, z'
loop_
 _atom_site_type_symbol
 _atom_site_label
 _atom_site_symmetry_multiplicity
 _atom_site_fract_x
 _atom_site_fract_y
 _atom_site_fract_z
 _atom_site_occupancy
  Si  Si0  1  0.65235700  0.65235700  0.93774900  1
  Si  Si1  1  0.28887100  0.28887100  0.20624100  1
  O  O2  1  0.72547200  0.72547200  0.51601000  1
