# generated using pymatgen
data_RbP
_symmetry_space_group_name_H-M   'P 1'
_cell_length_a   5.05829321
_cell_length_b   5.05829321
_cell_length_c   5.05829282
_cell_angle_alpha   57.78293781
_cell_angle_beta   57.78293781
_cell_angle_gamma   57.78294791
_symmetry_Int_Tables_number   1
_chemical_formula_structural   RbP
_chemical_formula_sum   'Rb1 P1'
_cell_volume   86.85637941
_cell_formula_units_Z   1
loop_
 _symmetry_equiv_pos_site_id
 _symmetry_equiv_pos_as_xyz
  1  'x, y, z'
loop_
 _atom_site_type_symbol
 _atom_site_label
 _atom_site_symmetry_multiplicity
 _atom_site_fract_x
 _atom_site_fract_y
 _atom_site_fract_z
 _atom_site_occupancy
  Rb  Rb0  1  0.00000000  0.00000000  0.00000000  1
  P  P1  1  0.50000000  0.50000000  0.50000000  1
