# generated using pymatgen
data_U
_symmetry_space_group_name_H-M   'P 1'
_cell_length_a   2.68083356
_cell_length_b   2.66421485
_cell_length_c   2.66578519
_cell_angle_alpha   89.94975065
_cell_angle_beta   89.96616483
_cell_angle_gamma   89.91961438
_symmetry_Int_Tables_number   1
_chemical_formula_structural   U
_chemical_formula_sum   U1
_cell_volume   19.03985240
_cell_formula_units_Z   1
loop_
 _symmetry_equiv_pos_site_id
 _symmetry_equiv_pos_as_xyz
  1  'x, y, z'
loop_
 _atom_site_type_symbol
 _atom_site_label
 _atom_site_symmetry_multiplicity
 _atom_site_fract_x
 _atom_site_fract_y
 _atom_site_fract_z
 _atom_site_occupancy
  U  U0  1  0.49999900  0.00000200  0.50000000  1
