data_image0
_chemical_formula_structural       Bi2Mg4O12V2
_chemical_formula_sum              "Bi2 Mg4 O12 V2"
_cell_length_a       5.44823
_cell_length_b       7.25885
_cell_length_c       7.25885
_cell_angle_alpha    65.7798
_cell_angle_beta     90
_cell_angle_gamma    90

_space_group_name_H-M_alt    "P 1"
_space_group_IT_number       1

loop_
  _space_group_symop_operation_xyz
  'x, y, z'

loop_
  _atom_site_type_symbol
  _atom_site_label
  _atom_site_symmetry_multiplicity
  _atom_site_fract_x
  _atom_site_fract_y
  _atom_site_fract_z
  _atom_site_occupancy
  Bi  Bi1       1.0  0.75000  0.40400  0.40400  1.0000
  Bi  Bi2       1.0  0.25000  0.59600  0.59600  1.0000
  Mg  Mg1       1.0  0.25000  0.72200  0.10600  1.0000
  Mg  Mg2       1.0  0.75000  0.89500  0.27800  1.0000
  Mg  Mg3       1.0  0.25000  0.10600  0.72200  1.0000
  Mg  Mg4       1.0  0.75000  0.27800  0.89500  1.0000
  O   O1        1.0  0.25000  0.45500  0.09670  1.0000
  O   O2        1.0  0.51000  0.11400  0.11400  1.0000
  O   O3        1.0  0.99000  0.11400  0.11400  1.0000
  O   O4        1.0  0.00000  0.67000  0.33000  1.0000
  O   O5        1.0  0.50000  0.67000  0.33000  1.0000
  O   O6        1.0  0.25000  0.09670  0.45500  1.0000
  O   O7        1.0  0.75000  0.90300  0.54500  1.0000
  O   O8        1.0  0.00000  0.33000  0.67000  1.0000
  O   O9        1.0  0.50000  0.33000  0.67000  1.0000
  O   O10       1.0  0.01040  0.88600  0.88600  1.0000
  O   O11       1.0  0.49000  0.88600  0.88600  1.0000
  O   O12       1.0  0.75000  0.54500  0.90300  1.0000
  V   V1        1.0  0.25000  0.19700  0.19700  1.0000
  V   V2        1.0  0.75000  0.80300  0.80300  1.0000
