data_image0
_chemical_formula_structural       La20Pb16
_chemical_formula_sum              "La20 Pb16"
_cell_length_a       8.42601
_cell_length_b       16.1557
_cell_length_c       8.60356
_cell_angle_alpha    90
_cell_angle_beta     90
_cell_angle_gamma    90

_space_group_name_H-M_alt    "P 1"
_space_group_IT_number       1

loop_
  _space_group_symop_operation_xyz
  'x, y, z'

loop_
  _atom_site_type_symbol
  _atom_site_label
  _atom_site_symmetry_multiplicity
  _atom_site_fract_x
  _atom_site_fract_y
  _atom_site_fract_z
  _atom_site_occupancy
  La  La1       1.0  0.14700  0.12300  0.34400  1.0000
  La  La2       1.0  0.35300  0.87700  0.84400  1.0000
  La  La3       1.0  0.64700  0.37700  0.15600  1.0000
  La  La4       1.0  0.85300  0.62300  0.65600  1.0000
  La  La5       1.0  0.85300  0.87700  0.65600  1.0000
  La  La6       1.0  0.64700  0.12300  0.15600  1.0000
  La  La7       1.0  0.35300  0.62300  0.84400  1.0000
  La  La8       1.0  0.14700  0.37700  0.34400  1.0000
  La  La9       1.0  0.99500  0.09440  0.81600  1.0000
  La  La10      1.0  0.50500  0.90600  0.31600  1.0000
  La  La11      1.0  0.49500  0.40600  0.68400  1.0000
  La  La12      1.0  0.00458  0.59400  0.18400  1.0000
  La  La13      1.0  0.00458  0.90600  0.18400  1.0000
  La  La14      1.0  0.49500  0.09440  0.68400  1.0000
  La  La15      1.0  0.50500  0.59400  0.31600  1.0000
  La  La16      1.0  0.99500  0.40600  0.81600  1.0000
  La  La17      1.0  0.33400  0.25000  0.01300  1.0000
  La  La18      1.0  0.16600  0.75000  0.51300  1.0000
  La  La19      1.0  0.83400  0.25000  0.48700  1.0000
  La  La20      1.0  0.66600  0.75000  0.98700  1.0000
  Pb  Pb1       1.0  0.95900  0.25000  0.10200  1.0000
  Pb  Pb2       1.0  0.54100  0.75000  0.60200  1.0000
  Pb  Pb3       1.0  0.45900  0.25000  0.39800  1.0000
  Pb  Pb4       1.0  0.04110  0.75000  0.89800  1.0000
  Pb  Pb5       1.0  0.20100  0.95900  0.54400  1.0000
  Pb  Pb6       1.0  0.29900  0.04150  0.04440  1.0000
  Pb  Pb7       1.0  0.70100  0.54100  0.95600  1.0000
  Pb  Pb8       1.0  0.79900  0.45900  0.45600  1.0000
  Pb  Pb9       1.0  0.79900  0.04150  0.45600  1.0000
  Pb  Pb10      1.0  0.70100  0.95900  0.95600  1.0000
  Pb  Pb11      1.0  0.29900  0.45900  0.04440  1.0000
  Pb  Pb12      1.0  0.20100  0.54100  0.54400  1.0000
  Pb  Pb13      1.0  0.19900  0.25000  0.66200  1.0000
  Pb  Pb14      1.0  0.30100  0.75000  0.16200  1.0000
  Pb  Pb15      1.0  0.69900  0.25000  0.83800  1.0000
  Pb  Pb16      1.0  0.80100  0.75000  0.33800  1.0000
