# generated using pymatgen
data_TiS2N
_symmetry_space_group_name_H-M   'P 1'
_cell_length_a   8.94110107
_cell_length_b   8.94110107
_cell_length_c   8.94110096
_cell_angle_alpha   22.06531994
_cell_angle_beta   22.06531994
_cell_angle_gamma   22.06531682
_symmetry_Int_Tables_number   1
_chemical_formula_structural   TiS2N
_chemical_formula_sum   'Ti1 S2 N1'
_cell_volume   88.43696277
_cell_formula_units_Z   1
loop_
 _symmetry_equiv_pos_site_id
 _symmetry_equiv_pos_as_xyz
  1  'x, y, z'
loop_
 _atom_site_type_symbol
 _atom_site_label
 _atom_site_symmetry_multiplicity
 _atom_site_fract_x
 _atom_site_fract_y
 _atom_site_fract_z
 _atom_site_occupancy
  Ti  Ti0  1  0.99997500  0.99997500  0.99997500  1
  S  S1  1  0.38761400  0.38761400  0.38761400  1
  S  S2  1  0.61238100  0.61238100  0.61238100  1
  N  N3  1  0.16703000  0.16703000  0.16703000  1
