# generated using pymatgen
data_NF
_symmetry_space_group_name_H-M   'P 1'
_cell_length_a   5.09930516
_cell_length_b   5.09930516
_cell_length_c   5.09930578
_cell_angle_alpha   48.22349708
_cell_angle_beta   48.22349708
_cell_angle_gamma   48.22349575
_symmetry_Int_Tables_number   1
_chemical_formula_structural   NF
_chemical_formula_sum   'N2 F2'
_cell_volume   67.59135320
_cell_formula_units_Z   2
loop_
 _symmetry_equiv_pos_site_id
 _symmetry_equiv_pos_as_xyz
  1  'x, y, z'
loop_
 _atom_site_type_symbol
 _atom_site_label
 _atom_site_symmetry_multiplicity
 _atom_site_fract_x
 _atom_site_fract_y
 _atom_site_fract_z
 _atom_site_occupancy
  N  N0  1  0.95853700  0.95853700  0.95853700  1
  N  N1  1  0.04146300  0.04146300  0.04146300  1
  F  F2  1  0.75891800  0.75891800  0.75891800  1
  F  F3  1  0.24108200  0.24108200  0.24108200  1
