# generated using pymatgen
data_SnS
_symmetry_space_group_name_H-M   'P 1'
_cell_length_a   4.10518000
_cell_length_b   4.10919204
_cell_length_c   11.04109503
_cell_angle_alpha   98.01679782
_cell_angle_beta   90.63677386
_cell_angle_gamma   90.00752939
_symmetry_Int_Tables_number   1
_chemical_formula_structural   SnS
_chemical_formula_sum   'Sn2 S2'
_cell_volume   184.42007903
_cell_formula_units_Z   2
loop_
 _symmetry_equiv_pos_site_id
 _symmetry_equiv_pos_as_xyz
  1  'x, y, z'
loop_
 _atom_site_type_symbol
 _atom_site_label
 _atom_site_symmetry_multiplicity
 _atom_site_fract_x
 _atom_site_fract_y
 _atom_site_fract_z
 _atom_site_occupancy
  Sn  Sn0  1  0.74223300  0.69580500  0.36480100  1
  Sn  Sn1  1  0.25776700  0.30419500  0.63519900  1
  S  S2  1  0.75300000  0.78755400  0.60042200  1
  S  S3  1  0.24700000  0.21244600  0.39957800  1
