# generated using pymatgen
data_K3Rh
_symmetry_space_group_name_H-M   'P 1'
_cell_length_a   5.65959891
_cell_length_b   5.65959891
_cell_length_c   6.31976146
_cell_angle_alpha   87.26442716
_cell_angle_beta   87.26442716
_cell_angle_gamma   61.27869499
_symmetry_Int_Tables_number   1
_chemical_formula_structural   K3Rh
_chemical_formula_sum   'K3 Rh1'
_cell_volume   177.25003008
_cell_formula_units_Z   1
loop_
 _symmetry_equiv_pos_site_id
 _symmetry_equiv_pos_as_xyz
  1  'x, y, z'
loop_
 _atom_site_type_symbol
 _atom_site_label
 _atom_site_symmetry_multiplicity
 _atom_site_fract_x
 _atom_site_fract_y
 _atom_site_fract_z
 _atom_site_occupancy
  K  K0  1  0.00000000  0.00000000  0.50000000  1
  K  K1  1  0.33830400  0.33830400  0.88321800  1
  K  K2  1  0.66169600  0.66169600  0.11678200  1
  Rh  Rh3  1  0.00000000  0.00000000  0.00000000  1
