# generated using pymatgen
data_PdN
_symmetry_space_group_name_H-M   'P 1'
_cell_length_a   3.41774298
_cell_length_b   3.41774298
_cell_length_c   9.04012600
_cell_angle_alpha   90.00000000
_cell_angle_beta   90.00000000
_cell_angle_gamma   122.16353623
_symmetry_Int_Tables_number   1
_chemical_formula_structural   PdN
_chemical_formula_sum   'Pd2 N2'
_cell_volume   89.39160348
_cell_formula_units_Z   2
loop_
 _symmetry_equiv_pos_site_id
 _symmetry_equiv_pos_as_xyz
  1  'x, y, z'
loop_
 _atom_site_type_symbol
 _atom_site_label
 _atom_site_symmetry_multiplicity
 _atom_site_fract_x
 _atom_site_fract_y
 _atom_site_fract_z
 _atom_site_occupancy
  Pd  Pd0  1  0.66843700  0.33156300  0.25000000  1
  Pd  Pd1  1  0.33156300  0.66843700  0.75000000  1
  N  N2  1  0.66855000  0.33145000  0.75000000  1
  N  N3  1  0.33145000  0.66855000  0.25000000  1
