# generated using pymatgen
data_Ho2Ga8Fe
_symmetry_space_group_name_H-M   'P 1'
_cell_length_a   4.24592700
_cell_length_b   4.24592700
_cell_length_c   11.06580300
_cell_angle_alpha   90.00000000
_cell_angle_beta   90.00000000
_cell_angle_gamma   90.00000000
_symmetry_Int_Tables_number   1
_chemical_formula_structural   Ho2Ga8Fe
_chemical_formula_sum   'Ho2 Ga8 Fe1'
_cell_volume   199.49314663
_cell_formula_units_Z   1
loop_
 _symmetry_equiv_pos_site_id
 _symmetry_equiv_pos_as_xyz
  1  'x, y, z'
loop_
 _atom_site_type_symbol
 _atom_site_label
 _atom_site_symmetry_multiplicity
 _atom_site_fract_x
 _atom_site_fract_y
 _atom_site_fract_z
 _atom_site_occupancy
  Ho  Ho0  1  0.00000000  0.00000000  0.69501600  1
  Ho  Ho1  1  0.00000000  0.00000000  0.30498400  1
  Ga  Ga2  1  0.50000000  0.00000000  0.50000000  1
  Ga  Ga3  1  0.00000000  0.50000000  0.50000000  1
  Ga  Ga4  1  0.50000000  0.50000000  0.69985400  1
  Ga  Ga5  1  0.50000000  0.50000000  0.30014600  1
  Ga  Ga6  1  0.50000000  0.00000000  0.88503100  1
  Ga  Ga7  1  0.00000000  0.50000000  0.88503100  1
  Ga  Ga8  1  0.50000000  0.00000000  0.11496900  1
  Ga  Ga9  1  0.00000000  0.50000000  0.11496900  1
  Fe  Fe10  1  0.00000000  0.00000000  0.00000000  1
