# generated using pymatgen
data_Sr(InHg)2
_symmetry_space_group_name_H-M   'P 1'
_cell_length_a   7.42847806
_cell_length_b   7.42847806
_cell_length_c   7.42847806
_cell_angle_alpha   143.62788157
_cell_angle_beta   143.62788157
_cell_angle_gamma   52.38410415
_symmetry_Int_Tables_number   1
_chemical_formula_structural   Sr(InHg)2
_chemical_formula_sum   'Sr1 In2 Hg2'
_cell_volume   143.31931024
_cell_formula_units_Z   1
loop_
 _symmetry_equiv_pos_site_id
 _symmetry_equiv_pos_as_xyz
  1  'x, y, z'
loop_
 _atom_site_type_symbol
 _atom_site_label
 _atom_site_symmetry_multiplicity
 _atom_site_fract_x
 _atom_site_fract_y
 _atom_site_fract_z
 _atom_site_occupancy
  Sr  Sr0  1  0.00000000  0.00000000  0.00000000  1
  In  In1  1  0.75000000  0.25000000  0.50000000  1
  In  In2  1  0.25000000  0.75000000  0.50000000  1
  Hg  Hg3  1  0.60687600  0.60687600  0.00000000  1
  Hg  Hg4  1  0.39312400  0.39312400  0.00000000  1
