# generated using pymatgen
data_Cd(BrN)2
_symmetry_space_group_name_H-M   'P 1'
_cell_length_a   6.18807643
_cell_length_b   6.18807643
_cell_length_c   3.90812700
_cell_angle_alpha   90.00000000
_cell_angle_beta   90.00000000
_cell_angle_gamma   98.60820109
_symmetry_Int_Tables_number   1
_chemical_formula_structural   Cd(BrN)2
_chemical_formula_sum   'Cd1 Br2 N2'
_cell_volume   147.96530722
_cell_formula_units_Z   1
loop_
 _symmetry_equiv_pos_site_id
 _symmetry_equiv_pos_as_xyz
  1  'x, y, z'
loop_
 _atom_site_type_symbol
 _atom_site_label
 _atom_site_symmetry_multiplicity
 _atom_site_fract_x
 _atom_site_fract_y
 _atom_site_fract_z
 _atom_site_occupancy
  Cd  Cd0  1  0.00000000  0.00000000  0.00000000  1
  Br  Br1  1  0.23335500  0.23335500  0.50000000  1
  Br  Br2  1  0.76664500  0.76664500  0.50000000  1
  N  N3  1  0.27418900  0.72581100  0.00000000  1
  N  N4  1  0.72581100  0.27418900  0.00000000  1
