data_image0
_chemical_formula_structural       Ge4Mn8S16
_chemical_formula_sum              "Ge4 Mn8 S16"
_cell_length_a       12.4792
_cell_length_b       7.21358
_cell_length_c       6.01617
_cell_angle_alpha    90
_cell_angle_beta     90
_cell_angle_gamma    90

_space_group_name_H-M_alt    "P 1"
_space_group_IT_number       1

loop_
  _space_group_symop_operation_xyz
  'x, y, z'

loop_
  _atom_site_type_symbol
  _atom_site_label
  _atom_site_symmetry_multiplicity
  _atom_site_fract_x
  _atom_site_fract_y
  _atom_site_fract_z
  _atom_site_occupancy
  Ge  Ge1       1.0  0.41200  0.25000  0.08370  1.0000
  Ge  Ge2       1.0  0.08840  0.75000  0.58400  1.0000
  Ge  Ge3       1.0  0.91200  0.25000  0.41600  1.0000
  Ge  Ge4       1.0  0.58800  0.75000  0.91600  1.0000
  Mn  Mn1       1.0  0.00000  0.00000  0.00000  1.0000
  Mn  Mn2       1.0  0.50000  0.00000  0.50000  1.0000
  Mn  Mn3       1.0  0.50000  0.50000  0.50000  1.0000
  Mn  Mn4       1.0  0.00000  0.50000  0.00000  1.0000
  Mn  Mn5       1.0  0.23400  0.25000  0.50000  1.0000
  Mn  Mn6       1.0  0.26600  0.75000  0.00000  1.0000
  Mn  Mn7       1.0  0.73400  0.25000  0.00017  1.0000
  Mn  Mn8       1.0  0.76600  0.75000  0.50000  1.0000
  S   S1        1.0  0.57600  0.25000  0.24900  1.0000
  S   S2        1.0  0.92400  0.75000  0.74900  1.0000
  S   S3        1.0  0.07570  0.25000  0.25100  1.0000
  S   S4        1.0  0.42400  0.75000  0.75100  1.0000
  S   S5        1.0  0.40800  0.25000  0.71100  1.0000
  S   S6        1.0  0.09240  0.75000  0.21100  1.0000
  S   S7        1.0  0.90800  0.25000  0.78900  1.0000
  S   S8        1.0  0.59200  0.75000  0.28900  1.0000
  S   S9        1.0  0.33200  0.00683  0.25400  1.0000
  S   S10       1.0  0.16800  0.99300  0.75400  1.0000
  S   S11       1.0  0.83200  0.49300  0.24600  1.0000
  S   S12       1.0  0.66800  0.50700  0.74600  1.0000
  S   S13       1.0  0.66800  0.99300  0.74600  1.0000
  S   S14       1.0  0.83200  0.00683  0.24600  1.0000
  S   S15       1.0  0.16800  0.50700  0.75400  1.0000
  S   S16       1.0  0.33200  0.49300  0.25400  1.0000
