# generated using pymatgen
data_Zr2H3Pd
_symmetry_space_group_name_H-M   'P 1'
_cell_length_a   7.07332116
_cell_length_b   7.07332116
_cell_length_c   7.07332116
_cell_angle_alpha   153.79641530
_cell_angle_beta   153.79641530
_cell_angle_gamma   37.39557839
_symmetry_Int_Tables_number   1
_chemical_formula_structural   Zr2H3Pd
_chemical_formula_sum   'Zr2 H3 Pd1'
_cell_volume   68.89939505
_cell_formula_units_Z   1
loop_
 _symmetry_equiv_pos_site_id
 _symmetry_equiv_pos_as_xyz
  1  'x, y, z'
loop_
 _atom_site_type_symbol
 _atom_site_label
 _atom_site_symmetry_multiplicity
 _atom_site_fract_x
 _atom_site_fract_y
 _atom_site_fract_z
 _atom_site_occupancy
  Zr  Zr0  1  0.64706200  0.64706200  0.00000000  1
  Zr  Zr1  1  0.35293800  0.35293800  0.00000000  1
  H  H2  1  0.50000000  0.50000000  0.00000000  1
  H  H3  1  0.75000000  0.25000000  0.50000000  1
  H  H4  1  0.25000000  0.75000000  0.50000000  1
  Pd  Pd5  1  0.00000000  0.00000000  0.00000000  1
