# generated using pymatgen
data_Nb5Ga13
_symmetry_space_group_name_H-M   'P 1'
_cell_length_a   20.48964559
_cell_length_b   20.48964559
_cell_length_c   3.79071800
_cell_angle_alpha   90.00000000
_cell_angle_beta   90.00000000
_cell_angle_gamma   169.34256596
_symmetry_Int_Tables_number   1
_chemical_formula_structural   Nb5Ga13
_chemical_formula_sum   'Nb5 Ga13'
_cell_volume   294.31551560
_cell_formula_units_Z   1
loop_
 _symmetry_equiv_pos_site_id
 _symmetry_equiv_pos_as_xyz
  1  'x, y, z'
loop_
 _atom_site_type_symbol
 _atom_site_label
 _atom_site_symmetry_multiplicity
 _atom_site_fract_x
 _atom_site_fract_y
 _atom_site_fract_z
 _atom_site_occupancy
  Nb  Nb0  1  0.10797900  0.89202100  0.50000000  1
  Nb  Nb1  1  0.89202100  0.10797900  0.50000000  1
  Nb  Nb2  1  0.28391500  0.71608500  0.00000000  1
  Nb  Nb3  1  0.71608500  0.28391500  0.00000000  1
  Nb  Nb4  1  0.50000000  0.50000000  0.00000000  1
  Ga  Ga5  1  0.44514200  0.55485800  0.50000000  1
  Ga  Ga6  1  0.55485800  0.44514200  0.50000000  1
  Ga  Ga7  1  0.33565600  0.66434400  0.50000000  1
  Ga  Ga8  1  0.66434400  0.33565600  0.50000000  1
  Ga  Ga9  1  0.22817900  0.77182100  0.50000000  1
  Ga  Ga10  1  0.00000000  0.00000000  0.50000000  1
  Ga  Ga11  1  0.94538900  0.05461100  0.00000000  1
  Ga  Ga12  1  0.05461100  0.94538900  0.00000000  1
  Ga  Ga13  1  0.83504500  0.16495500  0.00000000  1
  Ga  Ga14  1  0.16495500  0.83504500  0.00000000  1
  Ga  Ga15  1  0.61189300  0.38810700  0.00000000  1
  Ga  Ga16  1  0.38810700  0.61189300  0.00000000  1
  Ga  Ga17  1  0.77182100  0.22817900  0.50000000  1
