# generated using pymatgen
data_SrN2
_symmetry_space_group_name_H-M   'P 1'
_cell_length_a   8.13996079
_cell_length_b   8.13996079
_cell_length_c   8.13996079
_cell_angle_alpha   146.24913046
_cell_angle_beta   146.24913046
_cell_angle_gamma   48.47686865
_symmetry_Int_Tables_number   1
_chemical_formula_structural   SrN2
_chemical_formula_sum   'Sr2 N4'
_cell_volume   165.77455516
_cell_formula_units_Z   2
loop_
 _symmetry_equiv_pos_site_id
 _symmetry_equiv_pos_as_xyz
  1  'x, y, z'
loop_
 _atom_site_type_symbol
 _atom_site_label
 _atom_site_symmetry_multiplicity
 _atom_site_fract_x
 _atom_site_fract_y
 _atom_site_fract_z
 _atom_site_occupancy
  Sr  Sr0  1  0.75000000  0.25000000  0.50000000  1
  Sr  Sr1  1  0.00000000  0.00000000  0.00000000  1
  N  N2  1  0.82100700  0.82100700  0.00000000  1
  N  N3  1  0.57100700  0.07100700  0.50000000  1
  N  N4  1  0.92899300  0.42899300  0.50000000  1
  N  N5  1  0.17899300  0.17899300  0.00000000  1
