# generated using pymatgen
data_KO2
_symmetry_space_group_name_H-M   'P 1'
_cell_length_a   7.32595800
_cell_length_b   7.35237420
_cell_length_c   11.34631870
_cell_angle_alpha   99.96360619
_cell_angle_beta   71.16559167
_cell_angle_gamma   60.11878051
_symmetry_Int_Tables_number   1
_chemical_formula_structural   KO2
_chemical_formula_sum   'K2 O4'
_cell_volume   458.14875165
_cell_formula_units_Z   2
loop_
 _symmetry_equiv_pos_site_id
 _symmetry_equiv_pos_as_xyz
  1  'x, y, z'
loop_
 _atom_site_type_symbol
 _atom_site_label
 _atom_site_symmetry_multiplicity
 _atom_site_fract_x
 _atom_site_fract_y
 _atom_site_fract_z
 _atom_site_occupancy
  K  K0  1  0.50000000  0.50000000  0.50000000  1
  K  K1  1  0.00000000  0.00000000  0.00000000  1
  O  O2  1  0.24310800  0.65441600  0.76357900  1
  O  O3  1  0.16110300  0.84558400  0.73642100  1
  O  O4  1  0.75689200  0.34558400  0.23642100  1
  O  O5  1  0.83889700  0.15441600  0.26357900  1
