# generated using pymatgen
data_Be3N2
_symmetry_space_group_name_H-M   'P 1'
_cell_length_a   5.14725713
_cell_length_b   5.14725713
_cell_length_c   5.14725767
_cell_angle_alpha   32.11780154
_cell_angle_beta   32.11780154
_cell_angle_gamma   32.11780023
_symmetry_Int_Tables_number   1
_chemical_formula_structural   Be3N2
_chemical_formula_sum   'Be3 N2'
_cell_volume   34.25575595
_cell_formula_units_Z   1
loop_
 _symmetry_equiv_pos_site_id
 _symmetry_equiv_pos_as_xyz
  1  'x, y, z'
loop_
 _atom_site_type_symbol
 _atom_site_label
 _atom_site_symmetry_multiplicity
 _atom_site_fract_x
 _atom_site_fract_y
 _atom_site_fract_z
 _atom_site_occupancy
  Be  Be0  1  0.14098100  0.14098100  0.14098100  1
  Be  Be1  1  0.68249600  0.68249600  0.68249600  1
  Be  Be2  1  0.91108700  0.91108700  0.91108700  1
  N  N3  1  0.79572400  0.79572400  0.79572400  1
  N  N4  1  0.29161200  0.29161200  0.29161200  1
