# generated using pymatgen
data_MgSi2
_symmetry_space_group_name_H-M   'P 1'
_cell_length_a   3.64344700
_cell_length_b   4.46311300
_cell_length_c   6.50664674
_cell_angle_alpha   79.39382258
_cell_angle_beta   90.00000000
_cell_angle_gamma   90.00000000
_symmetry_Int_Tables_number   1
_chemical_formula_structural   MgSi2
_chemical_formula_sum   'Mg2 Si4'
_cell_volume   103.99770509
_cell_formula_units_Z   2
loop_
 _symmetry_equiv_pos_site_id
 _symmetry_equiv_pos_as_xyz
  1  'x, y, z'
loop_
 _atom_site_type_symbol
 _atom_site_label
 _atom_site_symmetry_multiplicity
 _atom_site_fract_x
 _atom_site_fract_y
 _atom_site_fract_z
 _atom_site_occupancy
  Mg  Mg0  1  0.25000000  0.93497500  0.20041400  1
  Mg  Mg1  1  0.75000000  0.06502500  0.79958600  1
  Si  Si2  1  0.25000000  0.33965700  0.46525600  1
  Si  Si3  1  0.75000000  0.44587800  0.13053100  1
  Si  Si4  1  0.25000000  0.55412200  0.86946900  1
  Si  Si5  1  0.75000000  0.66034300  0.53474400  1
