# generated using pymatgen
data_Mg2Si3
_symmetry_space_group_name_H-M   'P 1'
_cell_length_a   3.76916400
_cell_length_b   6.15921997
_cell_length_c   17.40786021
_cell_angle_alpha   83.28809049
_cell_angle_beta   83.92262449
_cell_angle_gamma   72.80973697
_symmetry_Int_Tables_number   1
_chemical_formula_structural   Mg2Si3
_chemical_formula_sum   'Mg8 Si12'
_cell_volume   382.34146026
_cell_formula_units_Z   4
loop_
 _symmetry_equiv_pos_site_id
 _symmetry_equiv_pos_as_xyz
  1  'x, y, z'
loop_
 _atom_site_type_symbol
 _atom_site_label
 _atom_site_symmetry_multiplicity
 _atom_site_fract_x
 _atom_site_fract_y
 _atom_site_fract_z
 _atom_site_occupancy
  Mg  Mg0  1  0.29259000  0.99307000  0.24138900  1
  Mg  Mg1  1  0.04299600  0.92442600  0.75679800  1
  Mg  Mg2  1  0.39274400  0.93874500  0.05793700  1
  Mg  Mg3  1  0.86514900  0.16245700  0.91169800  1
  Mg  Mg4  1  0.77955900  0.46629800  0.74511200  1
  Mg  Mg5  1  0.57058500  0.43472500  0.24936800  1
  Mg  Mg6  1  0.92003400  0.39105500  0.56609700  1
  Mg  Mg7  1  0.42892200  0.52138100  0.41947300  1
  Si  Si8  1  0.72138600  0.36729200  0.04572600  1
  Si  Si9  1  0.04127300  0.65640200  0.98582500  1
  Si  Si10  1  0.18423700  0.35977600  0.13338600  1
  Si  Si11  1  0.55037600  0.80434900  0.88667300  1
  Si  Si12  1  0.45699600  0.20355600  0.67038100  1
  Si  Si13  1  0.89618300  0.70352800  0.31435900  1
  Si  Si14  1  0.22764400  0.78948200  0.54311900  1
  Si  Si15  1  0.12216100  0.11232800  0.44741000  1
  Si  Si16  1  0.66681800  0.82703100  0.62831700  1
  Si  Si17  1  0.68214300  0.07609800  0.36444800  1
  Si  Si18  1  0.95077300  0.74399800  0.17104000  1
  Si  Si19  1  0.20729300  0.52398000  0.86138300  1
