# generated using pymatgen
data_MgSi2
_symmetry_space_group_name_H-M   'P 1'
_cell_length_a   2.78037800
_cell_length_b   7.73418900
_cell_length_c   9.17470300
_cell_angle_alpha   90.00000000
_cell_angle_beta   90.00000000
_cell_angle_gamma   90.00000000
_symmetry_Int_Tables_number   1
_chemical_formula_structural   MgSi2
_chemical_formula_sum   'Mg4 Si8'
_cell_volume   197.29252838
_cell_formula_units_Z   4
loop_
 _symmetry_equiv_pos_site_id
 _symmetry_equiv_pos_as_xyz
  1  'x, y, z'
loop_
 _atom_site_type_symbol
 _atom_site_label
 _atom_site_symmetry_multiplicity
 _atom_site_fract_x
 _atom_site_fract_y
 _atom_site_fract_z
 _atom_site_occupancy
  Mg  Mg0  1  0.00000000  0.07875700  0.00000000  1
  Mg  Mg1  1  0.00000000  0.79253200  0.50000000  1
  Mg  Mg2  1  0.00000000  0.56483000  0.23527500  1
  Mg  Mg3  1  0.00000000  0.56483000  0.76472500  1
  Si  Si4  1  0.50000000  0.74476300  0.00000000  1
  Si  Si5  1  0.50000000  0.45163200  0.50000000  1
  Si  Si6  1  0.50000000  0.23879300  0.25001400  1
  Si  Si7  1  0.50000000  0.23879300  0.74998600  1
  Si  Si8  1  0.50000000  0.90291000  0.23944800  1
  Si  Si9  1  0.50000000  0.90291000  0.76055200  1
  Si  Si10  1  0.50000000  0.40524500  0.00000000  1
  Si  Si11  1  0.50000000  0.11165800  0.50000000  1
