# generated using pymatgen
data_ZrCu2
_symmetry_space_group_name_H-M   'P 1'
_cell_length_a   4.87705573
_cell_length_b   4.87705573
_cell_length_c   4.63839000
_cell_angle_alpha   90.00000000
_cell_angle_beta   90.00000000
_cell_angle_gamma   122.51752718
_symmetry_Int_Tables_number   1
_chemical_formula_structural   ZrCu2
_chemical_formula_sum   'Zr2 Cu4'
_cell_volume   93.03090054
_cell_formula_units_Z   2
loop_
 _symmetry_equiv_pos_site_id
 _symmetry_equiv_pos_as_xyz
  1  'x, y, z'
loop_
 _atom_site_type_symbol
 _atom_site_label
 _atom_site_symmetry_multiplicity
 _atom_site_fract_x
 _atom_site_fract_y
 _atom_site_fract_z
 _atom_site_occupancy
  Zr  Zr0  1  0.23417000  0.23417000  0.75000000  1
  Zr  Zr1  1  0.76583000  0.76583000  0.25000000  1
  Cu  Cu2  1  0.53615800  0.89797000  0.75000000  1
  Cu  Cu3  1  0.89797000  0.53615800  0.75000000  1
  Cu  Cu4  1  0.10203000  0.46384200  0.25000000  1
  Cu  Cu5  1  0.46384200  0.10203000  0.25000000  1
