# generated using pymatgen
data_Sr2GdS3
_symmetry_space_group_name_H-M   'P 1'
_cell_length_a   4.10148900
_cell_length_b   4.10148900
_cell_length_c   14.05459200
_cell_angle_alpha   90.00000000
_cell_angle_beta   90.00000000
_cell_angle_gamma   90.00000000
_symmetry_Int_Tables_number   1
_chemical_formula_structural   Sr2GdS3
_chemical_formula_sum   'Sr2 Gd1 S3'
_cell_volume   236.42932644
_cell_formula_units_Z   1
loop_
 _symmetry_equiv_pos_site_id
 _symmetry_equiv_pos_as_xyz
  1  'x, y, z'
loop_
 _atom_site_type_symbol
 _atom_site_label
 _atom_site_symmetry_multiplicity
 _atom_site_fract_x
 _atom_site_fract_y
 _atom_site_fract_z
 _atom_site_occupancy
  Sr  Sr0  1  0.00000000  0.00000000  0.20534600  1
  Sr  Sr1  1  0.00000000  0.00000000  0.79465400  1
  Gd  Gd2  1  0.50000000  0.50000000  0.00000000  1
  S  S3  1  0.50000000  0.50000000  0.20775300  1
  S  S4  1  0.50000000  0.50000000  0.79224700  1
  S  S5  1  0.00000000  0.00000000  0.00000000  1
