data_image0
_chemical_formula_structural       Li8P56
_chemical_formula_sum              "Li8 P56"
_cell_length_a       11.9733
_cell_length_b       11.9733
_cell_length_c       11.9733
_cell_angle_alpha    112.132
_cell_angle_beta     112.132
_cell_angle_gamma    104.271

_space_group_name_H-M_alt    "P 1"
_space_group_IT_number       1

loop_
  _space_group_symop_operation_xyz
  'x, y, z'

loop_
  _atom_site_type_symbol
  _atom_site_label
  _atom_site_symmetry_multiplicity
  _atom_site_fract_x
  _atom_site_fract_y
  _atom_site_fract_z
  _atom_site_occupancy
  Li  Li1       1.0  0.50500  0.99500  0.25000  1.0000
  Li  Li2       1.0  0.24500  0.25500  0.25000  1.0000
  Li  Li3       1.0  0.99500  0.24500  0.49000  1.0000
  Li  Li4       1.0  0.25500  0.50500  0.00988  1.0000
  Li  Li5       1.0  0.49500  0.00494  0.75000  1.0000
  Li  Li6       1.0  0.75500  0.74500  0.75000  1.0000
  Li  Li7       1.0  0.00494  0.75500  0.51000  1.0000
  Li  Li8       1.0  0.74500  0.49500  0.99000  1.0000
  P   P1        1.0  0.34000  0.35000  0.84500  1.0000
  P   P2        1.0  0.91700  0.90800  0.11800  1.0000
  P   P3        1.0  0.28900  0.79900  0.38200  1.0000
  P   P4        1.0  0.21100  0.59200  0.50900  1.0000
  P   P5        1.0  0.58300  0.70100  0.99100  1.0000
  P   P6        1.0  0.59200  0.58300  0.38200  1.0000
  P   P7        1.0  0.70100  0.21100  0.11800  1.0000
  P   P8        1.0  0.90800  0.28900  0.99100  1.0000
  P   P9        1.0  0.79900  0.91700  0.50900  1.0000
  P   P10       1.0  0.64100  0.91600  0.13000  1.0000
  P   P11       1.0  0.85900  0.98900  0.27500  1.0000
  P   P12       1.0  0.21400  0.58400  0.22500  1.0000
  P   P13       1.0  0.28600  0.51100  0.37000  1.0000
  P   P14       1.0  0.51100  0.64100  0.22500  1.0000
  P   P15       1.0  0.91600  0.28600  0.27500  1.0000
  P   P16       1.0  0.98900  0.21400  0.13000  1.0000
  P   P17       1.0  0.58400  0.85900  0.37000  1.0000
  P   P18       1.0  0.14100  0.01080  0.72500  1.0000
  P   P19       1.0  0.78600  0.41600  0.77500  1.0000
  P   P20       1.0  0.71400  0.48900  0.63000  1.0000
  P   P21       1.0  0.35900  0.08440  0.87000  1.0000
  P   P22       1.0  0.08300  0.09230  0.88200  1.0000
  P   P23       1.0  0.71100  0.20100  0.61800  1.0000
  P   P24       1.0  0.78900  0.40800  0.49100  1.0000
  P   P25       1.0  0.41700  0.29900  0.00930  1.0000
  P   P26       1.0  0.40800  0.41700  0.61800  1.0000
  P   P27       1.0  0.29900  0.78900  0.88200  1.0000
  P   P28       1.0  0.09230  0.71100  0.00930  1.0000
  P   P29       1.0  0.20100  0.08300  0.49100  1.0000
  P   P30       1.0  0.48900  0.35900  0.77500  1.0000
  P   P31       1.0  0.08440  0.71400  0.72500  1.0000
  P   P32       1.0  0.01080  0.78600  0.87000  1.0000
  P   P33       1.0  0.41600  0.14100  0.63000  1.0000
  P   P34       1.0  0.65000  0.99500  0.99000  1.0000
  P   P35       1.0  0.50400  0.66000  0.51000  1.0000
  P   P36       1.0  0.99600  0.50500  0.15500  1.0000
  P   P37       1.0  0.85000  0.84000  0.34500  1.0000
  P   P38       1.0  0.50500  0.85000  0.51000  1.0000
  P   P39       1.0  0.84000  0.99600  0.99000  1.0000
  P   P40       1.0  0.99500  0.50400  0.34500  1.0000
  P   P41       1.0  0.66000  0.65000  0.15500  1.0000
  P   P42       1.0  0.35000  0.00520  0.00960  1.0000
  P   P43       1.0  0.49600  0.34000  0.49000  1.0000
  P   P44       1.0  0.00440  0.49500  0.84500  1.0000
  P   P45       1.0  0.15000  0.16000  0.65500  1.0000
  P   P46       1.0  0.70300  0.25000  0.95300  1.0000
  P   P47       1.0  0.79700  0.75000  0.54700  1.0000
  P   P48       1.0  0.25000  0.79700  0.54700  1.0000
  P   P49       1.0  0.75000  0.70300  0.95300  1.0000
  P   P50       1.0  0.29700  0.75000  0.04680  1.0000
  P   P51       1.0  0.20300  0.25000  0.45300  1.0000
  P   P52       1.0  0.75000  0.20300  0.45300  1.0000
  P   P53       1.0  0.25000  0.29700  0.04680  1.0000
  P   P54       1.0  0.49500  0.15000  0.49000  1.0000
  P   P55       1.0  0.16000  0.00440  0.00960  1.0000
  P   P56       1.0  0.00519  0.49600  0.65500  1.0000
