# generated using pymatgen
data_Ti4O5
_symmetry_space_group_name_H-M   'P 1'
_cell_length_a   5.13966156
_cell_length_b   5.13966156
_cell_length_c   5.13966156
_cell_angle_alpha   99.55369802
_cell_angle_beta   99.55369802
_cell_angle_gamma   131.91722003
_symmetry_Int_Tables_number   1
_chemical_formula_structural   Ti4O5
_chemical_formula_sum   'Ti4 O5'
_cell_volume   92.26383851
_cell_formula_units_Z   1
loop_
 _symmetry_equiv_pos_site_id
 _symmetry_equiv_pos_as_xyz
  1  'x, y, z'
loop_
 _atom_site_type_symbol
 _atom_site_label
 _atom_site_symmetry_multiplicity
 _atom_site_fract_x
 _atom_site_fract_y
 _atom_site_fract_z
 _atom_site_occupancy
  Ti  Ti0  1  0.39243200  0.78356300  0.17599500  1
  Ti  Ti1  1  0.78356300  0.60756800  0.39113200  1
  Ti  Ti2  1  0.21643700  0.39243200  0.60886800  1
  Ti  Ti3  1  0.60756800  0.21643700  0.82400500  1
  O  O4  1  0.09145800  0.68999800  0.78145500  1
  O  O5  1  0.68999800  0.90854200  0.59854000  1
  O  O6  1  0.31000200  0.09145800  0.40146000  1
  O  O7  1  0.90854200  0.31000200  0.21854500  1
  O  O8  1  0.50000000  0.50000000  0.00000000  1
