# generated using pymatgen
data_Mg4Si3
_symmetry_space_group_name_H-M   'P 1'
_cell_length_a   4.83241000
_cell_length_b   7.73003388
_cell_length_c   8.66846345
_cell_angle_alpha   70.80748081
_cell_angle_beta   76.22950659
_cell_angle_gamma   74.68406657
_symmetry_Int_Tables_number   1
_chemical_formula_structural   Mg4Si3
_chemical_formula_sum   'Mg8 Si6'
_cell_volume   290.85735291
_cell_formula_units_Z   2
loop_
 _symmetry_equiv_pos_site_id
 _symmetry_equiv_pos_as_xyz
  1  'x, y, z'
loop_
 _atom_site_type_symbol
 _atom_site_label
 _atom_site_symmetry_multiplicity
 _atom_site_fract_x
 _atom_site_fract_y
 _atom_site_fract_z
 _atom_site_occupancy
  Mg  Mg0  1  0.06893800  0.40690000  0.32760500  1
  Mg  Mg1  1  0.75559700  0.88952500  0.92581400  1
  Mg  Mg2  1  0.69474500  0.16194900  0.57857200  1
  Mg  Mg3  1  0.27290800  0.88813200  0.51377900  1
  Mg  Mg4  1  0.41706400  0.61723400  0.87748000  1
  Mg  Mg5  1  0.46153800  0.65849900  0.26113200  1
  Mg  Mg6  1  0.08372000  0.41186800  0.72061200  1
  Mg  Mg7  1  0.11760200  0.10538300  0.06524500  1
  Si  Si8  1  0.59899100  0.00444800  0.20552400  1
  Si  Si9  1  0.64440500  0.28500000  0.25234100  1
  Si  Si10  1  0.24040300  0.02368600  0.76816600  1
  Si  Si11  1  0.88723400  0.76651400  0.40286100  1
  Si  Si12  1  0.89567100  0.50369200  0.02136600  1
  Si  Si13  1  0.61132200  0.52712900  0.57940300  1
