# generated using pymatgen
data_Mg4Si3
_symmetry_space_group_name_H-M   'P 1'
_cell_length_a   5.60297300
_cell_length_b   7.29867737
_cell_length_c   7.59360071
_cell_angle_alpha   110.60298636
_cell_angle_beta   92.10532532
_cell_angle_gamma   108.90278193
_symmetry_Int_Tables_number   1
_chemical_formula_structural   Mg4Si3
_chemical_formula_sum   'Mg8 Si6'
_cell_volume   270.98427395
_cell_formula_units_Z   2
loop_
 _symmetry_equiv_pos_site_id
 _symmetry_equiv_pos_as_xyz
  1  'x, y, z'
loop_
 _atom_site_type_symbol
 _atom_site_label
 _atom_site_symmetry_multiplicity
 _atom_site_fract_x
 _atom_site_fract_y
 _atom_site_fract_z
 _atom_site_occupancy
  Mg  Mg0  1  0.15902300  0.82309000  0.75323200  1
  Mg  Mg1  1  0.22306100  0.10857600  0.18080300  1
  Mg  Mg2  1  0.59193100  0.34036100  0.61283200  1
  Mg  Mg3  1  0.96529100  0.02589800  0.51251200  1
  Mg  Mg4  1  0.37535700  0.82322500  0.37944300  1
  Mg  Mg5  1  0.72730200  0.52054100  0.28132000  1
  Mg  Mg6  1  0.78955800  0.16176200  0.91210700  1
  Mg  Mg7  1  0.59996500  0.73435800  0.99805400  1
  Si  Si8  1  0.73472000  0.14146900  0.26828500  1
  Si  Si9  1  0.11784200  0.42526400  0.77831900  1
  Si  Si10  1  0.35833400  0.27371400  0.91522500  1
  Si  Si11  1  0.05246400  0.67896000  0.05183300  1
  Si  Si12  1  0.16565100  0.44609500  0.47082900  1
  Si  Si13  1  0.63956000  0.74684600  0.63530500  1
