# generated using pymatgen
data_Mg4Si3
_symmetry_space_group_name_H-M   'P 1'
_cell_length_a   5.60322385
_cell_length_b   7.63134085
_cell_length_c   8.02830779
_cell_angle_alpha   122.08521396
_cell_angle_beta   111.00967191
_cell_angle_gamma   89.93265344
_symmetry_Int_Tables_number   1
_chemical_formula_structural   Mg4Si3
_chemical_formula_sum   'Mg8 Si6'
_cell_volume   263.63201241
_cell_formula_units_Z   2
loop_
 _symmetry_equiv_pos_site_id
 _symmetry_equiv_pos_as_xyz
  1  'x, y, z'
loop_
 _atom_site_type_symbol
 _atom_site_label
 _atom_site_symmetry_multiplicity
 _atom_site_fract_x
 _atom_site_fract_y
 _atom_site_fract_z
 _atom_site_occupancy
  Mg  Mg0  1  0.63840100  0.50610300  0.82268400  1
  Mg  Mg1  1  0.54758000  0.99477000  0.04321100  1
  Mg  Mg2  1  0.49549800  0.93257900  0.37771300  1
  Mg  Mg3  1  0.99138100  0.95320200  0.36568100  1
  Mg  Mg4  1  0.60354100  0.46625300  0.18152000  1
  Mg  Mg5  1  0.08973000  0.71762100  0.59857300  1
  Mg  Mg6  1  0.24349900  0.30902500  0.33908200  1
  Mg  Mg7  1  0.98405100  0.15971100  0.83633500  1
  Si  Si8  1  0.43403200  0.10365900  0.75111800  1
  Si  Si9  1  0.17909100  0.56828600  0.89062500  1
  Si  Si10  1  0.01362900  0.88954400  0.98531600  1
  Si  Si11  1  0.60865600  0.76705700  0.64161800  1
  Si  Si12  1  0.11049300  0.56170300  0.18439000  1
  Si  Si13  1  0.81029800  0.32042600  0.48218500  1
