# generated using pymatgen
data_Rb2S
_symmetry_space_group_name_H-M   'P 1'
_cell_length_a   5.14692400
_cell_length_b   8.46901000
_cell_length_c   10.02205500
_cell_angle_alpha   90.00000000
_cell_angle_beta   90.00000000
_cell_angle_gamma   90.00000000
_symmetry_Int_Tables_number   1
_chemical_formula_structural   Rb2S
_chemical_formula_sum   'Rb8 S4'
_cell_volume   436.85487138
_cell_formula_units_Z   4
loop_
 _symmetry_equiv_pos_site_id
 _symmetry_equiv_pos_as_xyz
  1  'x, y, z'
loop_
 _atom_site_type_symbol
 _atom_site_label
 _atom_site_symmetry_multiplicity
 _atom_site_fract_x
 _atom_site_fract_y
 _atom_site_fract_z
 _atom_site_occupancy
  Rb  Rb0  1  0.25000000  0.01986400  0.83102700  1
  Rb  Rb1  1  0.25000000  0.51986400  0.66897300  1
  Rb  Rb2  1  0.75000000  0.98013600  0.16897300  1
  Rb  Rb3  1  0.75000000  0.48013600  0.33102700  1
  Rb  Rb4  1  0.25000000  0.14574300  0.42608600  1
  Rb  Rb5  1  0.25000000  0.64574300  0.07391400  1
  Rb  Rb6  1  0.75000000  0.85425700  0.57391400  1
  Rb  Rb7  1  0.75000000  0.35425700  0.92608600  1
  S  S8  1  0.25000000  0.25185400  0.11066400  1
  S  S9  1  0.25000000  0.75185400  0.38933600  1
  S  S10  1  0.75000000  0.74814600  0.88933600  1
  S  S11  1  0.75000000  0.24814600  0.61066400  1
