# generated using pymatgen
data_Mg7Si4
_symmetry_space_group_name_H-M   'P 1'
_cell_length_a   5.35363400
_cell_length_b   6.14420847
_cell_length_c   13.56406054
_cell_angle_alpha   84.61341376
_cell_angle_beta   80.35180654
_cell_angle_gamma   86.73088330
_symmetry_Int_Tables_number   1
_chemical_formula_structural   Mg7Si4
_chemical_formula_sum   'Mg14 Si8'
_cell_volume   437.53296464
_cell_formula_units_Z   2
loop_
 _symmetry_equiv_pos_site_id
 _symmetry_equiv_pos_as_xyz
  1  'x, y, z'
loop_
 _atom_site_type_symbol
 _atom_site_label
 _atom_site_symmetry_multiplicity
 _atom_site_fract_x
 _atom_site_fract_y
 _atom_site_fract_z
 _atom_site_occupancy
  Mg  Mg0  1  0.00887300  0.09545700  0.18370600  1
  Mg  Mg1  1  0.21156100  0.58656700  0.24650800  1
  Mg  Mg2  1  0.72202100  0.73770200  0.37550500  1
  Mg  Mg3  1  0.57850900  0.27216700  0.35755700  1
  Mg  Mg4  1  0.04658900  0.53156400  0.99789400  1
  Mg  Mg5  1  0.74839800  0.91928400  0.56422500  1
  Mg  Mg6  1  0.23441800  0.36638200  0.76517600  1
  Mg  Mg7  1  0.72501000  0.40568500  0.59996000  1
  Mg  Mg8  1  0.54173900  0.31258600  0.08148000  1
  Mg  Mg9  1  0.48186500  0.81281100  0.03437200  1
  Mg  Mg10  1  0.99950600  0.04238200  0.95023900  1
  Mg  Mg11  1  0.35882500  0.84743200  0.76644700  1
  Mg  Mg12  1  0.24642700  0.13156200  0.57435400  1
  Mg  Mg13  1  0.25350600  0.63337700  0.53742000  1
  Si  Si14  1  0.52288500  0.15088200  0.88961500  1
  Si  Si15  1  0.50393000  0.97281200  0.22231600  1
  Si  Si16  1  0.73674100  0.61825200  0.18615200  1
  Si  Si17  1  0.89230100  0.68479400  0.72978300  1
  Si  Si18  1  0.61244500  0.53247500  0.88452900  1
  Si  Si19  1  0.17196600  0.94332800  0.38014400  1
  Si  Si20  1  0.03746600  0.32282500  0.41925400  1
  Si  Si21  1  0.86509100  0.07222100  0.74965300  1
