# generated using pymatgen
data_U3O8
_symmetry_space_group_name_H-M   'P 1'
_cell_length_a   4.16023200
_cell_length_b   6.77733400
_cell_length_c   6.87287219
_cell_angle_alpha   119.54122191
_cell_angle_beta   90.00000000
_cell_angle_gamma   90.00000000
_symmetry_Int_Tables_number   1
_chemical_formula_structural   U3O8
_chemical_formula_sum   'U3 O8'
_cell_volume   168.59106525
_cell_formula_units_Z   1
loop_
 _symmetry_equiv_pos_site_id
 _symmetry_equiv_pos_as_xyz
  1  'x, y, z'
loop_
 _atom_site_type_symbol
 _atom_site_label
 _atom_site_symmetry_multiplicity
 _atom_site_fract_x
 _atom_site_fract_y
 _atom_site_fract_z
 _atom_site_occupancy
  U  U0  1  0.00000000  0.96180700  0.00000000  1
  U  U1  1  0.00000000  0.66830600  0.34745000  1
  U  U2  1  0.00000000  0.32085700  0.65255000  1
  O  O3  1  0.00000000  0.58103400  0.00000000  1
  O  O4  1  0.50000000  0.95399600  0.00000000  1
  O  O5  1  0.00000000  0.07270700  0.75468100  1
  O  O6  1  0.00000000  0.31802600  0.24531900  1
  O  O7  1  0.00000000  0.98785100  0.33819600  1
  O  O8  1  0.00000000  0.64965500  0.66180400  1
  O  O9  1  0.50000000  0.67474100  0.35472000  1
  O  O10  1  0.50000000  0.32002100  0.64528000  1
