# generated using pymatgen
data_La2Ni2O5
_symmetry_space_group_name_H-M   'P 1'
_cell_length_a   5.46397700
_cell_length_b   5.69065501
_cell_length_c   8.85351066
_cell_angle_alpha   108.75255430
_cell_angle_beta   72.03036170
_cell_angle_gamma   89.99902376
_symmetry_Int_Tables_number   1
_chemical_formula_structural   La2Ni2O5
_chemical_formula_sum   'La4 Ni4 O10'
_cell_volume   246.45019039
_cell_formula_units_Z   2
loop_
 _symmetry_equiv_pos_site_id
 _symmetry_equiv_pos_as_xyz
  1  'x, y, z'
loop_
 _atom_site_type_symbol
 _atom_site_label
 _atom_site_symmetry_multiplicity
 _atom_site_fract_x
 _atom_site_fract_y
 _atom_site_fract_z
 _atom_site_occupancy
  La  La0  1  0.39732800  0.12485000  0.21752500  1
  La  La1  1  0.61485800  0.87506300  0.78243500  1
  La  La2  1  0.89732800  0.59267100  0.21752400  1
  La  La3  1  0.11485700  0.40738000  0.78244100  1
  Ni  Ni4  1  0.51118800  0.50000700  0.00008400  1
  Ni  Ni5  1  0.21761400  0.80858700  0.49994700  1
  Ni  Ni6  1  0.01117700  0.00008200  0.00009000  1
  Ni  Ni7  1  0.71760800  0.19135800  0.49995300  1
  O  O8  1  0.34835600  0.13996600  0.49997400  1
  O  O9  1  0.84832500  0.86004200  0.50001000  1
  O  O10  1  0.27049700  0.24087300  0.97171100  1
  O  O11  1  0.24217600  0.75917100  0.02834400  1
  O  O12  1  0.77049300  0.23084900  0.97171000  1
  O  O13  1  0.74216400  0.76917400  0.02834900  1
  O  O14  1  0.89359400  0.20625700  0.27481800  1
  O  O15  1  0.16841700  0.79356400  0.72513500  1
  O  O16  1  0.39359700  0.56852200  0.27481500  1
  O  O17  1  0.66842200  0.43158200  0.72513500  1
