# generated using pymatgen
data_Ba3Sr5Ti7MnO24
_symmetry_space_group_name_H-M   'P 1'
_cell_length_a   7.94834976
_cell_length_b   7.94834976
_cell_length_c   7.94593013
_cell_angle_alpha   89.99280513
_cell_angle_beta   89.99280513
_cell_angle_gamma   89.99125323
_symmetry_Int_Tables_number   1
_chemical_formula_structural   Ba3Sr5Ti7MnO24
_chemical_formula_sum   'Ba3 Sr5 Ti7 Mn1 O24'
_cell_volume   501.99416515
_cell_formula_units_Z   1
loop_
 _symmetry_equiv_pos_site_id
 _symmetry_equiv_pos_as_xyz
  1  'x, y, z'
loop_
 _atom_site_type_symbol
 _atom_site_label
 _atom_site_symmetry_multiplicity
 _atom_site_fract_x
 _atom_site_fract_y
 _atom_site_fract_z
 _atom_site_occupancy
  Ba  Ba0  1  0.75150900  0.24837500  0.75155500  1
  Ba  Ba1  1  0.24841400  0.24841400  0.75155800  1
  Ba  Ba2  1  0.24837500  0.75150900  0.75155500  1
  Sr  Sr3  1  0.75193700  0.24801900  0.24842200  1
  Sr  Sr4  1  0.24808500  0.24808500  0.24848600  1
  Sr  Sr5  1  0.75194000  0.75194000  0.24829500  1
  Sr  Sr6  1  0.24801900  0.75193700  0.24842200  1
  Sr  Sr7  1  0.75175600  0.75175600  0.75172900  1
  Ti  Ti8  1  0.50237400  0.99860300  0.00401900  1
  Ti  Ti9  1  0.99868200  0.99868200  0.49334700  1
  Ti  Ti10  1  0.50137900  0.99857200  0.49590800  1
  Ti  Ti11  1  0.99860300  0.50237400  0.00401900  1
  Ti  Ti12  1  0.50135300  0.50135300  0.00422300  1
  Ti  Ti13  1  0.99857200  0.50137900  0.49590800  1
  Ti  Ti14  1  0.50135700  0.50135700  0.49595400  1
  Mn  Mn15  1  0.99918000  0.99918000  0.00259200  1
  O  O16  1  0.99913400  0.24648900  0.00893600  1
  O  O17  1  0.50093400  0.24915100  0.00842300  1
  O  O18  1  0.99896100  0.24930100  0.49173100  1
  O  O19  1  0.50100100  0.24948300  0.49173900  1
  O  O20  1  0.99616500  0.75313200  0.00571200  1
  O  O21  1  0.50347300  0.75072600  0.00575800  1
  O  O22  1  0.99649400  0.75059000  0.49446100  1
  O  O23  1  0.50344500  0.75046400  0.49440200  1
  O  O24  1  0.99902400  0.99902400  0.24728200  1
  O  O25  1  0.50104600  0.99882900  0.24941400  1
  O  O26  1  0.99576300  0.99576300  0.75346300  1
  O  O27  1  0.50381600  0.99613300  0.75096500  1
  O  O28  1  0.99882900  0.50104600  0.24941400  1
  O  O29  1  0.50110800  0.50110800  0.24955300  1
  O  O30  1  0.99613300  0.50381600  0.75096500  1
  O  O31  1  0.50380200  0.50380200  0.75063000  1
  O  O32  1  0.75313200  0.99616500  0.00571200  1
  O  O33  1  0.24648900  0.99913400  0.00893600  1
  O  O34  1  0.75059000  0.99649400  0.49446100  1
  O  O35  1  0.24930100  0.99896100  0.49173100  1
  O  O36  1  0.75072600  0.50347300  0.00575800  1
  O  O37  1  0.24915100  0.50093400  0.00842300  1
  O  O38  1  0.75046400  0.50344500  0.49440200  1
  O  O39  1  0.24948300  0.50100100  0.49173900  1
