# generated using pymatgen
data_CrO2
_symmetry_space_group_name_H-M   'P 1'
_cell_length_a   4.32016211
_cell_length_b   5.02259513
_cell_length_c   5.50280200
_cell_angle_alpha   90.00219964
_cell_angle_beta   90.00149212
_cell_angle_gamma   90.02554450
_symmetry_Int_Tables_number   1
_chemical_formula_structural   CrO2
_chemical_formula_sum   'Cr4 O8'
_cell_volume   119.40212532
_cell_formula_units_Z   4
loop_
 _symmetry_equiv_pos_site_id
 _symmetry_equiv_pos_as_xyz
  1  'x, y, z'
loop_
 _atom_site_type_symbol
 _atom_site_label
 _atom_site_symmetry_multiplicity
 _atom_site_fract_x
 _atom_site_fract_y
 _atom_site_fract_z
 _atom_site_occupancy
  Cr  Cr0  1  0.49999400  0.24998800  0.64490600  1
  Cr  Cr1  1  0.00003800  0.75001500  0.85506600  1
  Cr  Cr2  1  0.49997500  0.75000900  0.35521200  1
  Cr  Cr3  1  0.99999500  0.24998700  0.14482800  1
  O  O4  1  0.76326300  0.08376300  0.88371000  1
  O  O5  1  0.73684700  0.58378100  0.61642700  1
  O  O6  1  0.26317600  0.91620800  0.61641600  1
  O  O7  1  0.23676700  0.41623800  0.88370500  1
  O  O8  1  0.23644300  0.91612900  0.11616200  1
  O  O9  1  0.26344700  0.41608700  0.38368900  1
  O  O10  1  0.73652400  0.08392700  0.38370000  1
  O  O11  1  0.76353100  0.58386900  0.11617900  1
