# generated using pymatgen
data_Sm2Co2O5
_symmetry_space_group_name_H-M   'P 1'
_cell_length_a   8.56372098
_cell_length_b   8.56372098
_cell_length_c   8.56372098
_cell_angle_alpha   142.93650581
_cell_angle_beta   140.68908467
_cell_angle_gamma   55.13200663
_symmetry_Int_Tables_number   1
_chemical_formula_structural   Sm2Co2O5
_chemical_formula_sum   'Sm4 Co4 O10'
_cell_volume   238.07793757
_cell_formula_units_Z   2
loop_
 _symmetry_equiv_pos_site_id
 _symmetry_equiv_pos_as_xyz
  1  'x, y, z'
loop_
 _atom_site_type_symbol
 _atom_site_label
 _atom_site_symmetry_multiplicity
 _atom_site_fract_x
 _atom_site_fract_y
 _atom_site_fract_z
 _atom_site_occupancy
  Sm  Sm0  1  0.91471300  0.37909200  0.51468200  1
  Sm  Sm1  1  0.08528700  0.59996800  0.46437900  1
  Sm  Sm2  1  0.36441000  0.87909200  0.46437900  1
  Sm  Sm3  1  0.63559000  0.09996800  0.51468200  1
  Co  Co4  1  0.00000000  0.00775300  0.00775300  1
  Co  Co5  1  0.50000000  0.50775300  0.00775300  1
  Co  Co6  1  0.69036600  0.71151200  0.90187800  1
  Co  Co7  1  0.30963400  0.21151200  0.02114600  1
  O  O8  1  0.28309100  0.27142600  0.50784400  1
  O  O9  1  0.71690900  0.22475300  0.98833400  1
  O  O10  1  0.26358200  0.77142600  0.98833400  1
  O  O11  1  0.73641800  0.72475300  0.50784400  1
  O  O12  1  0.95260000  0.92362600  0.16163600  1
  O  O13  1  0.04740000  0.20903600  0.97102600  1
  O  O14  1  0.26199000  0.42362600  0.97102600  1
  O  O15  1  0.73801000  0.70903600  0.16163600  1
  O  O16  1  0.64105000  0.33683400  0.47788400  1
  O  O17  1  0.35895000  0.83683400  0.69578400  1
