# generated using pymatgen
data_SrCa3TiMn3O12
_symmetry_space_group_name_H-M   'P 1'
_cell_length_a   7.70043900
_cell_length_b   8.56247789
_cell_length_c   8.57239981
_cell_angle_alpha   101.68888606
_cell_angle_beta   116.68836660
_cell_angle_gamma   63.27895498
_symmetry_Int_Tables_number   1
_chemical_formula_structural   SrCa3TiMn3O12
_chemical_formula_sum   'Sr2 Ca6 Ti2 Mn6 O24'
_cell_volume   451.07148744
_cell_formula_units_Z   2
loop_
 _symmetry_equiv_pos_site_id
 _symmetry_equiv_pos_as_xyz
  1  'x, y, z'
loop_
 _atom_site_type_symbol
 _atom_site_label
 _atom_site_symmetry_multiplicity
 _atom_site_fract_x
 _atom_site_fract_y
 _atom_site_fract_z
 _atom_site_occupancy
  Sr  Sr0  1  0.99844900  0.75156200  0.24893000  1
  Sr  Sr1  1  0.49894900  0.75155100  0.24903700  1
  Ca  Ca2  1  0.50907900  0.24247300  0.75809600  1
  Ca  Ca3  1  0.00647900  0.24256100  0.75808600  1
  Ca  Ca4  1  0.25211800  0.24372400  0.24493400  1
  Ca  Ca5  1  0.74907900  0.24367800  0.24493600  1
  Ca  Ca6  1  0.24887000  0.75583300  0.75589400  1
  Ca  Ca7  1  0.75117500  0.75584100  0.75592800  1
  Ti  Ti8  1  0.50391300  0.49668700  0.50447400  1
  Ti  Ti9  1  0.00406200  0.49595700  0.50416400  1
  Mn  Mn10  1  0.99962100  0.00092600  0.00047500  1
  Mn  Mn11  1  0.49893500  0.00067800  0.99838800  1
  Mn  Mn12  1  0.75110600  0.00040900  0.50200000  1
  Mn  Mn13  1  0.75072100  0.49842300  0.99994400  1
  Mn  Mn14  1  0.25067300  0.49832300  0.99956700  1
  Mn  Mn15  1  0.25091400  0.00078900  0.50212300  1
  O  O16  1  0.74570500  0.00415600  0.99564200  1
  O  O17  1  0.24569000  0.00416800  0.99564000  1
  O  O18  1  0.25042800  0.49903900  0.49996400  1
  O  O19  1  0.75049100  0.49905000  0.50000600  1
  O  O20  1  0.49822700  0.49552700  0.99200400  1
  O  O21  1  0.99828600  0.49544800  0.99204400  1
  O  O22  1  0.49985500  0.00435500  0.50409900  1
  O  O23  1  0.99991300  0.00435200  0.50413400  1
  O  O24  1  0.62000700  0.00983400  0.24975700  1
  O  O25  1  0.12182700  0.00700100  0.25072300  1
  O  O26  1  0.62203400  0.74991300  0.99399200  1
  O  O27  1  0.12146800  0.74987400  0.99292800  1
  O  O28  1  0.37435500  0.49627800  0.24490600  1
  O  O29  1  0.87409200  0.49681600  0.24512200  1
  O  O30  1  0.37462300  0.75417900  0.50336300  1
  O  O31  1  0.87436200  0.75443800  0.50313100  1
  O  O32  1  0.87387800  0.00248000  0.75037600  1
  O  O33  1  0.37394600  0.00167700  0.74949400  1
  O  O34  1  0.87378700  0.25032700  0.99811700  1
  O  O35  1  0.37372300  0.25033800  0.99773400  1
  O  O36  1  0.62741000  0.49844300  0.75335900  1
  O  O37  1  0.12672800  0.49947500  0.75301900  1
  O  O38  1  0.62759700  0.24672800  0.50187100  1
  O  O39  1  0.12741900  0.24669100  0.50160000  1
