data_image0
_chemical_formula_structural       B8H32Li8O32
_chemical_formula_sum              "B8 H32 Li8 O32"
_cell_length_a       8.75408
_cell_length_b       7.54155
_cell_length_c       8.02108
_cell_angle_alpha    90
_cell_angle_beta     90
_cell_angle_gamma    90

_space_group_name_H-M_alt    "P 1"
_space_group_IT_number       1

loop_
  _space_group_symop_operation_xyz
  'x, y, z'

loop_
  _atom_site_type_symbol
  _atom_site_label
  _atom_site_symmetry_multiplicity
  _atom_site_fract_x
  _atom_site_fract_y
  _atom_site_fract_z
  _atom_site_occupancy
  B   B1        1.0  0.08380  0.17500  0.17600  1.0000
  B   B2        1.0  0.41600  0.82500  0.67600  1.0000
  B   B3        1.0  0.58400  0.32500  0.82400  1.0000
  B   B4        1.0  0.91600  0.67500  0.32400  1.0000
  B   B5        1.0  0.91600  0.82500  0.82400  1.0000
  B   B6        1.0  0.58400  0.17500  0.32400  1.0000
  B   B7        1.0  0.41600  0.67500  0.17600  1.0000
  B   B8        1.0  0.08380  0.32500  0.67600  1.0000
  H   H1        1.0  0.56100  0.05770  0.79900  1.0000
  H   H2        1.0  0.43900  0.55800  0.70100  1.0000
  H   H3        1.0  0.06080  0.44200  0.20100  1.0000
  H   H4        1.0  0.01920  0.34000  0.92300  1.0000
  H   H5        1.0  0.48100  0.66000  0.42300  1.0000
  H   H6        1.0  0.51900  0.16000  0.07670  1.0000
  H   H7        1.0  0.09680  0.59600  0.47200  1.0000
  H   H8        1.0  0.40300  0.40400  0.97200  1.0000
  H   H9        1.0  0.98100  0.84000  0.57700  1.0000
  H   H10       1.0  0.98100  0.66000  0.07670  1.0000
  H   H11       1.0  0.51900  0.34000  0.57700  1.0000
  H   H12       1.0  0.48100  0.84000  0.92300  1.0000
  H   H13       1.0  0.01920  0.16000  0.42300  1.0000
  H   H14       1.0  0.25300  0.02390  0.63200  1.0000
  H   H15       1.0  0.24700  0.97600  0.13200  1.0000
  H   H16       1.0  0.75300  0.47600  0.36800  1.0000
  H   H17       1.0  0.74700  0.52400  0.86800  1.0000
  H   H18       1.0  0.74700  0.97600  0.36800  1.0000
  H   H19       1.0  0.75300  0.02390  0.86800  1.0000
  H   H20       1.0  0.24700  0.52400  0.63200  1.0000
  H   H21       1.0  0.25300  0.47600  0.13200  1.0000
  H   H22       1.0  0.06080  0.05770  0.70100  1.0000
  H   H23       1.0  0.43900  0.94200  0.20100  1.0000
  H   H24       1.0  0.56100  0.44200  0.29900  1.0000
  H   H25       1.0  0.93900  0.55800  0.79900  1.0000
  H   H26       1.0  0.93900  0.94200  0.29900  1.0000
  H   H27       1.0  0.09680  0.90400  0.97200  1.0000
  H   H28       1.0  0.40300  0.09600  0.47200  1.0000
  H   H29       1.0  0.59700  0.59600  0.02850  1.0000
  H   H30       1.0  0.90300  0.40400  0.52800  1.0000
  H   H31       1.0  0.90300  0.09600  0.02850  1.0000
  H   H32       1.0  0.59700  0.90400  0.52800  1.0000
  Li  Li1       1.0  0.20500  0.61700  0.88500  1.0000
  Li  Li2       1.0  0.29500  0.38300  0.38500  1.0000
  Li  Li3       1.0  0.70500  0.88300  0.11500  1.0000
  Li  Li4       1.0  0.79500  0.11700  0.61500  1.0000
  Li  Li5       1.0  0.79500  0.38300  0.11500  1.0000
  Li  Li6       1.0  0.70500  0.61700  0.61500  1.0000
  Li  Li7       1.0  0.29500  0.11700  0.88500  1.0000
  Li  Li8       1.0  0.20500  0.88300  0.38500  1.0000
  O   O1        1.0  0.93800  0.92100  0.66300  1.0000
  O   O2        1.0  0.93800  0.57900  0.16300  1.0000
  O   O3        1.0  0.56200  0.42100  0.66300  1.0000
  O   O4        1.0  0.43800  0.92100  0.83700  1.0000
  O   O5        1.0  0.06210  0.07860  0.33700  1.0000
  O   O6        1.0  0.05890  0.79300  0.91600  1.0000
  O   O7        1.0  0.44100  0.20700  0.41600  1.0000
  O   O8        1.0  0.55900  0.70700  0.08410  1.0000
  O   O9        1.0  0.94100  0.29300  0.58400  1.0000
  O   O10       1.0  0.94100  0.20700  0.08410  1.0000
  O   O11       1.0  0.55900  0.79300  0.58400  1.0000
  O   O12       1.0  0.44100  0.29300  0.91600  1.0000
  O   O13       1.0  0.05890  0.70700  0.41600  1.0000
  O   O14       1.0  0.18100  0.43400  0.57200  1.0000
  O   O15       1.0  0.31900  0.56600  0.07220  1.0000
  O   O16       1.0  0.68100  0.06550  0.42800  1.0000
  O   O17       1.0  0.81900  0.93400  0.92800  1.0000
  O   O18       1.0  0.81900  0.56600  0.42800  1.0000
  O   O19       1.0  0.68100  0.43400  0.92800  1.0000
  O   O20       1.0  0.31900  0.93400  0.57200  1.0000
  O   O21       1.0  0.18100  0.06550  0.07220  1.0000
  O   O22       1.0  0.14600  0.14900  0.71600  1.0000
  O   O23       1.0  0.35400  0.85100  0.21600  1.0000
  O   O24       1.0  0.64600  0.35100  0.28400  1.0000
  O   O25       1.0  0.85400  0.64900  0.78400  1.0000
  O   O26       1.0  0.85400  0.85100  0.28400  1.0000
  O   O27       1.0  0.64600  0.14900  0.78400  1.0000
  O   O28       1.0  0.35400  0.64900  0.71600  1.0000
  O   O29       1.0  0.14600  0.35100  0.21600  1.0000
  O   O30       1.0  0.06210  0.42100  0.83700  1.0000
  O   O31       1.0  0.43800  0.57900  0.33700  1.0000
  O   O32       1.0  0.56200  0.07860  0.16300  1.0000
