# generated using pymatgen
data_Mg2Co2O5
_symmetry_space_group_name_H-M   'P 1'
_cell_length_a   7.72998227
_cell_length_b   7.72998227
_cell_length_c   7.72998227
_cell_angle_alpha   140.64859400
_cell_angle_beta   140.61186229
_cell_angle_gamma   56.89763113
_symmetry_Int_Tables_number   1
_chemical_formula_structural   Mg2Co2O5
_chemical_formula_sum   'Mg4 Co4 O10'
_cell_volume   184.31870815
_cell_formula_units_Z   2
loop_
 _symmetry_equiv_pos_site_id
 _symmetry_equiv_pos_as_xyz
  1  'x, y, z'
loop_
 _atom_site_type_symbol
 _atom_site_label
 _atom_site_symmetry_multiplicity
 _atom_site_fract_x
 _atom_site_fract_y
 _atom_site_fract_z
 _atom_site_occupancy
  Mg  Mg0  1  0.41081600  0.88564600  0.52315000  1
  Mg  Mg1  1  0.63750400  0.11435400  0.52517000  1
  Mg  Mg2  1  0.91081600  0.38766600  0.52517000  1
  Mg  Mg3  1  0.13750400  0.61233400  0.52315000  1
  Co  Co4  1  0.97976400  0.00000000  0.97976400  1
  Co  Co5  1  0.47976400  0.50000000  0.97976400  1
  Co  Co6  1  0.79101900  0.78160100  0.07262100  1
  Co  Co7  1  0.29101900  0.21839900  0.00941800  1
  O  O8  1  0.78231500  0.77797300  0.47522300  1
  O  O9  1  0.69724900  0.22202700  0.00434200  1
  O  O10  1  0.28231500  0.80709300  0.00434200  1
  O  O11  1  0.19724900  0.19290700  0.47522300  1
  O  O12  1  0.80275000  0.74455900  0.81697700  1
  O  O13  1  0.07241900  0.25544100  0.05819200  1
  O  O14  1  0.30275000  0.48577300  0.05819200  1
  O  O15  1  0.57241900  0.51422700  0.81697700  1
  O  O16  1  0.16216300  0.86513900  0.52730200  1
  O  O17  1  0.66216300  0.13486100  0.29702500  1
