# generated using pymatgen
data_La7SmMn7FeO24
_symmetry_space_group_name_H-M   'P 1'
_cell_length_a   7.88114985
_cell_length_b   7.88114985
_cell_length_c   7.88115000
_cell_angle_alpha   90.00140852
_cell_angle_beta   90.00140852
_cell_angle_gamma   90.00140854
_symmetry_Int_Tables_number   1
_chemical_formula_structural   La7SmMn7FeO24
_chemical_formula_sum   'La7 Sm1 Mn7 Fe1 O24'
_cell_volume   489.51810980
_cell_formula_units_Z   1
loop_
 _symmetry_equiv_pos_site_id
 _symmetry_equiv_pos_as_xyz
  1  'x, y, z'
loop_
 _atom_site_type_symbol
 _atom_site_label
 _atom_site_symmetry_multiplicity
 _atom_site_fract_x
 _atom_site_fract_y
 _atom_site_fract_z
 _atom_site_occupancy
  La  La0  1  0.74901200  0.25095400  0.25095400  1
  La  La1  1  0.74905000  0.25096500  0.74905000  1
  La  La2  1  0.74905000  0.74905000  0.25096500  1
  La  La3  1  0.74905200  0.74905200  0.74905200  1
  La  La4  1  0.25095400  0.25095400  0.74901200  1
  La  La5  1  0.25095400  0.74901200  0.25095400  1
  La  La6  1  0.25096500  0.74905000  0.74905000  1
  Sm  Sm7  1  0.25108000  0.25108000  0.25108000  1
  Mn  Mn8  1  0.00031900  0.00031900  0.49969800  1
  Mn  Mn9  1  0.00031900  0.49969800  0.00031900  1
  Mn  Mn10  1  0.00031600  0.49966600  0.49966600  1
  Mn  Mn11  1  0.49969800  0.00031900  0.00031900  1
  Mn  Mn12  1  0.49966600  0.00031600  0.49966600  1
  Mn  Mn13  1  0.49966600  0.49966600  0.00031600  1
  Mn  Mn14  1  0.49968200  0.49968200  0.49968200  1
  Fe  Fe15  1  0.00037400  0.00037400  0.00037400  1
  O  O16  1  0.75044200  0.00008900  0.00008900  1
  O  O17  1  0.74946500  0.00009000  0.49993800  1
  O  O18  1  0.74946500  0.49993800  0.00009000  1
  O  O19  1  0.75219400  0.49991100  0.49991100  1
  O  O20  1  0.24963700  0.00140000  0.00140000  1
  O  O21  1  0.25052600  0.00147000  0.49850700  1
  O  O22  1  0.25052600  0.49850700  0.00147000  1
  O  O23  1  0.24780000  0.49848900  0.49848900  1
  O  O24  1  0.00140000  0.24963700  0.00140000  1
  O  O25  1  0.00147000  0.25052600  0.49850700  1
  O  O26  1  0.00008900  0.75044200  0.00008900  1
  O  O27  1  0.00009000  0.74946500  0.49993800  1
  O  O28  1  0.49850700  0.25052600  0.00147000  1
  O  O29  1  0.49848900  0.24780000  0.49848900  1
  O  O30  1  0.49993800  0.74946500  0.00009000  1
  O  O31  1  0.49991100  0.75219400  0.49991100  1
  O  O32  1  0.00140000  0.00140000  0.24963700  1
  O  O33  1  0.00008900  0.00008900  0.75044200  1
  O  O34  1  0.00147000  0.49850700  0.25052600  1
  O  O35  1  0.00009000  0.49993800  0.74946500  1
  O  O36  1  0.49850700  0.00147000  0.25052600  1
  O  O37  1  0.49993800  0.00009000  0.74946500  1
  O  O38  1  0.49848900  0.49848900  0.24780000  1
  O  O39  1  0.49991100  0.49991100  0.75219400  1
