# generated using pymatgen
data_La5Sm3VCr7O20
_symmetry_space_group_name_H-M   'P 1'
_cell_length_a   11.03548795
_cell_length_b   11.50274372
_cell_length_c   17.77330323
_cell_angle_alpha   108.55614301
_cell_angle_beta   108.04779865
_cell_angle_gamma   90.72376691
_symmetry_Int_Tables_number   1
_chemical_formula_structural   La5Sm3VCr7O20
_chemical_formula_sum   'La20 Sm12 V4 Cr28 O80'
_cell_volume   2018.04934110
_cell_formula_units_Z   4
loop_
 _symmetry_equiv_pos_site_id
 _symmetry_equiv_pos_as_xyz
  1  'x, y, z'
loop_
 _atom_site_type_symbol
 _atom_site_label
 _atom_site_symmetry_multiplicity
 _atom_site_fract_x
 _atom_site_fract_y
 _atom_site_fract_z
 _atom_site_occupancy
  La  La0  1  0.31056900  0.05994200  0.61558300  1
  La  La1  1  0.31176800  0.56416800  0.61748300  1
  La  La2  1  0.81234000  0.06340500  0.61854000  1
  La  La3  1  0.81219200  0.56432000  0.61954700  1
  La  La4  1  0.19229300  0.43559600  0.38175400  1
  La  La5  1  0.18551700  0.43843400  0.88375200  1
  La  La6  1  0.19399000  0.93613500  0.38297600  1
  La  La7  1  0.68973800  0.43643000  0.38011700  1
  La  La8  1  0.69184600  0.93636900  0.38106100  1
  La  La9  1  0.05761300  0.30768500  0.11997400  1
  La  La10  1  0.05680500  0.30016500  0.61485900  1
  La  La11  1  0.05732700  0.80852000  0.61792600  1
  La  La12  1  0.56270900  0.30328100  0.61801500  1
  La  La13  1  0.44029200  0.19468500  0.37934900  1
  La  La14  1  0.44713900  0.19362000  0.88532100  1
  La  La15  1  0.43992100  0.69212100  0.37846000  1
  La  La16  1  0.44296000  0.69410200  0.88164100  1
  La  La17  1  0.94141300  0.19665700  0.38082900  1
  La  La18  1  0.94163000  0.19325100  0.88201900  1
  La  La19  1  0.94546000  0.69362400  0.38249600  1
  Sm  Sm20  1  0.30673400  0.06342400  0.11522000  1
  Sm  Sm21  1  0.30639400  0.56242100  0.11615200  1
  Sm  Sm22  1  0.80055900  0.06263600  0.11293100  1
  Sm  Sm23  1  0.79888700  0.56108800  0.11500100  1
  Sm  Sm24  1  0.18834800  0.94153100  0.88627400  1
  Sm  Sm25  1  0.69710600  0.43634900  0.88848600  1
  Sm  Sm26  1  0.69336100  0.93785500  0.88358100  1
  Sm  Sm27  1  0.05509600  0.80047500  0.11234300  1
  Sm  Sm28  1  0.55383300  0.30388100  0.11700600  1
  Sm  Sm29  1  0.55000200  0.80375200  0.11542800  1
  Sm  Sm30  1  0.56143900  0.80061300  0.61372600  1
  Sm  Sm31  1  0.93916300  0.69572800  0.88305700  1
  V  V32  1  0.11993800  0.62195200  0.75261800  1
  V  V33  1  0.36023000  0.38726600  0.75204300  1
  V  V34  1  0.35971500  0.88184400  0.75056800  1
  V  V35  1  0.86170200  0.88733300  0.24529100  1
  Cr  Cr36  1  0.00637600  0.99802600  0.00086400  1
  Cr  Cr37  1  0.00340300  0.99760700  0.49744200  1
  Cr  Cr38  1  0.00493300  0.50473100  0.00265700  1
  Cr  Cr39  1  0.00414300  0.50143100  0.50123700  1
  Cr  Cr40  1  0.50654100  0.99609100  0.99841200  1
  Cr  Cr41  1  0.50613400  0.99932100  0.50015900  1
  Cr  Cr42  1  0.50483200  0.50119900  0.00066500  1
  Cr  Cr43  1  0.50547600  0.50070300  0.50109100  1
  Cr  Cr44  1  0.25676600  0.25039700  0.00138600  1
  Cr  Cr45  1  0.25569000  0.25031100  0.50105700  1
  Cr  Cr46  1  0.25390000  0.75160200  0.99987100  1
  Cr  Cr47  1  0.25946900  0.74952900  0.50236600  1
  Cr  Cr48  1  0.75670800  0.25028400  0.00163700  1
  Cr  Cr49  1  0.75215700  0.25053300  0.49842000  1
  Cr  Cr50  1  0.75704000  0.75071300  0.00179400  1
  Cr  Cr51  1  0.75289800  0.74950100  0.49960600  1
  Cr  Cr52  1  0.11779100  0.11789800  0.24777100  1
  Cr  Cr53  1  0.12787700  0.12788200  0.75167700  1
  Cr  Cr54  1  0.11892400  0.62513800  0.24843700  1
  Cr  Cr55  1  0.61966200  0.12209000  0.24700500  1
  Cr  Cr56  1  0.61832800  0.11762500  0.75060200  1
  Cr  Cr57  1  0.62361700  0.62612400  0.24793200  1
  Cr  Cr58  1  0.62232200  0.62140400  0.75248200  1
  Cr  Cr59  1  0.37267200  0.37861800  0.24870000  1
  Cr  Cr60  1  0.36423500  0.87730700  0.24740300  1
  Cr  Cr61  1  0.86771300  0.37850300  0.24850600  1
  Cr  Cr62  1  0.86757000  0.37768900  0.75184100  1
  Cr  Cr63  1  0.87226000  0.87230700  0.75164100  1
  O  O64  1  0.11708200  0.11686000  0.47659700  1
  O  O65  1  0.11654000  0.10830800  0.97377900  1
  O  O66  1  0.12053300  0.61632200  0.48125600  1
  O  O67  1  0.11039300  0.62081700  0.97330500  1
  O  O68  1  0.61464000  0.11417300  0.47455700  1
  O  O69  1  0.61995900  0.10678900  0.97447400  1
  O  O70  1  0.61469500  0.61622200  0.47711400  1
  O  O71  1  0.62022600  0.61173200  0.97401000  1
  O  O72  1  0.13718000  0.39277100  0.02488900  1
  O  O73  1  0.13868500  0.38462500  0.52261100  1
  O  O74  1  0.14299900  0.88450800  0.02920600  1
  O  O75  1  0.14432300  0.87786600  0.52266700  1
  O  O76  1  0.63429600  0.38669400  0.02641400  1
  O  O77  1  0.63957300  0.38853100  0.52402000  1
  O  O78  1  0.64106500  0.88064600  0.02913400  1
  O  O79  1  0.63924600  0.88304800  0.52350100  1
  O  O80  1  0.36871400  0.11215300  0.48084800  1
  O  O81  1  0.36762600  0.09809200  0.97153300  1
  O  O82  1  0.36916800  0.61044300  0.47817800  1
  O  O83  1  0.36376100  0.61321600  0.97454400  1
  O  O84  1  0.86414800  0.11751700  0.47779100  1
  O  O85  1  0.86732300  0.09979000  0.97412400  1
  O  O86  1  0.86662100  0.61335600  0.47827300  1
  O  O87  1  0.86596100  0.61502300  0.97425900  1
  O  O88  1  0.39198100  0.39790200  0.02989900  1
  O  O89  1  0.39122300  0.38963300  0.52480600  1
  O  O90  1  0.38980400  0.89172400  0.02675900  1
  O  O91  1  0.39530200  0.88652500  0.52498300  1
  O  O92  1  0.88643300  0.40296900  0.02901500  1
  O  O93  1  0.88884500  0.38883300  0.52295600  1
  O  O94  1  0.89217200  0.89319400  0.03078500  1
  O  O95  1  0.88765200  0.88494900  0.52135700  1
  O  O96  1  0.08935300  0.10657600  0.12491800  1
  O  O97  1  0.07169000  0.09899300  0.62610100  1
  O  O98  1  0.09108300  0.61015700  0.12579300  1
  O  O99  1  0.06619100  0.60564500  0.62615200  1
  O  O100  1  0.58330400  0.10765400  0.12276200  1
  O  O101  1  0.57789100  0.10179100  0.62548400  1
  O  O102  1  0.58510900  0.61165100  0.12426800  1
  O  O103  1  0.57473500  0.60668300  0.62607100  1
  O  O104  1  0.44991200  0.39813400  0.37598300  1
  O  O105  1  0.45830900  0.39587000  0.87366000  1
  O  O106  1  0.44566300  0.89650700  0.37386100  1
  O  O107  1  0.46528100  0.89385000  0.87322300  1
  O  O108  1  0.94871100  0.40079800  0.37467100  1
  O  O109  1  0.94631900  0.39671900  0.87701800  1
  O  O110  1  0.94661800  0.89431200  0.36893900  1
  O  O111  1  0.95624100  0.89097000  0.87608000  1
  O  O112  1  0.34143800  0.26521600  0.12597900  1
  O  O113  1  0.32463800  0.27416700  0.62798100  1
  O  O114  1  0.33647500  0.76574900  0.12438600  1
  O  O115  1  0.34075100  0.77642700  0.62816100  1
  O  O116  1  0.83198800  0.26632100  0.12632800  1
  O  O117  1  0.82197900  0.27423800  0.62573900  1
  O  O118  1  0.83765300  0.76548600  0.12600600  1
  O  O119  1  0.81887400  0.77420200  0.62550600  1
  O  O120  1  0.19934500  0.22534600  0.37417600  1
  O  O121  1  0.19738800  0.23161300  0.87526400  1
  O  O122  1  0.19655500  0.72535000  0.37509700  1
  O  O123  1  0.19619600  0.73751600  0.87674500  1
  O  O124  1  0.69596900  0.22802200  0.37344300  1
  O  O125  1  0.70011700  0.23067000  0.87493000  1
  O  O126  1  0.69413600  0.72681100  0.37453900  1
  O  O127  1  0.70915100  0.73647100  0.87712100  1
  O  O128  1  0.41639100  0.06305800  0.24487500  1
  O  O129  1  0.41813800  0.06014300  0.75023200  1
  O  O130  1  0.42525700  0.56695900  0.24455500  1
  O  O131  1  0.42583200  0.55778600  0.74969900  1
  O  O132  1  0.91030100  0.06367000  0.24415500  1
  O  O133  1  0.93332900  0.06112500  0.75049300  1
  O  O134  1  0.91755200  0.57060400  0.24517200  1
  O  O135  1  0.93476200  0.56669200  0.75576800  1
  O  O136  1  0.17682400  0.44175700  0.25097600  1
  O  O137  1  0.17917500  0.44501600  0.74920000  1
  O  O138  1  0.14849300  0.92458000  0.24534900  1
  O  O139  1  0.17988300  0.93549500  0.75612100  1
  O  O140  1  0.66873100  0.43133800  0.24544600  1
  O  O141  1  0.66686200  0.42984800  0.75603000  1
  O  O142  1  0.67493100  0.92743800  0.24459700  1
  O  O143  1  0.66284100  0.92412300  0.74920900  1
