# generated using pymatgen
data_Na2W2O5
_symmetry_space_group_name_H-M   'P 1'
_cell_length_a   8.50749153
_cell_length_b   8.50749153
_cell_length_c   8.50749153
_cell_angle_alpha   140.72547600
_cell_angle_beta   140.04631628
_cell_angle_gamma   57.26967966
_symmetry_Int_Tables_number   1
_chemical_formula_structural   Na2W2O5
_chemical_formula_sum   'Na4 W4 O10'
_cell_volume   248.19777090
_cell_formula_units_Z   2
loop_
 _symmetry_equiv_pos_site_id
 _symmetry_equiv_pos_as_xyz
  1  'x, y, z'
loop_
 _atom_site_type_symbol
 _atom_site_label
 _atom_site_symmetry_multiplicity
 _atom_site_fract_x
 _atom_site_fract_y
 _atom_site_fract_z
 _atom_site_occupancy
  Na  Na0  1  0.92612100  0.39438200  0.52779000  1
  Na  Na1  1  0.07387900  0.60166800  0.46826100  1
  Na  Na2  1  0.36659200  0.89438200  0.46826100  1
  Na  Na3  1  0.63340800  0.10166800  0.52779000  1
  W  W4  1  0.00000000  0.02351800  0.02351800  1
  W  W5  1  0.50000000  0.52351800  0.02351800  1
  W  W6  1  0.69150600  0.68036100  0.87186700  1
  W  W7  1  0.30849400  0.18036100  0.98885500  1
  O  O8  1  0.27326500  0.29375800  0.52375000  1
  O  O9  1  0.72673500  0.25048500  0.02049300  1
  O  O10  1  0.27000800  0.79375800  0.02049300  1
  O  O11  1  0.72999200  0.75048500  0.52375000  1
  O  O12  1  0.94323100  0.90111300  0.12540200  1
  O  O13  1  0.05676900  0.18217100  0.95788300  1
  O  O14  1  0.27571200  0.40111300  0.95788300  1
  O  O15  1  0.72428800  0.68217100  0.12540200  1
  O  O16  1  0.62461900  0.33654400  0.46116300  1
  O  O17  1  0.37538100  0.83654400  0.71192400  1
