# generated using pymatgen
data_La7SmCr2(Fe3O10)2
_symmetry_space_group_name_H-M   'P 1'
_cell_length_a   11.13141370
_cell_length_b   11.68132941
_cell_length_c   17.90992757
_cell_angle_alpha   109.08683934
_cell_angle_beta   108.16316005
_cell_angle_gamma   90.00027034
_symmetry_Int_Tables_number   1
_chemical_formula_structural   La7SmCr2(Fe3O10)2
_chemical_formula_sum   'La28 Sm4 Cr8 Fe24 O80'
_cell_volume   2077.61477531
_cell_formula_units_Z   4
loop_
 _symmetry_equiv_pos_site_id
 _symmetry_equiv_pos_as_xyz
  1  'x, y, z'
loop_
 _atom_site_type_symbol
 _atom_site_label
 _atom_site_symmetry_multiplicity
 _atom_site_fract_x
 _atom_site_fract_y
 _atom_site_fract_z
 _atom_site_occupancy
  La  La0  1  0.29870300  0.06412700  0.11428900  1
  La  La1  1  0.30076200  0.06264200  0.61248100  1
  La  La2  1  0.30528100  0.56305500  0.61079600  1
  La  La3  1  0.80433000  0.06405200  0.61254300  1
  La  La4  1  0.80357800  0.56467300  0.11473500  1
  La  La5  1  0.80419300  0.56131400  0.61060700  1
  La  La6  1  0.19274000  0.43672400  0.38867400  1
  La  La7  1  0.18679300  0.43734200  0.88764400  1
  La  La8  1  0.18605200  0.93768400  0.38605200  1
  La  La9  1  0.18778300  0.93580900  0.88565800  1
  La  La10  1  0.69188300  0.43723500  0.38787700  1
  La  La11  1  0.69142500  0.93494400  0.38768000  1
  La  La12  1  0.68715500  0.93587900  0.88530500  1
  La  La13  1  0.05426500  0.29930700  0.11416000  1
  La  La14  1  0.05320700  0.30019200  0.61071100  1
  La  La15  1  0.05346800  0.79951400  0.61095700  1
  La  La16  1  0.55018500  0.29830500  0.11297400  1
  La  La17  1  0.55669200  0.29919800  0.61425900  1
  La  La18  1  0.54993500  0.80091400  0.11516700  1
  La  La19  1  0.55478600  0.79772100  0.61035800  1
  La  La20  1  0.44327000  0.20084700  0.38937500  1
  La  La21  1  0.43971400  0.20310800  0.88785900  1
  La  La22  1  0.44122100  0.69976500  0.38540800  1
  La  La23  1  0.43678500  0.69914200  0.88536700  1
  La  La24  1  0.93994300  0.20050600  0.38673300  1
  La  La25  1  0.94044800  0.20226200  0.88773900  1
  La  La26  1  0.94118800  0.70013700  0.38787900  1
  La  La27  1  0.93693600  0.69848300  0.88532800  1
  Sm  Sm28  1  0.29705200  0.56603600  0.11224100  1
  Sm  Sm29  1  0.80017600  0.06605500  0.11285200  1
  Sm  Sm30  1  0.68680800  0.43434900  0.88791000  1
  Sm  Sm31  1  0.05188200  0.79747300  0.11404600  1
  Cr  Cr32  1  0.99855000  0.99829300  0.00202800  1
  Cr  Cr33  1  0.99771100  0.50114000  0.00081500  1
  Cr  Cr34  1  0.49994500  0.99967700  0.00080400  1
  Cr  Cr35  1  0.50049100  0.99892400  0.49965300  1
  Cr  Cr36  1  0.49949200  0.50266100  0.00102700  1
  Cr  Cr37  1  0.24813600  0.75109200  0.00109700  1
  Cr  Cr38  1  0.74946900  0.24946100  0.00057800  1
  Cr  Cr39  1  0.74992800  0.75061000  0.00146300  1
  Fe  Fe40  1  0.00295800  0.00051700  0.49954800  1
  Fe  Fe41  1  0.00474700  0.50038300  0.49955500  1
  Fe  Fe42  1  0.50426100  0.49902600  0.49946000  1
  Fe  Fe43  1  0.25296100  0.25192400  0.00162700  1
  Fe  Fe44  1  0.25419600  0.24945900  0.49968200  1
  Fe  Fe45  1  0.25453600  0.75101800  0.49917700  1
  Fe  Fe46  1  0.75346400  0.24864200  0.49966800  1
  Fe  Fe47  1  0.75352300  0.74983000  0.49962400  1
  Fe  Fe48  1  0.10945800  0.10453900  0.25048200  1
  Fe  Fe49  1  0.11230600  0.10644300  0.75061300  1
  Fe  Fe50  1  0.11475400  0.60665200  0.25129900  1
  Fe  Fe51  1  0.11152500  0.60286500  0.74741500  1
  Fe  Fe52  1  0.61453300  0.10496800  0.25135100  1
  Fe  Fe53  1  0.61299800  0.10657600  0.75100100  1
  Fe  Fe54  1  0.61014400  0.60463200  0.24975300  1
  Fe  Fe55  1  0.61228400  0.60335700  0.74935100  1
  Fe  Fe56  1  0.36124500  0.39679800  0.24932700  1
  Fe  Fe57  1  0.36299400  0.39444800  0.74816900  1
  Fe  Fe58  1  0.35950900  0.89356200  0.24873900  1
  Fe  Fe59  1  0.36208200  0.89442700  0.74806500  1
  Fe  Fe60  1  0.86290100  0.39379400  0.25086200  1
  Fe  Fe61  1  0.85956800  0.39400500  0.74904400  1
  Fe  Fe62  1  0.86338100  0.89669800  0.24923200  1
  Fe  Fe63  1  0.86149300  0.89448500  0.74828500  1
  O  O64  1  0.11239400  0.11848700  0.47608900  1
  O  O65  1  0.11262200  0.11498700  0.97970500  1
  O  O66  1  0.11419700  0.61861300  0.47579600  1
  O  O67  1  0.11131900  0.61895000  0.98040200  1
  O  O68  1  0.61328500  0.11284300  0.47698700  1
  O  O69  1  0.61155900  0.11718300  0.97844400  1
  O  O70  1  0.61420000  0.61598100  0.47658100  1
  O  O71  1  0.61120000  0.61469500  0.97423000  1
  O  O72  1  0.13546000  0.38798200  0.02343700  1
  O  O73  1  0.13862900  0.38627100  0.52384600  1
  O  O74  1  0.13243400  0.88147800  0.02776200  1
  O  O75  1  0.13703100  0.88601600  0.52320700  1
  O  O76  1  0.63081500  0.38076100  0.02009300  1
  O  O77  1  0.63622300  0.38111300  0.52239700  1
  O  O78  1  0.63744300  0.88608500  0.02642600  1
  O  O79  1  0.63585500  0.88496700  0.52210700  1
  O  O80  1  0.36194900  0.10570600  0.47570700  1
  O  O81  1  0.36397000  0.11088900  0.97907400  1
  O  O82  1  0.36450700  0.60985700  0.47604900  1
  O  O83  1  0.36089000  0.61181400  0.97792700  1
  O  O84  1  0.86409400  0.11066400  0.47674600  1
  O  O85  1  0.86066900  0.10833600  0.97909300  1
  O  O86  1  0.86458000  0.60957000  0.47651400  1
  O  O87  1  0.85661400  0.60637900  0.97388400  1
  O  O88  1  0.38298100  0.39789500  0.02535100  1
  O  O89  1  0.38727000  0.38710400  0.52154800  1
  O  O90  1  0.38179500  0.89031300  0.02187300  1
  O  O91  1  0.38761500  0.89131900  0.52420400  1
  O  O92  1  0.88267900  0.38925100  0.02168300  1
  O  O93  1  0.88738100  0.38931000  0.52321200  1
  O  O94  1  0.88701300  0.89284500  0.03091200  1
  O  O95  1  0.88655200  0.88852600  0.52249200  1
  O  O96  1  0.10838600  0.12423700  0.14658900  1
  O  O97  1  0.09060100  0.11591400  0.63983500  1
  O  O98  1  0.11354600  0.62438400  0.14637700  1
  O  O99  1  0.09009300  0.61517700  0.63779500  1
  O  O100  1  0.61411200  0.12265700  0.14659700  1
  O  O101  1  0.60410800  0.12258800  0.64490500  1
  O  O102  1  0.61234700  0.62412700  0.14599300  1
  O  O103  1  0.59004100  0.61235700  0.63843900  1
  O  O104  1  0.45032300  0.38349800  0.35912400  1
  O  O105  1  0.46732500  0.37857300  0.85366600  1
  O  O106  1  0.45665800  0.87641600  0.35438500  1
  O  O107  1  0.46085500  0.87794600  0.85451100  1
  O  O108  1  0.95207100  0.38522900  0.36184300  1
  O  O109  1  0.96305800  0.37941800  0.85481600  1
  O  O110  1  0.95071400  0.88543900  0.36043400  1
  O  O111  1  0.96188100  0.87791000  0.85463400  1
  O  O112  1  0.34700200  0.27457700  0.13929800  1
  O  O113  1  0.33994700  0.27246300  0.63757100  1
  O  O114  1  0.35603100  0.76985400  0.14362300  1
  O  O115  1  0.34087800  0.77481800  0.63750700  1
  O  O116  1  0.85635600  0.27140400  0.14477900  1
  O  O117  1  0.83821100  0.27558800  0.63795400  1
  O  O118  1  0.86934400  0.77079600  0.14705300  1
  O  O119  1  0.83823400  0.77349300  0.63761900  1
  O  O120  1  0.20007300  0.22343700  0.36133800  1
  O  O121  1  0.20672100  0.22522300  0.86210100  1
  O  O122  1  0.20259200  0.72906400  0.36171600  1
  O  O123  1  0.20916500  0.72482000  0.85458600  1
  O  O124  1  0.70104900  0.22644300  0.36219600  1
  O  O125  1  0.71179500  0.22964600  0.85731100  1
  O  O126  1  0.70047300  0.72263500  0.36117800  1
  O  O127  1  0.71250400  0.72831600  0.85504500  1
  O  O128  1  0.42383100  0.06791600  0.25100700  1
  O  O129  1  0.42195800  0.06964300  0.75132600  1
  O  O130  1  0.41665300  0.56571300  0.24343200  1
  O  O131  1  0.42133500  0.56779200  0.74855000  1
  O  O132  1  0.91576000  0.06887400  0.24537000  1
  O  O133  1  0.92377500  0.06860600  0.75121200  1
  O  O134  1  0.92515700  0.56661300  0.25118400  1
  O  O135  1  0.92165800  0.56613100  0.74854400  1
  O  O136  1  0.17307500  0.43313400  0.25163800  1
  O  O137  1  0.17356700  0.43067900  0.74950100  1
  O  O138  1  0.16706300  0.92881500  0.24542100  1
  O  O139  1  0.17281000  0.93317000  0.74913500  1
  O  O140  1  0.67095000  0.43156000  0.24982000  1
  O  O141  1  0.67222100  0.43290400  0.75582000  1
  O  O142  1  0.67518600  0.93254900  0.25073900  1
  O  O143  1  0.67110100  0.93156300  0.74825400  1
