# generated using pymatgen
data_La2Co2O5
_symmetry_space_group_name_H-M   'P 1'
_cell_length_a   8.84891150
_cell_length_b   8.84891150
_cell_length_c   8.84891150
_cell_angle_alpha   143.92884857
_cell_angle_beta   141.65067560
_cell_angle_gamma   53.66332214
_symmetry_Int_Tables_number   1
_chemical_formula_structural   La2Co2O5
_chemical_formula_sum   'La4 Co4 O10'
_cell_volume   251.49975013
_cell_formula_units_Z   2
loop_
 _symmetry_equiv_pos_site_id
 _symmetry_equiv_pos_as_xyz
  1  'x, y, z'
loop_
 _atom_site_type_symbol
 _atom_site_label
 _atom_site_symmetry_multiplicity
 _atom_site_fract_x
 _atom_site_fract_y
 _atom_site_fract_z
 _atom_site_occupancy
  La  La0  1  0.86701500  0.38898900  0.47670600  1
  La  La1  1  0.13298500  0.60969200  0.52197500  1
  La  La2  1  0.41228300  0.88898900  0.52197500  1
  La  La3  1  0.58771700  0.10969200  0.47670600  1
  Co  Co4  1  0.00000000  0.98979000  0.98979000  1
  Co  Co5  1  0.50000000  0.48979000  0.98979000  1
  Co  Co6  1  0.81183600  0.78514900  0.09698500  1
  Co  Co7  1  0.18816400  0.28514900  0.97331300  1
  O  O8  1  0.76239800  0.76211800  0.48964100  1
  O  O9  1  0.23760200  0.72724300  0.99972000  1
  O  O10  1  0.77247700  0.26211800  0.99972000  1
  O  O11  1  0.22752300  0.22724300  0.48964100  1
  O  O12  1  0.77559900  0.81637000  0.87488900  1
  O  O13  1  0.22440100  0.09929000  0.04077100  1
  O  O14  1  0.44148100  0.31637000  0.04077100  1
  O  O15  1  0.55851900  0.59929000  0.87488900  1
  O  O16  1  0.86240300  0.15736000  0.51976300  1
  O  O17  1  0.13759700  0.65736000  0.29495600  1
