# generated using pymatgen
data_CoSbS
_symmetry_space_group_name_H-M   'P 1'
_cell_length_a   5.84365900
_cell_length_b   5.84365900
_cell_length_c   5.84365900
_cell_angle_alpha   90.00000000
_cell_angle_beta   90.00000000
_cell_angle_gamma   90.00000000
_symmetry_Int_Tables_number   1
_chemical_formula_structural   CoSbS
_chemical_formula_sum   'Co4 Sb4 S4'
_cell_volume   199.55131578
_cell_formula_units_Z   4
loop_
 _symmetry_equiv_pos_site_id
 _symmetry_equiv_pos_as_xyz
  1  'x, y, z'
loop_
 _atom_site_type_symbol
 _atom_site_label
 _atom_site_symmetry_multiplicity
 _atom_site_fract_x
 _atom_site_fract_y
 _atom_site_fract_z
 _atom_site_occupancy
  Co  Co0  1  0.48047800  0.98047800  0.51952200  1
  Co  Co1  1  0.98047800  0.51952200  0.48047800  1
  Co  Co2  1  0.51952200  0.48047800  0.98047800  1
  Co  Co3  1  0.01952200  0.01952200  0.01952200  1
  Sb  Sb4  1  0.12781600  0.62781600  0.87218400  1
  Sb  Sb5  1  0.62781600  0.87218400  0.12781600  1
  Sb  Sb6  1  0.87218400  0.12781600  0.62781600  1
  Sb  Sb7  1  0.37218400  0.37218400  0.37218400  1
  S  S8  1  0.87749000  0.37749000  0.12251000  1
  S  S9  1  0.37749000  0.12251000  0.87749000  1
  S  S10  1  0.12251000  0.87749000  0.37749000  1
  S  S11  1  0.62251000  0.62251000  0.62251000  1
