# generated using pymatgen
data_K2Na2NbW3O10
_symmetry_space_group_name_H-M   'P 1'
_cell_length_a   11.58504343
_cell_length_b   11.74202801
_cell_length_c   17.56837809
_cell_angle_alpha   109.16240203
_cell_angle_beta   109.19023253
_cell_angle_gamma   89.68010334
_symmetry_Int_Tables_number   1
_chemical_formula_structural   K2Na2NbW3O10
_chemical_formula_sum   'K16 Na16 Nb8 W24 O80'
_cell_volume   2117.93404697
_cell_formula_units_Z   8
loop_
 _symmetry_equiv_pos_site_id
 _symmetry_equiv_pos_as_xyz
  1  'x, y, z'
loop_
 _atom_site_type_symbol
 _atom_site_label
 _atom_site_symmetry_multiplicity
 _atom_site_fract_x
 _atom_site_fract_y
 _atom_site_fract_z
 _atom_site_occupancy
  K  K0  1  0.30088900  0.06412700  0.11135800  1
  K  K1  1  0.30237900  0.55906600  0.11107700  1
  K  K2  1  0.80302700  0.05986900  0.11331100  1
  K  K3  1  0.80157500  0.55654900  0.10798500  1
  K  K4  1  0.19928800  0.93718100  0.38937200  1
  K  K5  1  0.19148000  0.92942400  0.87938600  1
  K  K6  1  0.69915700  0.44119500  0.39476200  1
  K  K7  1  0.68777400  0.42061000  0.87850600  1
  K  K8  1  0.69723100  0.93480300  0.38994000  1
  K  K9  1  0.05343000  0.29845900  0.11010500  1
  K  K10  1  0.05362200  0.79391800  0.10945300  1
  K  K11  1  0.54923200  0.29593000  0.10990600  1
  K  K12  1  0.55401800  0.79637900  0.10947300  1
  K  K13  1  0.44955900  0.70935300  0.39217700  1
  K  K14  1  0.44174100  0.70503700  0.88276700  1
  K  K15  1  0.93984200  0.70229300  0.87726200  1
  Na  Na16  1  0.30223900  0.07393500  0.60085300  1
  Na  Na17  1  0.30458400  0.56629800  0.60198700  1
  Na  Na18  1  0.80620500  0.05942900  0.59864400  1
  Na  Na19  1  0.81247400  0.56740600  0.60400900  1
  Na  Na20  1  0.19877400  0.44324100  0.40201900  1
  Na  Na21  1  0.20054600  0.43408300  0.89906600  1
  Na  Na22  1  0.70132900  0.93610800  0.89837200  1
  Na  Na23  1  0.05264800  0.28268200  0.59622000  1
  Na  Na24  1  0.06456400  0.78921400  0.60321600  1
  Na  Na25  1  0.55821200  0.28270200  0.60173400  1
  Na  Na26  1  0.55669300  0.78526400  0.60087200  1
  Na  Na27  1  0.44705000  0.21147600  0.40394800  1
  Na  Na28  1  0.44679000  0.21736600  0.89643500  1
  Na  Na29  1  0.94632300  0.21452600  0.40141900  1
  Na  Na30  1  0.95448500  0.21347400  0.89970800  1
  Na  Na31  1  0.94724100  0.71406400  0.40236300  1
  Nb  Nb32  1  0.10782800  0.09534000  0.74408500  1
  Nb  Nb33  1  0.12465300  0.57348200  0.74357400  1
  Nb  Nb34  1  0.57701900  0.06888900  0.74673800  1
  Nb  Nb35  1  0.59786200  0.58128100  0.74187400  1
  Nb  Nb36  1  0.32261900  0.41499700  0.74473400  1
  Nb  Nb37  1  0.37617100  0.92135100  0.74485500  1
  Nb  Nb38  1  0.86472600  0.39799600  0.74233200  1
  Nb  Nb39  1  0.84078500  0.92133500  0.74722700  1
  W  W40  1  0.00103300  0.99909800  0.99639000  1
  W  W41  1  0.01330100  0.00315000  0.50371600  1
  W  W42  1  0.00022400  0.49546900  0.99482900  1
  W  W43  1  0.01431000  0.50410200  0.50448500  1
  W  W44  1  0.50116700  0.99759200  0.99601100  1
  W  W45  1  0.51139100  0.00546600  0.50834900  1
  W  W46  1  0.49970900  0.49824200  0.99425100  1
  W  W47  1  0.51382500  0.50238500  0.50707700  1
  W  W48  1  0.25180600  0.24846600  0.99510200  1
  W  W49  1  0.26135900  0.25692500  0.50579100  1
  W  W50  1  0.24840800  0.74546900  0.99345200  1
  W  W51  1  0.26457400  0.75297100  0.50585900  1
  W  W52  1  0.74848900  0.24291800  0.99356300  1
  W  W53  1  0.76417100  0.25191300  0.50609000  1
  W  W54  1  0.74972500  0.74510000  0.99279800  1
  W  W55  1  0.76512100  0.75531000  0.50840000  1
  W  W56  1  0.10501200  0.10690200  0.25916100  1
  W  W57  1  0.09328800  0.61147200  0.25685800  1
  W  W58  1  0.60251100  0.10091300  0.25746800  1
  W  W59  1  0.60156700  0.60531300  0.25197900  1
  W  W60  1  0.34334900  0.40011100  0.25767700  1
  W  W61  1  0.36406600  0.89539000  0.24964400  1
  W  W62  1  0.85424200  0.40188800  0.25223400  1
  W  W63  1  0.86523900  0.89373100  0.24961800  1
  O  O64  1  0.12662900  0.12603300  0.48941200  1
  O  O65  1  0.11718900  0.11939600  0.98095700  1
  O  O66  1  0.12968500  0.62180000  0.49007100  1
  O  O67  1  0.11825000  0.61236700  0.97895300  1
  O  O68  1  0.63128700  0.12843400  0.49945500  1
  O  O69  1  0.61995800  0.11398700  0.98349500  1
  O  O70  1  0.63361400  0.62527300  0.49890100  1
  O  O71  1  0.61894600  0.61567000  0.98091700  1
  O  O72  1  0.12710100  0.37342400  0.99791100  1
  O  O73  1  0.14681200  0.38984800  0.52126200  1
  O  O74  1  0.12673400  0.87419000  0.99962200  1
  O  O75  1  0.14851100  0.88839000  0.52411100  1
  O  O76  1  0.62337700  0.36967500  0.99746800  1
  O  O77  1  0.65051800  0.38869700  0.52822800  1
  O  O78  1  0.62951800  0.87508200  0.00027500  1
  O  O79  1  0.64763000  0.88836200  0.52539000  1
  O  O80  1  0.38249200  0.12842400  0.49840400  1
  O  O81  1  0.37050100  0.11767500  0.98045200  1
  O  O82  1  0.38000400  0.61780800  0.49521100  1
  O  O83  1  0.36819600  0.61655600  0.98509800  1
  O  O84  1  0.88090300  0.12083800  0.49024000  1
  O  O85  1  0.86827700  0.11444000  0.98075700  1
  O  O86  1  0.88653900  0.62679200  0.49980700  1
  O  O87  1  0.86897900  0.61440300  0.98176800  1
  O  O88  1  0.37721600  0.37607400  0.00000700  1
  O  O89  1  0.40082700  0.38816900  0.52822900  1
  O  O90  1  0.37711400  0.87650800  0.00228100  1
  O  O91  1  0.39786700  0.88846900  0.52615800  1
  O  O92  1  0.87613600  0.36978600  0.99782200  1
  O  O93  1  0.89933500  0.38591700  0.52405800  1
  O  O94  1  0.87533600  0.87589300  0.99994200  1
  O  O95  1  0.90027400  0.88933500  0.52678200  1
  O  O96  1  0.06550600  0.07996300  0.13421900  1
  O  O97  1  0.08657800  0.11813700  0.64078200  1
  O  O98  1  0.06904000  0.56926300  0.13252600  1
  O  O99  1  0.09667800  0.61046300  0.64347100  1
  O  O100  1  0.56449400  0.07737100  0.13373500  1
  O  O101  1  0.57444100  0.09737200  0.64606900  1
  O  O102  1  0.57467500  0.57972100  0.13056200  1
  O  O103  1  0.58568500  0.61584700  0.64411100  1
  O  O104  1  0.44458400  0.39695100  0.37133200  1
  O  O105  1  0.42099600  0.41487300  0.85427800  1
  O  O106  1  0.44322400  0.92763200  0.37301100  1
  O  O107  1  0.44255200  0.91101900  0.85415500  1
  O  O108  1  0.95028600  0.40006600  0.36857000  1
  O  O109  1  0.93578000  0.39582300  0.85501800  1
  O  O110  1  0.94273300  0.90225500  0.37032600  1
  O  O111  1  0.93118000  0.91478100  0.85565900  1
  O  O112  1  0.31634000  0.30480700  0.13483700  1
  O  O113  1  0.31608400  0.29180400  0.64245900  1
  O  O114  1  0.31297300  0.79876400  0.13083600  1
  O  O115  1  0.34157600  0.78515800  0.64405800  1
  O  O116  1  0.82405700  0.29710600  0.13425600  1
  O  O117  1  0.84127400  0.26715200  0.64157100  1
  O  O118  1  0.81842400  0.79514300  0.13083600  1
  O  O119  1  0.83388500  0.79257800  0.64732900  1
  O  O120  1  0.20430600  0.22576000  0.36918000  1
  O  O121  1  0.18995400  0.20998400  0.85340100  1
  O  O122  1  0.20488800  0.70905600  0.37183100  1
  O  O123  1  0.18806000  0.69377300  0.85237600  1
  O  O124  1  0.70343700  0.21156800  0.37025700  1
  O  O125  1  0.67148800  0.18223000  0.85419100  1
  O  O126  1  0.70459100  0.70227600  0.37149300  1
  O  O127  1  0.67892900  0.69900900  0.85054600  1
  O  O128  1  0.45160600  0.07259100  0.27324200  1
  O  O129  1  0.40538300  0.09342700  0.74697000  1
  O  O130  1  0.45375700  0.53158400  0.25398000  1
  O  O131  1  0.43154000  0.54129100  0.73406300  1
  O  O132  1  0.95681800  0.06641800  0.27690200  1
  O  O133  1  0.94686900  0.05111500  0.74427500  1
  O  O134  1  0.94335900  0.56429800  0.27152500  1
  O  O135  1  0.94649100  0.53328400  0.73261400  1
  O  O136  1  0.18986700  0.44947000  0.26661300  1
  O  O137  1  0.15055100  0.40264800  0.74544400  1
  O  O138  1  0.20538800  0.96401800  0.24583000  1
  O  O139  1  0.19539100  0.95680000  0.73502000  1
  O  O140  1  0.69598500  0.45225700  0.25092500  1
  O  O141  1  0.70025000  0.45025400  0.73470400  1
  O  O142  1  0.70944400  0.96269200  0.24704000  1
  O  O143  1  0.67089500  0.92200300  0.74620200  1
