# generated using pymatgen
data_KNaMoWO5
_symmetry_space_group_name_H-M   'P 1'
_cell_length_a   11.54722537
_cell_length_b   11.72317776
_cell_length_c   17.54391029
_cell_angle_alpha   109.32978231
_cell_angle_beta   109.05283244
_cell_angle_gamma   89.95536805
_symmetry_Int_Tables_number   1
_chemical_formula_structural   KNaMoWO5
_chemical_formula_sum   'K16 Na16 Mo16 W16 O80'
_cell_volume   2102.90005141
_cell_formula_units_Z   16
loop_
 _symmetry_equiv_pos_site_id
 _symmetry_equiv_pos_as_xyz
  1  'x, y, z'
loop_
 _atom_site_type_symbol
 _atom_site_label
 _atom_site_symmetry_multiplicity
 _atom_site_fract_x
 _atom_site_fract_y
 _atom_site_fract_z
 _atom_site_occupancy
  K  K0  1  0.30532700  0.06715400  0.10863700  1
  K  K1  1  0.30223800  0.55980900  0.10623200  1
  K  K2  1  0.80596400  0.06282300  0.11019100  1
  K  K3  1  0.80417000  0.56083500  0.10775500  1
  K  K4  1  0.20178800  0.93549300  0.39402800  1
  K  K5  1  0.19250100  0.92894800  0.88228100  1
  K  K6  1  0.70259600  0.43768600  0.39699500  1
  K  K7  1  0.69266000  0.42943300  0.88445100  1
  K  K8  1  0.70121400  0.93428200  0.39481500  1
  K  K9  1  0.05847200  0.29410800  0.10975900  1
  K  K10  1  0.05308800  0.79106100  0.10524300  1
  K  K11  1  0.55421500  0.29171000  0.10784500  1
  K  K12  1  0.55380800  0.79420100  0.10494000  1
  K  K13  1  0.45216400  0.71273700  0.39569700  1
  K  K14  1  0.44064700  0.70575300  0.88252800  1
  K  K15  1  0.94187100  0.70357300  0.88211000  1
  Na  Na16  1  0.29879900  0.07008300  0.60294900  1
  Na  Na17  1  0.30044600  0.56304600  0.59950200  1
  Na  Na18  1  0.80210700  0.06652400  0.60280000  1
  Na  Na19  1  0.79765200  0.56731200  0.60072700  1
  Na  Na20  1  0.20279400  0.43900500  0.40615400  1
  Na  Na21  1  0.19867800  0.43481200  0.89759400  1
  Na  Na22  1  0.69718900  0.93445900  0.89617200  1
  Na  Na23  1  0.05108500  0.28231100  0.60222100  1
  Na  Na24  1  0.04959200  0.78593100  0.59987300  1
  Na  Na25  1  0.55010800  0.28508300  0.60144600  1
  Na  Na26  1  0.55172800  0.78482100  0.60131400  1
  Na  Na27  1  0.45430600  0.21633700  0.40794900  1
  Na  Na28  1  0.44849800  0.21145000  0.89722300  1
  Na  Na29  1  0.95247100  0.21884300  0.40648000  1
  Na  Na30  1  0.94727100  0.21208500  0.89678200  1
  Na  Na31  1  0.95082000  0.71775400  0.40448500  1
  Mo  Mo32  1  0.00606900  0.99839600  0.99590300  1
  Mo  Mo33  1  0.01561600  0.00212000  0.50449900  1
  Mo  Mo34  1  0.00301700  0.49515000  0.99434400  1
  Mo  Mo35  1  0.01476000  0.50229800  0.50228400  1
  Mo  Mo36  1  0.50424600  0.99786700  0.99381500  1
  Mo  Mo37  1  0.51435500  0.00584300  0.50637500  1
  Mo  Mo38  1  0.50507400  0.49580900  0.99498800  1
  Mo  Mo39  1  0.51567300  0.50167700  0.50670200  1
  Mo  Mo40  1  0.25531100  0.24909800  0.99550100  1
  Mo  Mo41  1  0.26456900  0.25461300  0.50591600  1
  Mo  Mo42  1  0.25306500  0.74437900  0.99250000  1
  Mo  Mo43  1  0.26403900  0.74955600  0.50370000  1
  Mo  Mo44  1  0.75575300  0.24388700  0.99308600  1
  Mo  Mo45  1  0.76784600  0.25167700  0.50599800  1
  Mo  Mo46  1  0.75359300  0.74797000  0.99399100  1
  Mo  Mo47  1  0.76489800  0.75285100  0.50613200  1
  W  W48  1  0.09927400  0.10940800  0.25942300  1
  W  W49  1  0.08871700  0.09860900  0.74807200  1
  W  W50  1  0.09597100  0.59385100  0.25662100  1
  W  W51  1  0.08790400  0.58329700  0.73834800  1
  W  W52  1  0.59726700  0.10201600  0.25722100  1
  W  W53  1  0.58585200  0.08929900  0.74663300  1
  W  W54  1  0.59847600  0.59302500  0.25027600  1
  W  W55  1  0.58782600  0.58970500  0.74276500  1
  W  W56  1  0.34699700  0.40336700  0.25966900  1
  W  W57  1  0.33699100  0.39958600  0.74840200  1
  W  W58  1  0.34816100  0.91188600  0.24937400  1
  W  W59  1  0.33734500  0.90670200  0.73935300  1
  W  W60  1  0.85571300  0.40434900  0.25290700  1
  W  W61  1  0.84192400  0.39864700  0.74334800  1
  W  W62  1  0.85257400  0.90857200  0.25213200  1
  W  W63  1  0.83488000  0.91027500  0.74603000  1
  O  O64  1  0.13003500  0.12505500  0.49050600  1
  O  O65  1  0.12379800  0.12188700  0.98562200  1
  O  O66  1  0.12808400  0.61620300  0.48354200  1
  O  O67  1  0.12315400  0.61313800  0.98291300  1
  O  O68  1  0.63250200  0.12568200  0.49473400  1
  O  O69  1  0.62399700  0.11575400  0.98161000  1
  O  O70  1  0.63192200  0.62271300  0.49387800  1
  O  O71  1  0.62326100  0.61827700  0.98519200  1
  O  O72  1  0.13161300  0.37620400  0.00223200  1
  O  O73  1  0.14759500  0.38791700  0.52174600  1
  O  O74  1  0.13400700  0.87502100  0.00448700  1
  O  O75  1  0.14561800  0.88078300  0.51944200  1
  O  O76  1  0.63281000  0.37306000  0.00380000  1
  O  O77  1  0.64748700  0.38430500  0.52272000  1
  O  O78  1  0.63395600  0.87754600  0.00290100  1
  O  O79  1  0.64810500  0.88743900  0.52476000  1
  O  O80  1  0.38187900  0.12326600  0.48961000  1
  O  O81  1  0.37460100  0.11899500  0.98257000  1
  O  O82  1  0.38053200  0.61691000  0.49298100  1
  O  O83  1  0.37178600  0.61347100  0.98392300  1
  O  O84  1  0.88377400  0.12025400  0.48925700  1
  O  O85  1  0.87460300  0.11553800  0.98291100  1
  O  O86  1  0.88415000  0.62246200  0.49198100  1
  O  O87  1  0.87301200  0.61646800  0.98547700  1
  O  O88  1  0.38275200  0.37683500  0.00249900  1
  O  O89  1  0.39715500  0.38585200  0.52103900  1
  O  O90  1  0.38218000  0.87748100  0.00409200  1
  O  O91  1  0.39831400  0.89042400  0.52568000  1
  O  O92  1  0.88501700  0.37551500  0.00488700  1
  O  O93  1  0.89901100  0.38608500  0.52138300  1
  O  O94  1  0.88114900  0.87818900  0.00337000  1
  O  O95  1  0.89735100  0.88625700  0.52154200  1
  O  O96  1  0.07470900  0.08176800  0.13738600  1
  O  O97  1  0.09217100  0.10602700  0.63869800  1
  O  O98  1  0.07177100  0.58348200  0.14038000  1
  O  O99  1  0.09251800  0.61240900  0.63856700  1
  O  O100  1  0.57265800  0.08085500  0.13606100  1
  O  O101  1  0.58747600  0.11047000  0.64209600  1
  O  O102  1  0.57513900  0.58796600  0.13471900  1
  O  O103  1  0.59491500  0.61199500  0.63962100  1
  O  O104  1  0.44718800  0.39120500  0.36730500  1
  O  O105  1  0.43974500  0.39386700  0.85764800  1
  O  O106  1  0.44864100  0.91632600  0.36518900  1
  O  O107  1  0.44271600  0.91422800  0.85465400  1
  O  O108  1  0.95486200  0.39364100  0.36479400  1
  O  O109  1  0.93672200  0.39760400  0.85637100  1
  O  O110  1  0.94787700  0.89865400  0.36548700  1
  O  O111  1  0.94402400  0.91272600  0.85827500  1
  O  O112  1  0.32616600  0.30910800  0.13853200  1
  O  O113  1  0.33940700  0.28232500  0.63955600  1
  O  O114  1  0.32638400  0.79749200  0.13846900  1
  O  O115  1  0.33838200  0.77524700  0.63963000  1
  O  O116  1  0.83112300  0.29708200  0.13705800  1
  O  O117  1  0.85012600  0.27574900  0.63931200  1
  O  O118  1  0.82974400  0.79899600  0.13865200  1
  O  O119  1  0.83890100  0.78481300  0.64271700  1
  O  O120  1  0.20197600  0.22647400  0.36697100  1
  O  O121  1  0.19065000  0.21244500  0.85744700  1
  O  O122  1  0.20703200  0.70617500  0.36714000  1
  O  O123  1  0.18765400  0.69142100  0.85485300  1
  O  O124  1  0.70705000  0.20931600  0.36754600  1
  O  O125  1  0.70228000  0.19678400  0.85613100  1
  O  O126  1  0.70033900  0.70104500  0.36684100  1
  O  O127  1  0.68256700  0.70641900  0.85577800  1
  O  O128  1  0.44214300  0.07931100  0.27294100  1
  O  O129  1  0.41821000  0.07034600  0.75064400  1
  O  O130  1  0.43857700  0.54643000  0.25065000  1
  O  O131  1  0.41768800  0.54081200  0.73044500  1
  O  O132  1  0.94553800  0.07480500  0.27522600  1
  O  O133  1  0.92271400  0.06603300  0.75024400  1
  O  O134  1  0.93722400  0.57084100  0.26938100  1
  O  O135  1  0.91677100  0.54403300  0.72813900  1
  O  O136  1  0.19024000  0.44866200  0.27238100  1
  O  O137  1  0.17136100  0.43203600  0.75150000  1
  O  O138  1  0.18531600  0.95462300  0.24747300  1
  O  O139  1  0.16605900  0.93809800  0.72869500  1
  O  O140  1  0.69468900  0.44928300  0.25393100  1
  O  O141  1  0.67182400  0.43452700  0.73213200  1
  O  O142  1  0.68978300  0.95283500  0.24894100  1
  O  O143  1  0.66571900  0.93297900  0.74661600  1
