# generated using pymatgen
data_K4Na4NbW7O24
_symmetry_space_group_name_H-M   'P 1'
_cell_length_a   8.01952400
_cell_length_b   8.01952400
_cell_length_c   8.01090200
_cell_angle_alpha   90.00000000
_cell_angle_beta   90.00000000
_cell_angle_gamma   90.00000000
_symmetry_Int_Tables_number   1
_chemical_formula_structural   K4Na4NbW7O24
_chemical_formula_sum   'K4 Na4 Nb1 W7 O24'
_cell_volume   515.20325926
_cell_formula_units_Z   1
loop_
 _symmetry_equiv_pos_site_id
 _symmetry_equiv_pos_as_xyz
  1  'x, y, z'
loop_
 _atom_site_type_symbol
 _atom_site_label
 _atom_site_symmetry_multiplicity
 _atom_site_fract_x
 _atom_site_fract_y
 _atom_site_fract_z
 _atom_site_occupancy
  K  K0  1  0.25116400  0.25116400  0.25171700  1
  K  K1  1  0.74883600  0.25116400  0.25171700  1
  K  K2  1  0.25116400  0.74883600  0.25171700  1
  K  K3  1  0.74883600  0.74883600  0.25171700  1
  Na  Na4  1  0.25118200  0.25118200  0.74853500  1
  Na  Na5  1  0.74881800  0.25118200  0.74853500  1
  Na  Na6  1  0.25118200  0.74881800  0.74853500  1
  Na  Na7  1  0.74881800  0.74881800  0.74853500  1
  Nb  Nb8  1  0.50000000  0.50000000  0.50291300  1
  W  W9  1  0.00000000  0.00000000  0.99833400  1
  W  W10  1  0.00000000  0.00000000  0.50113800  1
  W  W11  1  0.50000000  0.00000000  0.99755700  1
  W  W12  1  0.50000000  0.00000000  0.50198700  1
  W  W13  1  0.00000000  0.50000000  0.99755700  1
  W  W14  1  0.00000000  0.50000000  0.50198700  1
  W  W15  1  0.50000000  0.50000000  0.99883000  1
  O  O16  1  0.00000000  0.25549800  0.99600300  1
  O  O17  1  0.00000000  0.25587600  0.50375200  1
  O  O18  1  0.50000000  0.24954300  0.99580300  1
  O  O19  1  0.50000000  0.24797300  0.50359600  1
  O  O20  1  0.00000000  0.74450200  0.99600300  1
  O  O21  1  0.00000000  0.74412400  0.50375200  1
  O  O22  1  0.50000000  0.75045700  0.99580300  1
  O  O23  1  0.50000000  0.75202700  0.50359600  1
  O  O24  1  0.25549800  0.00000000  0.99600300  1
  O  O25  1  0.25587600  0.00000000  0.50375200  1
  O  O26  1  0.74450200  0.00000000  0.99600300  1
  O  O27  1  0.74412400  0.00000000  0.50375200  1
  O  O28  1  0.24954300  0.50000000  0.99580300  1
  O  O29  1  0.24797300  0.50000000  0.50359600  1
  O  O30  1  0.75045700  0.50000000  0.99580300  1
  O  O31  1  0.75202700  0.50000000  0.50359600  1
  O  O32  1  0.00000000  0.00000000  0.26202800  1
  O  O33  1  0.00000000  0.00000000  0.73967700  1
  O  O34  1  0.50000000  0.00000000  0.25692400  1
  O  O35  1  0.50000000  0.00000000  0.74399000  1
  O  O36  1  0.00000000  0.50000000  0.25692400  1
  O  O37  1  0.00000000  0.50000000  0.74399000  1
  O  O38  1  0.50000000  0.50000000  0.24659600  1
  O  O39  1  0.50000000  0.50000000  0.75194600  1
