# generated using pymatgen
data_K5Na3TaNb7O24
_symmetry_space_group_name_H-M   'P 1'
_cell_length_a   8.07753744
_cell_length_b   8.07753744
_cell_length_c   8.07650001
_cell_angle_alpha   89.99781787
_cell_angle_beta   89.99781787
_cell_angle_gamma   89.99798370
_symmetry_Int_Tables_number   1
_chemical_formula_structural   K5Na3TaNb7O24
_chemical_formula_sum   'K5 Na3 Ta1 Nb7 O24'
_cell_volume   526.96425451
_cell_formula_units_Z   1
loop_
 _symmetry_equiv_pos_site_id
 _symmetry_equiv_pos_as_xyz
  1  'x, y, z'
loop_
 _atom_site_type_symbol
 _atom_site_label
 _atom_site_symmetry_multiplicity
 _atom_site_fract_x
 _atom_site_fract_y
 _atom_site_fract_z
 _atom_site_occupancy
  K  K0  1  0.74996000  0.74996000  0.74994800  1
  K  K1  1  0.74995100  0.25004000  0.74994500  1
  K  K2  1  0.25004000  0.74995100  0.74994500  1
  K  K3  1  0.25004600  0.25004600  0.74993900  1
  K  K4  1  0.25003900  0.25003900  0.25004900  1
  Na  Na5  1  0.75001400  0.75001400  0.24998500  1
  Na  Na6  1  0.75001400  0.24998400  0.24998400  1
  Na  Na7  1  0.24998400  0.75001400  0.24998400  1
  Ta  Ta8  1  0.99963300  0.99963300  0.00110200  1
  Nb  Nb9  1  0.99964500  0.99964500  0.49896600  1
  Nb  Nb10  1  0.99965100  0.50034000  0.00105900  1
  Nb  Nb11  1  0.99964900  0.50035500  0.49893400  1
  Nb  Nb12  1  0.50034000  0.99965100  0.00105900  1
  Nb  Nb13  1  0.50035500  0.99964900  0.49893400  1
  Nb  Nb14  1  0.50035500  0.50035500  0.00105800  1
  Nb  Nb15  1  0.50035400  0.50035400  0.49894400  1
  O  O16  1  0.75103400  0.99986300  0.00202600  1
  O  O17  1  0.75005900  0.99987200  0.49798700  1
  O  O18  1  0.75005800  0.50012700  0.00201900  1
  O  O19  1  0.75001300  0.50012800  0.49797300  1
  O  O20  1  0.24893000  0.99904000  0.00122900  1
  O  O21  1  0.24993600  0.99904300  0.49879000  1
  O  O22  1  0.24993700  0.50095400  0.00121400  1
  O  O23  1  0.24998400  0.50095900  0.49878200  1
  O  O24  1  0.99986300  0.75103400  0.00202600  1
  O  O25  1  0.99987200  0.75005900  0.49798700  1
  O  O26  1  0.99904000  0.24893000  0.00122900  1
  O  O27  1  0.99904300  0.24993600  0.49879000  1
  O  O28  1  0.50012700  0.75005800  0.00201900  1
  O  O29  1  0.50012800  0.75001300  0.49797300  1
  O  O30  1  0.50095400  0.24993700  0.00121400  1
  O  O31  1  0.50095900  0.24998400  0.49878200  1
  O  O32  1  0.99986600  0.99986600  0.75110200  1
  O  O33  1  0.99906500  0.99906500  0.24900200  1
  O  O34  1  0.99987100  0.50012600  0.75006700  1
  O  O35  1  0.99906800  0.50092800  0.24994600  1
  O  O36  1  0.50012600  0.99987100  0.75006700  1
  O  O37  1  0.50092800  0.99906800  0.24994600  1
  O  O38  1  0.50012700  0.50012700  0.75001300  1
  O  O39  1  0.50093500  0.50093500  0.24998400  1
