# generated using pymatgen
data_KNaMoWO6
_symmetry_space_group_name_H-M   'P 1'
_cell_length_a   8.02655400
_cell_length_b   8.02655400
_cell_length_c   7.98045400
_cell_angle_alpha   90.00000000
_cell_angle_beta   90.00000000
_cell_angle_gamma   90.00000000
_symmetry_Int_Tables_number   1
_chemical_formula_structural   KNaMoWO6
_chemical_formula_sum   'K4 Na4 Mo4 W4 O24'
_cell_volume   514.14529075
_cell_formula_units_Z   4
loop_
 _symmetry_equiv_pos_site_id
 _symmetry_equiv_pos_as_xyz
  1  'x, y, z'
loop_
 _atom_site_type_symbol
 _atom_site_label
 _atom_site_symmetry_multiplicity
 _atom_site_fract_x
 _atom_site_fract_y
 _atom_site_fract_z
 _atom_site_occupancy
  K  K0  1  0.25291100  0.25291100  0.25403000  1
  K  K1  1  0.74708900  0.25291100  0.25403000  1
  K  K2  1  0.25291100  0.74708900  0.25403000  1
  K  K3  1  0.74708900  0.74708900  0.25403000  1
  Na  Na4  1  0.25333100  0.25333100  0.74563500  1
  Na  Na5  1  0.74666900  0.25333100  0.74563500  1
  Na  Na6  1  0.25333100  0.74666900  0.74563500  1
  Na  Na7  1  0.74666900  0.74666900  0.74563500  1
  Mo  Mo8  1  0.50000000  0.00000000  0.50178200  1
  Mo  Mo9  1  0.00000000  0.50000000  0.50178200  1
  Mo  Mo10  1  0.50000000  0.50000000  0.99784400  1
  Mo  Mo11  1  0.50000000  0.50000000  0.50385700  1
  W  W12  1  0.00000000  0.00000000  0.99955800  1
  W  W13  1  0.00000000  0.00000000  0.50497100  1
  W  W14  1  0.50000000  0.00000000  0.99670900  1
  W  W15  1  0.00000000  0.50000000  0.99670900  1
  O  O16  1  0.00000000  0.25358000  0.99501400  1
  O  O17  1  0.00000000  0.23828400  0.50526900  1
  O  O18  1  0.50000000  0.24277000  0.99485400  1
  O  O19  1  0.50000000  0.24934100  0.50621100  1
  O  O20  1  0.00000000  0.74642000  0.99501400  1
  O  O21  1  0.00000000  0.76171600  0.50526900  1
  O  O22  1  0.50000000  0.75723000  0.99485400  1
  O  O23  1  0.50000000  0.75065900  0.50621100  1
  O  O24  1  0.25358000  0.00000000  0.99501400  1
  O  O25  1  0.23828400  0.00000000  0.50526900  1
  O  O26  1  0.74642000  0.00000000  0.99501400  1
  O  O27  1  0.76171600  0.00000000  0.50526900  1
  O  O28  1  0.24277000  0.50000000  0.99485400  1
  O  O29  1  0.24934100  0.50000000  0.50621100  1
  O  O30  1  0.75723000  0.50000000  0.99485400  1
  O  O31  1  0.75065900  0.50000000  0.50621100  1
  O  O32  1  0.00000000  0.00000000  0.24466600  1
  O  O33  1  0.00000000  0.00000000  0.75591300  1
  O  O34  1  0.50000000  0.00000000  0.24012200  1
  O  O35  1  0.50000000  0.00000000  0.75683000  1
  O  O36  1  0.00000000  0.50000000  0.24012200  1
  O  O37  1  0.00000000  0.50000000  0.75683000  1
  O  O38  1  0.50000000  0.50000000  0.23585200  1
  O  O39  1  0.50000000  0.50000000  0.76240300  1
