# generated using pymatgen
data_La5Sm3Cr6(FeO12)2
_symmetry_space_group_name_H-M   'P 1'
_cell_length_a   7.84106968
_cell_length_b   7.84106968
_cell_length_c   7.83911000
_cell_angle_alpha   90.00000000
_cell_angle_beta   90.00000000
_cell_angle_gamma   90.01402304
_symmetry_Int_Tables_number   1
_chemical_formula_structural   La5Sm3Cr6(FeO12)2
_chemical_formula_sum   'La5 Sm3 Cr6 Fe2 O24'
_cell_volume   481.96707610
_cell_formula_units_Z   1
loop_
 _symmetry_equiv_pos_site_id
 _symmetry_equiv_pos_as_xyz
  1  'x, y, z'
loop_
 _atom_site_type_symbol
 _atom_site_label
 _atom_site_symmetry_multiplicity
 _atom_site_fract_x
 _atom_site_fract_y
 _atom_site_fract_z
 _atom_site_occupancy
  La  La0  1  0.25051300  0.25053800  0.50000000  1
  La  La1  1  0.74945800  0.25054200  0.50000000  1
  La  La2  1  0.25054200  0.74945800  0.50000000  1
  La  La3  1  0.74946200  0.74948700  0.50000000  1
  La  La4  1  0.25056300  0.74943700  0.00000000  1
  Sm  Sm5  1  0.25071200  0.25067400  0.00000000  1
  Sm  Sm6  1  0.74927300  0.25072700  0.00000000  1
  Sm  Sm7  1  0.74932600  0.74928800  0.00000000  1
  Cr  Cr8  1  0.50029700  0.00033000  0.75096700  1
  Cr  Cr9  1  0.99967000  0.49970300  0.75096700  1
  Cr  Cr10  1  0.50028700  0.49971300  0.75093200  1
  Cr  Cr11  1  0.50029700  0.00033000  0.24903300  1
  Cr  Cr12  1  0.99967000  0.49970300  0.24903300  1
  Cr  Cr13  1  0.50028700  0.49971300  0.24906800  1
  Fe  Fe14  1  0.99962600  0.00037400  0.75115800  1
  Fe  Fe15  1  0.99962600  0.00037400  0.24884200  1
  O  O16  1  0.99990300  0.00009700  0.50000000  1
  O  O17  1  0.50007900  0.00008900  0.50000000  1
  O  O18  1  0.99991100  0.49992100  0.50000000  1
  O  O19  1  0.50008900  0.49991100  0.50000000  1
  O  O20  1  0.99854500  0.00145500  0.00000000  1
  O  O21  1  0.50172300  0.00169200  0.00000000  1
  O  O22  1  0.99830800  0.49827700  0.00000000  1
  O  O23  1  0.50171200  0.49828800  0.00000000  1
  O  O24  1  0.99987600  0.25076800  0.75330600  1
  O  O25  1  0.50010200  0.25030600  0.75360800  1
  O  O26  1  0.99836900  0.74929900  0.75182800  1
  O  O27  1  0.50180100  0.74971300  0.75198500  1
  O  O28  1  0.99987600  0.25076800  0.24669400  1
  O  O29  1  0.50010200  0.25030600  0.24639200  1
  O  O30  1  0.99836900  0.74929900  0.24817200  1
  O  O31  1  0.50180100  0.74971300  0.24801500  1
  O  O32  1  0.25070100  0.00163100  0.75182800  1
  O  O33  1  0.74923200  0.00012400  0.75330600  1
  O  O34  1  0.25028700  0.49819900  0.75198500  1
  O  O35  1  0.74969400  0.49989800  0.75360800  1
  O  O36  1  0.25070100  0.00163100  0.24817200  1
  O  O37  1  0.74923200  0.00012400  0.24669400  1
  O  O38  1  0.25028700  0.49819900  0.24801500  1
  O  O39  1  0.74969400  0.49989800  0.24639200  1
