# generated using pymatgen
data_TbFe2
_symmetry_space_group_name_H-M   'P 1'
_cell_length_a   5.19444500
_cell_length_b   5.19444497
_cell_length_c   8.40955800
_cell_angle_alpha   90.00000000
_cell_angle_beta   90.00000000
_cell_angle_gamma   120.00000659
_symmetry_Int_Tables_number   1
_chemical_formula_structural   TbFe2
_chemical_formula_sum   'Tb4 Fe8'
_cell_volume   196.50883214
_cell_formula_units_Z   4
loop_
 _symmetry_equiv_pos_site_id
 _symmetry_equiv_pos_as_xyz
  1  'x, y, z'
loop_
 _atom_site_type_symbol
 _atom_site_label
 _atom_site_symmetry_multiplicity
 _atom_site_fract_x
 _atom_site_fract_y
 _atom_site_fract_z
 _atom_site_occupancy
  Tb  Tb0  1  0.33333300  0.66666700  0.43686800  1
  Tb  Tb1  1  0.66666700  0.33333300  0.56313200  1
  Tb  Tb2  1  0.66666700  0.33333300  0.93686800  1
  Tb  Tb3  1  0.33333300  0.66666700  0.06313200  1
  Fe  Fe4  1  0.00000000  0.00000000  0.50000000  1
  Fe  Fe5  1  0.00000000  0.00000000  0.00000000  1
  Fe  Fe6  1  0.83525400  0.16474600  0.25000000  1
  Fe  Fe7  1  0.83525400  0.67050800  0.25000000  1
  Fe  Fe8  1  0.32949200  0.16474600  0.25000000  1
  Fe  Fe9  1  0.16474600  0.83525400  0.75000000  1
  Fe  Fe10  1  0.16474600  0.32949200  0.75000000  1
  Fe  Fe11  1  0.67050800  0.83525400  0.75000000  1
