# generated using pymatgen
data_K4Na4Mo7WO20
_symmetry_space_group_name_H-M   'P 1'
_cell_length_a   11.50851188
_cell_length_b   11.76663455
_cell_length_c   17.49435369
_cell_angle_alpha   109.78039350
_cell_angle_beta   109.20122813
_cell_angle_gamma   89.90343429
_symmetry_Int_Tables_number   1
_chemical_formula_structural   K4Na4Mo7WO20
_chemical_formula_sum   'K16 Na16 Mo28 W4 O80'
_cell_volume   2089.15140158
_cell_formula_units_Z   4
loop_
 _symmetry_equiv_pos_site_id
 _symmetry_equiv_pos_as_xyz
  1  'x, y, z'
loop_
 _atom_site_type_symbol
 _atom_site_label
 _atom_site_symmetry_multiplicity
 _atom_site_fract_x
 _atom_site_fract_y
 _atom_site_fract_z
 _atom_site_occupancy
  K  K0  1  0.30495100  0.06663400  0.10918200  1
  K  K1  1  0.30416400  0.56261500  0.10889400  1
  K  K2  1  0.80611500  0.06535300  0.11119900  1
  K  K3  1  0.80555400  0.56326100  0.10952200  1
  K  K4  1  0.20003600  0.93614400  0.39467800  1
  K  K5  1  0.19190400  0.92769200  0.88299700  1
  K  K6  1  0.70087900  0.43566600  0.39556700  1
  K  K7  1  0.69316900  0.42998700  0.88397600  1
  K  K8  1  0.69943100  0.93449200  0.39544500  1
  K  K9  1  0.05782100  0.29566200  0.10912300  1
  K  K10  1  0.05507500  0.79216700  0.10781600  1
  K  K11  1  0.55383800  0.29337200  0.10776400  1
  K  K12  1  0.55500400  0.79445200  0.10715800  1
  K  K13  1  0.45123300  0.71114300  0.39588000  1
  K  K14  1  0.44096400  0.70569800  0.88328100  1
  K  K15  1  0.94157100  0.70306300  0.88351600  1
  Na  Na16  1  0.30106200  0.07117600  0.60424500  1
  Na  Na17  1  0.29988200  0.56399900  0.59952400  1
  Na  Na18  1  0.80167500  0.06706200  0.60416600  1
  Na  Na19  1  0.79649000  0.56734000  0.60127200  1
  Na  Na20  1  0.20195800  0.43680100  0.40322100  1
  Na  Na21  1  0.19778800  0.43393400  0.89701700  1
  Na  Na22  1  0.69684500  0.93377100  0.89532700  1
  Na  Na23  1  0.05076700  0.28333300  0.60231000  1
  Na  Na24  1  0.04914000  0.78538200  0.60089200  1
  Na  Na25  1  0.55043400  0.28553700  0.60147900  1
  Na  Na26  1  0.55208600  0.78554300  0.60281300  1
  Na  Na27  1  0.45171400  0.21542700  0.40442800  1
  Na  Na28  1  0.44840700  0.21137000  0.89611700  1
  Na  Na29  1  0.95065200  0.21663500  0.40400100  1
  Na  Na30  1  0.94653300  0.21180000  0.89527800  1
  Na  Na31  1  0.94990800  0.71577100  0.40306900  1
  Mo  Mo32  1  0.00499800  0.99853400  0.99565300  1
  Mo  Mo33  1  0.01455700  0.00221500  0.50507700  1
  Mo  Mo34  1  0.00441900  0.49604600  0.99490000  1
  Mo  Mo35  1  0.01393700  0.50143400  0.50165700  1
  Mo  Mo36  1  0.50474300  0.99847700  0.99404800  1
  Mo  Mo37  1  0.51388800  0.00530900  0.50684800  1
  Mo  Mo38  1  0.50550500  0.49657200  0.99611700  1
  Mo  Mo39  1  0.51443000  0.50109700  0.50488000  1
  Mo  Mo40  1  0.25472000  0.24794100  0.99428600  1
  Mo  Mo41  1  0.26424700  0.25363100  0.50421700  1
  Mo  Mo42  1  0.25466700  0.74609600  0.99473700  1
  Mo  Mo43  1  0.26292700  0.74974500  0.50365600  1
  Mo  Mo44  1  0.75595700  0.24529100  0.99360200  1
  Mo  Mo45  1  0.76642800  0.25129700  0.50507800  1
  Mo  Mo46  1  0.75469000  0.74950300  0.99615300  1
  Mo  Mo47  1  0.76504700  0.75316900  0.50677300  1
  Mo  Mo48  1  0.09817300  0.10640900  0.25727100  1
  Mo  Mo49  1  0.08748500  0.09636700  0.74649100  1
  Mo  Mo50  1  0.09667700  0.59318800  0.25685700  1
  Mo  Mo51  1  0.59819300  0.10017300  0.25519800  1
  Mo  Mo52  1  0.59030600  0.08893700  0.74675700  1
  Mo  Mo53  1  0.59965700  0.59242900  0.25212000  1
  Mo  Mo54  1  0.34580100  0.40322200  0.25733100  1
  Mo  Mo55  1  0.34864300  0.91483900  0.25270500  1
  Mo  Mo56  1  0.85447800  0.40604400  0.25385900  1
  Mo  Mo57  1  0.84310500  0.39897500  0.74289100  1
  Mo  Mo58  1  0.85193400  0.91101600  0.25553200  1
  Mo  Mo59  1  0.83694600  0.91064000  0.74654600  1
  W  W60  1  0.08692500  0.58326000  0.73886500  1
  W  W61  1  0.58881700  0.58957900  0.74272200  1
  W  W62  1  0.33737100  0.40026100  0.74836600  1
  W  W63  1  0.33756300  0.90892600  0.74064500  1
  O  O64  1  0.12865900  0.12458200  0.48999700  1
  O  O65  1  0.12190900  0.12041600  0.98358600  1
  O  O66  1  0.12679000  0.61573200  0.48212400  1
  O  O67  1  0.12396700  0.61349500  0.98342000  1
  O  O68  1  0.63076700  0.12494400  0.49361100  1
  O  O69  1  0.62395300  0.11621900  0.98151300  1
  O  O70  1  0.63193700  0.62296900  0.49357300  1
  O  O71  1  0.62361200  0.61878900  0.98591800  1
  O  O72  1  0.13223700  0.37591400  0.00201100  1
  O  O73  1  0.14657500  0.38705400  0.51965000  1
  O  O74  1  0.13426100  0.87654300  0.00619100  1
  O  O75  1  0.14518400  0.88197100  0.52075100  1
  O  O76  1  0.63316000  0.37424800  0.00466900  1
  O  O77  1  0.64639400  0.38340400  0.52130900  1
  O  O78  1  0.63489800  0.87938500  0.00526800  1
  O  O79  1  0.64808600  0.88784000  0.52560400  1
  O  O80  1  0.38157100  0.12256500  0.48893500  1
  O  O81  1  0.37403900  0.11858000  0.98165900  1
  O  O82  1  0.37859200  0.61619400  0.49108900  1
  O  O83  1  0.37213100  0.61377300  0.98470200  1
  O  O84  1  0.88302100  0.12002100  0.48930600  1
  O  O85  1  0.87296000  0.11452600  0.98099800  1
  O  O86  1  0.88329300  0.62197500  0.49088400  1
  O  O87  1  0.87369100  0.61717500  0.98635200  1
  O  O88  1  0.38292700  0.37733300  0.00373300  1
  O  O89  1  0.39643900  0.38545500  0.51964100  1
  O  O90  1  0.38357900  0.87923300  0.00560000  1
  O  O91  1  0.39755700  0.89047800  0.52587000  1
  O  O92  1  0.88523600  0.37572700  0.00469200  1
  O  O93  1  0.89888000  0.38635800  0.52209700  1
  O  O94  1  0.88202600  0.87999600  0.00492900  1
  O  O95  1  0.89721100  0.88680400  0.52239300  1
  O  O96  1  0.07402000  0.08991000  0.13839500  1
  O  O97  1  0.09164400  0.10995800  0.64031600  1
  O  O98  1  0.07659800  0.58499300  0.14127300  1
  O  O99  1  0.09299400  0.61127700  0.63856300  1
  O  O100  1  0.57422500  0.08962000  0.13789800  1
  O  O101  1  0.59004900  0.11216500  0.64347600  1
  O  O102  1  0.57737800  0.59032100  0.13769400  1
  O  O103  1  0.59401900  0.61164300  0.63875700  1
  O  O104  1  0.44839900  0.39021200  0.36469500  1
  O  O105  1  0.43919500  0.39335200  0.85787300  1
  O  O106  1  0.44609400  0.90935200  0.36513200  1
  O  O107  1  0.44327800  0.91176100  0.85508700  1
  O  O108  1  0.95182900  0.39004000  0.36283100  1
  O  O109  1  0.93884600  0.39725100  0.85528500  1
  O  O110  1  0.94491900  0.89323600  0.36490300  1
  O  O111  1  0.94122900  0.90660100  0.85640800  1
  O  O112  1  0.32423800  0.30253800  0.13845300  1
  O  O113  1  0.33992700  0.28273700  0.63882200  1
  O  O114  1  0.32987800  0.80005400  0.14013900  1
  O  O115  1  0.33777900  0.77624200  0.63956800  1
  O  O116  1  0.83320000  0.29917000  0.13810700  1
  O  O117  1  0.84857300  0.27535100  0.63965000  1
  O  O118  1  0.83299500  0.80192200  0.14077600  1
  O  O119  1  0.84229100  0.78489000  0.64383000  1
  O  O120  1  0.20516400  0.22424700  0.36432400  1
  O  O121  1  0.19271000  0.21028700  0.85530200  1
  O  O122  1  0.20350800  0.71007500  0.36535200  1
  O  O123  1  0.18795500  0.69207900  0.85588400  1
  O  O124  1  0.71014900  0.20798800  0.36542100  1
  O  O125  1  0.70200600  0.19953500  0.85558500  1
  O  O126  1  0.70056100  0.70452600  0.36588300  1
  O  O127  1  0.68237300  0.70734300  0.85672700  1
  O  O128  1  0.44179400  0.07201700  0.26781200  1
  O  O129  1  0.42217800  0.06725600  0.74996200  1
  O  O130  1  0.44100800  0.54546100  0.25387300  1
  O  O131  1  0.41817300  0.54063100  0.73018600  1
  O  O132  1  0.94349300  0.06889600  0.27017900  1
  O  O133  1  0.92024300  0.06375100  0.74727800  1
  O  O134  1  0.93803500  0.56665200  0.26761300  1
  O  O135  1  0.91570000  0.54573400  0.72978500  1
  O  O136  1  0.18864000  0.44850900  0.26820800  1
  O  O137  1  0.17074000  0.43246400  0.75063200  1
  O  O138  1  0.18670300  0.95707700  0.25194600  1
  O  O139  1  0.16550900  0.93790600  0.73141600  1
  O  O140  1  0.69256400  0.44806800  0.25301200  1
  O  O141  1  0.67329700  0.43583600  0.73165600  1
  O  O142  1  0.68897900  0.95292100  0.25281900  1
  O  O143  1  0.66708900  0.93354500  0.74614000  1
