# generated using pymatgen
data_KNa7V8O20
_symmetry_space_group_name_H-M   'P 1'
_cell_length_a   15.70141393
_cell_length_b   15.70141393
_cell_length_c   5.46383012
_cell_angle_alpha   89.57899760
_cell_angle_beta   89.57899760
_cell_angle_gamma   41.89941864
_symmetry_Int_Tables_number   1
_chemical_formula_structural   KNa7V8O20
_chemical_formula_sum   'K2 Na14 V16 O40'
_cell_volume   899.54717915
_cell_formula_units_Z   2
loop_
 _symmetry_equiv_pos_site_id
 _symmetry_equiv_pos_as_xyz
  1  'x, y, z'
loop_
 _atom_site_type_symbol
 _atom_site_label
 _atom_site_symmetry_multiplicity
 _atom_site_fract_x
 _atom_site_fract_y
 _atom_site_fract_z
 _atom_site_occupancy
  K  K0  1  0.93259200  0.20245200  0.50218300  1
  K  K1  1  0.20245200  0.93259200  0.00218300  1
  Na  Na2  1  0.93198000  0.71066800  0.00091900  1
  Na  Na3  1  0.43361500  0.70965400  0.50166800  1
  Na  Na4  1  0.43228300  0.21048000  0.00138600  1
  Na  Na5  1  0.56636300  0.28956700  0.00051100  1
  Na  Na6  1  0.56890400  0.78976800  0.49957000  1
  Na  Na7  1  0.06735700  0.78699100  0.00144200  1
  Na  Na8  1  0.06872200  0.29076800  0.50044400  1
  Na  Na9  1  0.70965400  0.43361500  0.00166800  1
  Na  Na10  1  0.71066800  0.93198000  0.50091900  1
  Na  Na11  1  0.21048000  0.43228300  0.50138600  1
  Na  Na12  1  0.78699100  0.06735700  0.50144200  1
  Na  Na13  1  0.78976800  0.56890400  0.99957000  1
  Na  Na14  1  0.28956700  0.56636300  0.50051100  1
  Na  Na15  1  0.29076800  0.06872200  0.00044400  1
  V  V16  1  0.00381900  0.25226200  0.99319700  1
  V  V17  1  0.00203700  0.74712400  0.48972400  1
  V  V18  1  0.50496000  0.74776200  0.99185000  1
  V  V19  1  0.50157900  0.24845400  0.48996500  1
  V  V20  1  0.74776200  0.50496000  0.49185000  1
  V  V21  1  0.74712400  0.00203700  0.98972400  1
  V  V22  1  0.25226200  0.00381900  0.49319700  1
  V  V23  1  0.24845400  0.50157900  0.98996500  1
  V  V24  1  0.90396100  0.09018800  0.03373600  1
  V  V25  1  0.91020200  0.59027100  0.54254000  1
  V  V26  1  0.41293200  0.58579800  0.04351200  1
  V  V27  1  0.41294600  0.08902300  0.54367400  1
  V  V28  1  0.58579800  0.41293200  0.54351200  1
  V  V29  1  0.59027100  0.91020200  0.04254000  1
  V  V30  1  0.09018800  0.90396100  0.53373600  1
  V  V31  1  0.08902300  0.41294600  0.04367400  1
  O  O32  1  0.87070200  0.88953100  0.21651300  1
  O  O33  1  0.87034000  0.39326500  0.72158300  1
  O  O34  1  0.37149600  0.38917800  0.21774400  1
  O  O35  1  0.37531300  0.88868900  0.71796700  1
  O  O36  1  0.61406400  0.62824000  0.74632400  1
  O  O37  1  0.61205200  0.12659200  0.24827000  1
  O  O38  1  0.11767400  0.13087900  0.75558200  1
  O  O39  1  0.11211100  0.62532500  0.24701800  1
  O  O40  1  0.88953100  0.87070200  0.71651300  1
  O  O41  1  0.88868900  0.37531300  0.21796700  1
  O  O42  1  0.38917800  0.37149600  0.71774400  1
  O  O43  1  0.39326500  0.87034000  0.22158300  1
  O  O44  1  0.62824000  0.61406400  0.24632400  1
  O  O45  1  0.62532500  0.11211100  0.74701800  1
  O  O46  1  0.13087900  0.11767400  0.25558200  1
  O  O47  1  0.12659200  0.61205200  0.74827000  1
  O  O48  1  0.90609000  0.20184300  0.99266400  1
  O  O49  1  0.90066700  0.70790000  0.47570000  1
  O  O50  1  0.41402700  0.69593600  0.97769000  1
  O  O51  1  0.40109700  0.20821300  0.47624100  1
  O  O52  1  0.60004200  0.29184800  0.47496400  1
  O  O53  1  0.60196200  0.79111900  0.97506100  1
  O  O54  1  0.10563400  0.78250900  0.47007600  1
  O  O55  1  0.10038100  0.29415600  0.97690600  1
  O  O56  1  0.69593600  0.41402700  0.47769000  1
  O  O57  1  0.70790000  0.90066700  0.97570000  1
  O  O58  1  0.20184300  0.90609000  0.49266400  1
  O  O59  1  0.20821300  0.40109700  0.97624100  1
  O  O60  1  0.78250900  0.10563400  0.97007600  1
  O  O61  1  0.79111900  0.60196200  0.47506100  1
  O  O62  1  0.29184800  0.60004200  0.97496400  1
  O  O63  1  0.29415600  0.10038100  0.47690600  1
  O  O64  1  0.94203800  0.04343800  0.36383900  1
  O  O65  1  0.94060500  0.56004500  0.88326900  1
  O  O66  1  0.43679900  0.56079900  0.38577800  1
  O  O67  1  0.44171100  0.05885300  0.88425500  1
  O  O68  1  0.56079900  0.43679900  0.88577800  1
  O  O69  1  0.56004500  0.94060500  0.38326900  1
  O  O70  1  0.04343800  0.94203800  0.86383900  1
  O  O71  1  0.05885300  0.44171100  0.38425500  1
