# generated using pymatgen
data_K2Cr2O5
_symmetry_space_group_name_H-M   'P 1'
_cell_length_a   8.29367586
_cell_length_b   8.29367586
_cell_length_c   8.29367586
_cell_angle_alpha   138.22310576
_cell_angle_beta   135.62044389
_cell_angle_gamma   62.58275271
_symmetry_Int_Tables_number   1
_chemical_formula_structural   K2Cr2O5
_chemical_formula_sum   'K4 Cr4 O10'
_cell_volume   262.58562775
_cell_formula_units_Z   2
loop_
 _symmetry_equiv_pos_site_id
 _symmetry_equiv_pos_as_xyz
  1  'x, y, z'
loop_
 _atom_site_type_symbol
 _atom_site_label
 _atom_site_symmetry_multiplicity
 _atom_site_fract_x
 _atom_site_fract_y
 _atom_site_fract_z
 _atom_site_occupancy
  K  K0  1  0.91363600  0.36337000  0.51290000  1
  K  K1  1  0.08636400  0.59926400  0.44973400  1
  K  K2  1  0.35047000  0.86337000  0.44973400  1
  K  K3  1  0.64953000  0.09926400  0.51290000  1
  Cr  Cr4  1  0.00000000  0.95185300  0.95185300  1
  Cr  Cr5  1  0.50000000  0.45185300  0.95185300  1
  Cr  Cr6  1  0.65955100  0.74078000  0.90033100  1
  Cr  Cr7  1  0.34044900  0.24078000  0.08123000  1
  O  O8  1  0.28977300  0.28453300  0.54836700  1
  O  O9  1  0.71022700  0.25859400  0.99476100  1
  O  O10  1  0.23616600  0.78453300  0.99476100  1
  O  O11  1  0.76383400  0.75859400  0.54836700  1
  O  O12  1  0.90655900  0.86838100  0.05761100  1
  O  O13  1  0.09344100  0.15105200  0.96182200  1
  O  O14  1  0.31077000  0.36838100  0.96182200  1
  O  O15  1  0.68923000  0.65105200  0.05761100  1
  O  O16  1  0.55375300  0.44617200  0.49992500  1
  O  O17  1  0.44624700  0.94617200  0.89242000  1
