# generated using pymatgen
data_O2
_symmetry_space_group_name_H-M   'P 1'
_cell_length_a   4.70600100
_cell_length_b   4.70600100
_cell_length_c   4.98886900
_cell_angle_alpha   90.00000000
_cell_angle_beta   90.00000000
_cell_angle_gamma   90.00000000
_symmetry_Int_Tables_number   1
_chemical_formula_structural   O2
_chemical_formula_sum   O12
_cell_volume   110.48571498
_cell_formula_units_Z   6
loop_
 _symmetry_equiv_pos_site_id
 _symmetry_equiv_pos_as_xyz
  1  'x, y, z'
loop_
 _atom_site_type_symbol
 _atom_site_label
 _atom_site_symmetry_multiplicity
 _atom_site_fract_x
 _atom_site_fract_y
 _atom_site_fract_z
 _atom_site_occupancy
  O  O0  1  0.59556900  0.26497100  0.50711700  1
  O  O1  1  0.40443100  0.73502900  0.00711700  1
  O  O2  1  0.76497100  0.90443100  0.25711700  1
  O  O3  1  0.23502900  0.09556900  0.75711700  1
  O  O4  1  0.73502900  0.40443100  0.99288300  1
  O  O5  1  0.26497100  0.59556900  0.49288300  1
  O  O6  1  0.90443100  0.76497100  0.74288300  1
  O  O7  1  0.09556900  0.23502900  0.24288300  1
  O  O8  1  0.96935000  0.03065000  0.75000000  1
  O  O9  1  0.03065000  0.96935000  0.25000000  1
  O  O10  1  0.53065000  0.53065000  0.50000000  1
  O  O11  1  0.46935000  0.46935000  0.00000000  1
