# generated using pymatgen
data_Ca7MgMn7FeO24
_symmetry_space_group_name_H-M   'P 1'
_cell_length_a   7.61570692
_cell_length_b   7.61570692
_cell_length_c   7.61570706
_cell_angle_alpha   89.99493530
_cell_angle_beta   89.99493530
_cell_angle_gamma   89.99493553
_symmetry_Int_Tables_number   1
_chemical_formula_structural   Ca7MgMn7FeO24
_chemical_formula_sum   'Ca7 Mg1 Mn7 Fe1 O24'
_cell_volume   441.70332658
_cell_formula_units_Z   1
loop_
 _symmetry_equiv_pos_site_id
 _symmetry_equiv_pos_as_xyz
  1  'x, y, z'
loop_
 _atom_site_type_symbol
 _atom_site_label
 _atom_site_symmetry_multiplicity
 _atom_site_fract_x
 _atom_site_fract_y
 _atom_site_fract_z
 _atom_site_occupancy
  Ca  Ca0  1  0.24980600  0.24980600  0.75016900  1
  Ca  Ca1  1  0.75018200  0.24978800  0.75018200  1
  Ca  Ca2  1  0.75016900  0.24980600  0.24980600  1
  Ca  Ca3  1  0.24978800  0.75018200  0.75018200  1
  Ca  Ca4  1  0.75017000  0.75017000  0.75017000  1
  Ca  Ca5  1  0.24980600  0.75016900  0.24980600  1
  Ca  Ca6  1  0.75018200  0.75018200  0.24978800  1
  Mg  Mg7  1  0.24979600  0.24979600  0.24979600  1
  Mn  Mn8  1  0.49956200  0.00053100  0.00053100  1
  Mn  Mn9  1  0.00053100  0.00053100  0.49956200  1
  Mn  Mn10  1  0.49952700  0.00046300  0.49952700  1
  Mn  Mn11  1  0.00053100  0.49956200  0.00053100  1
  Mn  Mn12  1  0.49952700  0.49952700  0.00046300  1
  Mn  Mn13  1  0.00046300  0.49952700  0.49952700  1
  Mn  Mn14  1  0.49947600  0.49947600  0.49947600  1
  Fe  Fe15  1  0.00057300  0.00057300  0.00057300  1
  O  O16  1  0.00230700  0.25395800  0.00230700  1
  O  O17  1  0.49749500  0.25070800  0.00251600  1
  O  O18  1  0.00251600  0.25070800  0.49749500  1
  O  O19  1  0.49751200  0.25023000  0.49751200  1
  O  O20  1  0.00040900  0.74612000  0.00040900  1
  O  O21  1  0.49972400  0.74927600  0.00025600  1
  O  O22  1  0.00025600  0.74927600  0.49972400  1
  O  O23  1  0.49973300  0.74973000  0.49973300  1
  O  O24  1  0.00040900  0.00040900  0.74612000  1
  O  O25  1  0.49972400  0.00025600  0.74927600  1
  O  O26  1  0.00230700  0.00230700  0.25395800  1
  O  O27  1  0.49749500  0.00251600  0.25070800  1
  O  O28  1  0.00025600  0.49972400  0.74927600  1
  O  O29  1  0.49973300  0.49973300  0.74973000  1
  O  O30  1  0.00251600  0.49749500  0.25070800  1
  O  O31  1  0.49751200  0.49751200  0.25023000  1
  O  O32  1  0.25395800  0.00230700  0.00230700  1
  O  O33  1  0.74612000  0.00040900  0.00040900  1
  O  O34  1  0.25070800  0.00251600  0.49749500  1
  O  O35  1  0.74927600  0.00025600  0.49972400  1
  O  O36  1  0.25070800  0.49749500  0.00251600  1
  O  O37  1  0.74927600  0.49972400  0.00025600  1
  O  O38  1  0.25023000  0.49751200  0.49751200  1
  O  O39  1  0.74973000  0.49973300  0.49973300  1
