# generated using pymatgen
data_La7SmMn4(FeO5)4
_symmetry_space_group_name_H-M   'P 1'
_cell_length_a   11.07585717
_cell_length_b   11.85580738
_cell_length_c   17.84434370
_cell_angle_alpha   109.35408121
_cell_angle_beta   108.04242755
_cell_angle_gamma   90.06901025
_symmetry_Int_Tables_number   1
_chemical_formula_structural   La7SmMn4(FeO5)4
_chemical_formula_sum   'La28 Sm4 Mn16 Fe16 O80'
_cell_volume   2087.93934073
_cell_formula_units_Z   4
loop_
 _symmetry_equiv_pos_site_id
 _symmetry_equiv_pos_as_xyz
  1  'x, y, z'
loop_
 _atom_site_type_symbol
 _atom_site_label
 _atom_site_symmetry_multiplicity
 _atom_site_fract_x
 _atom_site_fract_y
 _atom_site_fract_z
 _atom_site_occupancy
  La  La0  1  0.30001200  0.06502800  0.11041700  1
  La  La1  1  0.30212700  0.06513000  0.60929600  1
  La  La2  1  0.30237600  0.56559900  0.60993300  1
  La  La3  1  0.80222600  0.06579000  0.60977400  1
  La  La4  1  0.80148300  0.56485800  0.10877300  1
  La  La5  1  0.80240900  0.56548800  0.60997900  1
  La  La6  1  0.19301600  0.43349400  0.38965100  1
  La  La7  1  0.19160600  0.43612000  0.89211900  1
  La  La8  1  0.19153100  0.93392300  0.38848500  1
  La  La9  1  0.19246000  0.93524900  0.89026800  1
  La  La10  1  0.69306000  0.43437500  0.38983600  1
  La  La11  1  0.69218600  0.93417100  0.38973200  1
  La  La12  1  0.69163500  0.93507500  0.89072100  1
  La  La13  1  0.05178600  0.29424900  0.11003000  1
  La  La14  1  0.05226700  0.29476400  0.60991100  1
  La  La15  1  0.05225600  0.79427300  0.60960500  1
  La  La16  1  0.55411100  0.29293900  0.10979900  1
  La  La17  1  0.55300300  0.29531600  0.61143000  1
  La  La18  1  0.54873800  0.79427600  0.11022800  1
  La  La19  1  0.55257800  0.79366200  0.60958400  1
  La  La20  1  0.44285000  0.20572200  0.38996800  1
  La  La21  1  0.44545200  0.20706600  0.89057600  1
  La  La22  1  0.44096700  0.70503800  0.38844300  1
  La  La23  1  0.44129600  0.70466000  0.89033500  1
  La  La24  1  0.94151900  0.20436500  0.38829400  1
  La  La25  1  0.94037800  0.20676600  0.89043500  1
  La  La26  1  0.94201700  0.70532400  0.38899800  1
  La  La27  1  0.94134100  0.70502800  0.89094400  1
  Sm  Sm28  1  0.29763300  0.56788900  0.10898300  1
  Sm  Sm29  1  0.79972100  0.06554300  0.10831700  1
  Sm  Sm30  1  0.69105400  0.43344000  0.89181500  1
  Sm  Sm31  1  0.05065200  0.79323400  0.10921300  1
  Mn  Mn32  1  0.10528500  0.09499100  0.24769300  1
  Mn  Mn33  1  0.11013000  0.09917700  0.75104600  1
  Mn  Mn34  1  0.11004300  0.59801000  0.24829700  1
  Mn  Mn35  1  0.10896800  0.59696900  0.75046600  1
  Mn  Mn36  1  0.61056600  0.09625200  0.24901500  1
  Mn  Mn37  1  0.60961800  0.09858000  0.75034700  1
  Mn  Mn38  1  0.60593600  0.59688100  0.24809700  1
  Mn  Mn39  1  0.61004000  0.59693600  0.75194900  1
  Mn  Mn40  1  0.35869700  0.40361300  0.24826600  1
  Mn  Mn41  1  0.36096500  0.40252600  0.75091100  1
  Mn  Mn42  1  0.35588700  0.90076900  0.24848500  1
  Mn  Mn43  1  0.35958100  0.90300500  0.75040900  1
  Mn  Mn44  1  0.85926600  0.40126200  0.24898800  1
  Mn  Mn45  1  0.85762800  0.40289000  0.75158200  1
  Mn  Mn46  1  0.85960000  0.90191700  0.24707600  1
  Mn  Mn47  1  0.85954800  0.90292400  0.75081700  1
  Fe  Fe48  1  0.00520400  0.99928000  0.00139100  1
  Fe  Fe49  1  0.00491400  0.00000400  0.49950300  1
  Fe  Fe50  1  0.00535700  0.50164100  0.00141100  1
  Fe  Fe51  1  0.00527900  0.49973100  0.49965600  1
  Fe  Fe52  1  0.50556700  0.99979600  0.00063000  1
  Fe  Fe53  1  0.50456000  0.99993300  0.49968500  1
  Fe  Fe54  1  0.50537500  0.50062100  0.00081800  1
  Fe  Fe55  1  0.50531000  0.49998100  0.49991900  1
  Fe  Fe56  1  0.25686600  0.25209600  0.00159300  1
  Fe  Fe57  1  0.25495200  0.24946200  0.49964700  1
  Fe  Fe58  1  0.25418800  0.75115800  0.00095800  1
  Fe  Fe59  1  0.25518600  0.74995100  0.49979500  1
  Fe  Fe60  1  0.75604900  0.24920000  0.00049100  1
  Fe  Fe61  1  0.75496300  0.24987200  0.49989600  1
  Fe  Fe62  1  0.75573300  0.75007400  0.00112800  1
  Fe  Fe63  1  0.75464100  0.74987300  0.49951400  1
  O  O64  1  0.11472900  0.11672000  0.47719500  1
  O  O65  1  0.11491700  0.11910500  0.97809600  1
  O  O66  1  0.11499400  0.61713000  0.47743700  1
  O  O67  1  0.11429400  0.62164700  0.98146600  1
  O  O68  1  0.61481500  0.11675600  0.47739900  1
  O  O69  1  0.61651400  0.11688600  0.97852200  1
  O  O70  1  0.61534300  0.61738000  0.47842700  1
  O  O71  1  0.61474800  0.61431700  0.97562200  1
  O  O72  1  0.14113000  0.38806700  0.02532000  1
  O  O73  1  0.13755900  0.38229900  0.52168700  1
  O  O74  1  0.13520800  0.88221300  0.02639000  1
  O  O75  1  0.13685400  0.88220000  0.52076400  1
  O  O76  1  0.63652300  0.38042400  0.01985300  1
  O  O77  1  0.63710900  0.38187100  0.52168400  1
  O  O78  1  0.63918300  0.88478600  0.02430300  1
  O  O79  1  0.63711900  0.88257400  0.52153800  1
  O  O80  1  0.36487900  0.11060600  0.47796300  1
  O  O81  1  0.36676100  0.11149800  0.97868000  1
  O  O82  1  0.36551600  0.61103200  0.47801400  1
  O  O83  1  0.36355100  0.61074800  0.97940300  1
  O  O84  1  0.86531000  0.11127800  0.47835400  1
  O  O85  1  0.86489600  0.10869500  0.97989400  1
  O  O86  1  0.86547700  0.61095300  0.47787500  1
  O  O87  1  0.86054200  0.60578100  0.97476600  1
  O  O88  1  0.38783400  0.39521100  0.02609900  1
  O  O89  1  0.38730800  0.38869600  0.52093900  1
  O  O90  1  0.38513100  0.88964400  0.02177200  1
  O  O91  1  0.38750600  0.88912400  0.52198100  1
  O  O92  1  0.88622800  0.38810900  0.02006900  1
  O  O93  1  0.88755400  0.38936200  0.52177000  1
  O  O94  1  0.88935100  0.89213200  0.02891300  1
  O  O95  1  0.88662500  0.88880600  0.52063500  1
  O  O96  1  0.09866100  0.11918600  0.13972700  1
  O  O97  1  0.09522700  0.11648100  0.63925600  1
  O  O98  1  0.10359500  0.61988900  0.13921300  1
  O  O99  1  0.09544200  0.61636900  0.63942900  1
  O  O100  1  0.60569700  0.11569800  0.13961400  1
  O  O101  1  0.59562400  0.11702800  0.63910000  1
  O  O102  1  0.60103500  0.61792600  0.13919800  1
  O  O103  1  0.59620800  0.61522800  0.64030700  1
  O  O104  1  0.45560300  0.38433700  0.35975600  1
  O  O105  1  0.46574400  0.38428600  0.86074900  1
  O  O106  1  0.45300200  0.88337800  0.36021900  1
  O  O107  1  0.45560600  0.88279300  0.86120200  1
  O  O108  1  0.95586500  0.38294100  0.36046400  1
  O  O109  1  0.95934100  0.38401800  0.86167600  1
  O  O110  1  0.95610200  0.88379300  0.35912500  1
  O  O111  1  0.95729600  0.88374100  0.86193500  1
  O  O112  1  0.34914800  0.27059200  0.13983400  1
  O  O113  1  0.34656600  0.27298900  0.63937600  1
  O  O114  1  0.34845400  0.77011900  0.13954600  1
  O  O115  1  0.34533600  0.77308300  0.63934300  1
  O  O116  1  0.84533400  0.26970700  0.13867000  1
  O  O117  1  0.84364800  0.27380600  0.63989800  1
  O  O118  1  0.85731300  0.76968700  0.13947400  1
  O  O119  1  0.84575800  0.77330300  0.63950600  1
  O  O120  1  0.20385900  0.22456700  0.35928200  1
  O  O121  1  0.21015900  0.22932300  0.86155200  1
  O  O122  1  0.20639700  0.72750100  0.36019900  1
  O  O123  1  0.20567800  0.72748100  0.86123200  1
  O  O124  1  0.70647200  0.22678100  0.36027700  1
  O  O125  1  0.70686800  0.22946300  0.86108000  1
  O  O126  1  0.70353300  0.72612000  0.35972100  1
  O  O127  1  0.70704600  0.72943400  0.86172300  1
  O  O128  1  0.41917700  0.07058100  0.24989300  1
  O  O129  1  0.41843800  0.07278600  0.75029500  1
  O  O130  1  0.41177900  0.57301600  0.24437100  1
  O  O131  1  0.41750500  0.57276400  0.75009900  1
  O  O132  1  0.91156600  0.07249900  0.24449500  1
  O  O133  1  0.91829600  0.07304700  0.75055000  1
  O  O134  1  0.91936900  0.57103000  0.24916700  1
  O  O135  1  0.91727200  0.57187000  0.75045900  1
  O  O136  1  0.16806800  0.42822200  0.24997200  1
  O  O137  1  0.16949900  0.42776800  0.75082800  1
  O  O138  1  0.16169000  0.92285400  0.24434900  1
  O  O139  1  0.16801400  0.92840700  0.75028800  1
  O  O140  1  0.66785000  0.42828000  0.24973100  1
  O  O141  1  0.66765000  0.42766900  0.75587700  1
  O  O142  1  0.66903200  0.92644400  0.24972700  1
  O  O143  1  0.66802500  0.92843800  0.75002000  1
