# generated using pymatgen
data_K4Na4MoW7O24
_symmetry_space_group_name_H-M   'P 1'
_cell_length_a   8.03199600
_cell_length_b   8.03199600
_cell_length_c   8.00922400
_cell_angle_alpha   90.00000000
_cell_angle_beta   90.00000000
_cell_angle_gamma   90.00000000
_symmetry_Int_Tables_number   1
_chemical_formula_structural   K4Na4MoW7O24
_chemical_formula_sum   'K4 Na4 Mo1 W7 O24'
_cell_volume   516.69874549
_cell_formula_units_Z   1
loop_
 _symmetry_equiv_pos_site_id
 _symmetry_equiv_pos_as_xyz
  1  'x, y, z'
loop_
 _atom_site_type_symbol
 _atom_site_label
 _atom_site_symmetry_multiplicity
 _atom_site_fract_x
 _atom_site_fract_y
 _atom_site_fract_z
 _atom_site_occupancy
  K  K0  1  0.25220700  0.25220700  0.25182000  1
  K  K1  1  0.74779300  0.25220700  0.25182000  1
  K  K2  1  0.25220700  0.74779300  0.25182000  1
  K  K3  1  0.74779300  0.74779300  0.25182000  1
  Na  Na4  1  0.25241600  0.25241600  0.74814800  1
  Na  Na5  1  0.74758400  0.25241600  0.74814800  1
  Na  Na6  1  0.25241600  0.74758400  0.74814800  1
  Na  Na7  1  0.74758400  0.74758400  0.74814800  1
  Mo  Mo8  1  0.50000000  0.50000000  0.50142100  1
  W  W9  1  0.00000000  0.00000000  0.99825500  1
  W  W10  1  0.00000000  0.00000000  0.50151400  1
  W  W11  1  0.50000000  0.00000000  0.99785800  1
  W  W12  1  0.50000000  0.00000000  0.50227700  1
  W  W13  1  0.00000000  0.50000000  0.99785800  1
  W  W14  1  0.00000000  0.50000000  0.50227700  1
  W  W15  1  0.50000000  0.50000000  0.99793700  1
  O  O16  1  0.00000000  0.25513100  0.99585200  1
  O  O17  1  0.00000000  0.25654100  0.50414300  1
  O  O18  1  0.50000000  0.24599500  0.99552900  1
  O  O19  1  0.50000000  0.23888400  0.50436800  1
  O  O20  1  0.00000000  0.74486900  0.99585200  1
  O  O21  1  0.00000000  0.74345900  0.50414300  1
  O  O22  1  0.50000000  0.75400500  0.99552900  1
  O  O23  1  0.50000000  0.76111600  0.50436800  1
  O  O24  1  0.25513100  0.00000000  0.99585200  1
  O  O25  1  0.25654100  0.00000000  0.50414300  1
  O  O26  1  0.74486900  0.00000000  0.99585200  1
  O  O27  1  0.74345900  0.00000000  0.50414300  1
  O  O28  1  0.24599500  0.50000000  0.99552900  1
  O  O29  1  0.23888400  0.50000000  0.50436800  1
  O  O30  1  0.75400500  0.50000000  0.99552900  1
  O  O31  1  0.76111600  0.50000000  0.50436800  1
  O  O32  1  0.00000000  0.00000000  0.26214900  1
  O  O33  1  0.00000000  0.00000000  0.73968200  1
  O  O34  1  0.50000000  0.00000000  0.25382300  1
  O  O35  1  0.50000000  0.00000000  0.74724600  1
  O  O36  1  0.00000000  0.50000000  0.25382300  1
  O  O37  1  0.00000000  0.50000000  0.74724600  1
  O  O38  1  0.50000000  0.50000000  0.23891200  1
  O  O39  1  0.50000000  0.50000000  0.75828100  1
