# generated using pymatgen
data_Sr3Ca(Fe2O5)2
_symmetry_space_group_name_H-M   'P 1'
_cell_length_a   11.15987373
_cell_length_b   11.53542128
_cell_length_c   17.47170329
_cell_angle_alpha   109.23783586
_cell_angle_beta   108.76918269
_cell_angle_gamma   89.95491697
_symmetry_Int_Tables_number   1
_chemical_formula_structural   Sr3Ca(Fe2O5)2
_chemical_formula_sum   'Sr24 Ca8 Fe32 O80'
_cell_volume   1996.69538382
_cell_formula_units_Z   8
loop_
 _symmetry_equiv_pos_site_id
 _symmetry_equiv_pos_as_xyz
  1  'x, y, z'
loop_
 _atom_site_type_symbol
 _atom_site_label
 _atom_site_symmetry_multiplicity
 _atom_site_fract_x
 _atom_site_fract_y
 _atom_site_fract_z
 _atom_site_occupancy
  Sr  Sr0  1  0.30610900  0.06365400  0.60852500  1
  Sr  Sr1  1  0.30599600  0.56391400  0.60895600  1
  Sr  Sr2  1  0.80631300  0.06428300  0.60925200  1
  Sr  Sr3  1  0.80691800  0.56410400  0.61026200  1
  Sr  Sr4  1  0.19662000  0.43543900  0.39021100  1
  Sr  Sr5  1  0.19694700  0.43665500  0.89256400  1
  Sr  Sr6  1  0.19615100  0.93539400  0.38911400  1
  Sr  Sr7  1  0.69637700  0.43564900  0.38954300  1
  Sr  Sr8  1  0.69817400  0.43720300  0.89263700  1
  Sr  Sr9  1  0.69662400  0.93537200  0.39018900  1
  Sr  Sr10  1  0.69791500  0.93595500  0.89262500  1
  Sr  Sr11  1  0.05601100  0.29350600  0.10940400  1
  Sr  Sr12  1  0.05643100  0.29479300  0.60906900  1
  Sr  Sr13  1  0.05665700  0.79590000  0.61022400  1
  Sr  Sr14  1  0.55586500  0.29484400  0.60848400  1
  Sr  Sr15  1  0.55534000  0.79434200  0.10922400  1
  Sr  Sr16  1  0.55613200  0.79514800  0.60879500  1
  Sr  Sr17  1  0.44590600  0.20352000  0.38845500  1
  Sr  Sr18  1  0.44723100  0.20562300  0.89268200  1
  Sr  Sr19  1  0.44551400  0.70369400  0.38857500  1
  Sr  Sr20  1  0.44670200  0.70599300  0.89244500  1
  Sr  Sr21  1  0.94547400  0.20365200  0.38848300  1
  Sr  Sr22  1  0.94768000  0.20559300  0.89248500  1
  Sr  Sr23  1  0.94608200  0.70365400  0.38882000  1
  Ca  Ca24  1  0.30349000  0.06635400  0.10429800  1
  Ca  Ca25  1  0.30335700  0.56689500  0.10530300  1
  Ca  Ca26  1  0.80329400  0.06658200  0.10508000  1
  Ca  Ca27  1  0.80368500  0.56719800  0.10538200  1
  Ca  Ca28  1  0.19948900  0.93424100  0.89640300  1
  Ca  Ca29  1  0.05477800  0.78812700  0.10479600  1
  Ca  Ca30  1  0.55499100  0.28839300  0.10585300  1
  Ca  Ca31  1  0.95038400  0.71232100  0.89625300  1
  Fe  Fe32  1  0.00738100  0.99977400  0.00283600  1
  Fe  Fe33  1  0.00422800  0.99968700  0.49970100  1
  Fe  Fe34  1  0.00621100  0.50283400  0.00278600  1
  Fe  Fe35  1  0.00364400  0.50023400  0.49991500  1
  Fe  Fe36  1  0.50602000  0.00216300  0.00301900  1
  Fe  Fe37  1  0.50390400  0.99997600  0.49968100  1
  Fe  Fe38  1  0.50730700  0.50128900  0.00483100  1
  Fe  Fe39  1  0.50446700  0.50013700  0.49984700  1
  Fe  Fe40  1  0.25713900  0.25084300  0.00299700  1
  Fe  Fe41  1  0.25381300  0.24953100  0.49958200  1
  Fe  Fe42  1  0.25450400  0.75167800  0.00212400  1
  Fe  Fe43  1  0.25360100  0.74987800  0.49977200  1
  Fe  Fe44  1  0.75585700  0.25206200  0.00389500  1
  Fe  Fe45  1  0.75404900  0.25017700  0.49981200  1
  Fe  Fe46  1  0.75826600  0.75149200  0.00297300  1
  Fe  Fe47  1  0.75421700  0.74949700  0.49995600  1
  Fe  Fe48  1  0.10387500  0.08555200  0.24558000  1
  Fe  Fe49  1  0.10898400  0.08898200  0.75280500  1
  Fe  Fe50  1  0.10462100  0.59074000  0.24691300  1
  Fe  Fe51  1  0.10671000  0.59463900  0.75283600  1
  Fe  Fe52  1  0.60453000  0.09063000  0.24715000  1
  Fe  Fe53  1  0.60797800  0.09016800  0.75093300  1
  Fe  Fe54  1  0.60383900  0.58567100  0.24598000  1
  Fe  Fe55  1  0.60995600  0.59118100  0.75117700  1
  Fe  Fe56  1  0.35690400  0.40922700  0.24677700  1
  Fe  Fe57  1  0.35799100  0.41064500  0.75108600  1
  Fe  Fe58  1  0.35221700  0.90825400  0.24553800  1
  Fe  Fe59  1  0.35641700  0.91021200  0.75241500  1
  Fe  Fe60  1  0.85253400  0.40835900  0.24577700  1
  Fe  Fe61  1  0.85910200  0.41366300  0.75260100  1
  Fe  Fe62  1  0.85707600  0.90936000  0.24682500  1
  Fe  Fe63  1  0.86026700  0.90785900  0.75163100  1
  O  O64  1  0.12356700  0.12176800  0.49055500  1
  O  O65  1  0.12753100  0.11676500  0.98898000  1
  O  O66  1  0.12357500  0.62174400  0.49075900  1
  O  O67  1  0.12185100  0.62510600  0.99007500  1
  O  O68  1  0.62389700  0.12191600  0.49061900  1
  O  O69  1  0.62537600  0.12428300  0.99375700  1
  O  O70  1  0.62391400  0.62172300  0.49053900  1
  O  O71  1  0.62744700  0.62157800  0.99256200  1
  O  O72  1  0.13826800  0.38262500  0.01395600  1
  O  O73  1  0.13255400  0.37784000  0.50843800  1
  O  O74  1  0.13565500  0.87906500  0.01248900  1
  O  O75  1  0.13280500  0.87793300  0.50878900  1
  O  O76  1  0.63684500  0.38045500  0.01588000  1
  O  O77  1  0.63307800  0.37816500  0.50881200  1
  O  O78  1  0.63867500  0.88252600  0.01378500  1
  O  O79  1  0.63265200  0.87776400  0.50833900  1
  O  O80  1  0.37363800  0.11879700  0.49022700  1
  O  O81  1  0.37395600  0.11808500  0.99143500  1
  O  O82  1  0.37368900  0.61915000  0.49057200  1
  O  O83  1  0.37336600  0.61808500  0.99204900  1
  O  O84  1  0.87403900  0.11910600  0.49083900  1
  O  O85  1  0.87462100  0.11748500  0.99201200  1
  O  O86  1  0.87401000  0.61909000  0.49061500  1
  O  O87  1  0.87814600  0.62243000  0.99123200  1
  O  O88  1  0.38807200  0.38320000  0.01630100  1
  O  O89  1  0.38262300  0.38035300  0.50814600  1
  O  O90  1  0.38166900  0.88658900  0.01225200  1
  O  O91  1  0.38283700  0.88044100  0.50834400  1
  O  O92  1  0.88359400  0.38688000  0.01391200  1
  O  O93  1  0.88291200  0.38065600  0.50842900  1
  O  O94  1  0.88904100  0.88111100  0.01406900  1
  O  O95  1  0.88285500  0.88039600  0.50835900  1
  O  O96  1  0.08857800  0.09837300  0.13877000  1
  O  O97  1  0.08333300  0.09441000  0.64150500  1
  O  O98  1  0.08709700  0.60509500  0.13958600  1
  O  O99  1  0.07982500  0.59624400  0.64076700  1
  O  O100  1  0.58635400  0.10482700  0.13990500  1
  O  O101  1  0.58172400  0.09614600  0.64010500  1
  O  O102  1  0.58802100  0.59973200  0.13948500  1
  O  O103  1  0.58190600  0.59641700  0.63997000  1
  O  O104  1  0.44167800  0.40540800  0.35851600  1
  O  O105  1  0.44257400  0.40315000  0.86144800  1
  O  O106  1  0.43905800  0.90570900  0.35767100  1
  O  O107  1  0.44527200  0.90340900  0.86206900  1
  O  O108  1  0.93909300  0.40576500  0.35777300  1
  O  O109  1  0.94264500  0.40136500  0.86144100  1
  O  O110  1  0.94172800  0.90546900  0.35866500  1
  O  O111  1  0.94558400  0.89511400  0.86066800  1
  O  O112  1  0.33494000  0.28299100  0.14039600  1
  O  O113  1  0.33146800  0.29400200  0.64024100  1
  O  O114  1  0.33253500  0.78259600  0.13971400  1
  O  O115  1  0.33000200  0.79470900  0.64098700  1
  O  O116  1  0.83397500  0.28230500  0.14036300  1
  O  O117  1  0.83380400  0.29696400  0.64138300  1
  O  O118  1  0.83631900  0.78353500  0.14070000  1
  O  O119  1  0.83198000  0.79335800  0.63984000  1
  O  O120  1  0.18895500  0.20179400  0.35750700  1
  O  O121  1  0.19319500  0.21006000  0.86147900  1
  O  O122  1  0.18837600  0.70512000  0.35892700  1
  O  O123  1  0.19389400  0.71607600  0.86121900  1
  O  O124  1  0.68858400  0.20525400  0.35909200  1
  O  O125  1  0.69231000  0.20757200  0.86152600  1
  O  O126  1  0.68912000  0.70183700  0.35761600  1
  O  O127  1  0.69752800  0.70745100  0.86148400  1
  O  O128  1  0.42762000  0.05654900  0.24035000  1
  O  O129  1  0.43574900  0.05866000  0.75088500  1
  O  O130  1  0.42744100  0.55861100  0.24087000  1
  O  O131  1  0.43781000  0.56001500  0.75136700  1
  O  O132  1  0.92755800  0.05876300  0.24086900  1
  O  O133  1  0.93626700  0.05868900  0.75147500  1
  O  O134  1  0.92779700  0.55669700  0.24049900  1
  O  O135  1  0.93663700  0.56878800  0.75879100  1
  O  O136  1  0.18554000  0.44226800  0.24860900  1
  O  O137  1  0.18627700  0.44456800  0.75159300  1
  O  O138  1  0.17641300  0.93144900  0.24178400  1
  O  O139  1  0.18604700  0.93972800  0.75853100  1
  O  O140  1  0.67658000  0.43152500  0.24189200  1
  O  O141  1  0.68583600  0.44030900  0.75043800  1
  O  O142  1  0.68564500  0.94221000  0.24864200  1
  O  O143  1  0.68832900  0.94141300  0.75131900  1
