# generated using pymatgen
data_KNa(WO3)2
_symmetry_space_group_name_H-M   'P 1'
_cell_length_a   4.00751700
_cell_length_b   4.00751700
_cell_length_c   7.95588800
_cell_angle_alpha   90.00000000
_cell_angle_beta   90.00000000
_cell_angle_gamma   90.00000000
_symmetry_Int_Tables_number   1
_chemical_formula_structural   KNa(WO3)2
_chemical_formula_sum   'K1 Na1 W2 O6'
_cell_volume   127.77309283
_cell_formula_units_Z   1
loop_
 _symmetry_equiv_pos_site_id
 _symmetry_equiv_pos_as_xyz
  1  'x, y, z'
loop_
 _atom_site_type_symbol
 _atom_site_label
 _atom_site_symmetry_multiplicity
 _atom_site_fract_x
 _atom_site_fract_y
 _atom_site_fract_z
 _atom_site_occupancy
  K  K0  1  0.50000000  0.50000000  0.50000000  1
  Na  Na1  1  0.50000000  0.50000000  0.00000000  1
  W  W2  1  0.00000000  0.00000000  0.24865800  1
  W  W3  1  0.00000000  0.00000000  0.75134200  1
  O  O4  1  0.50000000  0.00000000  0.24717800  1
  O  O5  1  0.50000000  0.00000000  0.75282200  1
  O  O6  1  0.00000000  0.50000000  0.24717800  1
  O  O7  1  0.00000000  0.50000000  0.75282200  1
  O  O8  1  0.00000000  0.00000000  0.50000000  1
  O  O9  1  0.00000000  0.00000000  0.00000000  1
