# generated using pymatgen
data_Mg2Ru
_symmetry_space_group_name_H-M   'P 1'
_cell_length_a   5.37054629
_cell_length_b   5.37054629
_cell_length_c   4.45098800
_cell_angle_alpha   90.00000000
_cell_angle_beta   90.00000000
_cell_angle_gamma   101.81829971
_symmetry_Int_Tables_number   1
_chemical_formula_structural   Mg2Ru
_chemical_formula_sum   'Mg4 Ru2'
_cell_volume   125.65744106
_cell_formula_units_Z   2
loop_
 _symmetry_equiv_pos_site_id
 _symmetry_equiv_pos_as_xyz
  1  'x, y, z'
loop_
 _atom_site_type_symbol
 _atom_site_label
 _atom_site_symmetry_multiplicity
 _atom_site_fract_x
 _atom_site_fract_y
 _atom_site_fract_z
 _atom_site_occupancy
  Mg  Mg0  1  0.41612300  0.12402500  0.75000000  1
  Mg  Mg1  1  0.12402500  0.41612300  0.25000000  1
  Mg  Mg2  1  0.58387700  0.87597500  0.25000000  1
  Mg  Mg3  1  0.87597500  0.58387700  0.75000000  1
  Ru  Ru4  1  0.92451000  0.07549000  0.75000000  1
  Ru  Ru5  1  0.07549000  0.92451000  0.25000000  1
