# generated using pymatgen
data_KNa(MoO3)2
_symmetry_space_group_name_H-M   'P 1'
_cell_length_a   3.98519200
_cell_length_b   3.98519200
_cell_length_c   7.91316600
_cell_angle_alpha   90.00000000
_cell_angle_beta   90.00000000
_cell_angle_gamma   90.00000000
_symmetry_Int_Tables_number   1
_chemical_formula_structural   KNa(MoO3)2
_chemical_formula_sum   'K1 Na1 Mo2 O6'
_cell_volume   125.67496588
_cell_formula_units_Z   1
loop_
 _symmetry_equiv_pos_site_id
 _symmetry_equiv_pos_as_xyz
  1  'x, y, z'
loop_
 _atom_site_type_symbol
 _atom_site_label
 _atom_site_symmetry_multiplicity
 _atom_site_fract_x
 _atom_site_fract_y
 _atom_site_fract_z
 _atom_site_occupancy
  K  K0  1  0.50000000  0.50000000  0.50000000  1
  Na  Na1  1  0.50000000  0.50000000  0.00000000  1
  Mo  Mo2  1  0.00000000  0.00000000  0.24810000  1
  Mo  Mo3  1  0.00000000  0.00000000  0.75190000  1
  O  O4  1  0.50000000  0.00000000  0.24590400  1
  O  O5  1  0.50000000  0.00000000  0.75409600  1
  O  O6  1  0.00000000  0.50000000  0.24590400  1
  O  O7  1  0.00000000  0.50000000  0.75409600  1
  O  O8  1  0.00000000  0.00000000  0.50000000  1
  O  O9  1  0.00000000  0.00000000  0.00000000  1
