# generated using pymatgen
data_Zr2Ir
_symmetry_space_group_name_H-M   'P 1'
_cell_length_a   5.45491418
_cell_length_b   5.45491418
_cell_length_c   5.45491418
_cell_angle_alpha   106.29490190
_cell_angle_beta   106.29490190
_cell_angle_gamma   116.02972547
_symmetry_Int_Tables_number   1
_chemical_formula_structural   Zr2Ir
_chemical_formula_sum   'Zr4 Ir2'
_cell_volume   123.71001131
_cell_formula_units_Z   2
loop_
 _symmetry_equiv_pos_site_id
 _symmetry_equiv_pos_as_xyz
  1  'x, y, z'
loop_
 _atom_site_type_symbol
 _atom_site_label
 _atom_site_symmetry_multiplicity
 _atom_site_fract_x
 _atom_site_fract_y
 _atom_site_fract_z
 _atom_site_occupancy
  Zr  Zr0  1  0.67160700  0.17160700  0.84321400  1
  Zr  Zr1  1  0.32839300  0.82839300  0.15678600  1
  Zr  Zr2  1  0.82839300  0.67160700  0.50000000  1
  Zr  Zr3  1  0.17160700  0.32839300  0.50000000  1
  Ir  Ir4  1  0.75000000  0.75000000  0.00000000  1
  Ir  Ir5  1  0.25000000  0.25000000  0.00000000  1
