data_image0
_chemical_formula_structural       C10Fe2O10
_chemical_formula_sum              "C10 Fe2 O10"
_cell_length_a       6.27422
_cell_length_b       6.27419
_cell_length_c       8.57087
_cell_angle_alpha    73.8832
_cell_angle_beta     106.116
_cell_angle_gamma    120.246

_space_group_name_H-M_alt    "P 1"
_space_group_IT_number       1

loop_
  _space_group_symop_operation_xyz
  'x, y, z'

loop_
  _atom_site_type_symbol
  _atom_site_label
  _atom_site_symmetry_multiplicity
  _atom_site_fract_x
  _atom_site_fract_y
  _atom_site_fract_z
  _atom_site_occupancy
  C   C1        1.0  0.20800  0.38700  0.82600  1.0000
  C   C2        1.0  0.61300  0.79200  0.32600  1.0000
  C   C3        1.0  0.27900  0.01180  0.92700  1.0000
  C   C4        1.0  0.98800  0.72100  0.42700  1.0000
  C   C5        1.0  0.40000  0.22100  0.17600  1.0000
  C   C6        1.0  0.77900  0.60000  0.67600  1.0000
  C   C7        1.0  0.87500  0.88000  0.00217  1.0000
  C   C8        1.0  0.12000  0.12500  0.50200  1.0000
  C   C9        1.0  0.02690  0.29700  0.07820  1.0000
  C   C10       1.0  0.70300  0.97300  0.57800  1.0000
  Fe  Fe1       1.0  0.15900  0.15800  0.00419  1.0000
  Fe  Fe2       1.0  0.84200  0.84100  0.50400  1.0000
  O   O1        1.0  0.68900  0.69700  0.99600  1.0000
  O   O2        1.0  0.30300  0.31100  0.49600  1.0000
  O   O3        1.0  0.55900  0.26800  0.28900  1.0000
  O   O4        1.0  0.73200  0.44100  0.78900  1.0000
  O   O5        1.0  0.94000  0.38600  0.12600  1.0000
  O   O6        1.0  0.61400  0.06040  0.62600  1.0000
  O   O7        1.0  0.24000  0.53600  0.70800  1.0000
  O   O8        1.0  0.46400  0.76000  0.20800  1.0000
  O   O9        1.0  0.34900  0.91300  0.87300  1.0000
  O   O10       1.0  0.08750  0.65100  0.37300  1.0000
