# generated using pymatgen
data_TiS2
_symmetry_space_group_name_H-M   'P 1'
_cell_length_a   3.41676045
_cell_length_b   3.41676045
_cell_length_c   17.32996925
_cell_angle_alpha   83.68047196
_cell_angle_beta   83.68047196
_cell_angle_gamma   59.99747417
_symmetry_Int_Tables_number   1
_chemical_formula_structural   TiS2
_chemical_formula_sum   'Ti2 S4'
_cell_volume   173.78404944
_cell_formula_units_Z   2
loop_
 _symmetry_equiv_pos_site_id
 _symmetry_equiv_pos_as_xyz
  1  'x, y, z'
loop_
 _atom_site_type_symbol
 _atom_site_label
 _atom_site_symmetry_multiplicity
 _atom_site_fract_x
 _atom_site_fract_y
 _atom_site_fract_z
 _atom_site_occupancy
  Ti  Ti0  1  0.56437100  0.56437100  0.82979300  1
  Ti  Ti1  1  0.43562900  0.43562900  0.17020700  1
  S  S2  1  0.92745100  0.92745100  0.74719000  1
  S  S3  1  0.07254900  0.07254900  0.25281000  1
  S  S4  1  0.19940100  0.19940100  0.91211400  1
  S  S5  1  0.80059900  0.80059900  0.08788600  1
