# generated using pymatgen
data_Eu2Si
_symmetry_space_group_name_H-M   'P 1'
_cell_length_a   4.93857500
_cell_length_b   7.57694000
_cell_length_c   9.37899400
_cell_angle_alpha   90.00000000
_cell_angle_beta   90.00000000
_cell_angle_gamma   90.00000000
_symmetry_Int_Tables_number   1
_chemical_formula_structural   Eu2Si
_chemical_formula_sum   'Eu8 Si4'
_cell_volume   350.95526320
_cell_formula_units_Z   4
loop_
 _symmetry_equiv_pos_site_id
 _symmetry_equiv_pos_as_xyz
  1  'x, y, z'
loop_
 _atom_site_type_symbol
 _atom_site_label
 _atom_site_symmetry_multiplicity
 _atom_site_fract_x
 _atom_site_fract_y
 _atom_site_fract_z
 _atom_site_occupancy
  Eu  Eu0  1  0.25000000  0.51739700  0.81885000  1
  Eu  Eu1  1  0.25000000  0.01739700  0.68115000  1
  Eu  Eu2  1  0.75000000  0.48260300  0.18115000  1
  Eu  Eu3  1  0.75000000  0.98260300  0.31885000  1
  Eu  Eu4  1  0.25000000  0.65871300  0.42073200  1
  Eu  Eu5  1  0.25000000  0.15871300  0.07926800  1
  Eu  Eu6  1  0.75000000  0.34128700  0.57926800  1
  Eu  Eu7  1  0.75000000  0.84128700  0.92073200  1
  Si  Si8  1  0.25000000  0.74723200  0.10084000  1
  Si  Si9  1  0.25000000  0.24723200  0.39916000  1
  Si  Si10  1  0.75000000  0.25276800  0.89916000  1
  Si  Si11  1  0.75000000  0.75276800  0.60084000  1
