# generated using pymatgen
data_KNa7V7CrO20
_symmetry_space_group_name_H-M   'P 1'
_cell_length_a   10.89198335
_cell_length_b   11.18966564
_cell_length_c   16.53117074
_cell_angle_alpha   109.80162313
_cell_angle_beta   108.81809719
_cell_angle_gamma   90.02507970
_symmetry_Int_Tables_number   1
_chemical_formula_structural   KNa7V7CrO20
_chemical_formula_sum   'K4 Na28 V28 Cr4 O80'
_cell_volume   1780.65402104
_cell_formula_units_Z   4
loop_
 _symmetry_equiv_pos_site_id
 _symmetry_equiv_pos_as_xyz
  1  'x, y, z'
loop_
 _atom_site_type_symbol
 _atom_site_label
 _atom_site_symmetry_multiplicity
 _atom_site_fract_x
 _atom_site_fract_y
 _atom_site_fract_z
 _atom_site_occupancy
  K  K0  1  0.30572300  0.06370700  0.11185900  1
  K  K1  1  0.80467000  0.06421700  0.11240400  1
  K  K2  1  0.05674100  0.79541100  0.11304500  1
  K  K3  1  0.55557200  0.79700000  0.11400700  1
  Na  Na4  1  0.30408200  0.06754300  0.60741100  1
  Na  Na5  1  0.30113800  0.56605900  0.10447600  1
  Na  Na6  1  0.30378500  0.56752000  0.60755200  1
  Na  Na7  1  0.80429400  0.06769400  0.60755100  1
  Na  Na8  1  0.80318500  0.56483300  0.10436000  1
  Na  Na9  1  0.80425000  0.56742900  0.60767800  1
  Na  Na10  1  0.19754500  0.43403200  0.39389000  1
  Na  Na11  1  0.19608700  0.43340300  0.89300500  1
  Na  Na12  1  0.19752600  0.93315100  0.39512000  1
  Na  Na13  1  0.19837100  0.93309800  0.89361100  1
  Na  Na14  1  0.69772000  0.43401000  0.39405700  1
  Na  Na15  1  0.69945700  0.43443500  0.89415200  1
  Na  Na16  1  0.69755000  0.93315700  0.39518600  1
  Na  Na17  1  0.69708500  0.93342200  0.89280700  1
  Na  Na18  1  0.05365600  0.29067300  0.10508400  1
  Na  Na19  1  0.05422300  0.28988300  0.60759200  1
  Na  Na20  1  0.05428100  0.79009200  0.60770800  1
  Na  Na21  1  0.55311600  0.29017100  0.10463400  1
  Na  Na22  1  0.55441200  0.28960700  0.60737500  1
  Na  Na23  1  0.55407600  0.79015700  0.60745600  1
  Na  Na24  1  0.44765200  0.21198100  0.39514100  1
  Na  Na25  1  0.44815300  0.21060200  0.89361900  1
  Na  Na26  1  0.44750100  0.70968600  0.39369300  1
  Na  Na27  1  0.44556100  0.71062600  0.89293900  1
  Na  Na28  1  0.94761600  0.21210200  0.39523300  1
  Na  Na29  1  0.94912500  0.21184200  0.89347400  1
  Na  Na30  1  0.94766000  0.70983700  0.39388000  1
  Na  Na31  1  0.95045700  0.70925100  0.89367200  1
  V  V32  1  0.00671500  0.99984400  0.50053400  1
  V  V33  1  0.00642400  0.50061800  0.50039400  1
  V  V34  1  0.50651600  0.99965200  0.50017800  1
  V  V35  1  0.50203600  0.49729700  0.99670400  1
  V  V36  1  0.50614900  0.50023900  0.49984000  1
  V  V37  1  0.25379000  0.25031500  0.99732100  1
  V  V38  1  0.25672100  0.25064400  0.50058800  1
  V  V39  1  0.25634400  0.74973700  0.50013100  1
  V  V40  1  0.75585700  0.24938900  0.99657200  1
  V  V41  1  0.75685700  0.25073700  0.50078400  1
  V  V42  1  0.75039700  0.74504000  0.99097900  1
  V  V43  1  0.75627400  0.74967000  0.50010000  1
  V  V44  1  0.11090300  0.09585000  0.25417800  1
  V  V45  1  0.10411100  0.08964900  0.75025100  1
  V  V46  1  0.10417100  0.58624500  0.25020100  1
  V  V47  1  0.10331600  0.58731400  0.74927200  1
  V  V48  1  0.61113600  0.09603500  0.25444700  1
  V  V49  1  0.60367200  0.09019000  0.75016900  1
  V  V50  1  0.60424900  0.58616400  0.25038900  1
  V  V51  1  0.60222000  0.58613500  0.74809000  1
  V  V52  1  0.35390400  0.41350200  0.25038700  1
  V  V53  1  0.35432000  0.40956100  0.75029000  1
  V  V54  1  0.36120300  0.90939500  0.25483500  1
  V  V55  1  0.35407900  0.91155200  0.74970900  1
  V  V56  1  0.85369000  0.41375300  0.25027400  1
  V  V57  1  0.85468200  0.41021800  0.75080900  1
  V  V58  1  0.86151200  0.90942200  0.25502200  1
  V  V59  1  0.85347100  0.91168300  0.74961300  1
  Cr  Cr60  1  0.00142600  0.99882900  0.99513400  1
  Cr  Cr61  1  0.00588900  0.49839800  0.99771100  1
  Cr  Cr62  1  0.50053200  0.99766300  0.99514300  1
  Cr  Cr63  1  0.24554300  0.75216000  0.99358500  1
  O  O64  1  0.11901500  0.11259300  0.48959500  1
  O  O65  1  0.12618600  0.12837200  0.98664900  1
  O  O66  1  0.11901700  0.61238200  0.48901300  1
  O  O67  1  0.13067300  0.61626600  0.98270800  1
  O  O68  1  0.61903900  0.11259700  0.48966800  1
  O  O69  1  0.62716900  0.13259800  0.98767500  1
  O  O70  1  0.61904100  0.61241500  0.48899400  1
  O  O71  1  0.62987400  0.62142500  0.98550500  1
  O  O72  1  0.13976500  0.37258000  0.00802600  1
  O  O73  1  0.14370400  0.37234100  0.51181800  1
  O  O74  1  0.13098200  0.87243900  0.00319400  1
  O  O75  1  0.14435200  0.87170900  0.51189900  1
  O  O76  1  0.63396200  0.37980000  0.00694300  1
  O  O77  1  0.64372600  0.37230900  0.51188400  1
  O  O78  1  0.63452000  0.86624200  0.00021700  1
  O  O79  1  0.64427200  0.87168800  0.51180100  1
  O  O80  1  0.36888700  0.12693200  0.48931100  1
  O  O81  1  0.36896600  0.12516800  0.98592500  1
  O  O82  1  0.36901000  0.62669500  0.48903800  1
  O  O83  1  0.38125900  0.60536000  0.98665100  1
  O  O84  1  0.86895800  0.12704800  0.48951000  1
  O  O85  1  0.86800700  0.12689800  0.98600600  1
  O  O86  1  0.86908400  0.62672800  0.48914200  1
  O  O87  1  0.86776100  0.62113700  0.98562800  1
  O  O88  1  0.38104300  0.37302800  0.00789100  1
  O  O89  1  0.39419600  0.39002300  0.51175400  1
  O  O90  1  0.37877100  0.87018400  0.00183900  1
  O  O91  1  0.39370000  0.88957800  0.51195400  1
  O  O92  1  0.87762600  0.37511500  0.00774900  1
  O  O93  1  0.89426100  0.39006100  0.51178400  1
  O  O94  1  0.87448500  0.87007000  0.00096700  1
  O  O95  1  0.89371700  0.88958000  0.51196800  1
  O  O96  1  0.07258000  0.09502600  0.14014300  1
  O  O97  1  0.08284500  0.09980800  0.64187200  1
  O  O98  1  0.08146700  0.58314300  0.13852700  1
  O  O99  1  0.08238500  0.59957000  0.64121700  1
  O  O100  1  0.57469900  0.09423800  0.14039500  1
  O  O101  1  0.58287900  0.10000600  0.64195600  1
  O  O102  1  0.58334000  0.58351300  0.13904600  1
  O  O103  1  0.58229200  0.59940800  0.64086000  1
  O  O104  1  0.44237600  0.40028900  0.35788200  1
  O  O105  1  0.44267200  0.39770300  0.85743400  1
  O  O106  1  0.44721700  0.89448800  0.36161400  1
  O  O107  1  0.44396000  0.90296600  0.85747600  1
  O  O108  1  0.94212600  0.40014100  0.35751500  1
  O  O109  1  0.94099700  0.39934100  0.85851300  1
  O  O110  1  0.94749100  0.89462800  0.36180500  1
  O  O111  1  0.93954100  0.90294300  0.85786900  1
  O  O112  1  0.33116700  0.30252300  0.13916200  1
  O  O113  1  0.33273600  0.29169800  0.64148900  1
  O  O114  1  0.32505200  0.79642800  0.14214200  1
  O  O115  1  0.33265600  0.79160300  0.64153400  1
  O  O116  1  0.82910300  0.30393400  0.13788000  1
  O  O117  1  0.83288900  0.29183800  0.64203300  1
  O  O118  1  0.82516500  0.79740600  0.14197600  1
  O  O119  1  0.83260300  0.79167000  0.64159100  1
  O  O120  1  0.19687900  0.21676100  0.36106100  1
  O  O121  1  0.19106700  0.20930300  0.85786800  1
  O  O122  1  0.19221500  0.70747400  0.35774100  1
  O  O123  1  0.19082500  0.70650000  0.85603400  1
  O  O124  1  0.69699900  0.21702800  0.36134900  1
  O  O125  1  0.69039300  0.20976000  0.85883800  1
  O  O126  1  0.69237600  0.70753500  0.35788100  1
  O  O127  1  0.69039900  0.70505400  0.85582200  1
  O  O128  1  0.44995100  0.05859700  0.26339000  1
  O  O129  1  0.43286000  0.06072500  0.74954100  1
  O  O130  1  0.43304000  0.56319700  0.25158600  1
  O  O131  1  0.43251100  0.55918300  0.74982900  1
  O  O132  1  0.94990200  0.05871300  0.26348600  1
  O  O133  1  0.93289500  0.06068800  0.74985400  1
  O  O134  1  0.93318300  0.56331400  0.25193500  1
  O  O135  1  0.93258100  0.55916500  0.74975500  1
  O  O136  1  0.18317800  0.43783000  0.25217000  1
  O  O137  1  0.18305400  0.43874400  0.74978900  1
  O  O138  1  0.19969000  0.95595900  0.26357700  1
  O  O139  1  0.18328400  0.94064400  0.75035400  1
  O  O140  1  0.68350000  0.43793300  0.25258300  1
  O  O141  1  0.68273900  0.43899500  0.74957900  1
  O  O142  1  0.70021800  0.95637100  0.26402100  1
  O  O143  1  0.68261200  0.94132900  0.75001400  1
