# generated using pymatgen
data_BN
_symmetry_space_group_name_H-M   'P 1'
_cell_length_a   4.30641760
_cell_length_b   4.30641760
_cell_length_c   4.30641760
_cell_angle_alpha   143.92980029
_cell_angle_beta   120.97702260
_cell_angle_gamma   71.15612524
_symmetry_Int_Tables_number   1
_chemical_formula_structural   BN
_chemical_formula_sum   'B3 N3'
_cell_volume   39.62459403
_cell_formula_units_Z   3
loop_
 _symmetry_equiv_pos_site_id
 _symmetry_equiv_pos_as_xyz
  1  'x, y, z'
loop_
 _atom_site_type_symbol
 _atom_site_label
 _atom_site_symmetry_multiplicity
 _atom_site_fract_x
 _atom_site_fract_y
 _atom_site_fract_z
 _atom_site_occupancy
  B  B0  1  0.05069800  0.00000000  0.05069800  1
  B  B1  1  0.76866900  0.19272500  0.57594400  1
  B  B2  1  0.38321900  0.80727500  0.57594400  1
  N  N3  1  0.01571200  0.80847900  0.20723200  1
  N  N4  1  0.39875300  0.19152100  0.20723200  1
  N  N5  1  0.72294900  0.00000000  0.72294900  1
