# generated using pymatgen
data_CN2
_symmetry_space_group_name_H-M   'P 1'
_cell_length_a   3.45168039
_cell_length_b   3.45168039
_cell_length_c   4.57959000
_cell_angle_alpha   90.00000000
_cell_angle_beta   90.00000000
_cell_angle_gamma   137.88691769
_symmetry_Int_Tables_number   1
_chemical_formula_structural   CN2
_chemical_formula_sum   'C2 N4'
_cell_volume   36.58884644
_cell_formula_units_Z   2
loop_
 _symmetry_equiv_pos_site_id
 _symmetry_equiv_pos_as_xyz
  1  'x, y, z'
loop_
 _atom_site_type_symbol
 _atom_site_label
 _atom_site_symmetry_multiplicity
 _atom_site_fract_x
 _atom_site_fract_y
 _atom_site_fract_z
 _atom_site_occupancy
  C  C0  1  0.11309800  0.88690200  0.27980700  1
  C  C1  1  0.88690200  0.11309800  0.77980700  1
  N  N2  1  0.07502400  0.92497600  0.95253800  1
  N  N3  1  0.92497600  0.07502400  0.45253800  1
  N  N4  1  0.26195300  0.73804700  0.82050500  1
  N  N5  1  0.73804700  0.26195300  0.32050500  1
