# generated using pymatgen
data_K2CuF4
_symmetry_space_group_name_H-M   'P 1'
_cell_length_a   6.57649609
_cell_length_b   6.57649609
_cell_length_c   3.91227500
_cell_angle_alpha   90.00000000
_cell_angle_beta   90.00000000
_cell_angle_gamma   140.50766400
_symmetry_Int_Tables_number   1
_chemical_formula_structural   K2CuF4
_chemical_formula_sum   'K2 Cu1 F4'
_cell_volume   107.61146682
_cell_formula_units_Z   1
loop_
 _symmetry_equiv_pos_site_id
 _symmetry_equiv_pos_as_xyz
  1  'x, y, z'
loop_
 _atom_site_type_symbol
 _atom_site_label
 _atom_site_symmetry_multiplicity
 _atom_site_fract_x
 _atom_site_fract_y
 _atom_site_fract_z
 _atom_site_occupancy
  K  K0  1  0.64766200  0.35233800  0.50000000  1
  K  K1  1  0.35233800  0.64766200  0.50000000  1
  Cu  Cu2  1  0.00000000  0.00000000  0.00000000  1
  F  F3  1  0.50000000  0.50000000  0.00000000  1
  F  F4  1  0.00000000  0.00000000  0.50000000  1
  F  F5  1  0.84133000  0.15867000  0.00000000  1
  F  F6  1  0.15867000  0.84133000  0.00000000  1
