# generated using pymatgen
data_Ce2Fe2Se2O3
_symmetry_space_group_name_H-M   'P 1'
_cell_length_a   9.78996757
_cell_length_b   9.78996757
_cell_length_c   9.78996757
_cell_angle_alpha   156.01653399
_cell_angle_beta   156.01653399
_cell_angle_gamma   34.17501687
_symmetry_Int_Tables_number   1
_chemical_formula_structural   Ce2Fe2Se2O3
_chemical_formula_sum   'Ce2 Fe2 Se2 O3'
_cell_volume   154.86908143
_cell_formula_units_Z   1
loop_
 _symmetry_equiv_pos_site_id
 _symmetry_equiv_pos_as_xyz
  1  'x, y, z'
loop_
 _atom_site_type_symbol
 _atom_site_label
 _atom_site_symmetry_multiplicity
 _atom_site_fract_x
 _atom_site_fract_y
 _atom_site_fract_z
 _atom_site_occupancy
  Ce  Ce0  1  0.31415400  0.31415400  0.00000000  1
  Ce  Ce1  1  0.68584600  0.68584600  0.00000000  1
  Fe  Fe2  1  0.50000000  0.00000000  0.50000000  1
  Fe  Fe3  1  0.00000000  0.50000000  0.50000000  1
  Se  Se4  1  0.89962300  0.89962300  0.00000000  1
  Se  Se5  1  0.10037700  0.10037700  0.00000000  1
  O  O6  1  0.25000000  0.75000000  0.50000000  1
  O  O7  1  0.75000000  0.25000000  0.50000000  1
  O  O8  1  0.50000000  0.50000000  0.00000000  1
