# generated using pymatgen
data_CaZn(CO3)2
_symmetry_space_group_name_H-M   'P 1'
_cell_length_a   6.12619899
_cell_length_b   6.12619899
_cell_length_c   6.12619861
_cell_angle_alpha   46.80016299
_cell_angle_beta   46.80016299
_cell_angle_gamma   46.80016293
_symmetry_Int_Tables_number   1
_chemical_formula_structural   CaZn(CO3)2
_chemical_formula_sum   'Ca1 Zn1 C2 O6'
_cell_volume   111.63527013
_cell_formula_units_Z   1
loop_
 _symmetry_equiv_pos_site_id
 _symmetry_equiv_pos_as_xyz
  1  'x, y, z'
loop_
 _atom_site_type_symbol
 _atom_site_label
 _atom_site_symmetry_multiplicity
 _atom_site_fract_x
 _atom_site_fract_y
 _atom_site_fract_z
 _atom_site_occupancy
  Ca  Ca0  1  0.00000000  0.00000000  0.00000000  1
  Zn  Zn1  1  0.50000000  0.50000000  0.50000000  1
  C  C2  1  0.24254100  0.24254100  0.24254100  1
  C  C3  1  0.75745900  0.75745900  0.75745900  1
  O  O4  1  0.49474700  0.96409000  0.27356700  1
  O  O5  1  0.96409000  0.27356700  0.49474700  1
  O  O6  1  0.27356700  0.49474700  0.96409000  1
  O  O7  1  0.50525300  0.03591000  0.72643300  1
  O  O8  1  0.03591000  0.72643300  0.50525300  1
  O  O9  1  0.72643300  0.50525300  0.03591000  1
