# generated using pymatgen
data_CsAl
_symmetry_space_group_name_H-M   'P 1'
_cell_length_a   4.74581000
_cell_length_b   8.58403500
_cell_length_c   10.65846300
_cell_angle_alpha   90.00000000
_cell_angle_beta   90.00000000
_cell_angle_gamma   90.00000000
_symmetry_Int_Tables_number   1
_chemical_formula_structural   CsAl
_chemical_formula_sum   'Cs4 Al4'
_cell_volume   434.20658826
_cell_formula_units_Z   4
loop_
 _symmetry_equiv_pos_site_id
 _symmetry_equiv_pos_as_xyz
  1  'x, y, z'
loop_
 _atom_site_type_symbol
 _atom_site_label
 _atom_site_symmetry_multiplicity
 _atom_site_fract_x
 _atom_site_fract_y
 _atom_site_fract_z
 _atom_site_occupancy
  Cs  Cs0  1  0.25000000  0.34809900  0.68420800  1
  Cs  Cs1  1  0.25000000  0.15190100  0.18420800  1
  Cs  Cs2  1  0.75000000  0.65190100  0.31579200  1
  Cs  Cs3  1  0.75000000  0.84809900  0.81579200  1
  Al  Al4  1  0.25000000  0.55562600  0.01323500  1
  Al  Al5  1  0.25000000  0.94437400  0.51323500  1
  Al  Al6  1  0.75000000  0.44437400  0.98676500  1
  Al  Al7  1  0.75000000  0.05562600  0.48676500  1
