# generated using pymatgen
data_Ce(AlPd)2
_symmetry_space_group_name_H-M   'P 1'
_cell_length_a   4.30865300
_cell_length_b   4.30865300
_cell_length_c   10.38339000
_cell_angle_alpha   90.00000000
_cell_angle_beta   90.00000000
_cell_angle_gamma   90.00000000
_symmetry_Int_Tables_number   1
_chemical_formula_structural   Ce(AlPd)2
_chemical_formula_sum   'Ce2 Al4 Pd4'
_cell_volume   192.76234682
_cell_formula_units_Z   2
loop_
 _symmetry_equiv_pos_site_id
 _symmetry_equiv_pos_as_xyz
  1  'x, y, z'
loop_
 _atom_site_type_symbol
 _atom_site_label
 _atom_site_symmetry_multiplicity
 _atom_site_fract_x
 _atom_site_fract_y
 _atom_site_fract_z
 _atom_site_occupancy
  Ce  Ce0  1  0.00000000  0.50000000  0.24923300  1
  Ce  Ce1  1  0.50000000  0.00000000  0.75076700  1
  Al  Al2  1  0.00000000  0.50000000  0.62549900  1
  Al  Al3  1  0.50000000  0.00000000  0.37450100  1
  Al  Al4  1  0.00000000  0.00000000  0.00000000  1
  Al  Al5  1  0.50000000  0.50000000  0.00000000  1
  Pd  Pd6  1  0.00000000  0.50000000  0.86751400  1
  Pd  Pd7  1  0.50000000  0.00000000  0.13248600  1
  Pd  Pd8  1  0.00000000  0.00000000  0.50000000  1
  Pd  Pd9  1  0.50000000  0.50000000  0.50000000  1
