# generated using pymatgen
data_MoN
_symmetry_space_group_name_H-M   'P 1'
_cell_length_a   2.87114568
_cell_length_b   2.87114568
_cell_length_c   11.46374200
_cell_angle_alpha   90.00000000
_cell_angle_beta   90.00000000
_cell_angle_gamma   119.99999254
_symmetry_Int_Tables_number   1
_chemical_formula_structural   MoN
_chemical_formula_sum   'Mo4 N4'
_cell_volume   81.84035872
_cell_formula_units_Z   4
loop_
 _symmetry_equiv_pos_site_id
 _symmetry_equiv_pos_as_xyz
  1  'x, y, z'
loop_
 _atom_site_type_symbol
 _atom_site_label
 _atom_site_symmetry_multiplicity
 _atom_site_fract_x
 _atom_site_fract_y
 _atom_site_fract_z
 _atom_site_occupancy
  Mo  Mo0  1  0.00000000  0.00000000  0.25000000  1
  Mo  Mo1  1  0.00000000  0.00000000  0.75000000  1
  Mo  Mo2  1  0.00000000  0.00000000  0.50000000  1
  Mo  Mo3  1  0.00000000  0.00000000  0.00000000  1
  N  N4  1  0.33333300  0.66666700  0.37066000  1
  N  N5  1  0.66666700  0.33333300  0.62934000  1
  N  N6  1  0.66666700  0.33333300  0.87066000  1
  N  N7  1  0.33333300  0.66666700  0.12934000  1
