# generated using pymatgen
data_YVO4
_symmetry_space_group_name_H-M   'P 1'
_cell_length_a   5.09498500
_cell_length_b   5.09498500
_cell_length_c   6.72808542
_cell_angle_alpha   112.24919727
_cell_angle_beta   112.24919727
_cell_angle_gamma   90.00000000
_symmetry_Int_Tables_number   1
_chemical_formula_structural   YVO4
_chemical_formula_sum   'Y2 V2 O8'
_cell_volume   147.50417826
_cell_formula_units_Z   2
loop_
 _symmetry_equiv_pos_site_id
 _symmetry_equiv_pos_as_xyz
  1  'x, y, z'
loop_
 _atom_site_type_symbol
 _atom_site_label
 _atom_site_symmetry_multiplicity
 _atom_site_fract_x
 _atom_site_fract_y
 _atom_site_fract_z
 _atom_site_occupancy
  Y  Y0  1  0.62500000  0.87500000  0.25000000  1
  Y  Y1  1  0.37500000  0.12500000  0.75000000  1
  V  V2  1  0.12500000  0.37500000  0.25000000  1
  V  V3  1  0.87500000  0.62500000  0.75000000  1
  O  O4  1  0.35159000  0.19975500  0.41096700  1
  O  O5  1  0.05937700  0.71121200  0.41096700  1
  O  O6  1  0.69975500  0.55937700  0.91096700  1
  O  O7  1  0.21121200  0.85159000  0.91096700  1
  O  O8  1  0.64841000  0.80024500  0.58903300  1
  O  O9  1  0.94062300  0.28878800  0.58903300  1
  O  O10  1  0.30024500  0.44062300  0.08903300  1
  O  O11  1  0.78878800  0.14841000  0.08903300  1
