# generated using pymatgen
data_ZnCu2GeTe4
_symmetry_space_group_name_H-M   'P 1'
_cell_length_a   7.47136653
_cell_length_b   7.47136653
_cell_length_c   7.47136653
_cell_angle_alpha   131.61042915
_cell_angle_beta   131.61042915
_cell_angle_gamma   70.84501200
_symmetry_Int_Tables_number   1
_chemical_formula_structural   ZnCu2GeTe4
_chemical_formula_sum   'Zn1 Cu2 Ge1 Te4'
_cell_volume   228.34592382
_cell_formula_units_Z   1
loop_
 _symmetry_equiv_pos_site_id
 _symmetry_equiv_pos_as_xyz
  1  'x, y, z'
loop_
 _atom_site_type_symbol
 _atom_site_label
 _atom_site_symmetry_multiplicity
 _atom_site_fract_x
 _atom_site_fract_y
 _atom_site_fract_z
 _atom_site_occupancy
  Zn  Zn0  1  0.75000000  0.25000000  0.50000000  1
  Cu  Cu1  1  0.00000000  0.00000000  0.00000000  1
  Cu  Cu2  1  0.25000000  0.75000000  0.50000000  1
  Ge  Ge3  1  0.50000000  0.50000000  0.00000000  1
  Te  Te4  1  0.12291100  0.11319800  0.48873200  1
  Te  Te5  1  0.62446600  0.63417900  0.51126800  1
  Te  Te6  1  0.36582100  0.87708900  0.99028700  1
  Te  Te7  1  0.88680200  0.37553400  0.00971300  1
