# generated using pymatgen
data_CN2O
_symmetry_space_group_name_H-M   'P 1'
_cell_length_a   5.93516400
_cell_length_b   5.93516400
_cell_length_c   4.77804500
_cell_angle_alpha   90.00000000
_cell_angle_beta   90.00000000
_cell_angle_gamma   90.00000000
_symmetry_Int_Tables_number   1
_chemical_formula_structural   CN2O
_chemical_formula_sum   'C2 N4 O2'
_cell_volume   168.31223359
_cell_formula_units_Z   2
loop_
 _symmetry_equiv_pos_site_id
 _symmetry_equiv_pos_as_xyz
  1  'x, y, z'
loop_
 _atom_site_type_symbol
 _atom_site_label
 _atom_site_symmetry_multiplicity
 _atom_site_fract_x
 _atom_site_fract_y
 _atom_site_fract_z
 _atom_site_occupancy
  C  C0  1  0.00000000  0.50000000  0.31335600  1
  C  C1  1  0.50000000  0.00000000  0.68664400  1
  N  N2  1  0.85735600  0.64264400  0.19543800  1
  N  N3  1  0.64264400  0.14264400  0.80456200  1
  N  N4  1  0.14264400  0.35735600  0.19543800  1
  N  N5  1  0.35735600  0.85735600  0.80456200  1
  O  O6  1  0.00000000  0.50000000  0.58870500  1
  O  O7  1  0.50000000  0.00000000  0.41129500  1
