# generated using pymatgen
data_GaPt3
_symmetry_space_group_name_H-M   'P 1'
_cell_length_a   5.58585000
_cell_length_b   5.58585000
_cell_length_c   3.93755000
_cell_angle_alpha   90.00000000
_cell_angle_beta   90.00000000
_cell_angle_gamma   90.00000000
_symmetry_Int_Tables_number   1
_chemical_formula_structural   GaPt3
_chemical_formula_sum   'Ga2 Pt6'
_cell_volume   122.85833346
_cell_formula_units_Z   2
loop_
 _symmetry_equiv_pos_site_id
 _symmetry_equiv_pos_as_xyz
  1  'x, y, z'
loop_
 _atom_site_type_symbol
 _atom_site_label
 _atom_site_symmetry_multiplicity
 _atom_site_fract_x
 _atom_site_fract_y
 _atom_site_fract_z
 _atom_site_occupancy
  Ga  Ga0  1  0.00000000  0.50000000  0.50000000  1
  Ga  Ga1  1  0.50000000  0.00000000  0.50000000  1
  Pt  Pt2  1  0.76254900  0.26254900  0.00000000  1
  Pt  Pt3  1  0.23745100  0.73745100  0.00000000  1
  Pt  Pt4  1  0.26254900  0.23745100  0.00000000  1
  Pt  Pt5  1  0.73745100  0.76254900  0.00000000  1
  Pt  Pt6  1  0.50000000  0.50000000  0.50000000  1
  Pt  Pt7  1  0.00000000  0.00000000  0.50000000  1
