# generated using pymatgen
data_YbAsS
_symmetry_space_group_name_H-M   'P 1'
_cell_length_a   3.80319700
_cell_length_b   4.03792600
_cell_length_c   18.68235900
_cell_angle_alpha   90.00000000
_cell_angle_beta   90.00000000
_cell_angle_gamma   90.00000000
_symmetry_Int_Tables_number   1
_chemical_formula_structural   YbAsS
_chemical_formula_sum   'Yb4 As4 S4'
_cell_volume   286.90551119
_cell_formula_units_Z   4
loop_
 _symmetry_equiv_pos_site_id
 _symmetry_equiv_pos_as_xyz
  1  'x, y, z'
loop_
 _atom_site_type_symbol
 _atom_site_label
 _atom_site_symmetry_multiplicity
 _atom_site_fract_x
 _atom_site_fract_y
 _atom_site_fract_z
 _atom_site_occupancy
  Yb  Yb0  1  0.25000000  0.23273800  0.17369000  1
  Yb  Yb1  1  0.25000000  0.26726200  0.67369000  1
  Yb  Yb2  1  0.75000000  0.76726200  0.82631000  1
  Yb  Yb3  1  0.75000000  0.73273800  0.32631000  1
  As  As4  1  0.75000000  0.17553800  0.48177600  1
  As  As5  1  0.75000000  0.32446200  0.98177600  1
  As  As6  1  0.25000000  0.82446200  0.51822400  1
  As  As7  1  0.25000000  0.67553800  0.01822400  1
  S  S8  1  0.25000000  0.23690300  0.32343200  1
  S  S9  1  0.25000000  0.26309700  0.82343200  1
  S  S10  1  0.75000000  0.76309700  0.67656800  1
  S  S11  1  0.75000000  0.73690300  0.17656800  1
