# generated using pymatgen
data_Mg(ClO3)2
_symmetry_space_group_name_H-M   'P 1'
_cell_length_a   6.63364558
_cell_length_b   6.63364558
_cell_length_c   5.87816700
_cell_angle_alpha   83.17696848
_cell_angle_beta   83.17696848
_cell_angle_gamma   83.22048728
_symmetry_Int_Tables_number   1
_chemical_formula_structural   Mg(ClO3)2
_chemical_formula_sum   'Mg1 Cl2 O6'
_cell_volume   253.59821742
_cell_formula_units_Z   1
loop_
 _symmetry_equiv_pos_site_id
 _symmetry_equiv_pos_as_xyz
  1  'x, y, z'
loop_
 _atom_site_type_symbol
 _atom_site_label
 _atom_site_symmetry_multiplicity
 _atom_site_fract_x
 _atom_site_fract_y
 _atom_site_fract_z
 _atom_site_occupancy
  Mg  Mg0  1  0.00000000  0.00000000  0.00000000  1
  Cl  Cl1  1  0.83753900  0.83753900  0.30145300  1
  Cl  Cl2  1  0.16246100  0.16246100  0.69854700  1
  O  O3  1  0.65535500  0.65535500  0.85021500  1
  O  O4  1  0.34464500  0.34464500  0.14978500  1
  O  O5  1  0.48191300  0.73212300  0.78561200  1
  O  O6  1  0.73212300  0.48191300  0.78561200  1
  O  O7  1  0.51808700  0.26787700  0.21438800  1
  O  O8  1  0.26787700  0.51808700  0.21438800  1
