# generated using pymatgen
data_Ca4Mg4Fe3
_symmetry_space_group_name_H-M   'P 1'
_cell_length_a   6.67269600
_cell_length_b   6.67269600
_cell_length_c   6.67269600
_cell_angle_alpha   90.00000000
_cell_angle_beta   90.00000000
_cell_angle_gamma   90.00000000
_symmetry_Int_Tables_number   1
_chemical_formula_structural   Ca4Mg4Fe3
_chemical_formula_sum   'Ca4 Mg4 Fe3'
_cell_volume   297.10093468
_cell_formula_units_Z   1
loop_
 _symmetry_equiv_pos_site_id
 _symmetry_equiv_pos_as_xyz
  1  'x, y, z'
loop_
 _atom_site_type_symbol
 _atom_site_label
 _atom_site_symmetry_multiplicity
 _atom_site_fract_x
 _atom_site_fract_y
 _atom_site_fract_z
 _atom_site_occupancy
  Ca  Ca0  1  0.29457600  0.29457600  0.70542400  1
  Ca  Ca1  1  0.29457600  0.70542400  0.29457600  1
  Ca  Ca2  1  0.70542400  0.29457600  0.29457600  1
  Ca  Ca3  1  0.70542400  0.70542400  0.70542400  1
  Mg  Mg4  1  0.81468800  0.81468800  0.18531200  1
  Mg  Mg5  1  0.81468800  0.18531200  0.81468800  1
  Mg  Mg6  1  0.18531200  0.81468800  0.81468800  1
  Mg  Mg7  1  0.18531200  0.18531200  0.18531200  1
  Fe  Fe8  1  0.00000000  0.00000000  0.50000000  1
  Fe  Fe9  1  0.00000000  0.50000000  0.00000000  1
  Fe  Fe10  1  0.50000000  0.00000000  0.00000000  1
