# generated using pymatgen
data_Bi
_symmetry_space_group_name_H-M   'P 1'
_cell_length_a   6.50229786
_cell_length_b   6.50229838
_cell_length_c   6.90393100
_cell_angle_alpha   90.00000000
_cell_angle_beta   90.00000000
_cell_angle_gamma   116.86324367
_symmetry_Int_Tables_number   1
_chemical_formula_structural   Bi
_chemical_formula_sum   Bi8
_cell_volume   260.39803053
_cell_formula_units_Z   8
loop_
 _symmetry_equiv_pos_site_id
 _symmetry_equiv_pos_as_xyz
  1  'x, y, z'
loop_
 _atom_site_type_symbol
 _atom_site_label
 _atom_site_symmetry_multiplicity
 _atom_site_fract_x
 _atom_site_fract_y
 _atom_site_fract_z
 _atom_site_occupancy
  Bi  Bi0  1  0.70399600  0.29600400  0.50000000  1
  Bi  Bi1  1  0.20399600  0.79600400  0.00000000  1
  Bi  Bi2  1  0.29600400  0.70399600  0.50000000  1
  Bi  Bi3  1  0.79600400  0.20399600  0.00000000  1
  Bi  Bi4  1  0.33311300  0.33311300  0.83303300  1
  Bi  Bi5  1  0.66688700  0.66688700  0.16696700  1
  Bi  Bi6  1  0.16688700  0.16688700  0.33303300  1
  Bi  Bi7  1  0.83311300  0.83311300  0.66696700  1
