# generated using pymatgen
data_LaClO2
_symmetry_space_group_name_H-M   'P 1'
_cell_length_a   3.57494000
_cell_length_b   6.86866100
_cell_length_c   7.07955431
_cell_angle_alpha   80.29994018
_cell_angle_beta   90.00000000
_cell_angle_gamma   90.00000000
_symmetry_Int_Tables_number   1
_chemical_formula_structural   LaClO2
_chemical_formula_sum   'La2 Cl2 O4'
_cell_volume   171.35349428
_cell_formula_units_Z   2
loop_
 _symmetry_equiv_pos_site_id
 _symmetry_equiv_pos_as_xyz
  1  'x, y, z'
loop_
 _atom_site_type_symbol
 _atom_site_label
 _atom_site_symmetry_multiplicity
 _atom_site_fract_x
 _atom_site_fract_y
 _atom_site_fract_z
 _atom_site_occupancy
  La  La0  1  0.00000000  0.86771500  0.28809100  1
  La  La1  1  0.00000000  0.13228500  0.71190900  1
  Cl  Cl2  1  0.50000000  0.56171900  0.24896100  1
  Cl  Cl3  1  0.50000000  0.43828100  0.75103900  1
  O  O4  1  0.50000000  0.03934200  0.09156800  1
  O  O5  1  0.50000000  0.96065800  0.90843200  1
  O  O6  1  0.50000000  0.89092700  0.54042400  1
  O  O7  1  0.50000000  0.10907300  0.45957600  1
