data_image0
_chemical_formula_structural       Ba6Nb4O18Sr2
_chemical_formula_sum              "Ba6 Nb4 O18 Sr2"
_cell_length_a       5.99553
_cell_length_b       5.99537
_cell_length_c       15.5343
_cell_angle_alpha    90.0006
_cell_angle_beta     90.0069
_cell_angle_gamma    120.022

_space_group_name_H-M_alt    "P 1"
_space_group_IT_number       1

loop_
  _space_group_symop_operation_xyz
  'x, y, z'

loop_
  _atom_site_type_symbol
  _atom_site_label
  _atom_site_symmetry_multiplicity
  _atom_site_fract_x
  _atom_site_fract_y
  _atom_site_fract_z
  _atom_site_occupancy
  Ba  Ba1       1.0  0.33300  0.66700  0.88100  1.0000
  Ba  Ba2       1.0  0.66700  0.33300  0.38100  1.0000
  Ba  Ba3       1.0  0.66700  0.33300  0.11900  1.0000
  Ba  Ba4       1.0  0.33300  0.66700  0.61900  1.0000
  Ba  Ba5       1.0  0.00000  0.00000  0.25000  1.0000
  Ba  Ba6       1.0  0.00000  0.00000  0.75000  1.0000
  Nb  Nb1       1.0  0.33300  0.66700  0.15500  1.0000
  Nb  Nb2       1.0  0.66700  0.33300  0.65500  1.0000
  Nb  Nb3       1.0  0.66700  0.33300  0.84500  1.0000
  Nb  Nb4       1.0  0.33300  0.66700  0.34500  1.0000
  O   O1        1.0  0.17100  0.34300  0.40000  1.0000
  O   O2        1.0  0.82900  0.65700  0.90000  1.0000
  O   O3        1.0  0.65700  0.82900  0.40000  1.0000
  O   O4        1.0  0.17200  0.82800  0.40000  1.0000
  O   O5        1.0  0.82800  0.17200  0.90000  1.0000
  O   O6        1.0  0.34300  0.17100  0.90000  1.0000
  O   O7        1.0  0.82900  0.65700  0.60000  1.0000
  O   O8        1.0  0.82800  0.17200  0.60000  1.0000
  O   O9        1.0  0.34300  0.17100  0.60000  1.0000
  O   O10       1.0  0.65700  0.82900  0.09970  1.0000
  O   O11       1.0  0.17200  0.82800  0.09950  1.0000
  O   O12       1.0  0.17100  0.34300  0.09970  1.0000
  O   O13       1.0  0.48700  0.97400  0.25000  1.0000
  O   O14       1.0  0.51300  0.02630  0.75000  1.0000
  O   O15       1.0  0.02630  0.51300  0.25000  1.0000
  O   O16       1.0  0.48700  0.51300  0.25000  1.0000
  O   O17       1.0  0.51300  0.48700  0.75000  1.0000
  O   O18       1.0  0.97400  0.48700  0.75000  1.0000
  Sr  Sr1       1.0  0.00000  0.00004  0.00001  1.0000
  Sr  Sr2       1.0  0.00003  0.00000  0.50000  1.0000
