# generated using pymatgen
data_TmNiGe3
_symmetry_space_group_name_H-M   'P 1'
_cell_length_a   10.96786337
_cell_length_b   10.96786337
_cell_length_c   4.05334800
_cell_angle_alpha   90.00000000
_cell_angle_beta   90.00000000
_cell_angle_gamma   158.54678117
_symmetry_Int_Tables_number   1
_chemical_formula_structural   TmNiGe3
_chemical_formula_sum   'Tm2 Ni2 Ge6'
_cell_volume   178.33316445
_cell_formula_units_Z   2
loop_
 _symmetry_equiv_pos_site_id
 _symmetry_equiv_pos_as_xyz
  1  'x, y, z'
loop_
 _atom_site_type_symbol
 _atom_site_label
 _atom_site_symmetry_multiplicity
 _atom_site_fract_x
 _atom_site_fract_y
 _atom_site_fract_z
 _atom_site_occupancy
  Tm  Tm0  1  0.16905900  0.83094100  0.50000000  1
  Tm  Tm1  1  0.83094100  0.16905900  0.50000000  1
  Ni  Ni2  1  0.38837800  0.61162200  0.00000000  1
  Ni  Ni3  1  0.61162200  0.38837800  0.00000000  1
  Ge  Ge4  1  0.28292700  0.71707300  0.00000000  1
  Ge  Ge5  1  0.71707300  0.28292700  0.00000000  1
  Ge  Ge6  1  0.44266300  0.55733700  0.50000000  1
  Ge  Ge7  1  0.55733700  0.44266300  0.50000000  1
  Ge  Ge8  1  0.05757500  0.94242500  0.00000000  1
  Ge  Ge9  1  0.94242500  0.05757500  0.00000000  1
