# generated using pymatgen
data_CeAl2Pt
_symmetry_space_group_name_H-M   'P 1'
_cell_length_a   5.73193471
_cell_length_b   5.73193471
_cell_length_c   7.04025900
_cell_angle_alpha   90.00000000
_cell_angle_beta   90.00000000
_cell_angle_gamma   136.20794238
_symmetry_Int_Tables_number   1
_chemical_formula_structural   CeAl2Pt
_chemical_formula_sum   'Ce2 Al4 Pt2'
_cell_volume   160.07527615
_cell_formula_units_Z   2
loop_
 _symmetry_equiv_pos_site_id
 _symmetry_equiv_pos_as_xyz
  1  'x, y, z'
loop_
 _atom_site_type_symbol
 _atom_site_label
 _atom_site_symmetry_multiplicity
 _atom_site_fract_x
 _atom_site_fract_y
 _atom_site_fract_z
 _atom_site_occupancy
  Ce  Ce0  1  0.56566500  0.43433500  0.25000000  1
  Ce  Ce1  1  0.43433500  0.56566500  0.75000000  1
  Al  Al2  1  0.84804800  0.15195200  0.44480700  1
  Al  Al3  1  0.15195200  0.84804800  0.55519300  1
  Al  Al4  1  0.84804800  0.15195200  0.05519300  1
  Al  Al5  1  0.15195200  0.84804800  0.94480700  1
  Pt  Pt6  1  0.28555900  0.71444100  0.25000000  1
  Pt  Pt7  1  0.71444100  0.28555900  0.75000000  1
