# generated using pymatgen
data_SmInCo2
_symmetry_space_group_name_H-M   'P 1'
_cell_length_a   4.03961700
_cell_length_b   5.05455500
_cell_length_c   7.19050300
_cell_angle_alpha   90.00000000
_cell_angle_beta   90.00000000
_cell_angle_gamma   90.00000000
_symmetry_Int_Tables_number   1
_chemical_formula_structural   SmInCo2
_chemical_formula_sum   'Sm2 In2 Co4'
_cell_volume   146.81904322
_cell_formula_units_Z   2
loop_
 _symmetry_equiv_pos_site_id
 _symmetry_equiv_pos_as_xyz
  1  'x, y, z'
loop_
 _atom_site_type_symbol
 _atom_site_label
 _atom_site_symmetry_multiplicity
 _atom_site_fract_x
 _atom_site_fract_y
 _atom_site_fract_z
 _atom_site_occupancy
  Sm  Sm0  1  0.50000000  0.75000000  0.71740400  1
  Sm  Sm1  1  0.50000000  0.25000000  0.28259600  1
  In  In2  1  0.00000000  0.75000000  0.34669900  1
  In  In3  1  0.00000000  0.25000000  0.65330100  1
  Co  Co4  1  0.00000000  0.00000000  0.00000000  1
  Co  Co5  1  0.00000000  0.50000000  0.00000000  1
  Co  Co6  1  0.50000000  0.75000000  0.09097700  1
  Co  Co7  1  0.50000000  0.25000000  0.90902300  1
