# generated using pymatgen
data_TbAl4
_symmetry_space_group_name_H-M   'P 1'
_cell_length_a   7.86599472
_cell_length_b   7.86599472
_cell_length_c   7.86599472
_cell_angle_alpha   147.14917595
_cell_angle_beta   132.78531618
_cell_angle_gamma   58.71207710
_symmetry_Int_Tables_number   1
_chemical_formula_structural   TbAl4
_chemical_formula_sum   'Tb2 Al8'
_cell_volume   192.14452296
_cell_formula_units_Z   2
loop_
 _symmetry_equiv_pos_site_id
 _symmetry_equiv_pos_as_xyz
  1  'x, y, z'
loop_
 _atom_site_type_symbol
 _atom_site_label
 _atom_site_symmetry_multiplicity
 _atom_site_fract_x
 _atom_site_fract_y
 _atom_site_fract_z
 _atom_site_occupancy
  Tb  Tb0  1  0.63690600  0.88690600  0.75000000  1
  Tb  Tb1  1  0.36309400  0.11309400  0.25000000  1
  Al  Al2  1  0.00000000  0.50000000  0.50000000  1
  Al  Al3  1  0.50000000  0.50000000  0.00000000  1
  Al  Al4  1  0.86219100  0.11219100  0.75000000  1
  Al  Al5  1  0.13780900  0.88780900  0.25000000  1
  Al  Al6  1  0.16351900  0.69836900  0.46515000  1
  Al  Al7  1  0.83648100  0.30163100  0.53485000  1
  Al  Al8  1  0.26678100  0.30163100  0.96515000  1
  Al  Al9  1  0.73321900  0.69836900  0.03485000  1
