# generated using pymatgen
data_HoAgSe2
_symmetry_space_group_name_H-M   'P 1'
_cell_length_a   7.45213263
_cell_length_b   7.45213263
_cell_length_c   7.45213263
_cell_angle_alpha   135.33669758
_cell_angle_beta   135.33669758
_cell_angle_gamma   65.00749539
_symmetry_Int_Tables_number   1
_chemical_formula_structural   HoAgSe2
_chemical_formula_sum   'Ho2 Ag2 Se4'
_cell_volume   201.56031955
_cell_formula_units_Z   2
loop_
 _symmetry_equiv_pos_site_id
 _symmetry_equiv_pos_as_xyz
  1  'x, y, z'
loop_
 _atom_site_type_symbol
 _atom_site_label
 _atom_site_symmetry_multiplicity
 _atom_site_fract_x
 _atom_site_fract_y
 _atom_site_fract_z
 _atom_site_occupancy
  Ho  Ho0  1  0.75103200  0.25103200  0.50000000  1
  Ho  Ho1  1  0.00103200  0.00103200  0.00000000  1
  Ag  Ag2  1  0.29113400  0.79113400  0.50000000  1
  Ag  Ag3  1  0.54113400  0.54113400  0.00000000  1
  Se  Se4  1  0.97768200  0.47768200  0.50000000  1
  Se  Se5  1  0.22768200  0.22768200  0.00000000  1
  Se  Se6  1  0.52015100  0.02015100  0.50000000  1
  Se  Se7  1  0.77015100  0.77015100  0.00000000  1
