# generated using pymatgen
data_YbPd
_symmetry_space_group_name_H-M   'P 1'
_cell_length_a   4.40851600
_cell_length_b   5.63364700
_cell_length_c   7.16340200
_cell_angle_alpha   90.00000000
_cell_angle_beta   90.00000000
_cell_angle_gamma   90.00000000
_symmetry_Int_Tables_number   1
_chemical_formula_structural   YbPd
_chemical_formula_sum   'Yb4 Pd4'
_cell_volume   177.91041639
_cell_formula_units_Z   4
loop_
 _symmetry_equiv_pos_site_id
 _symmetry_equiv_pos_as_xyz
  1  'x, y, z'
loop_
 _atom_site_type_symbol
 _atom_site_label
 _atom_site_symmetry_multiplicity
 _atom_site_fract_x
 _atom_site_fract_y
 _atom_site_fract_z
 _atom_site_occupancy
  Yb  Yb0  1  0.25000000  0.36499500  0.68001200  1
  Yb  Yb1  1  0.25000000  0.13500500  0.18001200  1
  Yb  Yb2  1  0.75000000  0.63500500  0.31998800  1
  Yb  Yb3  1  0.75000000  0.86499500  0.81998800  1
  Pd  Pd4  1  0.25000000  0.85506400  0.54110400  1
  Pd  Pd5  1  0.25000000  0.64493600  0.04110400  1
  Pd  Pd6  1  0.75000000  0.14493600  0.45889600  1
  Pd  Pd7  1  0.75000000  0.35506400  0.95889600  1
