data_image0
_chemical_formula_structural       Ba6O18Sr2Ta4
_chemical_formula_sum              "Ba6 O18 Sr2 Ta4"
_cell_length_a       5.99041
_cell_length_b       5.99048
_cell_length_c       15.4806
_cell_angle_alpha    89.991
_cell_angle_beta     90.0134
_cell_angle_gamma    119.997

_space_group_name_H-M_alt    "P 1"
_space_group_IT_number       1

loop_
  _space_group_symop_operation_xyz
  'x, y, z'

loop_
  _atom_site_type_symbol
  _atom_site_label
  _atom_site_symmetry_multiplicity
  _atom_site_fract_x
  _atom_site_fract_y
  _atom_site_fract_z
  _atom_site_occupancy
  Ba  Ba1       1.0  0.33300  0.66700  0.88300  1.0000
  Ba  Ba2       1.0  0.66700  0.33300  0.38300  1.0000
  Ba  Ba3       1.0  0.66700  0.33300  0.11700  1.0000
  Ba  Ba4       1.0  0.33300  0.66700  0.61700  1.0000
  Ba  Ba5       1.0  1.00000  1.00000  0.25000  1.0000
  Ba  Ba6       1.0  0.00000  0.00000  0.75000  1.0000
  O   O1        1.0  0.17200  0.34500  0.40100  1.0000
  O   O2        1.0  0.82800  0.65500  0.90100  1.0000
  O   O3        1.0  0.65500  0.82800  0.40100  1.0000
  O   O4        1.0  0.17300  0.82700  0.40100  1.0000
  O   O5        1.0  0.82700  0.17300  0.90100  1.0000
  O   O6        1.0  0.34500  0.17200  0.90100  1.0000
  O   O7        1.0  0.82800  0.65500  0.59900  1.0000
  O   O8        1.0  0.82700  0.17300  0.59900  1.0000
  O   O9        1.0  0.34500  0.17200  0.59900  1.0000
  O   O10       1.0  0.65500  0.82800  0.09900  1.0000
  O   O11       1.0  0.17300  0.82700  0.09890  1.0000
  O   O12       1.0  0.17200  0.34500  0.09900  1.0000
  O   O13       1.0  0.48500  0.97000  0.25000  1.0000
  O   O14       1.0  0.51500  0.03030  0.75000  1.0000
  O   O15       1.0  0.03030  0.51500  0.25000  1.0000
  O   O16       1.0  0.48500  0.51500  0.25000  1.0000
  O   O17       1.0  0.51500  0.48500  0.75000  1.0000
  O   O18       1.0  0.97000  0.48500  0.75000  1.0000
  Sr  Sr1       1.0  1.00000  1.00000  0.00002  1.0000
  Sr  Sr2       1.0  0.00006  0.00005  0.50000  1.0000
  Ta  Ta1       1.0  0.33300  0.66700  0.15600  1.0000
  Ta  Ta2       1.0  0.66700  0.33300  0.65600  1.0000
  Ta  Ta3       1.0  0.66700  0.33300  0.84400  1.0000
  Ta  Ta4       1.0  0.33300  0.66700  0.34400  1.0000
