# generated using pymatgen
data_UFeSe3
_symmetry_space_group_name_H-M   'P 1'
_cell_length_a   6.30360051
_cell_length_b   6.30360051
_cell_length_c   9.18706500
_cell_angle_alpha   90.00000000
_cell_angle_beta   90.00000000
_cell_angle_gamma   144.19645311
_symmetry_Int_Tables_number   1
_chemical_formula_structural   UFeSe3
_chemical_formula_sum   'U2 Fe2 Se6'
_cell_volume   213.55801301
_cell_formula_units_Z   2
loop_
 _symmetry_equiv_pos_site_id
 _symmetry_equiv_pos_as_xyz
  1  'x, y, z'
loop_
 _atom_site_type_symbol
 _atom_site_label
 _atom_site_symmetry_multiplicity
 _atom_site_fract_x
 _atom_site_fract_y
 _atom_site_fract_z
 _atom_site_occupancy
  U  U0  1  0.24363200  0.75636800  0.25000000  1
  U  U1  1  0.75636800  0.24363200  0.75000000  1
  Fe  Fe2  1  0.00000000  0.00000000  0.50000000  1
  Fe  Fe3  1  0.00000000  0.00000000  0.00000000  1
  Se  Se4  1  0.64135500  0.35864500  0.44319900  1
  Se  Se5  1  0.35864500  0.64135500  0.55680100  1
  Se  Se6  1  0.64135500  0.35864500  0.05680100  1
  Se  Se7  1  0.35864500  0.64135500  0.94319900  1
  Se  Se8  1  0.91870300  0.08129700  0.25000000  1
  Se  Se9  1  0.08129700  0.91870300  0.75000000  1
