# generated using pymatgen
data_Cs3Hg20
_symmetry_space_group_name_H-M   'P 1'
_cell_length_a   11.65423000
_cell_length_b   11.65423000
_cell_length_c   11.65423000
_cell_angle_alpha   90.00000000
_cell_angle_beta   90.00000000
_cell_angle_gamma   90.00000000
_symmetry_Int_Tables_number   1
_chemical_formula_structural   Cs3Hg20
_chemical_formula_sum   'Cs6 Hg40'
_cell_volume   1582.89006896
_cell_formula_units_Z   2
loop_
 _symmetry_equiv_pos_site_id
 _symmetry_equiv_pos_as_xyz
  1  'x, y, z'
loop_
 _atom_site_type_symbol
 _atom_site_label
 _atom_site_symmetry_multiplicity
 _atom_site_fract_x
 _atom_site_fract_y
 _atom_site_fract_z
 _atom_site_occupancy
  Cs  Cs0  1  0.00000000  0.25000000  0.50000000  1
  Cs  Cs1  1  0.00000000  0.75000000  0.50000000  1
  Cs  Cs2  1  0.50000000  0.00000000  0.75000000  1
  Cs  Cs3  1  0.50000000  0.00000000  0.25000000  1
  Cs  Cs4  1  0.75000000  0.50000000  0.00000000  1
  Cs  Cs5  1  0.25000000  0.50000000  0.00000000  1
  Hg  Hg6  1  0.50000000  0.63459400  0.75498000  1
  Hg  Hg7  1  0.36540600  0.75498000  0.50000000  1
  Hg  Hg8  1  0.63459400  0.24502000  0.50000000  1
  Hg  Hg9  1  0.00000000  0.25498000  0.13459400  1
  Hg  Hg10  1  0.13459400  0.00000000  0.25498000  1
  Hg  Hg11  1  0.86540600  0.00000000  0.25498000  1
  Hg  Hg12  1  0.00000000  0.74502000  0.86540600  1
  Hg  Hg13  1  0.86540600  0.00000000  0.74502000  1
  Hg  Hg14  1  0.00000000  0.74502000  0.13459400  1
  Hg  Hg15  1  0.00000000  0.25498000  0.86540600  1
  Hg  Hg16  1  0.13459400  0.00000000  0.74502000  1
  Hg  Hg17  1  0.25498000  0.86540600  0.00000000  1
  Hg  Hg18  1  0.74502000  0.13459400  0.00000000  1
  Hg  Hg19  1  0.74502000  0.86540600  0.00000000  1
  Hg  Hg20  1  0.63459400  0.75498000  0.50000000  1
  Hg  Hg21  1  0.36540600  0.24502000  0.50000000  1
  Hg  Hg22  1  0.50000000  0.36540600  0.75498000  1
  Hg  Hg23  1  0.50000000  0.36540600  0.24502000  1
  Hg  Hg24  1  0.24502000  0.50000000  0.63459400  1
  Hg  Hg25  1  0.24502000  0.50000000  0.36540600  1
  Hg  Hg26  1  0.25000000  0.25000000  0.25000000  1
  Hg  Hg27  1  0.75000000  0.25000000  0.75000000  1
  Hg  Hg28  1  0.75000000  0.75000000  0.25000000  1
  Hg  Hg29  1  0.25000000  0.75000000  0.75000000  1
  Hg  Hg30  1  0.75000000  0.75000000  0.75000000  1
  Hg  Hg31  1  0.25000000  0.75000000  0.25000000  1
  Hg  Hg32  1  0.25000000  0.25000000  0.75000000  1
  Hg  Hg33  1  0.75000000  0.25000000  0.25000000  1
  Hg  Hg34  1  0.25000000  0.00000000  0.50000000  1
  Hg  Hg35  1  0.75000000  0.00000000  0.50000000  1
  Hg  Hg36  1  0.00000000  0.50000000  0.25000000  1
  Hg  Hg37  1  0.00000000  0.50000000  0.75000000  1
  Hg  Hg38  1  0.50000000  0.75000000  0.00000000  1
  Hg  Hg39  1  0.50000000  0.25000000  0.00000000  1
  Hg  Hg40  1  0.50000000  0.63459400  0.24502000  1
  Hg  Hg41  1  0.75498000  0.50000000  0.36540600  1
  Hg  Hg42  1  0.75498000  0.50000000  0.63459400  1
  Hg  Hg43  1  0.25498000  0.13459400  0.00000000  1
  Hg  Hg44  1  0.50000000  0.50000000  0.50000000  1
  Hg  Hg45  1  0.00000000  0.00000000  0.00000000  1
