# generated using pymatgen
data_V2H2O5
_symmetry_space_group_name_H-M   'P 1'
_cell_length_a   3.05965600
_cell_length_b   5.02108202
_cell_length_c   6.11408928
_cell_angle_alpha   90.49335994
_cell_angle_beta   104.49499669
_cell_angle_gamma   90.00032373
_symmetry_Int_Tables_number   1
_chemical_formula_structural   V2H2O5
_chemical_formula_sum   'V2 H2 O5'
_cell_volume   90.93601283
_cell_formula_units_Z   1
loop_
 _symmetry_equiv_pos_site_id
 _symmetry_equiv_pos_as_xyz
  1  'x, y, z'
loop_
 _atom_site_type_symbol
 _atom_site_label
 _atom_site_symmetry_multiplicity
 _atom_site_fract_x
 _atom_site_fract_y
 _atom_site_fract_z
 _atom_site_occupancy
  V  V0  1  0.85409900  0.60614200  0.70806100  1
  V  V1  1  0.14590100  0.39385800  0.29193900  1
  H  H2  1  0.64561800  0.94722700  0.29122400  1
  H  H3  1  0.35438200  0.05277300  0.70877600  1
  O  O4  1  0.00000000  0.50000000  0.00000000  1
  O  O5  1  0.68736000  0.63958900  0.37479800  1
  O  O6  1  0.31264100  0.36041100  0.62520200  1
  O  O7  1  0.36690000  0.85372600  0.73374600  1
  O  O8  1  0.63310000  0.14627300  0.26625400  1
