# generated using pymatgen
data_TmAgS2
_symmetry_space_group_name_H-M   'P 1'
_cell_length_a   7.09818871
_cell_length_b   7.09818871
_cell_length_c   7.09818871
_cell_angle_alpha   135.45288969
_cell_angle_beta   135.45288969
_cell_angle_gamma   64.82732007
_symmetry_Int_Tables_number   1
_chemical_formula_structural   TmAgS2
_chemical_formula_sum   'Tm2 Ag2 S4'
_cell_volume   173.49746152
_cell_formula_units_Z   2
loop_
 _symmetry_equiv_pos_site_id
 _symmetry_equiv_pos_as_xyz
  1  'x, y, z'
loop_
 _atom_site_type_symbol
 _atom_site_label
 _atom_site_symmetry_multiplicity
 _atom_site_fract_x
 _atom_site_fract_y
 _atom_site_fract_z
 _atom_site_occupancy
  Tm  Tm0  1  0.75384400  0.25384400  0.50000000  1
  Tm  Tm1  1  0.00384400  0.00384400  0.00000000  1
  Ag  Ag2  1  0.21889000  0.71889000  0.50000000  1
  Ag  Ag3  1  0.46889000  0.46889000  0.00000000  1
  S  S4  1  0.98260700  0.48260700  0.50000000  1
  S  S5  1  0.23260700  0.23260700  0.00000000  1
  S  S6  1  0.52916900  0.02916900  0.50000000  1
  S  S7  1  0.77916900  0.77916900  0.00000000  1
