# generated using pymatgen
data_TiCo3
_symmetry_space_group_name_H-M   'P 1'
_cell_length_a   4.13504000
_cell_length_b   5.13106004
_cell_length_c   5.13066508
_cell_angle_alpha   119.99359868
_cell_angle_beta   90.00000000
_cell_angle_gamma   90.00000000
_symmetry_Int_Tables_number   1
_chemical_formula_structural   TiCo3
_chemical_formula_sum   'Ti2 Co6'
_cell_volume   94.27990126
_cell_formula_units_Z   2
loop_
 _symmetry_equiv_pos_site_id
 _symmetry_equiv_pos_as_xyz
  1  'x, y, z'
loop_
 _atom_site_type_symbol
 _atom_site_label
 _atom_site_symmetry_multiplicity
 _atom_site_fract_x
 _atom_site_fract_y
 _atom_site_fract_z
 _atom_site_occupancy
  Ti  Ti0  1  0.75000000  0.66675500  0.33350000  1
  Ti  Ti1  1  0.25000000  0.33324500  0.66650000  1
  Co  Co2  1  0.75000000  0.16254200  0.32521200  1
  Co  Co3  1  0.75000000  0.16250000  0.83748000  1
  Co  Co4  1  0.75000000  0.67481400  0.83749900  1
  Co  Co5  1  0.25000000  0.83745800  0.67478800  1
  Co  Co6  1  0.25000000  0.83750000  0.16252000  1
  Co  Co7  1  0.25000000  0.32518600  0.16250100  1
