# generated using pymatgen
data_La2Co2Se2O3
_symmetry_space_group_name_H-M   'P 1'
_cell_length_a   9.72751472
_cell_length_b   9.72751472
_cell_length_c   9.72751472
_cell_angle_alpha   155.67103254
_cell_angle_beta   155.67103254
_cell_angle_gamma   34.67521575
_symmetry_Int_Tables_number   1
_chemical_formula_structural   La2Co2Se2O3
_chemical_formula_sum   'La2 Co2 Se2 O3'
_cell_volume   156.05520783
_cell_formula_units_Z   1
loop_
 _symmetry_equiv_pos_site_id
 _symmetry_equiv_pos_as_xyz
  1  'x, y, z'
loop_
 _atom_site_type_symbol
 _atom_site_label
 _atom_site_symmetry_multiplicity
 _atom_site_fract_x
 _atom_site_fract_y
 _atom_site_fract_z
 _atom_site_occupancy
  La  La0  1  0.31575600  0.31575600  0.00000000  1
  La  La1  1  0.68424400  0.68424400  0.00000000  1
  Co  Co2  1  0.50000000  0.00000000  0.50000000  1
  Co  Co3  1  0.00000000  0.50000000  0.50000000  1
  Se  Se4  1  0.90448100  0.90448100  0.00000000  1
  Se  Se5  1  0.09551900  0.09551900  0.00000000  1
  O  O6  1  0.25000000  0.75000000  0.50000000  1
  O  O7  1  0.75000000  0.25000000  0.50000000  1
  O  O8  1  0.50000000  0.50000000  0.00000000  1
