# generated using pymatgen
data_BC7
_symmetry_space_group_name_H-M   'P 1'
_cell_length_a   8.64218426
_cell_length_b   8.64218426
_cell_length_c   8.64218456
_cell_angle_alpha   16.88418556
_cell_angle_beta   16.88418556
_cell_angle_gamma   16.88418495
_symmetry_Int_Tables_number   1
_chemical_formula_structural   BC7
_chemical_formula_sum   'B1 C7'
_cell_volume   47.49407120
_cell_formula_units_Z   1
loop_
 _symmetry_equiv_pos_site_id
 _symmetry_equiv_pos_as_xyz
  1  'x, y, z'
loop_
 _atom_site_type_symbol
 _atom_site_label
 _atom_site_symmetry_multiplicity
 _atom_site_fract_x
 _atom_site_fract_y
 _atom_site_fract_z
 _atom_site_occupancy
  B  B0  1  0.80237400  0.80237400  0.80237400  1
  C  C1  1  0.91078700  0.91078700  0.91078700  1
  C  C2  1  0.73918800  0.73918800  0.73918800  1
  C  C3  1  0.55621500  0.55621500  0.55621500  1
  C  C4  1  0.49722800  0.49722800  0.49722800  1
  C  C5  1  0.38544500  0.38544500  0.38544500  1
  C  C6  1  0.32480000  0.32480000  0.32480000  1
  C  C7  1  0.97114300  0.97114300  0.97114300  1
