# generated using pymatgen
data_Sn(CCl)2
_symmetry_space_group_name_H-M   'P 1'
_cell_length_a   7.59300596
_cell_length_b   7.59300596
_cell_length_c   7.59300596
_cell_angle_alpha   139.33135504
_cell_angle_beta   111.31134879
_cell_angle_gamma   82.99668038
_symmetry_Int_Tables_number   1
_chemical_formula_structural   Sn(CCl)2
_chemical_formula_sum   'Sn2 C4 Cl4'
_cell_volume   257.11427698
_cell_formula_units_Z   2
loop_
 _symmetry_equiv_pos_site_id
 _symmetry_equiv_pos_as_xyz
  1  'x, y, z'
loop_
 _atom_site_type_symbol
 _atom_site_label
 _atom_site_symmetry_multiplicity
 _atom_site_fract_x
 _atom_site_fract_y
 _atom_site_fract_z
 _atom_site_occupancy
  Sn  Sn0  1  0.80204100  0.25000000  0.55204100  1
  Sn  Sn1  1  0.19795900  0.75000000  0.44795900  1
  C  C2  1  0.50470300  0.62502600  0.62972900  1
  C  C3  1  0.49529700  0.12502600  0.12032300  1
  C  C4  1  0.49529700  0.37497400  0.37027100  1
  C  C5  1  0.50470300  0.87497400  0.87967700  1
  Cl  Cl6  1  0.18386600  0.42018400  0.76368200  1
  Cl  Cl7  1  0.81613400  0.57981600  0.23631800  1
  Cl  Cl8  1  0.15650300  0.92018400  0.23631800  1
  Cl  Cl9  1  0.84349700  0.07981600  0.76368200  1
