# generated using pymatgen
data_Sr2ZrTiO6
_symmetry_space_group_name_H-M   'P 1'
_cell_length_a   5.74935971
_cell_length_b   5.74935971
_cell_length_c   5.74935971
_cell_angle_alpha   120.33852865
_cell_angle_beta   120.33852865
_cell_angle_gamma   89.41464450
_symmetry_Int_Tables_number   1
_chemical_formula_structural   Sr2ZrTiO6
_chemical_formula_sum   'Sr2 Zr1 Ti1 O6'
_cell_volume   133.68754563
_cell_formula_units_Z   1
loop_
 _symmetry_equiv_pos_site_id
 _symmetry_equiv_pos_as_xyz
  1  'x, y, z'
loop_
 _atom_site_type_symbol
 _atom_site_label
 _atom_site_symmetry_multiplicity
 _atom_site_fract_x
 _atom_site_fract_y
 _atom_site_fract_z
 _atom_site_occupancy
  Sr  Sr0  1  0.25000000  0.75000000  0.50000000  1
  Sr  Sr1  1  0.75000000  0.25000000  0.50000000  1
  Zr  Zr2  1  0.50000000  0.50000000  0.00000000  1
  Ti  Ti3  1  0.00000000  0.00000000  0.00000000  1
  O  O4  1  0.75773800  0.75773800  0.00000000  1
  O  O5  1  0.24226200  0.24226200  0.00000000  1
  O  O6  1  0.27814300  0.79469300  0.07283600  1
  O  O7  1  0.72185700  0.20530700  0.92716400  1
  O  O8  1  0.79469300  0.72185700  0.51655000  1
  O  O9  1  0.20530700  0.27814300  0.48345000  1
