# generated using pymatgen
data_Pt(S3N)2
_symmetry_space_group_name_H-M   'P 1'
_cell_length_a   9.55921900
_cell_length_b   9.55921900
_cell_length_c   5.37536000
_cell_angle_alpha   90.00000000
_cell_angle_beta   90.00000000
_cell_angle_gamma   135.99140811
_symmetry_Int_Tables_number   1
_chemical_formula_structural   Pt(S3N)2
_chemical_formula_sum   'Pt1 S6 N2'
_cell_volume   341.26447414
_cell_formula_units_Z   1
loop_
 _symmetry_equiv_pos_site_id
 _symmetry_equiv_pos_as_xyz
  1  'x, y, z'
loop_
 _atom_site_type_symbol
 _atom_site_label
 _atom_site_symmetry_multiplicity
 _atom_site_fract_x
 _atom_site_fract_y
 _atom_site_fract_z
 _atom_site_occupancy
  Pt  Pt0  1  0.00000000  0.00000000  0.00000000  1
  S  S1  1  0.82282700  0.17717300  0.00000000  1
  S  S2  1  0.30624600  0.10829400  0.00000000  1
  S  S3  1  0.89170600  0.69375400  0.00000000  1
  S  S4  1  0.17717300  0.82282700  0.00000000  1
  S  S5  1  0.69375400  0.89170600  0.00000000  1
  S  S6  1  0.10829400  0.30624600  0.00000000  1
  N  N7  1  0.66559200  0.33440800  0.50000000  1
  N  N8  1  0.33440800  0.66559200  0.50000000  1
