# generated using pymatgen
data_Na2TiH4O5
_symmetry_space_group_name_H-M   'P 1'
_cell_length_a   3.05246400
_cell_length_b   4.15769000
_cell_length_c   11.37732919
_cell_angle_alpha   100.52812690
_cell_angle_beta   97.70928483
_cell_angle_gamma   90.00000000
_symmetry_Int_Tables_number   1
_chemical_formula_structural   Na2TiH4O5
_chemical_formula_sum   'Na2 Ti1 H4 O5'
_cell_volume   140.63351183
_cell_formula_units_Z   1
loop_
 _symmetry_equiv_pos_site_id
 _symmetry_equiv_pos_as_xyz
  1  'x, y, z'
loop_
 _atom_site_type_symbol
 _atom_site_label
 _atom_site_symmetry_multiplicity
 _atom_site_fract_x
 _atom_site_fract_y
 _atom_site_fract_z
 _atom_site_occupancy
  Na  Na0  1  0.58711900  0.58711900  0.17423800  1
  Na  Na1  1  0.41288100  0.41288100  0.82576200  1
  Ti  Ti2  1  0.00000000  0.00000000  0.00000000  1
  H  H3  1  0.79630100  0.11027400  0.59260300  1
  H  H4  1  0.79630100  0.48232800  0.59260300  1
  H  H5  1  0.20369900  0.51767200  0.40739700  1
  H  H6  1  0.20369900  0.88972600  0.40739700  1
  O  O7  1  0.55770100  0.05770100  0.11540200  1
  O  O8  1  0.44229900  0.94229900  0.88459800  1
  O  O9  1  0.00000000  0.50000000  0.00000000  1
  O  O10  1  0.17652400  0.67652400  0.35304700  1
  O  O11  1  0.82347600  0.32347600  0.64695300  1
