# generated using pymatgen
data_Ti3N4
_symmetry_space_group_name_H-M   'P 1'
_cell_length_a   8.53460497
_cell_length_b   8.53460497
_cell_length_c   6.33302400
_cell_angle_alpha   90.00000000
_cell_angle_beta   90.00000000
_cell_angle_gamma   120.00000755
_symmetry_Int_Tables_number   1
_chemical_formula_structural   Ti3N4
_chemical_formula_sum   'Ti12 N16'
_cell_volume   399.49245508
_cell_formula_units_Z   4
loop_
 _symmetry_equiv_pos_site_id
 _symmetry_equiv_pos_as_xyz
  1  'x, y, z'
loop_
 _atom_site_type_symbol
 _atom_site_label
 _atom_site_symmetry_multiplicity
 _atom_site_fract_x
 _atom_site_fract_y
 _atom_site_fract_z
 _atom_site_occupancy
  Ti  Ti0  1  0.91499300  0.42007400  0.19115200  1
  Ti  Ti1  1  0.57992600  0.49491900  0.19115200  1
  Ti  Ti2  1  0.50508100  0.08500700  0.19115200  1
  Ti  Ti3  1  0.42007400  0.91499300  0.69115200  1
  Ti  Ti4  1  0.49491900  0.57992600  0.69115200  1
  Ti  Ti5  1  0.08500700  0.50508100  0.69115200  1
  Ti  Ti6  1  0.74576200  0.91910600  0.97782300  1
  Ti  Ti7  1  0.08089400  0.82665600  0.97782300  1
  Ti  Ti8  1  0.17334400  0.25423800  0.97782300  1
  Ti  Ti9  1  0.91910600  0.74576200  0.47782300  1
  Ti  Ti10  1  0.82665600  0.08089400  0.47782300  1
  Ti  Ti11  1  0.25423800  0.17334400  0.47782300  1
  N  N12  1  0.00000000  0.00000000  0.96779200  1
  N  N13  1  0.00000000  0.00000000  0.46779200  1
  N  N14  1  0.66666700  0.33333300  0.12600100  1
  N  N15  1  0.33333300  0.66666700  0.62600100  1
  N  N16  1  0.33916600  0.95507000  0.96236300  1
  N  N17  1  0.04493000  0.38409700  0.96236300  1
  N  N18  1  0.61590300  0.66083400  0.96236300  1
  N  N19  1  0.95507000  0.33916600  0.46236300  1
  N  N20  1  0.38409700  0.04493000  0.46236300  1
  N  N21  1  0.66083400  0.61590300  0.46236300  1
  N  N22  1  0.68437500  0.01316000  0.22583100  1
  N  N23  1  0.98684000  0.67121500  0.22583100  1
  N  N24  1  0.32878500  0.31562500  0.22583100  1
  N  N25  1  0.01316000  0.68437500  0.72583100  1
  N  N26  1  0.67121500  0.98684000  0.72583100  1
  N  N27  1  0.31562500  0.32878500  0.72583100  1
