# generated using pymatgen
data_La2Al2Ge
_symmetry_space_group_name_H-M   'P 1'
_cell_length_a   13.73876166
_cell_length_b   13.73876166
_cell_length_c   4.59587500
_cell_angle_alpha   90.00000000
_cell_angle_beta   90.00000000
_cell_angle_gamma   162.69416336
_symmetry_Int_Tables_number   1
_chemical_formula_structural   La2Al2Ge
_chemical_formula_sum   'La4 Al4 Ge2'
_cell_volume   258.05345280
_cell_formula_units_Z   2
loop_
 _symmetry_equiv_pos_site_id
 _symmetry_equiv_pos_as_xyz
  1  'x, y, z'
loop_
 _atom_site_type_symbol
 _atom_site_label
 _atom_site_symmetry_multiplicity
 _atom_site_fract_x
 _atom_site_fract_y
 _atom_site_fract_z
 _atom_site_occupancy
  La  La0  1  0.20355700  0.79644300  0.75000000  1
  La  La1  1  0.79644300  0.20355700  0.25000000  1
  La  La2  1  0.57549400  0.42450600  0.75000000  1
  La  La3  1  0.42450600  0.57549400  0.25000000  1
  Al  Al4  1  0.88141800  0.11858200  0.75000000  1
  Al  Al5  1  0.11858200  0.88141800  0.25000000  1
  Al  Al6  1  0.97640100  0.02359900  0.75000000  1
  Al  Al7  1  0.02359900  0.97640100  0.25000000  1
  Ge  Ge8  1  0.32591200  0.67408800  0.75000000  1
  Ge  Ge9  1  0.67408800  0.32591200  0.25000000  1
