# generated using pymatgen
data_K
_symmetry_space_group_name_H-M   'P 1'
_cell_length_a   5.43192800
_cell_length_b   10.81724100
_cell_length_c   10.92195100
_cell_angle_alpha   90.00000000
_cell_angle_beta   90.00000000
_cell_angle_gamma   90.00000000
_symmetry_Int_Tables_number   1
_chemical_formula_structural   K
_chemical_formula_sum   K8
_cell_volume   641.75717682
_cell_formula_units_Z   8
loop_
 _symmetry_equiv_pos_site_id
 _symmetry_equiv_pos_as_xyz
  1  'x, y, z'
loop_
 _atom_site_type_symbol
 _atom_site_label
 _atom_site_symmetry_multiplicity
 _atom_site_fract_x
 _atom_site_fract_y
 _atom_site_fract_z
 _atom_site_occupancy
  K  K0  1  0.25000000  0.02985800  0.83872200  1
  K  K1  1  0.25000000  0.52985800  0.66127800  1
  K  K2  1  0.75000000  0.97014200  0.16127800  1
  K  K3  1  0.75000000  0.47014200  0.33872200  1
  K  K4  1  0.25000000  0.15366800  0.43235400  1
  K  K5  1  0.25000000  0.65366800  0.06764600  1
  K  K6  1  0.75000000  0.84633200  0.56764600  1
  K  K7  1  0.75000000  0.34633200  0.93235400  1
