# generated using pymatgen
data_Sr2ZnMoO6
_symmetry_space_group_name_H-M   'P 1'
_cell_length_a   5.69705132
_cell_length_b   5.69705132
_cell_length_c   5.69705132
_cell_angle_alpha   120.38143622
_cell_angle_beta   120.38143622
_cell_angle_gamma   89.34059307
_symmetry_Int_Tables_number   1
_chemical_formula_structural   Sr2ZnMoO6
_chemical_formula_sum   'Sr2 Zn1 Mo1 O6'
_cell_volume   129.98495521
_cell_formula_units_Z   1
loop_
 _symmetry_equiv_pos_site_id
 _symmetry_equiv_pos_as_xyz
  1  'x, y, z'
loop_
 _atom_site_type_symbol
 _atom_site_label
 _atom_site_symmetry_multiplicity
 _atom_site_fract_x
 _atom_site_fract_y
 _atom_site_fract_z
 _atom_site_occupancy
  Sr  Sr0  1  0.25000000  0.75000000  0.50000000  1
  Sr  Sr1  1  0.75000000  0.25000000  0.50000000  1
  Zn  Zn2  1  0.50000000  0.50000000  0.00000000  1
  Mo  Mo3  1  0.00000000  0.00000000  0.00000000  1
  O  O4  1  0.27828800  0.20080900  0.47909700  1
  O  O5  1  0.72171200  0.79919100  0.52090300  1
  O  O6  1  0.20080900  0.72171200  0.92252100  1
  O  O7  1  0.79919100  0.27828800  0.07747900  1
  O  O8  1  0.23980900  0.23980900  0.00000000  1
  O  O9  1  0.76019100  0.76019100  0.00000000  1
