# generated using pymatgen
data_CeSe2
_symmetry_space_group_name_H-M   'P 1'
_cell_length_a   8.70588339
_cell_length_b   8.70588339
_cell_length_c   9.55112100
_cell_angle_alpha   90.00000000
_cell_angle_beta   90.00000000
_cell_angle_gamma   119.99999535
_symmetry_Int_Tables_number   1
_chemical_formula_structural   CeSe2
_chemical_formula_sum   'Ce3 Se6'
_cell_volume   626.91792922
_cell_formula_units_Z   3
loop_
 _symmetry_equiv_pos_site_id
 _symmetry_equiv_pos_as_xyz
  1  'x, y, z'
loop_
 _atom_site_type_symbol
 _atom_site_label
 _atom_site_symmetry_multiplicity
 _atom_site_fract_x
 _atom_site_fract_y
 _atom_site_fract_z
 _atom_site_occupancy
  Ce  Ce0  1  0.50000000  0.50000000  0.83333300  1
  Ce  Ce1  1  0.50000000  0.00000000  0.50000000  1
  Ce  Ce2  1  0.00000000  0.50000000  0.16666700  1
  Se  Se3  1  0.23156300  0.76843700  0.33333300  1
  Se  Se4  1  0.23156300  0.46312500  0.00000000  1
  Se  Se5  1  0.53687500  0.76843700  0.66666700  1
  Se  Se6  1  0.76843700  0.23156300  0.33333300  1
  Se  Se7  1  0.76843700  0.53687500  0.00000000  1
  Se  Se8  1  0.46312500  0.23156300  0.66666700  1
