# generated using pymatgen
data_CeSe2
_symmetry_space_group_name_H-M   'P 1'
_cell_length_a   8.42936845
_cell_length_b   8.42936845
_cell_length_c   14.82705902
_cell_angle_alpha   68.07735531
_cell_angle_beta   68.07735531
_cell_angle_gamma   56.45798355
_symmetry_Int_Tables_number   1
_chemical_formula_structural   CeSe2
_chemical_formula_sum   'Ce4 Se8'
_cell_volume   795.35710496
_cell_formula_units_Z   4
loop_
 _symmetry_equiv_pos_site_id
 _symmetry_equiv_pos_as_xyz
  1  'x, y, z'
loop_
 _atom_site_type_symbol
 _atom_site_label
 _atom_site_symmetry_multiplicity
 _atom_site_fract_x
 _atom_site_fract_y
 _atom_site_fract_z
 _atom_site_occupancy
  Ce  Ce0  1  0.05934000  0.31588000  0.68749100  1
  Ce  Ce1  1  0.68412000  0.94066000  0.81250900  1
  Ce  Ce2  1  0.94066000  0.68412000  0.31250900  1
  Ce  Ce3  1  0.31588000  0.05934000  0.18749100  1
  Se  Se4  1  0.50000000  0.00000000  0.00000000  1
  Se  Se5  1  0.00000000  0.50000000  0.50000000  1
  Se  Se6  1  0.18845600  0.43221500  0.18933200  1
  Se  Se7  1  0.56778500  0.81154400  0.31066800  1
  Se  Se8  1  0.81154400  0.56778500  0.81066800  1
  Se  Se9  1  0.43221500  0.18845600  0.68933200  1
  Se  Se10  1  0.99201100  0.00798900  0.75000000  1
  Se  Se11  1  0.00798900  0.99201100  0.25000000  1
