# generated using pymatgen
data_CeSe2
_symmetry_space_group_name_H-M   'P 1'
_cell_length_a   14.24658459
_cell_length_b   22.16273713
_cell_length_c   22.16273711
_cell_angle_alpha   66.21634531
_cell_angle_beta   71.25187313
_cell_angle_gamma   71.25187300
_symmetry_Int_Tables_number   1
_chemical_formula_structural   CeSe2
_chemical_formula_sum   'Ce24 Se48'
_cell_volume   5913.29904927
_cell_formula_units_Z   24
loop_
 _symmetry_equiv_pos_site_id
 _symmetry_equiv_pos_as_xyz
  1  'x, y, z'
loop_
 _atom_site_type_symbol
 _atom_site_label
 _atom_site_symmetry_multiplicity
 _atom_site_fract_x
 _atom_site_fract_y
 _atom_site_fract_z
 _atom_site_occupancy
  Ce  Ce0  1  0.30925455  0.25987021  0.75987021  1
  Ce  Ce1  1  0.32899498  0.74012979  0.24012979  1
  Ce  Ce2  1  0.69074545  0.74012979  0.24012979  1
  Ce  Ce3  1  0.67100502  0.25987021  0.75987021  1
  Ce  Ce4  1  0.31548590  0.11882269  0.61882269  1
  Ce  Ce5  1  0.05313127  0.88117731  0.38117731  1
  Ce  Ce6  1  0.68451410  0.88117731  0.38117731  1
  Ce  Ce7  1  0.94686873  0.11882269  0.61882269  1
  Ce  Ce8  1  0.49050815  0.27047803  0.37517642  1
  Ce  Ce9  1  0.13616261  0.72952197  0.62482358  1
  Ce  Ce10  1  0.13616261  0.12482358  0.22952197  1
  Ce  Ce11  1  0.49050815  0.87517642  0.77047803  1
  Ce  Ce12  1  0.50949185  0.72952197  0.62482358  1
  Ce  Ce13  1  0.86383739  0.27047803  0.37517642  1
  Ce  Ce14  1  0.86383739  0.87517642  0.77047803  1
  Ce  Ce15  1  0.50949185  0.12482358  0.22952197  1
  Ce  Ce16  1  0.12359484  0.49305441  0.62661250  1
  Ce  Ce17  1  0.24326175  0.50694559  0.37338750  1
  Ce  Ce18  1  0.24326175  0.87338750  0.00694559  1
  Ce  Ce19  1  0.12359484  0.12661250  0.99305441  1
  Ce  Ce20  1  0.87640516  0.50694559  0.37338750  1
  Ce  Ce21  1  0.75673825  0.49305441  0.62661250  1
  Ce  Ce22  1  0.75673825  0.12661250  0.99305441  1
  Ce  Ce23  1  0.87640516  0.87338750  0.00694559  1
  Se  Se24  1  0.51629322  0.23370678  0.73370678  1
  Se  Se25  1  0.48370678  0.76629322  0.26629322  1
  Se  Se26  1  0.15298991  0.09701009  0.59701009  1
  Se  Se27  1  0.84701009  0.90298991  0.40298991  1
  Se  Se28  1  0.67057384  0.29881964  0.36003268  1
  Se  Se29  1  0.32942616  0.70118036  0.63996732  1
  Se  Se30  1  0.32942616  0.13996732  0.20118036  1
  Se  Se31  1  0.67057384  0.86003268  0.79881964  1
  Se  Se32  1  0.94800879  0.45621223  0.64777018  1
  Se  Se33  1  0.05199121  0.54378777  0.35222982  1
  Se  Se34  1  0.05199121  0.85222982  0.04378777  1
  Se  Se35  1  0.94800879  0.14777018  0.95621223  1
  Se  Se36  1  0.25009517  0.19806202  0.69806202  1
  Se  Se37  1  0.14621921  0.80193798  0.30193798  1
  Se  Se38  1  0.74990483  0.80193798  0.30193798  1
  Se  Se39  1  0.85378079  0.19806202  0.69806202  1
  Se  Se40  1  0.43342504  0.18135358  0.50000019  1
  Se  Se41  1  0.11477881  0.81864642  0.49999981  1
  Se  Se42  1  0.11477881  -0.00000019  0.31864642  1
  Se  Se43  1  0.43342504  0.00000019  0.68135358  1
  Se  Se44  1  0.56657496  0.81864642  0.49999981  1
  Se  Se45  1  0.88522119  0.18135358  0.50000019  1
  Se  Se46  1  0.88522119  0.00000019  0.68135358  1
  Se  Se47  1  0.56657496  -0.00000019  0.31864642  1
  Se  Se48  1  0.50000000  0.22081902  0.27918098  1
  Se  Se49  1  0.00000000  0.77918098  0.72081902  1
  Se  Se50  1  1.00000000  0.22081902  0.27918098  1
  Se  Se51  1  0.50000000  0.77918098  0.72081902  1
  Se  Se52  1  0.34178596  0.38507764  0.35736604  1
  Se  Se53  1  0.08422964  0.61492236  0.64263396  1
  Se  Se54  1  0.08422964  0.14263396  0.11492236  1
  Se  Se55  1  0.34178596  0.85736604  0.88507764  1
  Se  Se56  1  0.65821404  0.61492236  0.64263396  1
  Se  Se57  1  0.91577036  0.38507764  0.35736604  1
  Se  Se58  1  0.91577036  0.85736604  0.88507764  1
  Se  Se59  1  0.65821404  0.14263396  0.11492236  1
  Se  Se60  1  0.23538775  0.50000000  0.50000000  1
  Se  Se61  1  0.23538775  1.00000000  0.00000000  1
  Se  Se62  1  0.76461225  0.50000000  0.50000000  1
  Se  Se63  1  0.76461225  0.00000000  1.00000000  1
  Se  Se64  1  0.23693445  0.39631112  0.71424448  1
  Se  Se65  1  0.34749005  0.60368888  0.28575552  1
  Se  Se66  1  0.34749005  0.78575552  0.10368888  1
  Se  Se67  1  0.23693445  0.21424448  0.89631112  1
  Se  Se68  1  0.76306555  0.60368888  0.28575552  1
  Se  Se69  1  0.65250995  0.39631112  0.71424448  1
  Se  Se70  1  0.65250995  0.21424448  0.89631112  1
  Se  Se71  1  0.76306555  0.78575552  0.10368888  1
