# generated using pymatgen
data_CeSe2
_symmetry_space_group_name_H-M   'P 1'
_cell_length_a   8.02107029
_cell_length_b   8.02107029
_cell_length_c   8.02107029
_cell_angle_alpha   111.93520382
_cell_angle_beta   111.93520382
_cell_angle_gamma   104.64826251
_symmetry_Int_Tables_number   1
_chemical_formula_structural   CeSe2
_chemical_formula_sum   'Ce2 Se4'
_cell_volume   395.17264419
_cell_formula_units_Z   2
loop_
 _symmetry_equiv_pos_site_id
 _symmetry_equiv_pos_as_xyz
  1  'x, y, z'
loop_
 _atom_site_type_symbol
 _atom_site_label
 _atom_site_symmetry_multiplicity
 _atom_site_fract_x
 _atom_site_fract_y
 _atom_site_fract_z
 _atom_site_occupancy
  Ce  Ce0  1  0.75000000  0.25000000  0.50000000  1
  Ce  Ce1  1  0.00000000  0.00000000  0.00000000  1
  Se  Se2  1  0.77030600  0.12500000  0.14530600  1
  Se  Se3  1  0.97969400  0.62500000  0.85469400  1
  Se  Se4  1  0.37500000  0.22969400  0.35469400  1
  Se  Se5  1  0.87500000  0.02030600  0.64530600  1
