# generated using pymatgen
data_CeSe2
_symmetry_space_group_name_H-M   'P 1'
_cell_length_a   8.74405585
_cell_length_b   8.74405585
_cell_length_c   9.10089392
_cell_angle_alpha   83.42284518
_cell_angle_beta   83.42284518
_cell_angle_gamma   100.98344802
_symmetry_Int_Tables_number   1
_chemical_formula_structural   CeSe2
_chemical_formula_sum   'Ce4 Se8'
_cell_volume   671.93204540
_cell_formula_units_Z   4
loop_
 _symmetry_equiv_pos_site_id
 _symmetry_equiv_pos_as_xyz
  1  'x, y, z'
loop_
 _atom_site_type_symbol
 _atom_site_label
 _atom_site_symmetry_multiplicity
 _atom_site_fract_x
 _atom_site_fract_y
 _atom_site_fract_z
 _atom_site_occupancy
  Ce  Ce0  1  0.69074600  0.68970000  0.71609600  1
  Ce  Ce1  1  0.31030000  0.30925400  0.28390400  1
  Ce  Ce2  1  0.37090500  0.11840300  0.79351900  1
  Ce  Ce3  1  0.88159700  0.62909500  0.20648100  1
  Se  Se4  1  0.82594900  0.80331400  0.42918500  1
  Se  Se5  1  0.19668600  0.17405100  0.57081500  1
  Se  Se6  1  0.44115700  0.82855800  0.77335000  1
  Se  Se7  1  0.17144200  0.55884300  0.22665000  1
  Se  Se8  1  0.87991100  0.77414100  0.92418200  1
  Se  Se9  1  0.22585900  0.12008900  0.07581800  1
  Se  Se10  1  0.63284600  0.37961800  0.25482300  1
  Se  Se11  1  0.62038200  0.36715400  0.74517700  1
