# generated using pymatgen
data_CeSe2
_symmetry_space_group_name_H-M   'P 1'
_cell_length_a   8.16488000
_cell_length_b   11.81837976
_cell_length_c   11.83108098
_cell_angle_alpha   113.99729419
_cell_angle_beta   102.46726046
_cell_angle_gamma   102.78065000
_symmetry_Int_Tables_number   1
_chemical_formula_structural   CeSe2
_chemical_formula_sum   'Ce4 Se8'
_cell_volume   955.31612021
_cell_formula_units_Z   4
loop_
 _symmetry_equiv_pos_site_id
 _symmetry_equiv_pos_as_xyz
  1  'x, y, z'
loop_
 _atom_site_type_symbol
 _atom_site_label
 _atom_site_symmetry_multiplicity
 _atom_site_fract_x
 _atom_site_fract_y
 _atom_site_fract_z
 _atom_site_occupancy
  Ce  Ce0  1  0.56471500  0.46926800  0.85442700  1
  Ce  Ce1  1  0.18169700  0.36495800  0.43060400  1
  Ce  Ce2  1  0.17978400  0.71773700  0.83758900  1
  Ce  Ce3  1  0.55344300  0.22864500  0.12963700  1
  Se  Se4  1  0.67809700  0.35015800  0.99636800  1
  Se  Se5  1  0.17801100  0.60917000  0.58567900  1
  Se  Se6  1  0.38692700  0.62726800  0.96790400  1
  Se  Se7  1  0.30312800  0.98670700  0.95222600  1
  Se  Se8  1  0.39178900  0.37507500  0.28090600  1
  Se  Se9  1  0.83524600  0.20342400  0.27846800  1
  Se  Se10  1  0.33690000  0.29163500  0.60585600  1
  Se  Se11  1  0.84147100  0.63110400  0.83739600  1
