# generated using pymatgen
data_CeSe2
_symmetry_space_group_name_H-M   'P 1'
_cell_length_a   11.37398399
_cell_length_b   11.37398399
_cell_length_c   11.37398399
_cell_angle_alpha   130.67014671
_cell_angle_beta   130.67014671
_cell_angle_gamma   72.33767339
_symmetry_Int_Tables_number   1
_chemical_formula_structural   CeSe2
_chemical_formula_sum   'Ce4 Se8'
_cell_volume   827.45075206
_cell_formula_units_Z   4
loop_
 _symmetry_equiv_pos_site_id
 _symmetry_equiv_pos_as_xyz
  1  'x, y, z'
loop_
 _atom_site_type_symbol
 _atom_site_label
 _atom_site_symmetry_multiplicity
 _atom_site_fract_x
 _atom_site_fract_y
 _atom_site_fract_z
 _atom_site_occupancy
  Ce  Ce0  1  0.87500000  0.26361200  0.88861200  1
  Ce  Ce1  1  0.37500000  0.98638800  0.11138800  1
  Ce  Ce2  1  0.01361200  0.62500000  0.88861200  1
  Ce  Ce3  1  0.73638800  0.12500000  0.11138800  1
  Se  Se4  1  0.64044200  0.14044200  0.50000000  1
  Se  Se5  1  0.10955800  0.10955800  0.00000000  1
  Se  Se6  1  0.85955800  0.35955800  0.50000000  1
  Se  Se7  1  0.89044200  0.89044200  0.00000000  1
  Se  Se8  1  0.04101700  0.54101700  0.08203400  1
  Se  Se9  1  0.45898300  0.95898300  0.91796600  1
  Se  Se10  1  0.70898300  0.29101700  0.00000000  1
  Se  Se11  1  0.29101700  0.70898300  0.00000000  1
