# generated using pymatgen
data_CeSe2
_symmetry_space_group_name_H-M   'P 1'
_cell_length_a   18.11177935
_cell_length_b   18.11177935
_cell_length_c   18.11177935
_cell_angle_alpha   60.00000000
_cell_angle_beta   60.00000000
_cell_angle_gamma   60.00000000
_symmetry_Int_Tables_number   1
_chemical_formula_structural   CeSe2
_chemical_formula_sum   'Ce8 Se16'
_cell_volume   4201.15164761
_cell_formula_units_Z   8
loop_
 _symmetry_equiv_pos_site_id
 _symmetry_equiv_pos_as_xyz
  1  'x, y, z'
loop_
 _atom_site_type_symbol
 _atom_site_label
 _atom_site_symmetry_multiplicity
 _atom_site_fract_x
 _atom_site_fract_y
 _atom_site_fract_z
 _atom_site_occupancy
  Ce  Ce0  1  0.56357600  0.30927100  0.56357600  1
  Ce  Ce1  1  0.56357600  0.56357600  0.56357600  1
  Ce  Ce2  1  0.30927100  0.56357600  0.56357600  1
  Ce  Ce3  1  0.56357600  0.56357600  0.30927100  1
  Ce  Ce4  1  0.68642400  0.94072900  0.68642400  1
  Ce  Ce5  1  0.68642400  0.68642400  0.68642400  1
  Ce  Ce6  1  0.94072900  0.68642400  0.68642400  1
  Ce  Ce7  1  0.68642400  0.68642400  0.94072900  1
  Se  Se8  1  0.37947400  0.62052600  0.62052600  1
  Se  Se9  1  0.37947400  0.37947400  0.62052600  1
  Se  Se10  1  0.62052600  0.37947400  0.62052600  1
  Se  Se11  1  0.62052600  0.62052600  0.37947400  1
  Se  Se12  1  0.37947400  0.62052600  0.37947400  1
  Se  Se13  1  0.62052600  0.37947400  0.37947400  1
  Se  Se14  1  0.87052600  0.62947400  0.62947400  1
  Se  Se15  1  0.87052600  0.87052600  0.62947400  1
  Se  Se16  1  0.62947400  0.87052600  0.62947400  1
  Se  Se17  1  0.62947400  0.62947400  0.87052600  1
  Se  Se18  1  0.87052600  0.62947400  0.87052600  1
  Se  Se19  1  0.62947400  0.87052600  0.87052600  1
  Se  Se20  1  0.62500000  0.12500000  0.62500000  1
  Se  Se21  1  0.62500000  0.62500000  0.62500000  1
  Se  Se22  1  0.12500000  0.62500000  0.62500000  1
  Se  Se23  1  0.62500000  0.62500000  0.12500000  1
