# generated using pymatgen
data_CeSe2
_symmetry_space_group_name_H-M   'P 1'
_cell_length_a   12.96366853
_cell_length_b   12.96366853
_cell_length_c   12.96366853
_cell_angle_alpha   106.79238769
_cell_angle_beta   106.79238769
_cell_angle_gamma   114.97297867
_symmetry_Int_Tables_number   1
_chemical_formula_structural   CeSe2
_chemical_formula_sum   'Ce8 Se16'
_cell_volume   1665.40110409
_cell_formula_units_Z   8
loop_
 _symmetry_equiv_pos_site_id
 _symmetry_equiv_pos_as_xyz
  1  'x, y, z'
loop_
 _atom_site_type_symbol
 _atom_site_label
 _atom_site_symmetry_multiplicity
 _atom_site_fract_x
 _atom_site_fract_y
 _atom_site_fract_z
 _atom_site_occupancy
  Ce  Ce0  1  0.11961200  0.88637000  0.64155600  1
  Ce  Ce1  1  0.24481400  0.47805700  0.35844400  1
  Ce  Ce2  1  0.75518600  0.11363000  0.23324200  1
  Ce  Ce3  1  0.88038800  0.52194300  0.76675800  1
  Ce  Ce4  1  0.11363000  0.75518600  0.23324200  1
  Ce  Ce5  1  0.52194300  0.88038800  0.76675800  1
  Ce  Ce6  1  0.47805700  0.24481400  0.35844400  1
  Ce  Ce7  1  0.88637000  0.11961200  0.64155600  1
  Se  Se8  1  0.37230200  0.37230200  0.29084300  1
  Se  Se9  1  0.08145800  0.08145800  0.70915700  1
  Se  Se10  1  0.91854200  0.62769800  0.00000000  1
  Se  Se11  1  0.62769800  0.91854200  0.00000000  1
  Se  Se12  1  0.00000000  0.71550100  0.71550100  1
  Se  Se13  1  0.00000000  0.28449900  0.28449900  1
  Se  Se14  1  0.28449900  0.00000000  0.28449900  1
  Se  Se15  1  0.71550100  0.00000000  0.71550100  1
  Se  Se16  1  0.37714400  0.98344200  0.74605300  1
  Se  Se17  1  0.23738900  0.63109100  0.25394700  1
  Se  Se18  1  0.76261100  0.01655800  0.39370200  1
  Se  Se19  1  0.62285600  0.36890900  0.60629800  1
  Se  Se20  1  0.01655800  0.76261100  0.39370200  1
  Se  Se21  1  0.36890900  0.62285600  0.60629800  1
  Se  Se22  1  0.63109100  0.23738900  0.25394700  1
  Se  Se23  1  0.98344200  0.37714400  0.74605300  1
