# generated using pymatgen
data_CeSe2
_symmetry_space_group_name_H-M   'P 1'
_cell_length_a   12.30447232
_cell_length_b   12.30447232
_cell_length_c   14.76611546
_cell_angle_alpha   53.98209132
_cell_angle_beta   53.98209132
_cell_angle_gamma   39.08690094
_symmetry_Int_Tables_number   1
_chemical_formula_structural   CeSe2
_chemical_formula_sum   'Ce6 Se12'
_cell_volume   1101.46025866
_cell_formula_units_Z   6
loop_
 _symmetry_equiv_pos_site_id
 _symmetry_equiv_pos_as_xyz
  1  'x, y, z'
loop_
 _atom_site_type_symbol
 _atom_site_label
 _atom_site_symmetry_multiplicity
 _atom_site_fract_x
 _atom_site_fract_y
 _atom_site_fract_z
 _atom_site_occupancy
  Ce  Ce0  1  0.01210100  0.98789900  0.25000000  1
  Ce  Ce1  1  0.98789900  0.01210100  0.75000000  1
  Ce  Ce2  1  0.57872900  0.08605400  0.65720300  1
  Ce  Ce3  1  0.91394600  0.42127100  0.84279700  1
  Ce  Ce4  1  0.42127100  0.91394600  0.34279700  1
  Ce  Ce5  1  0.08605400  0.57872900  0.15720300  1
  Se  Se6  1  0.64804100  0.78070900  0.81625700  1
  Se  Se7  1  0.21929100  0.35195900  0.68374300  1
  Se  Se8  1  0.35195900  0.21929100  0.18374300  1
  Se  Se9  1  0.78070900  0.64804100  0.31625700  1
  Se  Se10  1  0.71955900  0.07134400  0.43401500  1
  Se  Se11  1  0.92865600  0.28044100  0.06598500  1
  Se  Se12  1  0.28044100  0.92865600  0.56598500  1
  Se  Se13  1  0.07134400  0.71955900  0.93401500  1
  Se  Se14  1  0.71335300  0.13864200  0.70769200  1
  Se  Se15  1  0.86135800  0.28664700  0.79230800  1
  Se  Se16  1  0.28664700  0.86135800  0.29230800  1
  Se  Se17  1  0.13864200  0.71335300  0.20769200  1
