# generated using pymatgen
data_CeSe2
_symmetry_space_group_name_H-M   'P 1'
_cell_length_a   8.72743500
_cell_length_b   19.16624200
_cell_length_c   19.29961700
_cell_angle_alpha   90.00000000
_cell_angle_beta   90.00000000
_cell_angle_gamma   90.00000000
_symmetry_Int_Tables_number   1
_chemical_formula_structural   CeSe2
_chemical_formula_sum   'Ce16 Se32'
_cell_volume   3228.28806788
_cell_formula_units_Z   16
loop_
 _symmetry_equiv_pos_site_id
 _symmetry_equiv_pos_as_xyz
  1  'x, y, z'
loop_
 _atom_site_type_symbol
 _atom_site_label
 _atom_site_symmetry_multiplicity
 _atom_site_fract_x
 _atom_site_fract_y
 _atom_site_fract_z
 _atom_site_occupancy
  Ce  Ce0  1  0.97101400  0.40213800  0.70078700  1
  Ce  Ce1  1  0.97101400  0.59786200  0.29921300  1
  Ce  Ce2  1  0.02898600  0.09786200  0.20078700  1
  Ce  Ce3  1  0.02898600  0.90213800  0.79921300  1
  Ce  Ce4  1  0.73995300  0.42336500  0.15477400  1
  Ce  Ce5  1  0.73995300  0.57663500  0.84522600  1
  Ce  Ce6  1  0.26004700  0.07663500  0.65477400  1
  Ce  Ce7  1  0.26004700  0.92336500  0.34522600  1
  Ce  Ce8  1  0.47200800  0.70052200  0.40270100  1
  Ce  Ce9  1  0.47200800  0.29947800  0.59729900  1
  Ce  Ce10  1  0.52799200  0.79947800  0.90270100  1
  Ce  Ce11  1  0.52799200  0.20052200  0.09729900  1
  Ce  Ce12  1  0.76365900  0.34469500  0.92365600  1
  Ce  Ce13  1  0.76365900  0.65530500  0.07634400  1
  Ce  Ce14  1  0.23634100  0.15530500  0.42365600  1
  Ce  Ce15  1  0.23634100  0.84469500  0.57634400  1
  Se  Se16  1  0.25106000  0.39000800  0.63901700  1
  Se  Se17  1  0.25106000  0.60999200  0.36098300  1
  Se  Se18  1  0.74894000  0.10999200  0.13901700  1
  Se  Se19  1  0.74894000  0.89000800  0.86098300  1
  Se  Se20  1  0.75184000  0.63832000  0.39105400  1
  Se  Se21  1  0.75184000  0.36168000  0.60894600  1
  Se  Se22  1  0.24816000  0.86168000  0.89105400  1
  Se  Se23  1  0.24816000  0.13832000  0.10894600  1
  Se  Se24  1  0.45694600  0.81629100  0.32082100  1
  Se  Se25  1  0.45694600  0.18370900  0.67917900  1
  Se  Se26  1  0.54305400  0.68370900  0.82082100  1
  Se  Se27  1  0.54305400  0.31629100  0.17917900  1
  Se  Se28  1  0.95924300  0.32068000  0.81622000  1
  Se  Se29  1  0.95924300  0.67932000  0.18378000  1
  Se  Se30  1  0.04075700  0.17932000  0.31622000  1
  Se  Se31  1  0.04075700  0.82068000  0.68378000  1
  Se  Se32  1  0.08109700  0.96234100  0.23595600  1
  Se  Se33  1  0.08109700  0.03765900  0.76404400  1
  Se  Se34  1  0.91890300  0.53765900  0.73595600  1
  Se  Se35  1  0.91890300  0.46234100  0.26404400  1
  Se  Se36  1  0.58170000  0.23608300  0.96289900  1
  Se  Se37  1  0.58170000  0.76391700  0.03710100  1
  Se  Se38  1  0.41830000  0.26391700  0.46289900  1
  Se  Se39  1  0.41830000  0.73608300  0.53710100  1
  Se  Se40  1  0.09097300  0.87974500  0.45602900  1
  Se  Se41  1  0.09097300  0.12025500  0.54397200  1
  Se  Se42  1  0.90902700  0.62025500  0.95602800  1
  Se  Se43  1  0.90902700  0.37974500  0.04397100  1
  Se  Se44  1  0.59425800  0.45567100  0.87993300  1
  Se  Se45  1  0.59425800  0.54432900  0.12006700  1
  Se  Se46  1  0.40574200  0.04432900  0.37993300  1
  Se  Se47  1  0.40574200  0.95567100  0.62006700  1
