# generated using pymatgen
data_CeSe2
_symmetry_space_group_name_H-M   'P 1'
_cell_length_a   6.88300900
_cell_length_b   6.91533200
_cell_length_c   7.16172700
_cell_angle_alpha   90.00000000
_cell_angle_beta   90.00000000
_cell_angle_gamma   90.00000000
_symmetry_Int_Tables_number   1
_chemical_formula_structural   CeSe2
_chemical_formula_sum   'Ce4 Se8'
_cell_volume   340.88597579
_cell_formula_units_Z   4
loop_
 _symmetry_equiv_pos_site_id
 _symmetry_equiv_pos_as_xyz
  1  'x, y, z'
loop_
 _atom_site_type_symbol
 _atom_site_label
 _atom_site_symmetry_multiplicity
 _atom_site_fract_x
 _atom_site_fract_y
 _atom_site_fract_z
 _atom_site_occupancy
  Ce  Ce0  1  0.27666100  0.74699200  0.45255800  1
  Ce  Ce1  1  0.72333900  0.24699200  0.54744200  1
  Ce  Ce2  1  0.27666100  0.24699200  0.04744200  1
  Ce  Ce3  1  0.72333900  0.74699200  0.95255800  1
  Se  Se4  1  0.06630700  0.89521900  0.13570300  1
  Se  Se5  1  0.93369300  0.39521900  0.86429700  1
  Se  Se6  1  0.06630700  0.39521900  0.36429700  1
  Se  Se7  1  0.93369300  0.89521900  0.63570300  1
  Se  Se8  1  0.55256400  0.00178900  0.25265700  1
  Se  Se9  1  0.44743600  0.50178900  0.74734300  1
  Se  Se10  1  0.55256400  0.50178900  0.24734300  1
  Se  Se11  1  0.44743600  0.00178900  0.75265700  1
