# generated using pymatgen
data_Mn2HO4
_symmetry_space_group_name_H-M   'P 1'
_cell_length_a   5.99303600
_cell_length_b   10.25627200
_cell_length_c   10.25755105
_cell_angle_alpha   90.00542928
_cell_angle_beta   89.99993720
_cell_angle_gamma   90.00009393
_symmetry_Int_Tables_number   1
_chemical_formula_structural   Mn2HO4
_chemical_formula_sum   'Mn16 H8 O32'
_cell_volume   630.49275680
_cell_formula_units_Z   8
loop_
 _symmetry_equiv_pos_site_id
 _symmetry_equiv_pos_as_xyz
  1  'x, y, z'
loop_
 _atom_site_type_symbol
 _atom_site_label
 _atom_site_symmetry_multiplicity
 _atom_site_fract_x
 _atom_site_fract_y
 _atom_site_fract_z
 _atom_site_occupancy
  Mn  Mn0  1  0.49627800  0.64740700  0.83310100  1
  Mn  Mn1  1  0.00524600  0.64532400  0.83773700  1
  Mn  Mn2  1  0.50527400  0.16225000  0.64530700  1
  Mn  Mn3  1  0.99630500  0.16688800  0.64738500  1
  Mn  Mn4  1  0.99618800  0.83309500  0.35259700  1
  Mn  Mn5  1  0.50515600  0.83770900  0.35469600  1
  Mn  Mn6  1  0.00520300  0.35467500  0.16225100  1
  Mn  Mn7  1  0.49624700  0.35259600  0.16687700  1
  Mn  Mn8  1  0.25370500  0.14729800  0.33323800  1
  Mn  Mn9  1  0.74473100  0.14518900  0.33787200  1
  Mn  Mn10  1  0.24471000  0.66215000  0.14515300  1
  Mn  Mn11  1  0.75368500  0.66677500  0.14726900  1
  Mn  Mn12  1  0.24481300  0.33784900  0.85482800  1
  Mn  Mn13  1  0.75378400  0.33323300  0.85270100  1
  Mn  Mn14  1  0.25373800  0.85268000  0.66674200  1
  Mn  Mn15  1  0.74477500  0.85479400  0.66211700  1
  H  H16  1  0.25143100  0.64520600  0.43201200  1
  H  H17  1  0.49864700  0.14534300  0.93209300  1
  H  H18  1  0.49841300  0.85482700  0.06809400  1
  H  H19  1  0.99840800  0.06794700  0.14530300  1
  H  H20  1  0.99858900  0.93207300  0.85467000  1
  H  H21  1  0.25173100  0.35489000  0.56812000  1
  H  H22  1  0.75169100  0.56800200  0.64516900  1
  H  H23  1  0.75151200  0.43206000  0.35476300  1
  O  O24  1  0.25326000  0.33812700  0.04767100  1
  O  O25  1  0.74960700  0.33405600  0.04362900  1
  O  O26  1  0.24953900  0.95635200  0.33411100  1
  O  O27  1  0.75319900  0.95230300  0.33818300  1
  O  O28  1  0.24963600  0.04362400  0.66590100  1
  O  O29  1  0.75330900  0.04765800  0.66181100  1
  O  O30  1  0.25329200  0.66189500  0.95230300  1
  O  O31  1  0.74959300  0.66596800  0.95634700  1
  O  O32  1  0.00034500  0.83415400  0.54350800  1
  O  O33  1  0.49672900  0.83827300  0.54751700  1
  O  O34  1  0.99678200  0.45246500  0.83834300  1
  O  O35  1  0.50041000  0.45648000  0.83422200  1
  O  O36  1  0.50032600  0.54352900  0.16577000  1
  O  O37  1  0.99669100  0.54752900  0.16158100  1
  O  O38  1  0.49669900  0.16168400  0.45246400  1
  O  O39  1  0.00036300  0.16582500  0.45647700  1
  O  O40  1  0.50188000  0.16052900  0.20637400  1
  O  O41  1  0.99496200  0.14333600  0.20313400  1
  O  O42  1  0.00184100  0.79365200  0.16054600  1
  O  O43  1  0.49494900  0.79689800  0.14340400  1
  O  O44  1  0.99504600  0.85664700  0.79685200  1
  O  O45  1  0.50191700  0.83946200  0.79359000  1
  O  O46  1  0.49509800  0.20311400  0.85665600  1
  O  O47  1  0.00194600  0.20635500  0.83944600  1
  O  O48  1  0.24810900  0.66059700  0.70621400  1
  O  O49  1  0.75502300  0.64338600  0.70299400  1
  O  O50  1  0.25506000  0.29700100  0.64346000  1
  O  O51  1  0.74814300  0.29378200  0.66063100  1
  O  O52  1  0.24806800  0.33938700  0.29375300  1
  O  O53  1  0.75494600  0.35661300  0.29698500  1
  O  O54  1  0.25487100  0.70298300  0.35657800  1
  O  O55  1  0.74805000  0.70618800  0.33935500  1
