# generated using pymatgen
data_Tm5S7
_symmetry_space_group_name_H-M   'P 1'
_cell_length_a   6.58491351
_cell_length_b   6.58491351
_cell_length_c   11.46878287
_cell_angle_alpha   76.15303883
_cell_angle_beta   76.15303883
_cell_angle_gamma   33.03576566
_symmetry_Int_Tables_number   1
_chemical_formula_structural   Tm5S7
_chemical_formula_sum   'Tm5 S7'
_cell_volume   262.52563081
_cell_formula_units_Z   1
loop_
 _symmetry_equiv_pos_site_id
 _symmetry_equiv_pos_as_xyz
  1  'x, y, z'
loop_
 _atom_site_type_symbol
 _atom_site_label
 _atom_site_symmetry_multiplicity
 _atom_site_fract_x
 _atom_site_fract_y
 _atom_site_fract_z
 _atom_site_occupancy
  Tm  Tm0  1  0.00000000  0.00000000  0.00000000  1
  Tm  Tm1  1  0.11206600  0.11206600  0.57847100  1
  Tm  Tm2  1  0.88793400  0.88793400  0.42152900  1
  Tm  Tm3  1  0.30014900  0.30014900  0.81317100  1
  Tm  Tm4  1  0.69985100  0.69985100  0.18682900  1
  S  S5  1  0.50000000  0.50000000  0.50000000  1
  S  S6  1  0.65909600  0.65909600  0.94926000  1
  S  S7  1  0.34090400  0.34090400  0.05074000  1
  S  S8  1  0.95850000  0.95850000  0.78499900  1
  S  S9  1  0.04150000  0.04150000  0.21500100  1
  S  S10  1  0.25909500  0.25909500  0.35290100  1
  S  S11  1  0.74090500  0.74090500  0.64709900  1
