# generated using pymatgen
data_CeSe2
_symmetry_space_group_name_H-M   'P 1'
_cell_length_a   11.51144900
_cell_length_b   11.51144900
_cell_length_c   11.60645300
_cell_angle_alpha   90.00000000
_cell_angle_beta   90.00000000
_cell_angle_gamma   90.00000000
_symmetry_Int_Tables_number   1
_chemical_formula_structural   CeSe2
_chemical_formula_sum   'Ce8 Se16'
_cell_volume   1538.01122307
_cell_formula_units_Z   8
loop_
 _symmetry_equiv_pos_site_id
 _symmetry_equiv_pos_as_xyz
  1  'x, y, z'
loop_
 _atom_site_type_symbol
 _atom_site_label
 _atom_site_symmetry_multiplicity
 _atom_site_fract_x
 _atom_site_fract_y
 _atom_site_fract_z
 _atom_site_occupancy
  Ce  Ce0  1  0.29671600  0.95295600  0.45333500  1
  Ce  Ce1  1  0.79671600  0.54704400  0.95333500  1
  Ce  Ce2  1  0.04704400  0.29671600  0.54666500  1
  Ce  Ce3  1  0.54704400  0.20328400  0.04666500  1
  Ce  Ce4  1  0.70328400  0.04704400  0.45333500  1
  Ce  Ce5  1  0.20328400  0.45295600  0.95333500  1
  Ce  Ce6  1  0.95295600  0.70328400  0.54666500  1
  Ce  Ce7  1  0.45295600  0.79671600  0.04666500  1
  Se  Se8  1  0.18556500  0.15747700  0.41663700  1
  Se  Se9  1  0.68556500  0.34252300  0.91663700  1
  Se  Se10  1  0.84252300  0.18556500  0.58336300  1
  Se  Se11  1  0.34252300  0.31443500  0.08336300  1
  Se  Se12  1  0.81443500  0.84252300  0.41663700  1
  Se  Se13  1  0.31443500  0.65747700  0.91663700  1
  Se  Se14  1  0.15747700  0.81443500  0.58336300  1
  Se  Se15  1  0.65747700  0.68556500  0.08336300  1
  Se  Se16  1  0.34721800  0.84721800  0.25000000  1
  Se  Se17  1  0.84721800  0.65278200  0.75000000  1
  Se  Se18  1  0.15278200  0.34721800  0.75000000  1
  Se  Se19  1  0.65278200  0.15278200  0.25000000  1
  Se  Se20  1  0.50000000  0.00000000  0.56279300  1
  Se  Se21  1  0.00000000  0.50000000  0.06279300  1
  Se  Se22  1  0.00000000  0.50000000  0.43720700  1
  Se  Se23  1  0.50000000  0.00000000  0.93720700  1
