# generated using pymatgen
data_LaS2
_symmetry_space_group_name_H-M   'P 1'
_cell_length_a   4.04634300
_cell_length_b   4.04634300
_cell_length_c   8.31767800
_cell_angle_alpha   90.00000000
_cell_angle_beta   90.00000000
_cell_angle_gamma   90.00000000
_symmetry_Int_Tables_number   1
_chemical_formula_structural   LaS2
_chemical_formula_sum   'La2 S4'
_cell_volume   136.18444087
_cell_formula_units_Z   2
loop_
 _symmetry_equiv_pos_site_id
 _symmetry_equiv_pos_as_xyz
  1  'x, y, z'
loop_
 _atom_site_type_symbol
 _atom_site_label
 _atom_site_symmetry_multiplicity
 _atom_site_fract_x
 _atom_site_fract_y
 _atom_site_fract_z
 _atom_site_occupancy
  La  La0  1  0.00000000  0.50000000  0.72423300  1
  La  La1  1  0.50000000  0.00000000  0.27576700  1
  S  S2  1  0.00000000  0.50000000  0.36397200  1
  S  S3  1  0.50000000  0.00000000  0.63602800  1
  S  S4  1  0.00000000  0.00000000  0.00000000  1
  S  S5  1  0.50000000  0.50000000  0.00000000  1
