# generated using pymatgen
data_KMn2O4
_symmetry_space_group_name_H-M   'P 1'
_cell_length_a   10.84024700
_cell_length_b   10.84024700
_cell_length_c   5.90639800
_cell_angle_alpha   90.00000000
_cell_angle_beta   90.00000000
_cell_angle_gamma   90.00000000
_symmetry_Int_Tables_number   1
_chemical_formula_structural   KMn2O4
_chemical_formula_sum   'K8 Mn16 O32'
_cell_volume   694.06646971
_cell_formula_units_Z   8
loop_
 _symmetry_equiv_pos_site_id
 _symmetry_equiv_pos_as_xyz
  1  'x, y, z'
loop_
 _atom_site_type_symbol
 _atom_site_label
 _atom_site_symmetry_multiplicity
 _atom_site_fract_x
 _atom_site_fract_y
 _atom_site_fract_z
 _atom_site_occupancy
  K  K0  1  0.52476200  0.87573600  0.38943400  1
  K  K1  1  0.37573600  0.97523800  0.88943400  1
  K  K2  1  0.02476200  0.37573600  0.11056600  1
  K  K3  1  0.87573600  0.47523800  0.61056600  1
  K  K4  1  0.47523800  0.12426400  0.38943400  1
  K  K5  1  0.62426400  0.02476200  0.88943400  1
  K  K6  1  0.12426400  0.52476200  0.61056600  1
  K  K7  1  0.97523800  0.62426400  0.11056600  1
  Mn  Mn8  1  0.35133200  0.65854100  0.37191600  1
  Mn  Mn9  1  0.35193300  0.66459700  0.87827200  1
  Mn  Mn10  1  0.83540300  0.85193300  0.37827200  1
  Mn  Mn11  1  0.84145900  0.85133200  0.87191600  1
  Mn  Mn12  1  0.15854100  0.14866800  0.87191600  1
  Mn  Mn13  1  0.16459700  0.14806700  0.37827200  1
  Mn  Mn14  1  0.64806700  0.33540300  0.87827200  1
  Mn  Mn15  1  0.64866800  0.34145900  0.37191600  1
  Mn  Mn16  1  0.85193300  0.16459700  0.62172800  1
  Mn  Mn17  1  0.85133200  0.15854100  0.12808400  1
  Mn  Mn18  1  0.34145900  0.35133200  0.62808400  1
  Mn  Mn19  1  0.33540300  0.35193300  0.12172800  1
  Mn  Mn20  1  0.65854100  0.64866800  0.62808400  1
  Mn  Mn21  1  0.66459700  0.64806700  0.12172800  1
  Mn  Mn22  1  0.14806700  0.83540300  0.62172800  1
  Mn  Mn23  1  0.14866800  0.84145900  0.12808400  1
  O  O24  1  0.65449300  0.45070300  0.62803900  1
  O  O25  1  0.67105800  0.46061300  0.11993100  1
  O  O26  1  0.03938700  0.17105800  0.61993100  1
  O  O27  1  0.04929700  0.15449300  0.12803900  1
  O  O28  1  0.96061300  0.82894200  0.61993100  1
  O  O29  1  0.95070300  0.84550700  0.12803900  1
  O  O30  1  0.34550700  0.54929700  0.62803900  1
  O  O31  1  0.32894200  0.53938700  0.11993100  1
  O  O32  1  0.15449300  0.95070300  0.87196100  1
  O  O33  1  0.17105800  0.96061300  0.38006900  1
  O  O34  1  0.53938700  0.67105800  0.88006900  1
  O  O35  1  0.54929700  0.65449300  0.37196100  1
  O  O36  1  0.45070300  0.34550700  0.37196100  1
  O  O37  1  0.46061300  0.32894200  0.88006900  1
  O  O38  1  0.82894200  0.03938700  0.38006900  1
  O  O39  1  0.84550700  0.04929700  0.87196100  1
  O  O40  1  0.85171500  0.28076200  0.37074700  1
  O  O41  1  0.83900600  0.28889800  0.87170900  1
  O  O42  1  0.21923800  0.35171500  0.87074700  1
  O  O43  1  0.21110200  0.33900600  0.37170900  1
  O  O44  1  0.16099400  0.71110200  0.87170900  1
  O  O45  1  0.14828500  0.71923800  0.37074700  1
  O  O46  1  0.78889800  0.66099400  0.37170900  1
  O  O47  1  0.78076200  0.64828500  0.87074700  1
  O  O48  1  0.33900600  0.78889800  0.62829100  1
  O  O49  1  0.35171500  0.78076200  0.12925300  1
  O  O50  1  0.71923800  0.85171500  0.62925300  1
  O  O51  1  0.71110200  0.83900600  0.12829100  1
  O  O52  1  0.66099400  0.21110200  0.62829100  1
  O  O53  1  0.64828500  0.21923800  0.12925300  1
  O  O54  1  0.28076200  0.14828500  0.62925300  1
  O  O55  1  0.28889800  0.16099400  0.12829100  1
