# generated using pymatgen
data_CeSe2
_symmetry_space_group_name_H-M   'P 1'
_cell_length_a   7.60948600
_cell_length_b   13.57575100
_cell_length_c   15.53265700
_cell_angle_alpha   90.00000000
_cell_angle_beta   90.00000000
_cell_angle_gamma   90.00000000
_symmetry_Int_Tables_number   1
_chemical_formula_structural   CeSe2
_chemical_formula_sum   'Ce8 Se16'
_cell_volume   1604.59316583
_cell_formula_units_Z   8
loop_
 _symmetry_equiv_pos_site_id
 _symmetry_equiv_pos_as_xyz
  1  'x, y, z'
loop_
 _atom_site_type_symbol
 _atom_site_label
 _atom_site_symmetry_multiplicity
 _atom_site_fract_x
 _atom_site_fract_y
 _atom_site_fract_z
 _atom_site_occupancy
  Ce  Ce0  1  0.70555300  0.66025400  0.40395700  1
  Ce  Ce1  1  0.29444700  0.66025400  0.59604300  1
  Ce  Ce2  1  0.70555300  0.33974600  0.59604300  1
  Ce  Ce3  1  0.29444700  0.33974600  0.40395700  1
  Ce  Ce4  1  0.79444700  0.83974600  0.09604300  1
  Ce  Ce5  1  0.20555300  0.83974600  0.90395700  1
  Ce  Ce6  1  0.79444700  0.16025400  0.90395700  1
  Ce  Ce7  1  0.20555300  0.16025400  0.09604300  1
  Se  Se8  1  0.50000000  0.77966400  0.50000000  1
  Se  Se9  1  0.50000000  0.22033600  0.50000000  1
  Se  Se10  1  0.00000000  0.72033600  0.00000000  1
  Se  Se11  1  0.00000000  0.27966400  0.00000000  1
  Se  Se12  1  0.50000000  0.50000000  0.37394000  1
  Se  Se13  1  0.50000000  0.50000000  0.62606000  1
  Se  Se14  1  0.00000000  0.00000000  0.12606000  1
  Se  Se15  1  0.00000000  0.00000000  0.87394000  1
  Se  Se16  1  0.00000000  0.63164100  0.50000000  1
  Se  Se17  1  0.00000000  0.36835900  0.50000000  1
  Se  Se18  1  0.50000000  0.86835900  0.00000000  1
  Se  Se19  1  0.50000000  0.13164100  0.00000000  1
  Se  Se20  1  0.75000000  0.75000000  0.25000000  1
  Se  Se21  1  0.25000000  0.75000000  0.75000000  1
  Se  Se22  1  0.75000000  0.25000000  0.75000000  1
  Se  Se23  1  0.25000000  0.25000000  0.25000000  1
