# generated using pymatgen
data_CeSe2
_symmetry_space_group_name_H-M   'P 1'
_cell_length_a   17.54232660
_cell_length_b   17.54232660
_cell_length_c   17.54232660
_cell_angle_alpha   90.00000000
_cell_angle_beta   90.00000000
_cell_angle_gamma   90.00000000
_symmetry_Int_Tables_number   1
_chemical_formula_structural   CeSe2
_chemical_formula_sum   'Ce24 Se48'
_cell_volume   5398.35669549
_cell_formula_units_Z   24
loop_
 _symmetry_equiv_pos_site_id
 _symmetry_equiv_pos_as_xyz
  1  'x, y, z'
loop_
 _atom_site_type_symbol
 _atom_site_label
 _atom_site_symmetry_multiplicity
 _atom_site_fract_x
 _atom_site_fract_y
 _atom_site_fract_z
 _atom_site_occupancy
  Ce  Ce0  1  0.45049976  0.14742558  0.72069717  1
  Ce  Ce1  1  0.54950024  0.64742558  0.77930283  1
  Ce  Ce2  1  0.04950024  0.85257442  0.22069717  1
  Ce  Ce3  1  0.95049976  0.35257442  0.27930283  1
  Ce  Ce4  1  0.72069717  0.45049976  0.14742558  1
  Ce  Ce5  1  0.77930283  0.54950024  0.64742558  1
  Ce  Ce6  1  0.22069717  0.04950024  0.85257442  1
  Ce  Ce7  1  0.27930283  0.95049976  0.35257442  1
  Ce  Ce8  1  0.14742558  0.72069717  0.45049976  1
  Ce  Ce9  1  0.64742558  0.77930283  0.54950024  1
  Ce  Ce10  1  0.85257442  0.22069717  0.04950024  1
  Ce  Ce11  1  0.35257442  0.27930283  0.95049976  1
  Ce  Ce12  1  0.54950024  0.85257442  0.27930283  1
  Ce  Ce13  1  0.45049976  0.35257442  0.22069717  1
  Ce  Ce14  1  0.95049976  0.14742558  0.77930283  1
  Ce  Ce15  1  0.04950024  0.64742558  0.72069717  1
  Ce  Ce16  1  0.27930283  0.54950024  0.85257442  1
  Ce  Ce17  1  0.22069717  0.45049976  0.35257442  1
  Ce  Ce18  1  0.77930283  0.95049976  0.14742558  1
  Ce  Ce19  1  0.72069717  0.04950024  0.64742558  1
  Ce  Ce20  1  0.85257442  0.27930283  0.54950024  1
  Ce  Ce21  1  0.35257442  0.22069717  0.45049976  1
  Ce  Ce22  1  0.14742558  0.77930283  0.95049976  1
  Ce  Ce23  1  0.64742558  0.72069717  0.04950024  1
  Se  Se24  1  0.33433882  0.04822482  0.74715101  1
  Se  Se25  1  0.66566118  0.54822482  0.75284899  1
  Se  Se26  1  0.16566118  0.95177518  0.24715101  1
  Se  Se27  1  0.83433882  0.45177518  0.25284899  1
  Se  Se28  1  0.74715101  0.33433882  0.04822482  1
  Se  Se29  1  0.75284899  0.66566118  0.54822482  1
  Se  Se30  1  0.24715101  0.16566118  0.95177518  1
  Se  Se31  1  0.25284899  0.83433882  0.45177518  1
  Se  Se32  1  0.04822482  0.74715101  0.33433882  1
  Se  Se33  1  0.54822482  0.75284899  0.66566118  1
  Se  Se34  1  0.95177518  0.24715101  0.16566118  1
  Se  Se35  1  0.45177518  0.25284899  0.83433882  1
  Se  Se36  1  0.66566118  0.95177518  0.25284899  1
  Se  Se37  1  0.33433882  0.45177518  0.24715101  1
  Se  Se38  1  0.83433882  0.04822482  0.75284899  1
  Se  Se39  1  0.16566118  0.54822482  0.74715101  1
  Se  Se40  1  0.25284899  0.66566118  0.95177518  1
  Se  Se41  1  0.24715101  0.33433882  0.45177518  1
  Se  Se42  1  0.75284899  0.83433882  0.04822482  1
  Se  Se43  1  0.74715101  0.16566118  0.54822482  1
  Se  Se44  1  0.95177518  0.25284899  0.66566118  1
  Se  Se45  1  0.45177518  0.24715101  0.33433882  1
  Se  Se46  1  0.04822482  0.75284899  0.83433882  1
  Se  Se47  1  0.54822482  0.74715101  0.16566118  1
  Se  Se48  1  0.42981008  0.21871983  0.58476303  1
  Se  Se49  1  0.57018992  0.71871983  0.91523697  1
  Se  Se50  1  0.07018992  0.78128017  0.08476303  1
  Se  Se51  1  0.92981008  0.28128017  0.41523697  1
  Se  Se52  1  0.58476303  0.42981008  0.21871983  1
  Se  Se53  1  0.91523697  0.57018992  0.71871983  1
  Se  Se54  1  0.08476303  0.07018992  0.78128017  1
  Se  Se55  1  0.41523697  0.92981008  0.28128017  1
  Se  Se56  1  0.21871983  0.58476303  0.42981008  1
  Se  Se57  1  0.71871983  0.91523697  0.57018992  1
  Se  Se58  1  0.78128017  0.08476303  0.07018992  1
  Se  Se59  1  0.28128017  0.41523697  0.92981008  1
  Se  Se60  1  0.57018992  0.78128017  0.41523697  1
  Se  Se61  1  0.42981008  0.28128017  0.08476303  1
  Se  Se62  1  0.92981008  0.21871983  0.91523697  1
  Se  Se63  1  0.07018992  0.71871983  0.58476303  1
  Se  Se64  1  0.41523697  0.57018992  0.78128017  1
  Se  Se65  1  0.08476303  0.42981008  0.28128017  1
  Se  Se66  1  0.91523697  0.92981008  0.21871983  1
  Se  Se67  1  0.58476303  0.07018992  0.71871983  1
  Se  Se68  1  0.78128017  0.41523697  0.57018992  1
  Se  Se69  1  0.28128017  0.08476303  0.42981008  1
  Se  Se70  1  0.21871983  0.91523697  0.92981008  1
  Se  Se71  1  0.71871983  0.58476303  0.07018992  1
