# generated using pymatgen
data_Ag2AsS4N
_symmetry_space_group_name_H-M   'P 1'
_cell_length_a   6.32608080
_cell_length_b   6.32608080
_cell_length_c   6.32608080
_cell_angle_alpha   118.09780765
_cell_angle_beta   118.09780765
_cell_angle_gamma   93.32753187
_symmetry_Int_Tables_number   1
_chemical_formula_structural   Ag2AsS4N
_chemical_formula_sum   'Ag2 As1 S4 N1'
_cell_volume   183.82653321
_cell_formula_units_Z   1
loop_
 _symmetry_equiv_pos_site_id
 _symmetry_equiv_pos_as_xyz
  1  'x, y, z'
loop_
 _atom_site_type_symbol
 _atom_site_label
 _atom_site_symmetry_multiplicity
 _atom_site_fract_x
 _atom_site_fract_y
 _atom_site_fract_z
 _atom_site_occupancy
  Ag  Ag0  1  0.75000000  0.25000000  0.50000000  1
  Ag  Ag1  1  0.25000000  0.75000000  0.50000000  1
  As  As2  1  0.00000000  0.00000000  0.00000000  1
  S  S3  1  0.07305900  0.07305900  0.41114400  1
  S  S4  1  0.66191500  0.66191500  0.58885600  1
  S  S5  1  0.33808500  0.92694100  0.00000000  1
  S  S6  1  0.92694100  0.33808500  0.00000000  1
  N  N7  1  0.50000000  0.50000000  0.00000000  1
