# generated using pymatgen
data_Na5As4
_symmetry_space_group_name_H-M   'P 1'
_cell_length_a   5.74821362
_cell_length_b   5.74821362
_cell_length_c   9.67782653
_cell_angle_alpha   72.01458308
_cell_angle_beta   72.01458308
_cell_angle_gamma   47.80989115
_symmetry_Int_Tables_number   1
_chemical_formula_structural   Na5As4
_chemical_formula_sum   'Na5 As4'
_cell_volume   223.00479134
_cell_formula_units_Z   1
loop_
 _symmetry_equiv_pos_site_id
 _symmetry_equiv_pos_as_xyz
  1  'x, y, z'
loop_
 _atom_site_type_symbol
 _atom_site_label
 _atom_site_symmetry_multiplicity
 _atom_site_fract_x
 _atom_site_fract_y
 _atom_site_fract_z
 _atom_site_occupancy
  Na  Na0  1  0.09957800  0.09957800  0.61488300  1
  Na  Na1  1  0.90042200  0.90042200  0.38511700  1
  Na  Na2  1  0.75489800  0.75489800  0.83522100  1
  Na  Na3  1  0.24510200  0.24510200  0.16477900  1
  Na  Na4  1  0.00000000  0.00000000  0.00000000  1
  As  As5  1  0.45649600  0.45649600  0.82787700  1
  As  As6  1  0.54350400  0.54350400  0.17212300  1
  As  As7  1  0.39258400  0.39258400  0.60579500  1
  As  As8  1  0.60741600  0.60741600  0.39420500  1
