# generated using pymatgen
data_SrIn3
_symmetry_space_group_name_H-M   'P 1'
_cell_length_a   7.16711194
_cell_length_b   7.16711194
_cell_length_c   5.25629500
_cell_angle_alpha   90.00000000
_cell_angle_beta   90.00000000
_cell_angle_gamma   119.99999949
_symmetry_Int_Tables_number   1
_chemical_formula_structural   SrIn3
_chemical_formula_sum   'Sr2 In6'
_cell_volume   233.82919843
_cell_formula_units_Z   2
loop_
 _symmetry_equiv_pos_site_id
 _symmetry_equiv_pos_as_xyz
  1  'x, y, z'
loop_
 _atom_site_type_symbol
 _atom_site_label
 _atom_site_symmetry_multiplicity
 _atom_site_fract_x
 _atom_site_fract_y
 _atom_site_fract_z
 _atom_site_occupancy
  Sr  Sr0  1  0.33333300  0.66666700  0.25000000  1
  Sr  Sr1  1  0.66666700  0.33333300  0.75000000  1
  In  In2  1  0.84490100  0.15509900  0.25000000  1
  In  In3  1  0.84490100  0.68980300  0.25000000  1
  In  In4  1  0.31019700  0.15509900  0.25000000  1
  In  In5  1  0.15509900  0.84490100  0.75000000  1
  In  In6  1  0.15509900  0.31019700  0.75000000  1
  In  In7  1  0.68980300  0.84490100  0.75000000  1
