# generated using pymatgen
data_CeSe2
_symmetry_space_group_name_H-M   'P 1'
_cell_length_a   12.50227300
_cell_length_b   19.34979283
_cell_length_c   19.56528567
_cell_angle_alpha   105.28589974
_cell_angle_beta   94.87134504
_cell_angle_gamma   95.98671781
_symmetry_Int_Tables_number   1
_chemical_formula_structural   CeSe2
_chemical_formula_sum   'Ce16 Se32'
_cell_volume   4509.53251591
_cell_formula_units_Z   16
loop_
 _symmetry_equiv_pos_site_id
 _symmetry_equiv_pos_as_xyz
  1  'x, y, z'
loop_
 _atom_site_type_symbol
 _atom_site_label
 _atom_site_symmetry_multiplicity
 _atom_site_fract_x
 _atom_site_fract_y
 _atom_site_fract_z
 _atom_site_occupancy
  Ce  Ce0  1  0.38894000  0.63961300  0.64346300  1
  Ce  Ce1  1  0.61106000  0.36038700  0.35653700  1
  Ce  Ce2  1  0.78000100  0.58723100  0.57131000  1
  Ce  Ce3  1  0.21999900  0.41276900  0.42869000  1
  Ce  Ce4  1  0.58997000  0.85786300  0.35787500  1
  Ce  Ce5  1  0.41003000  0.14213700  0.64212500  1
  Ce  Ce6  1  0.43004700  0.63796700  0.14251700  1
  Ce  Ce7  1  0.56995300  0.36203300  0.85748300  1
  Ce  Ce8  1  0.32879600  0.86632800  0.55837000  1
  Ce  Ce9  1  0.67120400  0.13367200  0.44163000  1
  Ce  Ce10  1  0.95490500  0.76123600  0.43221500  1
  Ce  Ce11  1  0.04509500  0.23876400  0.56778500  1
  Ce  Ce12  1  0.07526200  0.54035100  0.24235900  1
  Ce  Ce13  1  0.92473800  0.45964900  0.75764100  1
  Ce  Ce14  1  0.69617300  0.44096000  0.12449800  1
  Ce  Ce15  1  0.30382700  0.55904000  0.87550200  1
  Se  Se16  1  0.59906200  0.63447700  0.62252600  1
  Se  Se17  1  0.40093800  0.36552300  0.37747400  1
  Se  Se18  1  0.32960700  0.76779400  0.63450200  1
  Se  Se19  1  0.67039300  0.23220600  0.36549800  1
  Se  Se20  1  0.27057000  0.52970100  0.54212500  1
  Se  Se21  1  0.72943000  0.47029900  0.45787500  1
  Se  Se22  1  0.35615600  0.62477800  0.77410200  1
  Se  Se23  1  0.64384400  0.37522200  0.22589800  1
  Se  Se24  1  0.89211600  0.69286600  0.52908700  1
  Se  Se25  1  0.10788400  0.30713400  0.47091300  1
  Se  Se26  1  0.89972500  0.55037200  0.67455400  1
  Se  Se27  1  0.10027500  0.44962800  0.32544600  1
  Se  Se28  1  0.49268900  0.77223000  0.23074000  1
  Se  Se29  1  0.50731100  0.22777000  0.76926000  1
  Se  Se30  1  0.46749200  0.83480300  0.45924000  1
  Se  Se31  1  0.53250800  0.16519700  0.54076000  1
  Se  Se32  1  0.79045100  0.82329600  0.38469800  1
  Se  Se33  1  0.20954900  0.17670400  0.61530200  1
  Se  Se34  1  0.60483400  0.99822500  0.35656000  1
  Se  Se35  1  0.39516600  0.00177500  0.64344000  1
  Se  Se36  1  0.60026500  0.56232700  0.14198000  1
  Se  Se37  1  0.39973500  0.43767300  0.85802000  1
  Se  Se38  1  0.37478700  0.64627700  0.00807900  1
  Se  Se39  1  0.62521300  0.35372300  0.99192100  1
  Se  Se40  1  0.26236700  0.56971700  0.18896000  1
  Se  Se41  1  0.73763300  0.43028300  0.81104000  1
  Se  Se42  1  0.12676300  0.86219400  0.49436600  1
  Se  Se43  1  0.87323700  0.13780600  0.50563400  1
  Se  Se44  1  0.01946900  0.66562900  0.32104800  1
  Se  Se45  1  0.98053100  0.33437100  0.67895200  1
  Se  Se46  1  0.91395400  0.47822200  0.13573400  1
  Se  Se47  1  0.08604600  0.52177800  0.86426600  1
