# generated using pymatgen
data_CeSe2
_symmetry_space_group_name_H-M   'P 1'
_cell_length_a   21.34587610
_cell_length_b   21.34587610
_cell_length_c   6.10085500
_cell_angle_alpha   90.00000000
_cell_angle_beta   90.00000000
_cell_angle_gamma   120.00000032
_symmetry_Int_Tables_number   1
_chemical_formula_structural   CeSe2
_chemical_formula_sum   'Ce12 Se24'
_cell_volume   2407.40579787
_cell_formula_units_Z   12
loop_
 _symmetry_equiv_pos_site_id
 _symmetry_equiv_pos_as_xyz
  1  'x, y, z'
loop_
 _atom_site_type_symbol
 _atom_site_label
 _atom_site_symmetry_multiplicity
 _atom_site_fract_x
 _atom_site_fract_y
 _atom_site_fract_z
 _atom_site_occupancy
  Ce  Ce0  1  0.52249500  0.65338800  0.82641400  1
  Ce  Ce1  1  0.34661200  0.86910700  0.82641400  1
  Ce  Ce2  1  0.13089300  0.47750500  0.82641400  1
  Ce  Ce3  1  0.47750500  0.34661200  0.82641400  1
  Ce  Ce4  1  0.65338800  0.13089300  0.82641400  1
  Ce  Ce5  1  0.86910700  0.52249500  0.82641400  1
  Ce  Ce6  1  0.65338800  0.52249500  0.17358600  1
  Ce  Ce7  1  0.86910700  0.34661200  0.17358600  1
  Ce  Ce8  1  0.47750500  0.13089300  0.17358600  1
  Ce  Ce9  1  0.34661200  0.47750500  0.17358600  1
  Ce  Ce10  1  0.13089300  0.65338800  0.17358600  1
  Ce  Ce11  1  0.52249500  0.86910700  0.17358600  1
  Se  Se12  1  0.78287200  0.39143600  0.00000000  1
  Se  Se13  1  0.60856400  0.39143600  0.00000000  1
  Se  Se14  1  0.60856400  0.21712800  0.00000000  1
  Se  Se15  1  0.21712800  0.60856400  0.00000000  1
  Se  Se16  1  0.39143600  0.60856400  0.00000000  1
  Se  Se17  1  0.39143600  0.78287200  0.00000000  1
  Se  Se18  1  0.00000000  0.38333700  0.00000000  1
  Se  Se19  1  0.61666300  0.61666300  0.00000000  1
  Se  Se20  1  0.38333700  0.00000000  0.00000000  1
  Se  Se21  1  0.00000000  0.61666300  0.00000000  1
  Se  Se22  1  0.38333700  0.38333700  0.00000000  1
  Se  Se23  1  0.61666300  0.00000000  0.00000000  1
  Se  Se24  1  0.79053800  0.20946200  0.00000000  1
  Se  Se25  1  0.79053800  0.58107600  0.00000000  1
  Se  Se26  1  0.41892400  0.20946200  0.00000000  1
  Se  Se27  1  0.20946200  0.79053800  0.00000000  1
  Se  Se28  1  0.20946200  0.41892400  0.00000000  1
  Se  Se29  1  0.58107600  0.79053800  0.00000000  1
  Se  Se30  1  0.88821400  0.44410700  0.50000000  1
  Se  Se31  1  0.55589300  0.44410700  0.50000000  1
  Se  Se32  1  0.55589300  0.11178600  0.50000000  1
  Se  Se33  1  0.11178600  0.55589300  0.50000000  1
  Se  Se34  1  0.44410700  0.55589300  0.50000000  1
  Se  Se35  1  0.44410700  0.88821400  0.50000000  1
