# generated using pymatgen
data_CeSe2
_symmetry_space_group_name_H-M   'P 1'
_cell_length_a   15.34793024
_cell_length_b   15.34793024
_cell_length_c   15.34793024
_cell_angle_alpha   125.15245651
_cell_angle_beta   125.15245651
_cell_angle_gamma   81.28566571
_symmetry_Int_Tables_number   1
_chemical_formula_structural   CeSe2
_chemical_formula_sum   'Ce16 Se32'
_cell_volume   2327.63910762
_cell_formula_units_Z   16
loop_
 _symmetry_equiv_pos_site_id
 _symmetry_equiv_pos_as_xyz
  1  'x, y, z'
loop_
 _atom_site_type_symbol
 _atom_site_label
 _atom_site_symmetry_multiplicity
 _atom_site_fract_x
 _atom_site_fract_y
 _atom_site_fract_z
 _atom_site_occupancy
  Ce  Ce0  1  0.18842900  0.71704500  0.27288500  1
  Ce  Ce1  1  0.68842900  0.41554400  0.47138400  1
  Ce  Ce2  1  0.16554400  0.19416000  0.22711500  1
  Ce  Ce3  1  0.66554400  0.43842900  0.97138400  1
  Ce  Ce4  1  0.56157100  0.53295500  0.22711500  1
  Ce  Ce5  1  0.06157100  0.83445600  0.02861600  1
  Ce  Ce6  1  0.58445600  0.05584000  0.27288500  1
  Ce  Ce7  1  0.08445600  0.81157100  0.52861600  1
  Ce  Ce8  1  0.94416000  0.21704500  0.52861600  1
  Ce  Ce9  1  0.44416000  0.91554400  0.72711500  1
  Ce  Ce10  1  0.46704500  0.69416000  0.02861600  1
  Ce  Ce11  1  0.96704500  0.93842900  0.77288500  1
  Ce  Ce12  1  0.80584000  0.03295500  0.97138400  1
  Ce  Ce13  1  0.30584000  0.33445600  0.77288500  1
  Ce  Ce14  1  0.28295500  0.55584000  0.47138400  1
  Ce  Ce15  1  0.78295500  0.31157100  0.72711500  1
  Se  Se16  1  0.87038900  0.87038900  0.00000000  1
  Se  Se17  1  0.37038900  0.37038900  0.00000000  1
  Se  Se18  1  0.12038900  0.62038900  0.50000000  1
  Se  Se19  1  0.62038900  0.12038900  0.50000000  1
  Se  Se20  1  0.87961100  0.37961100  0.50000000  1
  Se  Se21  1  0.37961100  0.87961100  0.50000000  1
  Se  Se22  1  0.62961100  0.62961100  0.00000000  1
  Se  Se23  1  0.12961100  0.12961100  0.00000000  1
  Se  Se24  1  0.91263500  0.87500000  0.53763500  1
  Se  Se25  1  0.41263500  0.87500000  0.03763500  1
  Se  Se26  1  0.62500000  0.08736500  0.96236500  1
  Se  Se27  1  0.12500000  0.16263500  0.53763500  1
  Se  Se28  1  0.83736500  0.37500000  0.96236500  1
  Se  Se29  1  0.33736500  0.37500000  0.46236500  1
  Se  Se30  1  0.62500000  0.58736500  0.46236500  1
  Se  Se31  1  0.12500000  0.66263500  0.03763500  1
  Se  Se32  1  0.53092000  0.72301800  0.25180300  1
  Se  Se33  1  0.03092000  0.77911600  0.80790200  1
  Se  Se34  1  0.52911600  0.22121500  0.24819700  1
  Se  Se35  1  0.02911600  0.78092000  0.30790200  1
  Se  Se36  1  0.21908000  0.52698200  0.24819700  1
  Se  Se37  1  0.71908000  0.47088400  0.69209800  1
  Se  Se38  1  0.22088400  0.02878500  0.25180300  1
  Se  Se39  1  0.72088400  0.46908000  0.19209800  1
  Se  Se40  1  0.97121500  0.22301800  0.19209800  1
  Se  Se41  1  0.47121500  0.27911600  0.74819700  1
  Se  Se42  1  0.47301800  0.72121500  0.69209800  1
  Se  Se43  1  0.97301800  0.28092000  0.75180300  1
  Se  Se44  1  0.77878500  0.02698200  0.30790200  1
  Se  Se45  1  0.27878500  0.97088400  0.75180300  1
  Se  Se46  1  0.27698200  0.52878500  0.80790200  1
  Se  Se47  1  0.77698200  0.96908000  0.74819700  1
