# generated using pymatgen
data_CeSe2
_symmetry_space_group_name_H-M   'P 1'
_cell_length_a   9.68195000
_cell_length_b   10.63834657
_cell_length_c   12.93686161
_cell_angle_alpha   98.37549907
_cell_angle_beta   94.74950972
_cell_angle_gamma   99.41971773
_symmetry_Int_Tables_number   1
_chemical_formula_structural   CeSe2
_chemical_formula_sum   'Ce13 Se26'
_cell_volume   1292.72244766
_cell_formula_units_Z   13
loop_
 _symmetry_equiv_pos_site_id
 _symmetry_equiv_pos_as_xyz
  1  'x, y, z'
loop_
 _atom_site_type_symbol
 _atom_site_label
 _atom_site_symmetry_multiplicity
 _atom_site_fract_x
 _atom_site_fract_y
 _atom_site_fract_z
 _atom_site_occupancy
  Ce  Ce0  1  0.00000000  0.00000000  0.00000000  1
  Ce  Ce1  1  0.22712000  0.69392900  0.92483700  1
  Ce  Ce2  1  0.77288000  0.30607100  0.07516300  1
  Ce  Ce3  1  0.69359200  0.07422300  0.77168900  1
  Ce  Ce4  1  0.30640800  0.92577700  0.22831100  1
  Ce  Ce5  1  0.07393500  0.22746600  0.30529300  1
  Ce  Ce6  1  0.92606500  0.77253400  0.69470700  1
  Ce  Ce7  1  0.15479200  0.46502900  0.61711800  1
  Ce  Ce8  1  0.84520800  0.53497100  0.38288200  1
  Ce  Ce9  1  0.46571500  0.38363500  0.84583100  1
  Ce  Ce10  1  0.53428500  0.61636500  0.15416900  1
  Ce  Ce11  1  0.38354300  0.15457400  0.53541300  1
  Ce  Ce12  1  0.61645700  0.84542600  0.46458700  1
  Se  Se13  1  0.93785800  0.73095700  0.91067800  1
  Se  Se14  1  0.06214200  0.26904300  0.08932200  1
  Se  Se15  1  0.71140400  0.03448700  0.98780600  1
  Se  Se16  1  0.28859600  0.96551300  0.01219400  1
  Se  Se17  1  0.01489200  0.95751900  0.21439600  1
  Se  Se18  1  0.98510800  0.04248100  0.78560400  1
  Se  Se19  1  0.63716700  0.80557400  0.68222200  1
  Se  Se20  1  0.36283300  0.19442600  0.31777800  1
  Se  Se21  1  0.78625700  0.26364000  0.28920900  1
  Se  Se22  1  0.21374300  0.73636000  0.71079100  1
  Se  Se23  1  0.24373900  0.65675900  0.14017900  1
  Se  Se24  1  0.75626100  0.34324100  0.85982100  1
  Se  Se25  1  0.86729000  0.50420700  0.60083400  1
  Se  Se26  1  0.13271000  0.49579300  0.39916600  1
  Se  Se27  1  0.48591600  0.34735800  0.06187400  1
  Se  Se28  1  0.51408400  0.65264200  0.93812600  1
  Se  Se29  1  0.32855000  0.88609100  0.44382200  1
  Se  Se30  1  0.67145000  0.11390900  0.55617800  1
  Se  Se31  1  0.17820900  0.42530400  0.83305200  1
  Se  Se32  1  0.82179100  0.57469600  0.16694800  1
  Se  Se33  1  0.40663500  0.11497200  0.75116700  1
  Se  Se34  1  0.59336500  0.88502800  0.24883300  1
  Se  Se35  1  0.09567600  0.19643500  0.52274900  1
  Se  Se36  1  0.90432400  0.80356500  0.47725100  1
  Se  Se37  1  0.55853800  0.57764000  0.36990900  1
  Se  Se38  1  0.44146200  0.42236000  0.63009100  1
