# generated using pymatgen
data_CeSe2
_symmetry_space_group_name_H-M   'P 1'
_cell_length_a   12.60640766
_cell_length_b   20.03343887
_cell_length_c   20.03343870
_cell_angle_alpha   105.78887750
_cell_angle_beta   90.00000000
_cell_angle_gamma   90.00000000
_symmetry_Int_Tables_number   1
_chemical_formula_structural   CeSe2
_chemical_formula_sum   'Ce18 Se36'
_cell_volume   4868.55045623
_cell_formula_units_Z   18
loop_
 _symmetry_equiv_pos_site_id
 _symmetry_equiv_pos_as_xyz
  1  'x, y, z'
loop_
 _atom_site_type_symbol
 _atom_site_label
 _atom_site_symmetry_multiplicity
 _atom_site_fract_x
 _atom_site_fract_y
 _atom_site_fract_z
 _atom_site_occupancy
  Ce  Ce0  1  0.29345546  0.88469117  0.72076676  1
  Ce  Ce1  1  0.29345546  0.11530883  0.27923324  1
  Ce  Ce2  1  0.70654454  0.27923324  0.11530883  1
  Ce  Ce3  1  0.70654454  0.72076676  0.88469117  1
  Ce  Ce4  1  0.70654454  0.11530883  0.27923324  1
  Ce  Ce5  1  0.70654454  0.88469117  0.72076676  1
  Ce  Ce6  1  0.29345546  0.72076676  0.88469117  1
  Ce  Ce7  1  0.29345546  0.27923324  0.11530883  1
  Ce  Ce8  1  0.30037723  0.14865856  0.85134144  1
  Ce  Ce9  1  0.30037723  0.85134144  0.14865856  1
  Ce  Ce10  1  0.69962277  0.14865856  0.85134144  1
  Ce  Ce11  1  0.69962277  0.85134144  0.14865856  1
  Ce  Ce12  1  0.00000000  0.26519164  0.73480836  1
  Ce  Ce13  1  0.00000000  0.73480836  0.26519164  1
  Ce  Ce14  1  0.00000000  0.87585381  0.52969528  1
  Ce  Ce15  1  0.00000000  0.12414619  0.47030472  1
  Ce  Ce16  1  0.00000000  0.47030472  0.12414619  1
  Ce  Ce17  1  0.00000000  0.52969528  0.87585381  1
  Se  Se18  1  0.24059985  0.78577842  0.78577842  1
  Se  Se19  1  0.24059985  0.21422158  0.21422158  1
  Se  Se20  1  0.75940015  0.21422158  0.21422158  1
  Se  Se21  1  0.75940015  0.78577842  0.78577842  1
  Se  Se22  1  0.24885678  0.01120122  0.80965770  1
  Se  Se23  1  0.24885678  0.98879878  0.19034230  1
  Se  Se24  1  0.75114322  0.19034230  0.98879878  1
  Se  Se25  1  0.75114322  0.80965770  0.01120122  1
  Se  Se26  1  0.75114322  0.98879878  0.19034230  1
  Se  Se27  1  0.75114322  0.01120122  0.80965770  1
  Se  Se28  1  0.24885678  0.80965770  0.01120122  1
  Se  Se29  1  0.24885678  0.19034230  0.98879878  1
  Se  Se30  1  0.17946926  0.21870979  0.78129021  1
  Se  Se31  1  0.17946926  0.78129021  0.21870979  1
  Se  Se32  1  0.82053074  0.21870979  0.78129021  1
  Se  Se33  1  0.82053074  0.78129021  0.21870979  1
  Se  Se34  1  0.00000000  0.00000000  0.50000000  1
  Se  Se35  1  0.00000000  0.50000000  -0.00000000  1
  Se  Se36  1  0.00000000  0.22196106  0.59423773  1
  Se  Se37  1  0.00000000  0.77803894  0.40576227  1
  Se  Se38  1  0.00000000  0.40576227  0.77803894  1
  Se  Se39  1  0.00000000  0.59423773  0.22196106  1
  Se  Se40  1  0.17736680  0.86198028  0.60197379  1
  Se  Se41  1  0.17736680  0.13801972  0.39802621  1
  Se  Se42  1  0.82263320  0.39802621  0.13801972  1
  Se  Se43  1  0.82263320  0.60197379  0.86198028  1
  Se  Se44  1  0.82263320  0.13801972  0.39802621  1
  Se  Se45  1  0.82263320  0.86198028  0.60197379  1
  Se  Se46  1  0.17736680  0.60197379  0.86198028  1
  Se  Se47  1  0.17736680  0.39802621  0.13801972  1
  Se  Se48  1  0.50000000  0.18112902  0.81887098  1
  Se  Se49  1  0.50000000  0.81887098  0.18112902  1
  Se  Se50  1  0.50000000  0.87811646  0.67930858  1
  Se  Se51  1  0.50000000  0.12188354  0.32069142  1
  Se  Se52  1  0.50000000  0.32069142  0.12188354  1
  Se  Se53  1  0.50000000  0.67930858  0.87811646  1
