# generated using pymatgen
data_CeSe2
_symmetry_space_group_name_H-M   'P 1'
_cell_length_a   13.66817923
_cell_length_b   13.66817923
_cell_length_c   23.50353600
_cell_angle_alpha   90.00000000
_cell_angle_beta   90.00000000
_cell_angle_gamma   101.38201742
_symmetry_Int_Tables_number   1
_chemical_formula_structural   CeSe2
_chemical_formula_sum   'Ce16 Se32'
_cell_volume   4304.55467605
_cell_formula_units_Z   16
loop_
 _symmetry_equiv_pos_site_id
 _symmetry_equiv_pos_as_xyz
  1  'x, y, z'
loop_
 _atom_site_type_symbol
 _atom_site_label
 _atom_site_symmetry_multiplicity
 _atom_site_fract_x
 _atom_site_fract_y
 _atom_site_fract_z
 _atom_site_occupancy
  Ce  Ce0  1  0.18795100  0.58705200  0.31912000  1
  Ce  Ce1  1  0.58705200  0.18795100  0.68088000  1
  Ce  Ce2  1  0.81204900  0.41294800  0.31912000  1
  Ce  Ce3  1  0.41294800  0.81204900  0.68088000  1
  Ce  Ce4  1  0.31202800  0.90961000  0.18380900  1
  Ce  Ce5  1  0.90961000  0.31202800  0.81619100  1
  Ce  Ce6  1  0.68797200  0.09039000  0.18380900  1
  Ce  Ce7  1  0.09039000  0.68797200  0.81619100  1
  Ce  Ce8  1  0.33843900  0.66156100  0.50000000  1
  Ce  Ce9  1  0.66156100  0.33843900  0.50000000  1
  Ce  Ce10  1  0.50000000  0.50000000  0.36570800  1
  Ce  Ce11  1  0.50000000  0.50000000  0.63429200  1
  Ce  Ce12  1  0.00000000  0.00000000  0.13971600  1
  Ce  Ce13  1  0.00000000  0.00000000  0.86028400  1
  Ce  Ce14  1  0.16028100  0.83971900  0.00000000  1
  Ce  Ce15  1  0.83971900  0.16028100  0.00000000  1
  Se  Se16  1  0.00000000  0.50000000  0.28520100  1
  Se  Se17  1  0.50000000  0.00000000  0.71479900  1
  Se  Se18  1  0.25320300  0.74758200  0.25133700  1
  Se  Se19  1  0.74758200  0.25320300  0.74866300  1
  Se  Se20  1  0.74679700  0.25241800  0.25133700  1
  Se  Se21  1  0.25241800  0.74679700  0.74866300  1
  Se  Se22  1  0.17742000  0.64141300  0.42966200  1
  Se  Se23  1  0.64141300  0.17742000  0.57033800  1
  Se  Se24  1  0.82258000  0.35858700  0.42966200  1
  Se  Se25  1  0.35858700  0.82258000  0.57033800  1
  Se  Se26  1  0.32387400  0.46791700  0.30752900  1
  Se  Se27  1  0.46791700  0.32387400  0.69247100  1
  Se  Se28  1  0.67612600  0.53208300  0.30752900  1
  Se  Se29  1  0.53208300  0.67612600  0.69247100  1
  Se  Se30  1  0.31885800  0.85856300  0.07199200  1
  Se  Se31  1  0.85856300  0.31885800  0.92800800  1
  Se  Se32  1  0.68114200  0.14143700  0.07199200  1
  Se  Se33  1  0.14143700  0.68114200  0.92800800  1
  Se  Se34  1  0.17451300  0.02606000  0.19919500  1
  Se  Se35  1  0.02606000  0.17451300  0.80080500  1
  Se  Se36  1  0.82548700  0.97394000  0.19919500  1
  Se  Se37  1  0.97394000  0.82548700  0.80080500  1
  Se  Se38  1  0.49715200  0.66352900  0.43032800  1
  Se  Se39  1  0.66352900  0.49715200  0.56967200  1
  Se  Se40  1  0.50284800  0.33647100  0.43032800  1
  Se  Se41  1  0.33647100  0.50284800  0.56967200  1
  Se  Se42  1  0.50000000  0.00000000  0.21694600  1
  Se  Se43  1  0.00000000  0.50000000  0.78305400  1
  Se  Se44  1  0.99322600  0.16192900  0.07380100  1
  Se  Se45  1  0.16192900  0.99322600  0.92619900  1
  Se  Se46  1  0.00677400  0.83807100  0.07380100  1
  Se  Se47  1  0.83807100  0.00677400  0.92619900  1
