data_image0
_chemical_formula_structural       Al6F28Na10
_chemical_formula_sum              "Al6 F28 Na10"
_cell_length_a       6.58604
_cell_length_b       6.58604
_cell_length_c       9.78986
_cell_angle_alpha    90
_cell_angle_beta     90
_cell_angle_gamma    90

_space_group_name_H-M_alt    "P 1"
_space_group_IT_number       1

loop_
  _space_group_symop_operation_xyz
  'x, y, z'

loop_
  _atom_site_type_symbol
  _atom_site_label
  _atom_site_symmetry_multiplicity
  _atom_site_fract_x
  _atom_site_fract_y
  _atom_site_fract_z
  _atom_site_occupancy
  Al  Al1       1.0  0.00000  0.50000  0.00000  1.0000
  Al  Al2       1.0  0.50000  0.00000  0.50000  1.0000
  Al  Al3       1.0  0.00000  0.50000  0.50000  1.0000
  Al  Al4       1.0  0.50000  0.00000  0.00000  1.0000
  Al  Al5       1.0  0.00000  0.00000  0.00000  1.0000
  Al  Al6       1.0  0.50000  0.50000  0.50000  1.0000
  F   F1        1.0  0.00000  0.00000  0.18300  1.0000
  F   F2        1.0  0.50000  0.50000  0.31700  1.0000
  F   F3        1.0  0.00000  0.00000  0.81700  1.0000
  F   F4        1.0  0.50000  0.50000  0.68300  1.0000
  F   F5        1.0  0.10100  0.24800  0.00000  1.0000
  F   F6        1.0  0.89900  0.75200  0.00000  1.0000
  F   F7        1.0  0.60100  0.25200  0.50000  1.0000
  F   F8        1.0  0.39900  0.74800  0.50000  1.0000
  F   F9        1.0  0.25200  0.39900  0.50000  1.0000
  F   F10       1.0  0.74800  0.60100  0.50000  1.0000
  F   F11       1.0  0.24800  0.89900  0.00000  1.0000
  F   F12       1.0  0.75200  0.10100  0.00000  1.0000
  F   F13       1.0  0.18500  0.55700  0.12500  1.0000
  F   F14       1.0  0.81500  0.44300  0.12500  1.0000
  F   F15       1.0  0.68500  0.94300  0.37500  1.0000
  F   F16       1.0  0.31500  0.05680  0.37500  1.0000
  F   F17       1.0  0.94300  0.31500  0.37500  1.0000
  F   F18       1.0  0.05680  0.68500  0.37500  1.0000
  F   F19       1.0  0.55700  0.81500  0.12500  1.0000
  F   F20       1.0  0.44300  0.18500  0.12500  1.0000
  F   F21       1.0  0.81500  0.44300  0.87500  1.0000
  F   F22       1.0  0.18500  0.55700  0.87500  1.0000
  F   F23       1.0  0.31500  0.05680  0.62500  1.0000
  F   F24       1.0  0.68500  0.94300  0.62500  1.0000
  F   F25       1.0  0.05680  0.68500  0.62500  1.0000
  F   F26       1.0  0.94300  0.31500  0.62500  1.0000
  F   F27       1.0  0.44300  0.18500  0.87500  1.0000
  F   F28       1.0  0.55700  0.81500  0.87500  1.0000
  Na  Na1       1.0  0.29400  0.79400  0.25000  1.0000
  Na  Na2       1.0  0.70600  0.20600  0.25000  1.0000
  Na  Na3       1.0  0.79400  0.70600  0.25000  1.0000
  Na  Na4       1.0  0.20600  0.29400  0.25000  1.0000
  Na  Na5       1.0  0.70600  0.20600  0.75000  1.0000
  Na  Na6       1.0  0.29400  0.79400  0.75000  1.0000
  Na  Na7       1.0  0.20600  0.29400  0.75000  1.0000
  Na  Na8       1.0  0.79400  0.70600  0.75000  1.0000
  Na  Na9       1.0  0.00000  0.00000  0.50000  1.0000
  Na  Na10      1.0  0.50000  0.50000  0.00000  1.0000
