# generated using pymatgen
data_EuInPd
_symmetry_space_group_name_H-M   'P 1'
_cell_length_a   7.65322228
_cell_length_b   7.65322228
_cell_length_c   4.29366700
_cell_angle_alpha   90.00000000
_cell_angle_beta   90.00000000
_cell_angle_gamma   120.00000245
_symmetry_Int_Tables_number   1
_chemical_formula_structural   EuInPd
_chemical_formula_sum   'Eu3 In3 Pd3'
_cell_volume   217.79486440
_cell_formula_units_Z   3
loop_
 _symmetry_equiv_pos_site_id
 _symmetry_equiv_pos_as_xyz
  1  'x, y, z'
loop_
 _atom_site_type_symbol
 _atom_site_label
 _atom_site_symmetry_multiplicity
 _atom_site_fract_x
 _atom_site_fract_y
 _atom_site_fract_z
 _atom_site_occupancy
  Eu  Eu0  1  0.41089500  0.00000000  0.50000000  1
  Eu  Eu1  1  0.00000000  0.41089500  0.50000000  1
  Eu  Eu2  1  0.58910500  0.58910500  0.50000000  1
  In  In3  1  0.75224800  0.00000000  0.00000000  1
  In  In4  1  0.00000000  0.75224800  0.00000000  1
  In  In5  1  0.24775200  0.24775200  0.00000000  1
  Pd  Pd6  1  0.33333300  0.66666700  0.00000000  1
  Pd  Pd7  1  0.66666700  0.33333300  0.00000000  1
  Pd  Pd8  1  0.00000000  0.00000000  0.50000000  1
