# generated using pymatgen
data_Yb2Ge6Pt
_symmetry_space_group_name_H-M   'P 1'
_cell_length_a   11.40477114
_cell_length_b   11.40477114
_cell_length_c   4.28515600
_cell_angle_alpha   90.00000000
_cell_angle_beta   90.00000000
_cell_angle_gamma   160.27110794
_symmetry_Int_Tables_number   1
_chemical_formula_structural   Yb2Ge6Pt
_chemical_formula_sum   'Yb2 Ge6 Pt1'
_cell_volume   188.14972267
_cell_formula_units_Z   1
loop_
 _symmetry_equiv_pos_site_id
 _symmetry_equiv_pos_as_xyz
  1  'x, y, z'
loop_
 _atom_site_type_symbol
 _atom_site_label
 _atom_site_symmetry_multiplicity
 _atom_site_fract_x
 _atom_site_fract_y
 _atom_site_fract_z
 _atom_site_occupancy
  Yb  Yb0  1  0.00042100  0.99957900  0.00000000  1
  Yb  Yb1  1  0.33349500  0.66650500  0.00000000  1
  Ge  Ge2  1  0.71707600  0.28292400  0.00000000  1
  Ge  Ge3  1  0.60660900  0.39339100  0.00000000  1
  Ge  Ge4  1  0.45568300  0.54431700  0.50000000  1
  Ge  Ge5  1  0.88866500  0.11133500  0.50000000  1
  Ge  Ge6  1  0.09968300  0.90031700  0.50000000  1
  Ge  Ge7  1  0.21006300  0.78993700  0.50000000  1
  Pt  Pt8  1  0.78030500  0.21969500  0.50000000  1
