# generated using pymatgen
data_CsBO6
_symmetry_space_group_name_H-M   'P 1'
_cell_length_a   5.62526415
_cell_length_b   5.62526415
_cell_length_c   5.62526415
_cell_angle_alpha   120.88761434
_cell_angle_beta   120.88761434
_cell_angle_gamma   88.46936154
_symmetry_Int_Tables_number   1
_chemical_formula_structural   CsBO6
_chemical_formula_sum   'Cs1 B1 O6'
_cell_volume   124.13080430
_cell_formula_units_Z   1
loop_
 _symmetry_equiv_pos_site_id
 _symmetry_equiv_pos_as_xyz
  1  'x, y, z'
loop_
 _atom_site_type_symbol
 _atom_site_label
 _atom_site_symmetry_multiplicity
 _atom_site_fract_x
 _atom_site_fract_y
 _atom_site_fract_z
 _atom_site_occupancy
  Cs  Cs0  1  0.00000000  0.00000000  0.00000000  1
  B  B1  1  0.50000000  0.50000000  0.00000000  1
  O  O2  1  0.75000000  0.25000000  0.50000000  1
  O  O3  1  0.25000000  0.75000000  0.50000000  1
  O  O4  1  0.24182300  0.24182300  0.71868600  1
  O  O5  1  0.52313700  0.52313700  0.28131400  1
  O  O6  1  0.47686300  0.75817700  0.00000000  1
  O  O7  1  0.75817700  0.47686300  0.00000000  1
