# generated using pymatgen
data_GeO2
_symmetry_space_group_name_H-M   'P 1'
_cell_length_a   4.37457300
_cell_length_b   4.83940100
_cell_length_c   5.40899700
_cell_angle_alpha   90.00000000
_cell_angle_beta   90.00000000
_cell_angle_gamma   90.00000000
_symmetry_Int_Tables_number   1
_chemical_formula_structural   GeO2
_chemical_formula_sum   'Ge4 O8'
_cell_volume   114.51015924
_cell_formula_units_Z   4
loop_
 _symmetry_equiv_pos_site_id
 _symmetry_equiv_pos_as_xyz
  1  'x, y, z'
loop_
 _atom_site_type_symbol
 _atom_site_label
 _atom_site_symmetry_multiplicity
 _atom_site_fract_x
 _atom_site_fract_y
 _atom_site_fract_z
 _atom_site_occupancy
  Ge  Ge0  1  0.50000000  0.75000000  0.65843400  1
  Ge  Ge1  1  0.00000000  0.25000000  0.84156600  1
  Ge  Ge2  1  0.50000000  0.25000000  0.34156600  1
  Ge  Ge3  1  0.00000000  0.75000000  0.15843400  1
  O  O4  1  0.76802700  0.07851700  0.11251000  1
  O  O5  1  0.26802700  0.92148300  0.38749000  1
  O  O6  1  0.73197300  0.57851700  0.38749000  1
  O  O7  1  0.23197300  0.42148300  0.11251000  1
  O  O8  1  0.76802700  0.57851700  0.88749000  1
  O  O9  1  0.26802700  0.42148300  0.61251000  1
  O  O10  1  0.73197300  0.07851700  0.61251000  1
  O  O11  1  0.23197300  0.92148300  0.88749000  1
