# generated using pymatgen
data_CeSe2
_symmetry_space_group_name_H-M   'P 1'
_cell_length_a   18.39443551
_cell_length_b   18.39443551
_cell_length_c   18.39443581
_cell_angle_alpha   114.90948646
_cell_angle_beta   114.90948646
_cell_angle_gamma   114.90948551
_symmetry_Int_Tables_number   1
_chemical_formula_structural   CeSe2
_chemical_formula_sum   'Ce12 Se24'
_cell_volume   3511.77796035
_cell_formula_units_Z   12
loop_
 _symmetry_equiv_pos_site_id
 _symmetry_equiv_pos_as_xyz
  1  'x, y, z'
loop_
 _atom_site_type_symbol
 _atom_site_label
 _atom_site_symmetry_multiplicity
 _atom_site_fract_x
 _atom_site_fract_y
 _atom_site_fract_z
 _atom_site_occupancy
  Ce  Ce0  1  0.04781100  0.87428200  0.47248400  1
  Ce  Ce1  1  0.87428200  0.47248400  0.04781100  1
  Ce  Ce2  1  0.47248400  0.04781100  0.87428200  1
  Ce  Ce3  1  0.37428200  0.54781100  0.97248400  1
  Ce  Ce4  1  0.54781100  0.97248400  0.37428200  1
  Ce  Ce5  1  0.97248400  0.37428200  0.54781100  1
  Ce  Ce6  1  0.95218900  0.12571800  0.52751600  1
  Ce  Ce7  1  0.12571800  0.52751600  0.95218900  1
  Ce  Ce8  1  0.52751600  0.95218900  0.12571800  1
  Ce  Ce9  1  0.62571800  0.45218900  0.02751600  1
  Ce  Ce10  1  0.45218900  0.02751600  0.62571800  1
  Ce  Ce11  1  0.02751600  0.62571800  0.45218900  1
  Se  Se12  1  0.98130900  0.75000000  0.51869100  1
  Se  Se13  1  0.75000000  0.51869100  0.98130900  1
  Se  Se14  1  0.51869100  0.98130900  0.75000000  1
  Se  Se15  1  0.25000000  0.48130900  0.01869100  1
  Se  Se16  1  0.48130900  0.01869100  0.25000000  1
  Se  Se17  1  0.01869100  0.25000000  0.48130900  1
  Se  Se18  1  0.66356000  0.25000000  0.83644000  1
  Se  Se19  1  0.25000000  0.83644000  0.66356000  1
  Se  Se20  1  0.83644000  0.66356000  0.25000000  1
  Se  Se21  1  0.75000000  0.16356000  0.33644000  1
  Se  Se22  1  0.16356000  0.33644000  0.75000000  1
  Se  Se23  1  0.33644000  0.75000000  0.16356000  1
  Se  Se24  1  0.96989800  0.53010200  0.25000000  1
  Se  Se25  1  0.53010200  0.25000000  0.96989800  1
  Se  Se26  1  0.25000000  0.96989800  0.53010200  1
  Se  Se27  1  0.03010200  0.46989800  0.75000000  1
  Se  Se28  1  0.46989800  0.75000000  0.03010200  1
  Se  Se29  1  0.75000000  0.03010200  0.46989800  1
  Se  Se30  1  0.00000000  0.00000000  0.50000000  1
  Se  Se31  1  0.00000000  0.50000000  0.00000000  1
  Se  Se32  1  0.50000000  0.00000000  0.00000000  1
  Se  Se33  1  0.50000000  0.50000000  0.00000000  1
  Se  Se34  1  0.50000000  0.00000000  0.50000000  1
  Se  Se35  1  0.00000000  0.50000000  0.50000000  1
