# generated using pymatgen
data_Re2W
_symmetry_space_group_name_H-M   'P 1'
_cell_length_a   5.13529035
_cell_length_b   5.13529035
_cell_length_c   8.38143600
_cell_angle_alpha   90.00000000
_cell_angle_beta   90.00000000
_cell_angle_gamma   120.00000451
_symmetry_Int_Tables_number   1
_chemical_formula_structural   Re2W
_chemical_formula_sum   'Re8 W4'
_cell_volume   191.41635961
_cell_formula_units_Z   4
loop_
 _symmetry_equiv_pos_site_id
 _symmetry_equiv_pos_as_xyz
  1  'x, y, z'
loop_
 _atom_site_type_symbol
 _atom_site_label
 _atom_site_symmetry_multiplicity
 _atom_site_fract_x
 _atom_site_fract_y
 _atom_site_fract_z
 _atom_site_occupancy
  Re  Re0  1  0.00000000  0.00000000  0.50000000  1
  Re  Re1  1  0.00000000  0.00000000  0.00000000  1
  Re  Re2  1  0.82760500  0.17239500  0.25000000  1
  Re  Re3  1  0.82760500  0.65521000  0.25000000  1
  Re  Re4  1  0.34479000  0.17239500  0.25000000  1
  Re  Re5  1  0.17239500  0.82760500  0.75000000  1
  Re  Re6  1  0.17239500  0.34479000  0.75000000  1
  Re  Re7  1  0.65521000  0.82760500  0.75000000  1
  W  W8  1  0.33333300  0.66666700  0.43335100  1
  W  W9  1  0.66666700  0.33333300  0.56664900  1
  W  W10  1  0.66666700  0.33333300  0.93335100  1
  W  W11  1  0.33333300  0.66666700  0.06664900  1
