# generated using pymatgen
data_YTlPd2
_symmetry_space_group_name_H-M   'P 1'
_cell_length_a   11.48069191
_cell_length_b   11.48069191
_cell_length_c   11.48069191
_cell_angle_alpha   127.50294009
_cell_angle_beta   117.61754345
_cell_angle_gamma   85.84990514
_symmetry_Int_Tables_number   1
_chemical_formula_structural   YTlPd2
_chemical_formula_sum   'Y1 Tl1 Pd2'
_cell_volume   1015.18979874
_cell_formula_units_Z   1
loop_
 _symmetry_equiv_pos_site_id
 _symmetry_equiv_pos_as_xyz
  1  'x, y, z'
loop_
 _atom_site_type_symbol
 _atom_site_label
 _atom_site_symmetry_multiplicity
 _atom_site_fract_x
 _atom_site_fract_y
 _atom_site_fract_z
 _atom_site_occupancy
  Y  Y0  1  0.00000000  0.00000000  0.00000000  1
  Tl  Tl1  1  0.00000000  0.50000000  0.50000000  1
  Pd  Pd2  1  0.00000000  0.23635200  0.23635200  1
  Pd  Pd3  1  0.00000000  0.76364800  0.76364800  1
