# generated using pymatgen
data_Zr2ReIr
_symmetry_space_group_name_H-M   'P 1'
_cell_length_a   10.77953262
_cell_length_b   10.77953262
_cell_length_c   10.77953262
_cell_angle_alpha   126.98241772
_cell_angle_beta   118.54075953
_cell_angle_gamma   85.44858044
_symmetry_Int_Tables_number   1
_chemical_formula_structural   Zr2ReIr
_chemical_formula_sum   'Zr2 Re1 Ir1'
_cell_volume   839.45595183
_cell_formula_units_Z   1
loop_
 _symmetry_equiv_pos_site_id
 _symmetry_equiv_pos_as_xyz
  1  'x, y, z'
loop_
 _atom_site_type_symbol
 _atom_site_label
 _atom_site_symmetry_multiplicity
 _atom_site_fract_x
 _atom_site_fract_y
 _atom_site_fract_z
 _atom_site_occupancy
  Zr  Zr0  1  0.00000000  0.25069200  0.25069200  1
  Zr  Zr1  1  0.00000000  0.74930800  0.74930800  1
  Re  Re2  1  0.00000000  0.00000000  0.00000000  1
  Ir  Ir3  1  0.00000000  0.50000000  0.50000000  1
