# generated using pymatgen
data_Hf2TiIr
_symmetry_space_group_name_H-M   'P 1'
_cell_length_a   10.85617906
_cell_length_b   10.85617906
_cell_length_c   10.85617906
_cell_angle_alpha   127.51254814
_cell_angle_beta   118.61666174
_cell_angle_gamma   84.95820978
_symmetry_Int_Tables_number   1
_chemical_formula_structural   Hf2TiIr
_chemical_formula_sum   'Hf2 Ti1 Ir1'
_cell_volume   851.92668060
_cell_formula_units_Z   1
loop_
 _symmetry_equiv_pos_site_id
 _symmetry_equiv_pos_as_xyz
  1  'x, y, z'
loop_
 _atom_site_type_symbol
 _atom_site_label
 _atom_site_symmetry_multiplicity
 _atom_site_fract_x
 _atom_site_fract_y
 _atom_site_fract_z
 _atom_site_occupancy
  Hf  Hf0  1  0.00000000  0.25473500  0.25473500  1
  Hf  Hf1  1  0.00000000  0.74526500  0.74526500  1
  Ti  Ti2  1  0.00000000  0.00000000  0.00000000  1
  Ir  Ir3  1  0.00000000  0.50000000  0.50000000  1
