# generated using pymatgen
data_Mg2CdPt
_symmetry_space_group_name_H-M   'P 1'
_cell_length_a   11.48917707
_cell_length_b   11.48917707
_cell_length_c   11.48917707
_cell_angle_alpha   125.84662698
_cell_angle_beta   117.98662574
_cell_angle_gamma   86.85385676
_symmetry_Int_Tables_number   1
_chemical_formula_structural   Mg2CdPt
_chemical_formula_sum   'Mg2 Cd1 Pt1'
_cell_volume   1033.05460874
_cell_formula_units_Z   1
loop_
 _symmetry_equiv_pos_site_id
 _symmetry_equiv_pos_as_xyz
  1  'x, y, z'
loop_
 _atom_site_type_symbol
 _atom_site_label
 _atom_site_symmetry_multiplicity
 _atom_site_fract_x
 _atom_site_fract_y
 _atom_site_fract_z
 _atom_site_occupancy
  Mg  Mg0  1  0.00000000  0.26889200  0.26889200  1
  Mg  Mg1  1  0.00000000  0.73110800  0.73110800  1
  Cd  Cd2  1  0.00000000  0.00000000  0.00000000  1
  Pt  Pt3  1  0.00000000  0.50000000  0.50000000  1
