# generated using pymatgen
data_NaTl2Sn
_symmetry_space_group_name_H-M   'P 1'
_cell_length_a   12.77385047
_cell_length_b   12.77385047
_cell_length_c   12.77385047
_cell_angle_alpha   125.07732181
_cell_angle_beta   118.05904165
_cell_angle_gamma   87.41723196
_symmetry_Int_Tables_number   1
_chemical_formula_structural   NaTl2Sn
_chemical_formula_sum   'Na1 Tl2 Sn1'
_cell_volume   1430.17945022
_cell_formula_units_Z   1
loop_
 _symmetry_equiv_pos_site_id
 _symmetry_equiv_pos_as_xyz
  1  'x, y, z'
loop_
 _atom_site_type_symbol
 _atom_site_label
 _atom_site_symmetry_multiplicity
 _atom_site_fract_x
 _atom_site_fract_y
 _atom_site_fract_z
 _atom_site_occupancy
  Na  Na0  1  0.00000000  0.00000000  0.00000000  1
  Tl  Tl1  1  0.00000000  0.26361000  0.26361000  1
  Tl  Tl2  1  0.00000000  0.73639000  0.73639000  1
  Sn  Sn3  1  0.00000000  0.50000000  0.50000000  1
