data_image0
_chemical_formula_structural       Cl20U4
_chemical_formula_sum              "Cl20 U4"
_cell_length_a       7.75589
_cell_length_b       10.3561
_cell_length_c       8.12246
_cell_angle_alpha    90
_cell_angle_beta     91.6804
_cell_angle_gamma    90

_space_group_name_H-M_alt    "P 1"
_space_group_IT_number       1

loop_
  _space_group_symop_operation_xyz
  'x, y, z'

loop_
  _atom_site_type_symbol
  _atom_site_label
  _atom_site_symmetry_multiplicity
  _atom_site_fract_x
  _atom_site_fract_y
  _atom_site_fract_z
  _atom_site_occupancy
  Cl  Cl1       1.0  0.64500  0.12800  0.06130  1.0000
  Cl  Cl2       1.0  0.85500  0.62800  0.43900  1.0000
  Cl  Cl3       1.0  0.35500  0.87200  0.93900  1.0000
  Cl  Cl4       1.0  0.14500  0.37200  0.56100  1.0000
  Cl  Cl5       1.0  0.94800  0.37800  0.15500  1.0000
  Cl  Cl6       1.0  0.55200  0.87800  0.34500  1.0000
  Cl  Cl7       1.0  0.05150  0.62200  0.84500  1.0000
  Cl  Cl8       1.0  0.44800  0.12200  0.65500  1.0000
  Cl  Cl9       1.0  0.04580  0.11800  0.85800  1.0000
  Cl  Cl10      1.0  0.45400  0.61800  0.64200  1.0000
  Cl  Cl11      1.0  0.95400  0.88200  0.14200  1.0000
  Cl  Cl12      1.0  0.54600  0.38200  0.35800  1.0000
  Cl  Cl13      1.0  0.84700  0.12800  0.45700  1.0000
  Cl  Cl14      1.0  0.65300  0.62800  0.04310  1.0000
  Cl  Cl15      1.0  0.15300  0.87200  0.54300  1.0000
  Cl  Cl16      1.0  0.34700  0.37200  0.95700  1.0000
  Cl  Cl17      1.0  0.25100  0.12700  0.25600  1.0000
  Cl  Cl18      1.0  0.24900  0.62700  0.24400  1.0000
  Cl  Cl19      1.0  0.74900  0.87300  0.74400  1.0000
  Cl  Cl20      1.0  0.75100  0.37300  0.75600  1.0000
  U   U1        1.0  0.94400  0.14000  0.17100  1.0000
  U   U2        1.0  0.55600  0.64000  0.32900  1.0000
  U   U3        1.0  0.05600  0.86000  0.82900  1.0000
  U   U4        1.0  0.44400  0.36000  0.67100  1.0000
