# generated using pymatgen
data_HfTiRh2
_symmetry_space_group_name_H-M   'P 1'
_cell_length_a   10.55963703
_cell_length_b   10.55963703
_cell_length_c   10.55963703
_cell_angle_alpha   128.17808361
_cell_angle_beta   116.92133086
_cell_angle_gamma   85.93578641
_symmetry_Int_Tables_number   1
_chemical_formula_structural   HfTiRh2
_chemical_formula_sum   'Hf1 Ti1 Rh2'
_cell_volume   787.74912608
_cell_formula_units_Z   1
loop_
 _symmetry_equiv_pos_site_id
 _symmetry_equiv_pos_as_xyz
  1  'x, y, z'
loop_
 _atom_site_type_symbol
 _atom_site_label
 _atom_site_symmetry_multiplicity
 _atom_site_fract_x
 _atom_site_fract_y
 _atom_site_fract_z
 _atom_site_occupancy
  Hf  Hf0  1  0.00000000  0.50000000  0.50000000  1
  Ti  Ti1  1  0.00000000  0.00000000  0.00000000  1
  Rh  Rh2  1  0.00000000  0.24962400  0.24962400  1
  Rh  Rh3  1  0.00000000  0.75037600  0.75037600  1
