# generated using pymatgen
data_MnZnNi2
_symmetry_space_group_name_H-M   'P 1'
_cell_length_a   8.97933902
_cell_length_b   9.07289254
_cell_length_c   9.07289314
_cell_angle_alpha   60.24844038
_cell_angle_beta   60.34051294
_cell_angle_gamma   60.34051272
_symmetry_Int_Tables_number   1
_chemical_formula_structural   MnZnNi2
_chemical_formula_sum   'Mn1 Zn1 Ni2'
_cell_volume   526.32528048
_cell_formula_units_Z   1
loop_
 _symmetry_equiv_pos_site_id
 _symmetry_equiv_pos_as_xyz
  1  'x, y, z'
loop_
 _atom_site_type_symbol
 _atom_site_label
 _atom_site_symmetry_multiplicity
 _atom_site_fract_x
 _atom_site_fract_y
 _atom_site_fract_z
 _atom_site_occupancy
  Mn  Mn0  1  0.00000000  0.00000000  0.00000000  1
  Zn  Zn1  1  0.50000000  0.00000000  0.00000000  1
  Ni  Ni2  1  0.75729800  0.00000000  0.00000000  1
  Ni  Ni3  1  0.24270200  0.00000000  0.00000000  1
