# generated using pymatgen
data_NaCdIn2
_symmetry_space_group_name_H-M   'P 1'
_cell_length_a   12.45158952
_cell_length_b   12.45158952
_cell_length_c   12.45158952
_cell_angle_alpha   122.08307104
_cell_angle_beta   121.77917127
_cell_angle_gamma   86.68674072
_symmetry_Int_Tables_number   1
_chemical_formula_structural   NaCdIn2
_chemical_formula_sum   'Na1 Cd1 In2'
_cell_volume   1322.81946011
_cell_formula_units_Z   1
loop_
 _symmetry_equiv_pos_site_id
 _symmetry_equiv_pos_as_xyz
  1  'x, y, z'
loop_
 _atom_site_type_symbol
 _atom_site_label
 _atom_site_symmetry_multiplicity
 _atom_site_fract_x
 _atom_site_fract_y
 _atom_site_fract_z
 _atom_site_occupancy
  Na  Na0  1  0.00000000  0.00000000  0.00000000  1
  Cd  Cd1  1  0.50000000  0.00000000  0.50000000  1
  In  In2  1  0.73810900  0.00000000  0.73810900  1
  In  In3  1  0.26189100  0.00000000  0.26189100  1
