# generated using pymatgen
data_Cu2AgAu
_symmetry_space_group_name_H-M   'P 1'
_cell_length_a   9.26955573
_cell_length_b   9.26955573
_cell_length_c   9.26955573
_cell_angle_alpha   122.16211055
_cell_angle_beta   113.55504974
_cell_angle_gamma   93.90219023
_symmetry_Int_Tables_number   1
_chemical_formula_structural   Cu2AgAu
_chemical_formula_sum   'Cu2 Ag1 Au1'
_cell_volume   576.19932614
_cell_formula_units_Z   1
loop_
 _symmetry_equiv_pos_site_id
 _symmetry_equiv_pos_as_xyz
  1  'x, y, z'
loop_
 _atom_site_type_symbol
 _atom_site_label
 _atom_site_symmetry_multiplicity
 _atom_site_fract_x
 _atom_site_fract_y
 _atom_site_fract_z
 _atom_site_occupancy
  Cu  Cu0  1  0.25139600  0.00000000  0.25139600  1
  Cu  Cu1  1  0.74860400  0.00000000  0.74860400  1
  Ag  Ag2  1  0.00000000  0.00000000  0.00000000  1
  Au  Au3  1  0.50000000  0.00000000  0.50000000  1
