# generated using pymatgen
data_BiPd2Au
_symmetry_space_group_name_H-M   'P 1'
_cell_length_a   11.14475806
_cell_length_b   11.14475806
_cell_length_c   11.14475806
_cell_angle_alpha   125.88206939
_cell_angle_beta   118.08958177
_cell_angle_gamma   86.73407390
_symmetry_Int_Tables_number   1
_chemical_formula_structural   BiPd2Au
_chemical_formula_sum   'Bi1 Pd2 Au1'
_cell_volume   941.85696871
_cell_formula_units_Z   1
loop_
 _symmetry_equiv_pos_site_id
 _symmetry_equiv_pos_as_xyz
  1  'x, y, z'
loop_
 _atom_site_type_symbol
 _atom_site_label
 _atom_site_symmetry_multiplicity
 _atom_site_fract_x
 _atom_site_fract_y
 _atom_site_fract_z
 _atom_site_occupancy
  Bi  Bi0  1  0.00000000  0.50000000  0.50000000  1
  Pd  Pd1  1  0.00000000  0.25666700  0.25666700  1
  Pd  Pd2  1  0.00000000  0.74333300  0.74333300  1
  Au  Au3  1  0.00000000  0.00000000  0.00000000  1
