# generated using pymatgen
data_RbNa2Bi
_symmetry_space_group_name_H-M   'P 1'
_cell_length_a   14.27301474
_cell_length_b   14.27301474
_cell_length_c   14.27301474
_cell_angle_alpha   122.00628650
_cell_angle_beta   119.17700127
_cell_angle_gamma   88.99603864
_symmetry_Int_Tables_number   1
_chemical_formula_structural   RbNa2Bi
_chemical_formula_sum   'Rb1 Na2 Bi1'
_cell_volume   2035.73016876
_cell_formula_units_Z   1
loop_
 _symmetry_equiv_pos_site_id
 _symmetry_equiv_pos_as_xyz
  1  'x, y, z'
loop_
 _atom_site_type_symbol
 _atom_site_label
 _atom_site_symmetry_multiplicity
 _atom_site_fract_x
 _atom_site_fract_y
 _atom_site_fract_z
 _atom_site_occupancy
  Rb  Rb0  1  0.00000000  0.00000000  0.00000000  1
  Na  Na1  1  0.00000000  0.27631100  0.27631100  1
  Na  Na2  1  0.00000000  0.72368900  0.72368900  1
  Bi  Bi3  1  0.00000000  0.50000000  0.50000000  1
