# generated using pymatgen
data_Mg2InPb
_symmetry_space_group_name_H-M   'P 1'
_cell_length_a   12.20065312
_cell_length_b   12.20065312
_cell_length_c   12.20065312
_cell_angle_alpha   123.38938355
_cell_angle_beta   118.86799846
_cell_angle_gamma   88.10205264
_symmetry_Int_Tables_number   1
_chemical_formula_structural   Mg2InPb
_chemical_formula_sum   'Mg2 In1 Pb1'
_cell_volume   1258.98459521
_cell_formula_units_Z   1
loop_
 _symmetry_equiv_pos_site_id
 _symmetry_equiv_pos_as_xyz
  1  'x, y, z'
loop_
 _atom_site_type_symbol
 _atom_site_label
 _atom_site_symmetry_multiplicity
 _atom_site_fract_x
 _atom_site_fract_y
 _atom_site_fract_z
 _atom_site_occupancy
  Mg  Mg0  1  0.00000000  0.25320100  0.25320100  1
  Mg  Mg1  1  0.00000000  0.74679900  0.74679900  1
  In  In2  1  0.00000000  0.00000000  0.00000000  1
  Pb  Pb3  1  0.00000000  0.50000000  0.50000000  1
