data_image0
_chemical_formula_structural       Cl20P2Ta2
_chemical_formula_sum              "Cl20 P2 Ta2"
_cell_length_a       6.98221
_cell_length_b       13.1854
_cell_length_c       6.69419
_cell_angle_alpha    91.7767
_cell_angle_beta     105.243
_cell_angle_gamma    90.0522

_space_group_name_H-M_alt    "P 1"
_space_group_IT_number       1

loop_
  _space_group_symop_operation_xyz
  'x, y, z'

loop_
  _atom_site_type_symbol
  _atom_site_label
  _atom_site_symmetry_multiplicity
  _atom_site_fract_x
  _atom_site_fract_y
  _atom_site_fract_z
  _atom_site_occupancy
  Cl  Cl1       1.0  0.60000  0.27800  0.47100  1.0000
  Cl  Cl2       1.0  0.40000  0.72200  0.52900  1.0000
  Cl  Cl3       1.0  0.48000  0.31000  0.89400  1.0000
  Cl  Cl4       1.0  0.52000  0.69000  0.10600  1.0000
  Cl  Cl5       1.0  0.14600  0.28100  0.47000  1.0000
  Cl  Cl6       1.0  0.85400  0.71900  0.53000  1.0000
  Cl  Cl7       1.0  0.30800  0.48000  0.24600  1.0000
  Cl  Cl8       1.0  0.69200  0.52000  0.75400  1.0000
  Cl  Cl9       1.0  0.83100  0.46500  0.25700  1.0000
  Cl  Cl10      1.0  0.16900  0.53500  0.74300  1.0000
  Cl  Cl11      1.0  0.00594  0.67400  0.08430  1.0000
  Cl  Cl12      1.0  0.99400  0.32600  0.91600  1.0000
  Cl  Cl13      1.0  0.41500  0.09310  0.66000  1.0000
  Cl  Cl14      1.0  0.58500  0.90700  0.34000  1.0000
  Cl  Cl15      1.0  0.08020  0.92000  0.32000  1.0000
  Cl  Cl16      1.0  0.92000  0.08040  0.68000  1.0000
  Cl  Cl17      1.0  0.28400  0.10600  0.12100  1.0000
  Cl  Cl18      1.0  0.71600  0.89400  0.87900  1.0000
  Cl  Cl19      1.0  0.80500  0.11700  0.13300  1.0000
  Cl  Cl20      1.0  0.19500  0.88300  0.86700  1.0000
  P   P1        1.0  0.40900  0.23900  0.62400  1.0000
  P   P2        1.0  0.59100  0.76100  0.37600  1.0000
  Ta  Ta1       1.0  0.00000  0.00000  0.00000  1.0000
  Ta  Ta2       1.0  0.00000  0.50000  0.00000  1.0000
