# generated using pymatgen
data_CaTlPd2
_symmetry_space_group_name_H-M   'P 1'
_cell_length_a   11.68109597
_cell_length_b   11.68109597
_cell_length_c   11.68109597
_cell_angle_alpha   127.53688702
_cell_angle_beta   117.60988830
_cell_angle_gamma   85.82971038
_symmetry_Int_Tables_number   1
_chemical_formula_structural   CaTlPd2
_chemical_formula_sum   'Ca1 Tl1 Pd2'
_cell_volume   1068.93653341
_cell_formula_units_Z   1
loop_
 _symmetry_equiv_pos_site_id
 _symmetry_equiv_pos_as_xyz
  1  'x, y, z'
loop_
 _atom_site_type_symbol
 _atom_site_label
 _atom_site_symmetry_multiplicity
 _atom_site_fract_x
 _atom_site_fract_y
 _atom_site_fract_z
 _atom_site_occupancy
  Ca  Ca0  1  0.00000000  0.00000000  0.00000000  1
  Tl  Tl1  1  0.00000000  0.50000000  0.50000000  1
  Pd  Pd2  1  0.00000000  0.24177300  0.24177300  1
  Pd  Pd3  1  0.00000000  0.75822700  0.75822700  1
