# generated using pymatgen
data_CdCu2Rh
_symmetry_space_group_name_H-M   'P 1'
_cell_length_a   10.54135893
_cell_length_b   10.54135893
_cell_length_c   10.54135893
_cell_angle_alpha   124.42537513
_cell_angle_beta   118.93868792
_cell_angle_gamma   87.17957708
_symmetry_Int_Tables_number   1
_chemical_formula_structural   CdCu2Rh
_chemical_formula_sum   'Cd1 Cu2 Rh1'
_cell_volume   803.69617835
_cell_formula_units_Z   1
loop_
 _symmetry_equiv_pos_site_id
 _symmetry_equiv_pos_as_xyz
  1  'x, y, z'
loop_
 _atom_site_type_symbol
 _atom_site_label
 _atom_site_symmetry_multiplicity
 _atom_site_fract_x
 _atom_site_fract_y
 _atom_site_fract_z
 _atom_site_occupancy
  Cd  Cd0  1  0.00000000  0.50000000  0.50000000  1
  Cu  Cu1  1  0.00000000  0.24461600  0.24461600  1
  Cu  Cu2  1  0.00000000  0.75538400  0.75538400  1
  Rh  Rh3  1  0.00000000  0.00000000  0.00000000  1
