# generated using pymatgen
data_BaMgTl2
_symmetry_space_group_name_H-M   'P 1'
_cell_length_a   13.70967214
_cell_length_b   13.70967214
_cell_length_c   13.70967214
_cell_angle_alpha   129.35368803
_cell_angle_beta   116.98111858
_cell_angle_gamma   84.96279757
_symmetry_Int_Tables_number   1
_chemical_formula_structural   BaMgTl2
_chemical_formula_sum   'Ba1 Mg1 Tl2'
_cell_volume   1699.28377987
_cell_formula_units_Z   1
loop_
 _symmetry_equiv_pos_site_id
 _symmetry_equiv_pos_as_xyz
  1  'x, y, z'
loop_
 _atom_site_type_symbol
 _atom_site_label
 _atom_site_symmetry_multiplicity
 _atom_site_fract_x
 _atom_site_fract_y
 _atom_site_fract_z
 _atom_site_occupancy
  Ba  Ba0  1  0.00000000  0.50000000  0.50000000  1
  Mg  Mg1  1  0.00000000  0.00000000  0.00000000  1
  Tl  Tl2  1  0.00000000  0.23354000  0.23354000  1
  Tl  Tl3  1  0.00000000  0.76646000  0.76646000  1
