# generated using pymatgen
data_NaCa2Al
_symmetry_space_group_name_H-M   'P 1'
_cell_length_a   13.50222396
_cell_length_b   13.50222396
_cell_length_c   13.50222396
_cell_angle_alpha   122.19045084
_cell_angle_beta   119.43144222
_cell_angle_gamma   88.61806287
_symmetry_Int_Tables_number   1
_chemical_formula_structural   NaCa2Al
_chemical_formula_sum   'Na1 Ca2 Al1'
_cell_volume   1717.44637064
_cell_formula_units_Z   1
loop_
 _symmetry_equiv_pos_site_id
 _symmetry_equiv_pos_as_xyz
  1  'x, y, z'
loop_
 _atom_site_type_symbol
 _atom_site_label
 _atom_site_symmetry_multiplicity
 _atom_site_fract_x
 _atom_site_fract_y
 _atom_site_fract_z
 _atom_site_occupancy
  Na  Na0  1  0.00000000  0.00000000  0.00000000  1
  Ca  Ca1  1  0.00000000  0.27605400  0.27605400  1
  Ca  Ca2  1  0.00000000  0.72394600  0.72394600  1
  Al  Al3  1  0.00000000  0.50000000  0.50000000  1
