# generated using pymatgen
data_KNa2Pb
_symmetry_space_group_name_H-M   'P 1'
_cell_length_a   12.61009386
_cell_length_b   12.61009386
_cell_length_c   12.61009386
_cell_angle_alpha   124.46904725
_cell_angle_beta   114.27921602
_cell_angle_gamma   91.30962857
_symmetry_Int_Tables_number   1
_chemical_formula_structural   KNa2Pb
_chemical_formula_sum   'K1 Na2 Pb1'
_cell_volume   1417.11044513
_cell_formula_units_Z   1
loop_
 _symmetry_equiv_pos_site_id
 _symmetry_equiv_pos_as_xyz
  1  'x, y, z'
loop_
 _atom_site_type_symbol
 _atom_site_label
 _atom_site_symmetry_multiplicity
 _atom_site_fract_x
 _atom_site_fract_y
 _atom_site_fract_z
 _atom_site_occupancy
  K  K0  1  0.00000000  0.00000000  0.00000000  1
  Na  Na1  1  0.27797000  0.00000000  0.27797000  1
  Na  Na2  1  0.72203000  0.00000000  0.72203000  1
  Pb  Pb3  1  0.50000000  0.00000000  0.50000000  1
