# generated using pymatgen
data_YPdAu2
_symmetry_space_group_name_H-M   'P 1'
_cell_length_a   11.67966924
_cell_length_b   11.67966924
_cell_length_c   11.67966924
_cell_angle_alpha   126.92075508
_cell_angle_beta   117.71069095
_cell_angle_gamma   86.23197130
_symmetry_Int_Tables_number   1
_chemical_formula_structural   YPdAu2
_chemical_formula_sum   'Y1 Pd1 Au2'
_cell_volume   1075.09251751
_cell_formula_units_Z   1
loop_
 _symmetry_equiv_pos_site_id
 _symmetry_equiv_pos_as_xyz
  1  'x, y, z'
loop_
 _atom_site_type_symbol
 _atom_site_label
 _atom_site_symmetry_multiplicity
 _atom_site_fract_x
 _atom_site_fract_y
 _atom_site_fract_z
 _atom_site_occupancy
  Y  Y0  1  0.00000000  0.00000000  0.00000000  1
  Pd  Pd1  1  0.00000000  0.50000000  0.50000000  1
  Au  Au2  1  0.00000000  0.25180100  0.25180100  1
  Au  Au3  1  0.00000000  0.74819900  0.74819900  1
