# generated using pymatgen
data_Mn2SiW
_symmetry_space_group_name_H-M   'P 1'
_cell_length_a   10.29789921
_cell_length_b   10.29789921
_cell_length_c   10.29789921
_cell_angle_alpha   120.85055228
_cell_angle_beta   119.71797452
_cell_angle_gamma   89.51116508
_symmetry_Int_Tables_number   1
_chemical_formula_structural   Mn2SiW
_chemical_formula_sum   'Mn2 Si1 W1'
_cell_volume   768.75889852
_cell_formula_units_Z   1
loop_
 _symmetry_equiv_pos_site_id
 _symmetry_equiv_pos_as_xyz
  1  'x, y, z'
loop_
 _atom_site_type_symbol
 _atom_site_label
 _atom_site_symmetry_multiplicity
 _atom_site_fract_x
 _atom_site_fract_y
 _atom_site_fract_z
 _atom_site_occupancy
  Mn  Mn0  1  0.00000000  0.22746400  0.22746400  1
  Mn  Mn1  1  0.00000000  0.77253600  0.77253600  1
  Si  Si2  1  0.00000000  0.00000000  0.00000000  1
  W  W3  1  0.00000000  0.50000000  0.50000000  1
