# generated using pymatgen
data_MgBe2Pt
_symmetry_space_group_name_H-M   'P 1'
_cell_length_a   10.58786221
_cell_length_b   10.58786221
_cell_length_c   10.58786221
_cell_angle_alpha   128.92582616
_cell_angle_beta   117.09832032
_cell_angle_gamma   85.19110196
_symmetry_Int_Tables_number   1
_chemical_formula_structural   MgBe2Pt
_chemical_formula_sum   'Mg1 Be2 Pt1'
_cell_volume   786.14129625
_cell_formula_units_Z   1
loop_
 _symmetry_equiv_pos_site_id
 _symmetry_equiv_pos_as_xyz
  1  'x, y, z'
loop_
 _atom_site_type_symbol
 _atom_site_label
 _atom_site_symmetry_multiplicity
 _atom_site_fract_x
 _atom_site_fract_y
 _atom_site_fract_z
 _atom_site_occupancy
  Mg  Mg0  1  0.00000000  0.00000000  0.00000000  1
  Be  Be1  1  0.00000000  0.27427600  0.27427600  1
  Be  Be2  1  0.00000000  0.72572400  0.72572400  1
  Pt  Pt3  1  0.00000000  0.50000000  0.50000000  1
