# generated using pymatgen
data_CrSnRu2
_symmetry_space_group_name_H-M   'P 1'
_cell_length_a   10.58214452
_cell_length_b   10.58214452
_cell_length_c   10.58214452
_cell_angle_alpha   128.17127167
_cell_angle_beta   121.31529416
_cell_angle_gamma   82.08166761
_symmetry_Int_Tables_number   1
_chemical_formula_structural   CrSnRu2
_chemical_formula_sum   'Cr1 Sn1 Ru2'
_cell_volume   765.63221083
_cell_formula_units_Z   1
loop_
 _symmetry_equiv_pos_site_id
 _symmetry_equiv_pos_as_xyz
  1  'x, y, z'
loop_
 _atom_site_type_symbol
 _atom_site_label
 _atom_site_symmetry_multiplicity
 _atom_site_fract_x
 _atom_site_fract_y
 _atom_site_fract_z
 _atom_site_occupancy
  Cr  Cr0  1  0.00000000  0.00000000  0.00000000  1
  Sn  Sn1  1  0.00000000  0.50000000  0.50000000  1
  Ru  Ru2  1  0.00000000  0.22058200  0.22058200  1
  Ru  Ru3  1  0.00000000  0.77941800  0.77941800  1
