# generated using pymatgen
data_K2RbBi
_symmetry_space_group_name_H-M   'P 1'
_cell_length_a   15.10928906
_cell_length_b   15.10928906
_cell_length_c   15.10928906
_cell_angle_alpha   119.92882880
_cell_angle_beta   118.31057757
_cell_angle_gamma   91.53716596
_symmetry_Int_Tables_number   1
_chemical_formula_structural   K2RbBi
_chemical_formula_sum   'K2 Rb1 Bi1'
_cell_volume   2469.92442494
_cell_formula_units_Z   1
loop_
 _symmetry_equiv_pos_site_id
 _symmetry_equiv_pos_as_xyz
  1  'x, y, z'
loop_
 _atom_site_type_symbol
 _atom_site_label
 _atom_site_symmetry_multiplicity
 _atom_site_fract_x
 _atom_site_fract_y
 _atom_site_fract_z
 _atom_site_occupancy
  K  K0  1  0.72216500  0.00000000  0.72216500  1
  K  K1  1  0.27783500  0.00000000  0.27783500  1
  Rb  Rb2  1  0.00000000  0.00000000  0.00000000  1
  Bi  Bi3  1  0.50000000  0.00000000  0.50000000  1
