# generated using pymatgen
data_Ta2NbTc
_symmetry_space_group_name_H-M   'P 1'
_cell_length_a   10.62135600
_cell_length_b   10.62135600
_cell_length_c   10.62135600
_cell_angle_alpha   128.30850724
_cell_angle_beta   117.29770346
_cell_angle_gamma   85.49710401
_symmetry_Int_Tables_number   1
_chemical_formula_structural   Ta2NbTc
_chemical_formula_sum   'Ta2 Nb1 Tc1'
_cell_volume   798.31059533
_cell_formula_units_Z   1
loop_
 _symmetry_equiv_pos_site_id
 _symmetry_equiv_pos_as_xyz
  1  'x, y, z'
loop_
 _atom_site_type_symbol
 _atom_site_label
 _atom_site_symmetry_multiplicity
 _atom_site_fract_x
 _atom_site_fract_y
 _atom_site_fract_z
 _atom_site_occupancy
  Ta  Ta0  1  0.00000000  0.25754100  0.25754100  1
  Ta  Ta1  1  0.00000000  0.74245900  0.74245900  1
  Nb  Nb2  1  0.00000000  0.00000000  0.00000000  1
  Tc  Tc3  1  0.00000000  0.50000000  0.50000000  1
