# generated using pymatgen
data_GaTc2Ge
_symmetry_space_group_name_H-M   'P 1'
_cell_length_a   10.27109236
_cell_length_b   10.27109236
_cell_length_c   10.27109236
_cell_angle_alpha   123.08196544
_cell_angle_beta   118.96520977
_cell_angle_gamma   88.27417868
_symmetry_Int_Tables_number   1
_chemical_formula_structural   GaTc2Ge
_chemical_formula_sum   'Ga1 Tc2 Ge1'
_cell_volume   752.69846395
_cell_formula_units_Z   1
loop_
 _symmetry_equiv_pos_site_id
 _symmetry_equiv_pos_as_xyz
  1  'x, y, z'
loop_
 _atom_site_type_symbol
 _atom_site_label
 _atom_site_symmetry_multiplicity
 _atom_site_fract_x
 _atom_site_fract_y
 _atom_site_fract_z
 _atom_site_occupancy
  Ga  Ga0  1  0.00000000  0.00000000  0.00000000  1
  Tc  Tc1  1  0.00000000  0.25664700  0.25664700  1
  Tc  Tc2  1  0.00000000  0.74335300  0.74335300  1
  Ge  Ge3  1  0.00000000  0.50000000  0.50000000  1
