# generated using pymatgen
data_Ba2TlIn
_symmetry_space_group_name_H-M   'P 1'
_cell_length_a   14.03664706
_cell_length_b   14.03664706
_cell_length_c   14.03664706
_cell_angle_alpha   125.87108878
_cell_angle_beta   118.10764601
_cell_angle_gamma   86.72702466
_symmetry_Int_Tables_number   1
_chemical_formula_structural   Ba2TlIn
_chemical_formula_sum   'Ba2 Tl1 In1'
_cell_volume   1881.72299045
_cell_formula_units_Z   1
loop_
 _symmetry_equiv_pos_site_id
 _symmetry_equiv_pos_as_xyz
  1  'x, y, z'
loop_
 _atom_site_type_symbol
 _atom_site_label
 _atom_site_symmetry_multiplicity
 _atom_site_fract_x
 _atom_site_fract_y
 _atom_site_fract_z
 _atom_site_occupancy
  Ba  Ba0  1  0.00000000  0.24984400  0.24984400  1
  Ba  Ba1  1  0.00000000  0.75015600  0.75015600  1
  Tl  Tl2  1  0.00000000  0.50000000  0.50000000  1
  In  In3  1  0.00000000  0.00000000  0.00000000  1
