# generated using pymatgen
data_Y2CdAu
_symmetry_space_group_name_H-M   'P 1'
_cell_length_a   12.48312382
_cell_length_b   12.48312382
_cell_length_c   12.48312382
_cell_angle_alpha   123.04555736
_cell_angle_beta   118.90796287
_cell_angle_gamma   88.35482583
_symmetry_Int_Tables_number   1
_chemical_formula_structural   Y2CdAu
_chemical_formula_sum   'Y2 Cd1 Au1'
_cell_volume   1352.27964805
_cell_formula_units_Z   1
loop_
 _symmetry_equiv_pos_site_id
 _symmetry_equiv_pos_as_xyz
  1  'x, y, z'
loop_
 _atom_site_type_symbol
 _atom_site_label
 _atom_site_symmetry_multiplicity
 _atom_site_fract_x
 _atom_site_fract_y
 _atom_site_fract_z
 _atom_site_occupancy
  Y  Y0  1  0.00000000  0.27260400  0.27260400  1
  Y  Y1  1  0.00000000  0.72739600  0.72739600  1
  Cd  Cd2  1  0.00000000  0.00000000  0.00000000  1
  Au  Au3  1  0.00000000  0.50000000  0.50000000  1
