# generated using pymatgen
data_Zr2TcOs
_symmetry_space_group_name_H-M   'P 1'
_cell_length_a   10.73076432
_cell_length_b   10.73076432
_cell_length_c   10.73076432
_cell_angle_alpha   128.97424321
_cell_angle_beta   114.24523440
_cell_angle_gamma   87.72969187
_symmetry_Int_Tables_number   1
_chemical_formula_structural   Zr2TcOs
_chemical_formula_sum   'Zr2 Tc1 Os1'
_cell_volume   833.17491934
_cell_formula_units_Z   1
loop_
 _symmetry_equiv_pos_site_id
 _symmetry_equiv_pos_as_xyz
  1  'x, y, z'
loop_
 _atom_site_type_symbol
 _atom_site_label
 _atom_site_symmetry_multiplicity
 _atom_site_fract_x
 _atom_site_fract_y
 _atom_site_fract_z
 _atom_site_occupancy
  Zr  Zr0  1  0.00000000  0.24869500  0.24869500  1
  Zr  Zr1  1  0.00000000  0.75130500  0.75130500  1
  Tc  Tc2  1  0.00000000  0.00000000  0.00000000  1
  Os  Os3  1  0.00000000  0.50000000  0.50000000  1
