# generated using pymatgen
data_ZnHC4O3
_symmetry_space_group_name_H-M   'P 1'
_cell_length_a   15.29476641
_cell_length_b   15.29476641
_cell_length_c   15.29476693
_cell_angle_alpha   117.84470261
_cell_angle_beta   117.84470261
_cell_angle_gamma   117.84470305
_symmetry_Int_Tables_number   1
_chemical_formula_structural   ZnHC4O3
_chemical_formula_sum   'Zn6 H6 C24 O18'
_cell_volume   1346.94023408
_cell_formula_units_Z   6
loop_
 _symmetry_equiv_pos_site_id
 _symmetry_equiv_pos_as_xyz
  1  'x, y, z'
loop_
 _atom_site_type_symbol
 _atom_site_label
 _atom_site_symmetry_multiplicity
 _atom_site_fract_x
 _atom_site_fract_y
 _atom_site_fract_z
 _atom_site_occupancy
  Zn  Zn0  1  0.47690200  0.88522100  0.21188900  1
  Zn  Zn1  1  0.52309800  0.11477900  0.78811100  1
  Zn  Zn2  1  0.11477900  0.78811100  0.52309800  1
  Zn  Zn3  1  0.88522100  0.21188900  0.47690200  1
  Zn  Zn4  1  0.78811100  0.52309800  0.11477900  1
  Zn  Zn5  1  0.21188900  0.47690200  0.88522100  1
  H  H6  1  0.37430700  0.81862200  0.34999700  1
  H  H7  1  0.62569300  0.18137800  0.65000300  1
  H  H8  1  0.18137800  0.65000300  0.62569300  1
  H  H9  1  0.81862200  0.34999700  0.37430700  1
  H  H10  1  0.65000300  0.62569300  0.18137800  1
  H  H11  1  0.34999700  0.37430700  0.81862200  1
  C  C12  1  0.43750100  0.96984300  0.86907900  1
  C  C13  1  0.56249900  0.03015700  0.13092100  1
  C  C14  1  0.82864200  0.91396900  0.37870900  1
  C  C15  1  0.17135800  0.08603100  0.62129100  1
  C  C16  1  0.96984300  0.86907900  0.43750100  1
  C  C17  1  0.03015700  0.13092100  0.56249900  1
  C  C18  1  0.37870900  0.82864200  0.91396900  1
  C  C19  1  0.62129100  0.17135800  0.08603100  1
  C  C20  1  0.63951200  0.80968400  0.24341500  1
  C  C21  1  0.36048800  0.19031600  0.75658500  1
  C  C22  1  0.32215100  0.80460400  0.79064800  1
  C  C23  1  0.67784900  0.19539600  0.20935200  1
  C  C24  1  0.80460400  0.79064800  0.32215100  1
  C  C25  1  0.19539600  0.20935200  0.67784900  1
  C  C26  1  0.19031600  0.75658500  0.36048800  1
  C  C27  1  0.80968400  0.24341500  0.63951200  1
  C  C28  1  0.20935200  0.67784900  0.19539600  1
  C  C29  1  0.79064800  0.32215100  0.80460400  1
  C  C30  1  0.24341500  0.63951200  0.80968400  1
  C  C31  1  0.75658500  0.36048800  0.19031600  1
  C  C32  1  0.08603100  0.62129100  0.17135800  1
  C  C33  1  0.91396900  0.37870900  0.82864200  1
  C  C34  1  0.13092100  0.56249900  0.03015700  1
  C  C35  1  0.86907900  0.43750100  0.96984300  1
  O  O36  1  0.65464400  0.91592300  0.28246700  1
  O  O37  1  0.34535600  0.08407700  0.71753300  1
  O  O38  1  0.36735400  0.92735300  0.73472400  1
  O  O39  1  0.63264600  0.07264700  0.26527600  1
  O  O40  1  0.38091100  0.90808100  0.53329300  1
  O  O41  1  0.61908900  0.09191900  0.46670700  1
  O  O42  1  0.92735300  0.73472400  0.36735400  1
  O  O43  1  0.07264700  0.26527600  0.63264600  1
  O  O44  1  0.08407700  0.71753300  0.34535600  1
  O  O45  1  0.91592300  0.28246700  0.65464400  1
  O  O46  1  0.28246700  0.65464400  0.91592300  1
  O  O47  1  0.71753300  0.34535600  0.08407700  1
  O  O48  1  0.26527600  0.63264600  0.07264700  1
  O  O49  1  0.73472400  0.36735400  0.92735300  1
  O  O50  1  0.46670700  0.61908900  0.09191900  1
  O  O51  1  0.53329300  0.38091100  0.90808100  1
  O  O52  1  0.90808100  0.53329300  0.38091100  1
  O  O53  1  0.09191900  0.46670700  0.61908900  1
