# generated using pymatgen
data_CeSe2
_symmetry_space_group_name_H-M   'P 1'
_cell_length_a   16.90655378
_cell_length_b   16.90655378
_cell_length_c   17.30894400
_cell_angle_alpha   90.00000000
_cell_angle_beta   90.00000000
_cell_angle_gamma   119.99999914
_symmetry_Int_Tables_number   1
_chemical_formula_structural   CeSe2
_chemical_formula_sum   'Ce12 Se24'
_cell_volume   4284.61090664
_cell_formula_units_Z   12
loop_
 _symmetry_equiv_pos_site_id
 _symmetry_equiv_pos_as_xyz
  1  'x, y, z'
loop_
 _atom_site_type_symbol
 _atom_site_label
 _atom_site_symmetry_multiplicity
 _atom_site_fract_x
 _atom_site_fract_y
 _atom_site_fract_z
 _atom_site_occupancy
  Ce  Ce0  1  0.43039400  0.56960600  0.10444700  1
  Ce  Ce1  1  0.43039400  0.86078800  0.10444700  1
  Ce  Ce2  1  0.13921200  0.56960600  0.10444700  1
  Ce  Ce3  1  0.56960600  0.43039400  0.89555300  1
  Ce  Ce4  1  0.56960600  0.13921200  0.89555300  1
  Ce  Ce5  1  0.86078800  0.43039400  0.89555300  1
  Ce  Ce6  1  0.56960600  0.43039400  0.60444700  1
  Ce  Ce7  1  0.56960600  0.13921200  0.60444700  1
  Ce  Ce8  1  0.86078800  0.43039400  0.60444700  1
  Ce  Ce9  1  0.43039400  0.56960600  0.39555300  1
  Ce  Ce10  1  0.43039400  0.86078800  0.39555300  1
  Ce  Ce11  1  0.13921200  0.56960600  0.39555300  1
  Se  Se12  1  0.00000000  0.50000000  0.00000000  1
  Se  Se13  1  0.50000000  0.50000000  0.00000000  1
  Se  Se14  1  0.50000000  0.00000000  0.00000000  1
  Se  Se15  1  0.00000000  0.50000000  0.50000000  1
  Se  Se16  1  0.50000000  0.50000000  0.50000000  1
  Se  Se17  1  0.50000000  0.00000000  0.50000000  1
  Se  Se18  1  0.50517400  0.75258700  0.08500500  1
  Se  Se19  1  0.24741300  0.75258700  0.08500500  1
  Se  Se20  1  0.24741300  0.49482600  0.08500500  1
  Se  Se21  1  0.49482600  0.24741300  0.91499500  1
  Se  Se22  1  0.75258700  0.24741300  0.91499500  1
  Se  Se23  1  0.75258700  0.50517400  0.91499500  1
  Se  Se24  1  0.49482600  0.24741300  0.58500500  1
  Se  Se25  1  0.75258700  0.24741300  0.58500500  1
  Se  Se26  1  0.75258700  0.50517400  0.58500500  1
  Se  Se27  1  0.50517400  0.75258700  0.41499500  1
  Se  Se28  1  0.24741300  0.75258700  0.41499500  1
  Se  Se29  1  0.24741300  0.49482600  0.41499500  1
  Se  Se30  1  0.93080100  0.46540100  0.75000000  1
  Se  Se31  1  0.53459900  0.46540100  0.75000000  1
  Se  Se32  1  0.53459900  0.06919900  0.75000000  1
  Se  Se33  1  0.06919900  0.53459900  0.25000000  1
  Se  Se34  1  0.46540100  0.53459900  0.25000000  1
  Se  Se35  1  0.46540100  0.93080100  0.25000000  1
