# generated using pymatgen
data_Ti2BeRe
_symmetry_space_group_name_H-M   'P 1'
_cell_length_a   12.06841434
_cell_length_b   12.06841434
_cell_length_c   12.06841434
_cell_angle_alpha   133.43488959
_cell_angle_beta   113.93900567
_cell_angle_gamma   84.64687908
_symmetry_Int_Tables_number   1
_chemical_formula_structural   Ti2BeRe
_chemical_formula_sum   'Ti2 Be1 Re1'
_cell_volume   1119.99959428
_cell_formula_units_Z   1
loop_
 _symmetry_equiv_pos_site_id
 _symmetry_equiv_pos_as_xyz
  1  'x, y, z'
loop_
 _atom_site_type_symbol
 _atom_site_label
 _atom_site_symmetry_multiplicity
 _atom_site_fract_x
 _atom_site_fract_y
 _atom_site_fract_z
 _atom_site_occupancy
  Ti  Ti0  1  0.00000000  0.27294600  0.27294600  1
  Ti  Ti1  1  0.00000000  0.72705400  0.72705400  1
  Be  Be2  1  0.00000000  0.00000000  0.00000000  1
  Re  Re3  1  0.00000000  0.50000000  0.50000000  1
