# generated using pymatgen
data_Zn(GaS2)2
_symmetry_space_group_name_H-M   'P 1'
_cell_length_a   5.99270000
_cell_length_b   7.33133100
_cell_length_c   12.49505000
_cell_angle_alpha   90.00000000
_cell_angle_beta   90.00000000
_cell_angle_gamma   90.00000000
_symmetry_Int_Tables_number   1
_chemical_formula_structural   Zn(GaS2)2
_chemical_formula_sum   'Zn4 Ga8 S16'
_cell_volume   548.96336543
_cell_formula_units_Z   4
loop_
 _symmetry_equiv_pos_site_id
 _symmetry_equiv_pos_as_xyz
  1  'x, y, z'
loop_
 _atom_site_type_symbol
 _atom_site_label
 _atom_site_symmetry_multiplicity
 _atom_site_fract_x
 _atom_site_fract_y
 _atom_site_fract_z
 _atom_site_occupancy
  Zn  Zn0  1  0.00462200  0.75000000  0.26675700  1
  Zn  Zn1  1  0.49537800  0.75000000  0.76675700  1
  Zn  Zn2  1  0.99537800  0.25000000  0.73324300  1
  Zn  Zn3  1  0.50462200  0.25000000  0.23324300  1
  Ga  Ga4  1  0.58351200  0.75000000  0.08617400  1
  Ga  Ga5  1  0.91648800  0.75000000  0.58617400  1
  Ga  Ga6  1  0.41648800  0.25000000  0.91382600  1
  Ga  Ga7  1  0.08351200  0.25000000  0.41382600  1
  Ga  Ga8  1  0.00000000  0.50000000  0.00000000  1
  Ga  Ga9  1  0.50000000  0.00000000  0.50000000  1
  Ga  Ga10  1  0.00000000  0.00000000  0.00000000  1
  Ga  Ga11  1  0.50000000  0.50000000  0.50000000  1
  S  S12  1  0.20633700  0.75000000  0.08997100  1
  S  S13  1  0.29366300  0.75000000  0.58997100  1
  S  S14  1  0.79366300  0.25000000  0.91002900  1
  S  S15  1  0.70633700  0.25000000  0.41002900  1
  S  S16  1  0.73828500  0.75000000  0.42223600  1
  S  S17  1  0.76171500  0.75000000  0.92223600  1
  S  S18  1  0.26171500  0.25000000  0.57776400  1
  S  S19  1  0.23828500  0.25000000  0.07776400  1
  S  S20  1  0.75917000  0.50432200  0.16205800  1
  S  S21  1  0.74083000  0.99567800  0.66205800  1
  S  S22  1  0.24083000  0.00432200  0.83794200  1
  S  S23  1  0.25917000  0.49567800  0.33794200  1
  S  S24  1  0.24083000  0.49567800  0.83794200  1
  S  S25  1  0.25917000  0.00432200  0.33794200  1
  S  S26  1  0.75917000  0.99567800  0.16205800  1
  S  S27  1  0.74083000  0.50432200  0.66205800  1
