# generated using pymatgen
data_MnBe2Ru
_symmetry_space_group_name_H-M   'P 1'
_cell_length_a   9.17808107
_cell_length_b   9.17808107
_cell_length_c   9.17808107
_cell_angle_alpha   121.16173911
_cell_angle_beta   119.30607564
_cell_angle_gamma   89.60290136
_symmetry_Int_Tables_number   1
_chemical_formula_structural   MnBe2Ru
_chemical_formula_sum   'Mn1 Be2 Ru1'
_cell_volume   544.56230477
_cell_formula_units_Z   1
loop_
 _symmetry_equiv_pos_site_id
 _symmetry_equiv_pos_as_xyz
  1  'x, y, z'
loop_
 _atom_site_type_symbol
 _atom_site_label
 _atom_site_symmetry_multiplicity
 _atom_site_fract_x
 _atom_site_fract_y
 _atom_site_fract_z
 _atom_site_occupancy
  Mn  Mn0  1  0.00000000  0.00000000  0.00000000  1
  Be  Be1  1  0.00000000  0.26699800  0.26699800  1
  Be  Be2  1  0.00000000  0.73300200  0.73300200  1
  Ru  Ru3  1  0.00000000  0.50000000  0.50000000  1
