# generated using pymatgen
data_Y3AgO5
_symmetry_space_group_name_H-M   'P 1'
_cell_length_a   10.20488378
_cell_length_b   10.20488378
_cell_length_c   10.20488353
_cell_angle_alpha   42.02141998
_cell_angle_beta   42.02141998
_cell_angle_gamma   42.02141931
_symmetry_Int_Tables_number   1
_chemical_formula_structural   Y3AgO5
_chemical_formula_sum   'Y9 Ag3 O15'
_cell_volume   430.79186266
_cell_formula_units_Z   3
loop_
 _symmetry_equiv_pos_site_id
 _symmetry_equiv_pos_as_xyz
  1  'x, y, z'
loop_
 _atom_site_type_symbol
 _atom_site_label
 _atom_site_symmetry_multiplicity
 _atom_site_fract_x
 _atom_site_fract_y
 _atom_site_fract_z
 _atom_site_occupancy
  Y  Y0  1  0.01405900  0.50013500  0.50013500  1
  Y  Y1  1  0.50013500  0.50013500  0.01405900  1
  Y  Y2  1  0.50013500  0.01405900  0.50013500  1
  Y  Y3  1  0.74752800  0.29305000  0.29305000  1
  Y  Y4  1  0.29305000  0.29305000  0.74752800  1
  Y  Y5  1  0.29305000  0.74752800  0.29305000  1
  Y  Y6  1  0.25314100  0.70947600  0.70947600  1
  Y  Y7  1  0.70947600  0.70947600  0.25314100  1
  Y  Y8  1  0.70947600  0.25314100  0.70947600  1
  Ag  Ag9  1  0.01851500  0.01851500  0.01851500  1
  Ag  Ag10  1  0.22448600  0.22448600  0.22448600  1
  Ag  Ag11  1  0.80060800  0.80060800  0.80060800  1
  O  O12  1  0.10066200  0.10066200  0.10066200  1
  O  O13  1  0.30144800  0.30144800  0.30144800  1
  O  O14  1  0.88202600  0.88202600  0.88202600  1
  O  O15  1  0.38519800  0.38519800  0.38519800  1
  O  O16  1  0.48401600  0.48401600  0.48401600  1
  O  O17  1  0.59401100  0.59401100  0.59401100  1
  O  O18  1  0.31154200  0.81704000  0.81704000  1
  O  O19  1  0.81704000  0.81704000  0.31154200  1
  O  O20  1  0.81704000  0.31154200  0.81704000  1
  O  O21  1  0.87044000  0.35503700  0.35503700  1
  O  O22  1  0.35503700  0.35503700  0.87044000  1
  O  O23  1  0.35503700  0.87044000  0.35503700  1
  O  O24  1  0.04656700  0.60413900  0.60413900  1
  O  O25  1  0.60413900  0.60413900  0.04656700  1
  O  O26  1  0.60413900  0.04656700  0.60413900  1
