# generated using pymatgen
data_Zn(GaS2)2
_symmetry_space_group_name_H-M   'P 1'
_cell_length_a   12.60830760
_cell_length_b   12.60830760
_cell_length_c   12.60830786
_cell_angle_alpha   16.96641003
_cell_angle_beta   16.96641003
_cell_angle_gamma   16.96640827
_symmetry_Int_Tables_number   1
_chemical_formula_structural   Zn(GaS2)2
_chemical_formula_sum   'Zn1 Ga2 S4'
_cell_volume   148.89011660
_cell_formula_units_Z   1
loop_
 _symmetry_equiv_pos_site_id
 _symmetry_equiv_pos_as_xyz
  1  'x, y, z'
loop_
 _atom_site_type_symbol
 _atom_site_label
 _atom_site_symmetry_multiplicity
 _atom_site_fract_x
 _atom_site_fract_y
 _atom_site_fract_z
 _atom_site_occupancy
  Zn  Zn0  1  0.00000000  0.00000000  0.00000000  1
  Ga  Ga1  1  0.76127100  0.76127100  0.76127100  1
  Ga  Ga2  1  0.23872900  0.23872900  0.23872900  1
  S  S3  1  0.87931100  0.87931100  0.87931100  1
  S  S4  1  0.12068900  0.12068900  0.12068900  1
  S  S5  1  0.29919800  0.29919800  0.29919800  1
  S  S6  1  0.70080200  0.70080200  0.70080200  1
