# generated using pymatgen
data_Ba2PAu
_symmetry_space_group_name_H-M   'P 1'
_cell_length_a   12.95366476
_cell_length_b   12.95366476
_cell_length_c   12.95366476
_cell_angle_alpha   124.41175217
_cell_angle_beta   118.52357297
_cell_angle_gamma   87.55521953
_symmetry_Int_Tables_number   1
_chemical_formula_structural   Ba2PAu
_chemical_formula_sum   'Ba2 P1 Au1'
_cell_volume   1496.14924276
_cell_formula_units_Z   1
loop_
 _symmetry_equiv_pos_site_id
 _symmetry_equiv_pos_as_xyz
  1  'x, y, z'
loop_
 _atom_site_type_symbol
 _atom_site_label
 _atom_site_symmetry_multiplicity
 _atom_site_fract_x
 _atom_site_fract_y
 _atom_site_fract_z
 _atom_site_occupancy
  Ba  Ba0  1  0.00000000  0.23062900  0.23062900  1
  Ba  Ba1  1  0.00000000  0.76937100  0.76937100  1
  P  P2  1  0.00000000  0.00000000  0.00000000  1
  Au  Au3  1  0.00000000  0.50000000  0.50000000  1
