# generated using pymatgen
data_Y2GePd
_symmetry_space_group_name_H-M   'P 1'
_cell_length_a   13.50930819
_cell_length_b   13.50930819
_cell_length_c   13.50930819
_cell_angle_alpha   135.40466838
_cell_angle_beta   115.27788571
_cell_angle_gamma   82.00468432
_symmetry_Int_Tables_number   1
_chemical_formula_structural   Y2GePd
_chemical_formula_sum   'Y2 Ge1 Pd1'
_cell_volume   1511.47566549
_cell_formula_units_Z   1
loop_
 _symmetry_equiv_pos_site_id
 _symmetry_equiv_pos_as_xyz
  1  'x, y, z'
loop_
 _atom_site_type_symbol
 _atom_site_label
 _atom_site_symmetry_multiplicity
 _atom_site_fract_x
 _atom_site_fract_y
 _atom_site_fract_z
 _atom_site_occupancy
  Y  Y0  1  0.00000000  0.24950400  0.24950400  1
  Y  Y1  1  0.00000000  0.75049600  0.75049600  1
  Ge  Ge2  1  0.00000000  0.00000000  0.00000000  1
  Pd  Pd3  1  0.00000000  0.50000000  0.50000000  1
