# generated using pymatgen
data_MgTiCo2
_symmetry_space_group_name_H-M   'P 1'
_cell_length_a   10.49687352
_cell_length_b   10.49687352
_cell_length_c   10.49687352
_cell_angle_alpha   128.04116497
_cell_angle_beta   116.94526171
_cell_angle_gamma   86.02239628
_symmetry_Int_Tables_number   1
_chemical_formula_structural   MgTiCo2
_chemical_formula_sum   'Mg1 Ti1 Co2'
_cell_volume   774.87844133
_cell_formula_units_Z   1
loop_
 _symmetry_equiv_pos_site_id
 _symmetry_equiv_pos_as_xyz
  1  'x, y, z'
loop_
 _atom_site_type_symbol
 _atom_site_label
 _atom_site_symmetry_multiplicity
 _atom_site_fract_x
 _atom_site_fract_y
 _atom_site_fract_z
 _atom_site_occupancy
  Mg  Mg0  1  0.00000000  0.00000000  0.00000000  1
  Ti  Ti1  1  0.00000000  0.50000000  0.50000000  1
  Co  Co2  1  0.00000000  0.28785000  0.28785000  1
  Co  Co3  1  0.00000000  0.71215000  0.71215000  1
