# generated using pymatgen
data_NiS2
_symmetry_space_group_name_H-M   'P 1'
_cell_length_a   5.16964444
_cell_length_b   5.16964444
_cell_length_c   5.16964444
_cell_angle_alpha   144.69012365
_cell_angle_beta   144.69012365
_cell_angle_gamma   50.79655180
_symmetry_Int_Tables_number   1
_chemical_formula_structural   NiS2
_chemical_formula_sum   'Ni1 S2'
_cell_volume   45.91931444
_cell_formula_units_Z   1
loop_
 _symmetry_equiv_pos_site_id
 _symmetry_equiv_pos_as_xyz
  1  'x, y, z'
loop_
 _atom_site_type_symbol
 _atom_site_label
 _atom_site_symmetry_multiplicity
 _atom_site_fract_x
 _atom_site_fract_y
 _atom_site_fract_z
 _atom_site_occupancy
  Ni  Ni0  1  0.50000000  0.50000000  0.00000000  1
  S  S1  1  0.11401000  0.11401000  0.00000000  1
  S  S2  1  0.88599000  0.88599000  0.00000000  1
