# generated using pymatgen
data_Be2ZnOs
_symmetry_space_group_name_H-M   'P 1'
_cell_length_a   8.87521555
_cell_length_b   9.32146465
_cell_length_c   9.32146398
_cell_angle_alpha   60.20955003
_cell_angle_beta   61.57139303
_cell_angle_gamma   61.57139440
_symmetry_Int_Tables_number   1
_chemical_formula_structural   Be2ZnOs
_chemical_formula_sum   'Be2 Zn1 Os1'
_cell_volume   558.80834935
_cell_formula_units_Z   1
loop_
 _symmetry_equiv_pos_site_id
 _symmetry_equiv_pos_as_xyz
  1  'x, y, z'
loop_
 _atom_site_type_symbol
 _atom_site_label
 _atom_site_symmetry_multiplicity
 _atom_site_fract_x
 _atom_site_fract_y
 _atom_site_fract_z
 _atom_site_occupancy
  Be  Be0  1  0.74094500  0.00000000  0.00000000  1
  Be  Be1  1  0.25905500  0.00000000  0.00000000  1
  Zn  Zn2  1  0.00000000  0.00000000  0.00000000  1
  Os  Os3  1  0.50000000  0.00000000  0.00000000  1
