# generated using pymatgen
data_LaBiPd2
_symmetry_space_group_name_H-M   'P 1'
_cell_length_a   12.02053407
_cell_length_b   12.02053407
_cell_length_c   12.02053407
_cell_angle_alpha   130.96340644
_cell_angle_beta   116.56008371
_cell_angle_gamma   84.10458558
_symmetry_Int_Tables_number   1
_chemical_formula_structural   LaBiPd2
_chemical_formula_sum   'La1 Bi1 Pd2'
_cell_volume   1125.57077471
_cell_formula_units_Z   1
loop_
 _symmetry_equiv_pos_site_id
 _symmetry_equiv_pos_as_xyz
  1  'x, y, z'
loop_
 _atom_site_type_symbol
 _atom_site_label
 _atom_site_symmetry_multiplicity
 _atom_site_fract_x
 _atom_site_fract_y
 _atom_site_fract_z
 _atom_site_occupancy
  La  La0  1  0.00000000  0.00000000  0.00000000  1
  Bi  Bi1  1  0.00000000  0.50000000  0.50000000  1
  Pd  Pd2  1  0.00000000  0.23442100  0.23442100  1
  Pd  Pd3  1  0.00000000  0.76557900  0.76557900  1
