# generated using pymatgen
data_Zn4Ga2S7
_symmetry_space_group_name_H-M   'P 1'
_cell_length_a   6.96697900
_cell_length_b   9.69133900
_cell_length_c   9.82933712
_cell_angle_alpha   65.83753771
_cell_angle_beta   90.00000000
_cell_angle_gamma   90.00000000
_symmetry_Int_Tables_number   1
_chemical_formula_structural   Zn4Ga2S7
_chemical_formula_sum   'Zn8 Ga4 S14'
_cell_volume   605.52532665
_cell_formula_units_Z   2
loop_
 _symmetry_equiv_pos_site_id
 _symmetry_equiv_pos_as_xyz
  1  'x, y, z'
loop_
 _atom_site_type_symbol
 _atom_site_label
 _atom_site_symmetry_multiplicity
 _atom_site_fract_x
 _atom_site_fract_y
 _atom_site_fract_z
 _atom_site_occupancy
  Zn  Zn0  1  0.25000000  0.58795700  0.38290400  1
  Zn  Zn1  1  0.75000000  0.41204300  0.61709600  1
  Zn  Zn2  1  0.25000000  0.56677800  0.76815600  1
  Zn  Zn3  1  0.75000000  0.43322200  0.23184400  1
  Zn  Zn4  1  0.25000000  0.02534900  0.03607600  1
  Zn  Zn5  1  0.75000000  0.97465100  0.96392400  1
  Zn  Zn6  1  0.25000000  0.98885400  0.56176700  1
  Zn  Zn7  1  0.75000000  0.01114600  0.43823300  1
  Ga  Ga8  1  0.25000000  0.71969400  0.03226200  1
  Ga  Ga9  1  0.75000000  0.28030600  0.96773800  1
  Ga  Ga10  1  0.25000000  0.31410900  0.28251600  1
  Ga  Ga11  1  0.75000000  0.68589100  0.71748400  1
  S  S12  1  0.48613600  0.81653700  0.13086000  1
  S  S13  1  0.98613600  0.18346300  0.86914000  1
  S  S14  1  0.51386400  0.18346300  0.86914000  1
  S  S15  1  0.01386400  0.81653700  0.13086000  1
  S  S16  1  0.49039300  0.40296800  0.39354900  1
  S  S17  1  0.99039300  0.59703200  0.60645100  1
  S  S18  1  0.50960700  0.59703200  0.60645100  1
  S  S19  1  0.00960700  0.40296800  0.39354900  1
  S  S20  1  0.25000000  0.48002200  0.03695300  1
  S  S21  1  0.75000000  0.51997800  0.96304700  1
  S  S22  1  0.25000000  0.80725100  0.77906200  1
  S  S23  1  0.75000000  0.19274900  0.22093800  1
  S  S24  1  0.25000000  0.06849400  0.32228700  1
  S  S25  1  0.75000000  0.93150600  0.67771300  1
