# generated using pymatgen
data_Sm2Sc2O5
_symmetry_space_group_name_H-M   'P 1'
_cell_length_a   8.89837052
_cell_length_b   8.89837052
_cell_length_c   8.89837052
_cell_angle_alpha   142.86429160
_cell_angle_beta   142.79186255
_cell_angle_gamma   53.58341285
_symmetry_Int_Tables_number   1
_chemical_formula_structural   Sm2Sc2O5
_chemical_formula_sum   'Sm4 Sc4 O10'
_cell_volume   255.57047314
_cell_formula_units_Z   2
loop_
 _symmetry_equiv_pos_site_id
 _symmetry_equiv_pos_as_xyz
  1  'x, y, z'
loop_
 _atom_site_type_symbol
 _atom_site_label
 _atom_site_symmetry_multiplicity
 _atom_site_fract_x
 _atom_site_fract_y
 _atom_site_fract_z
 _atom_site_occupancy
  Sm  Sm0  1  0.67920000  0.11480900  0.52278400  1
  Sm  Sm1  1  0.40797600  0.88519100  0.56439100  1
  Sm  Sm2  1  0.17920000  0.65641500  0.56439100  1
  Sm  Sm3  1  0.90797600  0.34358500  0.52278400  1
  Sc  Sc4  1  0.01863100  0.00000000  0.01863100  1
  Sc  Sc5  1  0.51863100  0.50000000  0.01863100  1
  Sc  Sc6  1  0.26449800  0.28963100  0.05413000  1
  Sc  Sc7  1  0.76449800  0.71036900  0.97486700  1
  O  O8  1  0.73053200  0.22045500  0.03281400  1
  O  O9  1  0.81235900  0.77954500  0.51007700  1
  O  O10  1  0.23053200  0.19771800  0.51007700  1
  O  O11  1  0.31235900  0.80228200  0.03281400  1
  O  O12  1  0.09647400  0.24978500  0.09254900  1
  O  O13  1  0.84276400  0.75021500  0.84668900  1
  O  O14  1  0.59647400  0.50392500  0.84668900  1
  O  O15  1  0.34276400  0.49607500  0.09254900  1
  O  O16  1  0.53064500  0.01926100  0.04990700  1
  O  O17  1  0.03064500  0.98073900  0.51138400  1
