# generated using pymatgen
data_ZnGa4S7
_symmetry_space_group_name_H-M   'P 1'
_cell_length_a   6.14963600
_cell_length_b   6.52198100
_cell_length_c   15.38865000
_cell_angle_alpha   90.00000000
_cell_angle_beta   90.00000000
_cell_angle_gamma   90.00000000
_symmetry_Int_Tables_number   1
_chemical_formula_structural   ZnGa4S7
_chemical_formula_sum   'Zn2 Ga8 S14'
_cell_volume   617.20503726
_cell_formula_units_Z   2
loop_
 _symmetry_equiv_pos_site_id
 _symmetry_equiv_pos_as_xyz
  1  'x, y, z'
loop_
 _atom_site_type_symbol
 _atom_site_label
 _atom_site_symmetry_multiplicity
 _atom_site_fract_x
 _atom_site_fract_y
 _atom_site_fract_z
 _atom_site_occupancy
  Zn  Zn0  1  0.42340800  0.66580900  0.50000000  1
  Zn  Zn1  1  0.92340800  0.33419100  0.00000000  1
  Ga  Ga2  1  0.60065800  0.14031600  0.87322400  1
  Ga  Ga3  1  0.60065800  0.14031600  0.12677600  1
  Ga  Ga4  1  0.10065800  0.85968400  0.62677600  1
  Ga  Ga5  1  0.10065800  0.85968400  0.37322400  1
  Ga  Ga6  1  0.59958900  0.66505000  0.75697200  1
  Ga  Ga7  1  0.59958900  0.66505000  0.24302800  1
  Ga  Ga8  1  0.09958900  0.33495000  0.74302800  1
  Ga  Ga9  1  0.09958900  0.33495000  0.25697200  1
  S  S10  1  0.48409200  0.82278800  0.63000500  1
  S  S11  1  0.48409200  0.82278800  0.36999500  1
  S  S12  1  0.98409200  0.17721200  0.86999500  1
  S  S13  1  0.98409200  0.17721200  0.13000500  1
  S  S14  1  0.48209600  0.81808700  0.87778900  1
  S  S15  1  0.48209600  0.81808700  0.12221100  1
  S  S16  1  0.98209600  0.18191300  0.62221100  1
  S  S17  1  0.98209600  0.18191300  0.37778900  1
  S  S18  1  0.48197200  0.32647200  0.75108300  1
  S  S19  1  0.48197200  0.32647200  0.24891700  1
  S  S20  1  0.98197200  0.67352800  0.74891700  1
  S  S21  1  0.98197200  0.67352800  0.25108300  1
  S  S22  1  0.03577600  0.66903500  0.50000000  1
  S  S23  1  0.53577600  0.33096500  0.00000000  1
