# generated using pymatgen
data_Ti3(HO2)2
_symmetry_space_group_name_H-M   'P 1'
_cell_length_a   3.04276493
_cell_length_b   3.04276493
_cell_length_c   20.41933200
_cell_angle_alpha   90.00000000
_cell_angle_beta   90.00000000
_cell_angle_gamma   120.00002030
_symmetry_Int_Tables_number   1
_chemical_formula_structural   Ti3(HO2)2
_chemical_formula_sum   'Ti6 H4 O8'
_cell_volume   163.72269260
_cell_formula_units_Z   2
loop_
 _symmetry_equiv_pos_site_id
 _symmetry_equiv_pos_as_xyz
  1  'x, y, z'
loop_
 _atom_site_type_symbol
 _atom_site_label
 _atom_site_symmetry_multiplicity
 _atom_site_fract_x
 _atom_site_fract_y
 _atom_site_fract_z
 _atom_site_occupancy
  Ti  Ti0  1  0.00000000  0.00000000  0.86800000  1
  Ti  Ti1  1  0.00000000  0.00000000  0.13200000  1
  Ti  Ti2  1  0.66666700  0.33333300  0.63186500  1
  Ti  Ti3  1  0.33333300  0.66666700  0.36813500  1
  Ti  Ti4  1  0.33333300  0.66666700  0.74996300  1
  Ti  Ti5  1  0.66666700  0.33333300  0.25003700  1
  H  H6  1  0.33333300  0.66666700  0.52178800  1
  H  H7  1  0.66666700  0.33333300  0.47821200  1
  H  H8  1  0.33333300  0.66666700  0.97823300  1
  H  H9  1  0.66666700  0.33333300  0.02176700  1
  O  O10  1  0.33333300  0.66666700  0.57012100  1
  O  O11  1  0.66666700  0.33333300  0.42987900  1
  O  O12  1  0.00000000  0.00000000  0.69258200  1
  O  O13  1  0.00000000  0.00000000  0.30741800  1
  O  O14  1  0.66666700  0.33333300  0.80742000  1
  O  O15  1  0.33333300  0.66666700  0.19258000  1
  O  O16  1  0.33333300  0.66666700  0.92987800  1
  O  O17  1  0.66666700  0.33333300  0.07012200  1
