# generated using pymatgen
data_InAg2Au
_symmetry_space_group_name_H-M   'P 1'
_cell_length_a   11.36610213
_cell_length_b   11.36610213
_cell_length_c   11.36610213
_cell_angle_alpha   124.32378613
_cell_angle_beta   118.58034706
_cell_angle_gamma   87.57798051
_symmetry_Int_Tables_number   1
_chemical_formula_structural   InAg2Au
_chemical_formula_sum   'In1 Ag2 Au1'
_cell_volume   1011.15746737
_cell_formula_units_Z   1
loop_
 _symmetry_equiv_pos_site_id
 _symmetry_equiv_pos_as_xyz
  1  'x, y, z'
loop_
 _atom_site_type_symbol
 _atom_site_label
 _atom_site_symmetry_multiplicity
 _atom_site_fract_x
 _atom_site_fract_y
 _atom_site_fract_z
 _atom_site_occupancy
  In  In0  1  0.00000000  0.00000000  0.00000000  1
  Ag  Ag1  1  0.00000000  0.24898900  0.24898900  1
  Ag  Ag2  1  0.00000000  0.75101100  0.75101100  1
  Au  Au3  1  0.00000000  0.50000000  0.50000000  1
