# generated using pymatgen
data_Be2AgPt
_symmetry_space_group_name_H-M   'P 1'
_cell_length_a   9.60264222
_cell_length_b   9.60264222
_cell_length_c   9.60264222
_cell_angle_alpha   126.15125554
_cell_angle_beta   117.94993558
_cell_angle_gamma   86.63946342
_symmetry_Int_Tables_number   1
_chemical_formula_structural   Be2AgPt
_chemical_formula_sum   'Be2 Ag1 Pt1'
_cell_volume   601.39783977
_cell_formula_units_Z   1
loop_
 _symmetry_equiv_pos_site_id
 _symmetry_equiv_pos_as_xyz
  1  'x, y, z'
loop_
 _atom_site_type_symbol
 _atom_site_label
 _atom_site_symmetry_multiplicity
 _atom_site_fract_x
 _atom_site_fract_y
 _atom_site_fract_z
 _atom_site_occupancy
  Be  Be0  1  0.00000000  0.26261800  0.26261800  1
  Be  Be1  1  0.00000000  0.73738200  0.73738200  1
  Ag  Ag2  1  0.00000000  0.00000000  0.00000000  1
  Pt  Pt3  1  0.00000000  0.50000000  0.50000000  1
