data_image0
_chemical_formula_structural       B64H80
_chemical_formula_sum              "B64 H80"
_cell_length_a       5.46564
_cell_length_b       12.9091
_cell_length_c       15.7196
_cell_angle_alpha    90
_cell_angle_beta     88.568
_cell_angle_gamma    90

_space_group_name_H-M_alt    "P 1"
_space_group_IT_number       1

loop_
  _space_group_symop_operation_xyz
  'x, y, z'

loop_
  _atom_site_type_symbol
  _atom_site_label
  _atom_site_symmetry_multiplicity
  _atom_site_fract_x
  _atom_site_fract_y
  _atom_site_fract_z
  _atom_site_occupancy
  B   B1        1.0  0.69600  0.19100  0.98500  1.0000
  B   B2        1.0  0.30400  0.69100  0.51500  1.0000
  B   B3        1.0  0.30400  0.80900  0.01540  1.0000
  B   B4        1.0  0.69600  0.30900  0.48500  1.0000
  B   B5        1.0  0.70900  0.39900  0.04650  1.0000
  B   B6        1.0  0.29100  0.89900  0.45300  1.0000
  B   B7        1.0  0.29100  0.60100  0.95300  1.0000
  B   B8        1.0  0.70900  0.10100  0.54700  1.0000
  B   B9        1.0  0.56400  0.31600  0.97700  1.0000
  B   B10       1.0  0.43600  0.81600  0.52300  1.0000
  B   B11       1.0  0.43600  0.68400  0.02280  1.0000
  B   B12       1.0  0.56400  0.18400  0.47700  1.0000
  B   B13       1.0  0.87600  0.30800  0.98900  1.0000
  B   B14       1.0  0.12400  0.80800  0.51100  1.0000
  B   B15       1.0  0.12400  0.69200  0.01050  1.0000
  B   B16       1.0  0.87600  0.19200  0.48900  1.0000
  B   B17       1.0  0.93200  0.32600  0.10100  1.0000
  B   B18       1.0  0.06810  0.82600  0.39900  1.0000
  B   B19       1.0  0.06810  0.67400  0.89900  1.0000
  B   B20       1.0  0.93200  0.17400  0.60100  1.0000
  B   B21       1.0  0.74800  0.98700  0.11500  1.0000
  B   B22       1.0  0.25200  0.48700  0.38500  1.0000
  B   B23       1.0  0.25200  0.01250  0.88500  1.0000
  B   B24       1.0  0.74800  0.51300  0.61500  1.0000
  B   B25       1.0  0.94600  0.19900  0.05470  1.0000
  B   B26       1.0  0.05440  0.69900  0.44500  1.0000
  B   B27       1.0  0.05440  0.80100  0.94500  1.0000
  B   B28       1.0  0.94600  0.30100  0.55500  1.0000
  B   B29       1.0  0.58200  0.96500  0.21300  1.0000
  B   B30       1.0  0.41800  0.46500  0.28700  1.0000
  B   B31       1.0  0.41800  0.03540  0.78700  1.0000
  B   B32       1.0  0.58200  0.53500  0.71300  1.0000
  B   B33       1.0  0.69800  0.12800  0.08770  1.0000
  B   B34       1.0  0.30200  0.62800  0.41200  1.0000
  B   B35       1.0  0.30200  0.87200  0.91200  1.0000
  B   B36       1.0  0.69800  0.37200  0.58800  1.0000
  B   B37       1.0  0.82600  0.21400  0.15600  1.0000
  B   B38       1.0  0.17400  0.71400  0.34400  1.0000
  B   B39       1.0  0.17400  0.78600  0.84400  1.0000
  B   B40       1.0  0.82600  0.28600  0.65600  1.0000
  B   B41       1.0  0.72600  0.18100  0.25800  1.0000
  B   B42       1.0  0.27400  0.68100  0.24200  1.0000
  B   B43       1.0  0.27400  0.81900  0.74200  1.0000
  B   B44       1.0  0.72600  0.31900  0.75800  1.0000
  B   B45       1.0  0.47600  0.05600  0.13800  1.0000
  B   B46       1.0  0.52400  0.55600  0.36200  1.0000
  B   B47       1.0  0.52400  0.94400  0.86200  1.0000
  B   B48       1.0  0.47600  0.44400  0.63800  1.0000
  B   B49       1.0  0.52200  0.18600  0.17200  1.0000
  B   B50       1.0  0.47800  0.68600  0.32800  1.0000
  B   B51       1.0  0.47800  0.81400  0.82800  1.0000
  B   B52       1.0  0.52200  0.31400  0.67200  1.0000
  B   B53       1.0  0.48700  0.08960  0.24800  1.0000
  B   B54       1.0  0.51300  0.59000  0.25200  1.0000
  B   B55       1.0  0.51300  0.91000  0.75200  1.0000
  B   B56       1.0  0.48700  0.41000  0.74800  1.0000
  B   B57       1.0  0.75000  0.03440  0.28900  1.0000
  B   B58       1.0  0.25000  0.53400  0.21100  1.0000
  B   B59       1.0  0.25000  0.96600  0.71100  1.0000
  B   B60       1.0  0.75000  0.46600  0.78900  1.0000
  B   B61       1.0  0.89400  0.95600  0.21100  1.0000
  B   B62       1.0  0.10600  0.45600  0.28900  1.0000
  B   B63       1.0  0.10600  0.04420  0.78900  1.0000
  B   B64       1.0  0.89400  0.54400  0.71100  1.0000
  H   H1        1.0  0.47500  0.22300  0.00554  1.0000
  H   H2        1.0  0.52500  0.72300  0.49400  1.0000
  H   H3        1.0  0.52500  0.77700  0.99400  1.0000
  H   H4        1.0  0.47500  0.27700  0.50600  1.0000
  H   H5        1.0  0.73100  0.37100  0.13000  1.0000
  H   H6        1.0  0.26900  0.87100  0.37000  1.0000
  H   H7        1.0  0.26900  0.62900  0.87000  1.0000
  H   H8        1.0  0.73100  0.12900  0.63000  1.0000
  H   H9        1.0  0.47600  0.36500  0.04790  1.0000
  H   H10       1.0  0.52400  0.86500  0.45200  1.0000
  H   H11       1.0  0.52400  0.63500  0.95200  1.0000
  H   H12       1.0  0.47600  0.13500  0.54800  1.0000
  H   H13       1.0  0.01850  0.33300  0.93500  1.0000
  H   H14       1.0  0.98200  0.83300  0.56500  1.0000
  H   H15       1.0  0.98200  0.66700  0.06530  1.0000
  H   H16       1.0  0.01850  0.16700  0.43500  1.0000
  H   H17       1.0  0.10700  0.37200  0.12300  1.0000
  H   H18       1.0  0.89300  0.87200  0.37700  1.0000
  H   H19       1.0  0.89300  0.62800  0.87700  1.0000
  H   H20       1.0  0.10700  0.12800  0.62300  1.0000
  H   H21       1.0  0.70800  0.49100  0.04150  1.0000
  H   H22       1.0  0.29200  0.99100  0.45900  1.0000
  H   H23       1.0  0.29200  0.50900  0.95900  1.0000
  H   H24       1.0  0.70800  0.00935  0.54100  1.0000
  H   H25       1.0  0.44600  0.34500  0.92000  1.0000
  H   H26       1.0  0.55400  0.84500  0.58000  1.0000
  H   H27       1.0  0.55400  0.65500  0.08050  1.0000
  H   H28       1.0  0.44600  0.15500  0.42000  1.0000
  H   H29       1.0  0.69200  0.14100  0.92100  1.0000
  H   H30       1.0  0.30800  0.64100  0.57900  1.0000
  H   H31       1.0  0.30800  0.85900  0.07910  1.0000
  H   H32       1.0  0.69200  0.35900  0.42100  1.0000
  H   H33       1.0  0.95200  0.17900  0.22100  1.0000
  H   H34       1.0  0.04840  0.67900  0.27900  1.0000
  H   H35       1.0  0.04840  0.82100  0.77900  1.0000
  H   H36       1.0  0.95200  0.32100  0.72100  1.0000
  H   H37       1.0  0.98000  0.03090  0.26200  1.0000
  H   H38       1.0  0.01970  0.53100  0.23800  1.0000
  H   H39       1.0  0.01970  0.96900  0.73800  1.0000
  H   H40       1.0  0.98000  0.46900  0.76200  1.0000
  H   H41       1.0  0.97200  0.00700  0.14100  1.0000
  H   H42       1.0  0.02770  0.50700  0.35900  1.0000
  H   H43       1.0  0.02770  0.99300  0.85900  1.0000
  H   H44       1.0  0.97200  0.49300  0.64100  1.0000
  H   H45       1.0  0.77200  0.92900  0.05760  1.0000
  H   H46       1.0  0.22800  0.42900  0.44200  1.0000
  H   H47       1.0  0.22800  0.07130  0.94200  1.0000
  H   H48       1.0  0.77200  0.57100  0.55800  1.0000
  H   H49       1.0  0.13900  0.16100  0.03940  1.0000
  H   H50       1.0  0.86100  0.66100  0.46100  1.0000
  H   H51       1.0  0.86100  0.83900  0.96100  1.0000
  H   H52       1.0  0.13900  0.33900  0.53900  1.0000
  H   H53       1.0  0.37000  0.25100  0.16300  1.0000
  H   H54       1.0  0.63000  0.75100  0.33700  1.0000
  H   H55       1.0  0.63000  0.74900  0.83700  1.0000
  H   H56       1.0  0.37000  0.24900  0.66300  1.0000
  H   H57       1.0  0.32100  0.09630  0.29900  1.0000
  H   H58       1.0  0.67900  0.59600  0.20100  1.0000
  H   H59       1.0  0.67900  0.90400  0.70100  1.0000
  H   H60       1.0  0.32100  0.40400  0.79900  1.0000
  H   H61       1.0  0.30200  0.03140  0.09810  1.0000
  H   H62       1.0  0.69800  0.53100  0.40200  1.0000
  H   H63       1.0  0.69800  0.96900  0.90200  1.0000
  H   H64       1.0  0.30200  0.46900  0.59800  1.0000
  H   H65       1.0  0.76000  0.01680  0.36300  1.0000
  H   H66       1.0  0.24000  0.51700  0.13700  1.0000
  H   H67       1.0  0.24000  0.98300  0.63700  1.0000
  H   H68       1.0  0.76000  0.48300  0.86300  1.0000
  H   H69       1.0  0.02320  0.88300  0.22000  1.0000
  H   H70       1.0  0.97700  0.38300  0.28000  1.0000
  H   H71       1.0  0.97700  0.11700  0.78000  1.0000
  H   H72       1.0  0.02320  0.61700  0.72000  1.0000
  H   H73       1.0  0.46100  0.89000  0.22900  1.0000
  H   H74       1.0  0.53900  0.39000  0.27100  1.0000
  H   H75       1.0  0.53900  0.11000  0.77100  1.0000
  H   H76       1.0  0.46100  0.61000  0.72900  1.0000
  H   H77       1.0  0.74200  0.24000  0.31500  1.0000
  H   H78       1.0  0.25800  0.74000  0.18500  1.0000
  H   H79       1.0  0.25800  0.76000  0.68500  1.0000
  H   H80       1.0  0.74200  0.26000  0.81500  1.0000
