# generated using pymatgen
data_Zn2Ga2S5
_symmetry_space_group_name_H-M   'P 1'
_cell_length_a   15.25387899
_cell_length_b   15.25387899
_cell_length_c   15.25387929
_cell_angle_alpha   13.90759359
_cell_angle_beta   13.90759359
_cell_angle_gamma   13.90759659
_symmetry_Int_Tables_number   1
_chemical_formula_structural   Zn2Ga2S5
_chemical_formula_sum   'Zn2 Ga2 S5'
_cell_volume   178.44773658
_cell_formula_units_Z   1
loop_
 _symmetry_equiv_pos_site_id
 _symmetry_equiv_pos_as_xyz
  1  'x, y, z'
loop_
 _atom_site_type_symbol
 _atom_site_label
 _atom_site_symmetry_multiplicity
 _atom_site_fract_x
 _atom_site_fract_y
 _atom_site_fract_z
 _atom_site_occupancy
  Zn  Zn0  1  0.86663700  0.86663700  0.86663700  1
  Zn  Zn1  1  0.13336300  0.13336300  0.13336300  1
  Ga  Ga2  1  0.72376900  0.72376900  0.72376900  1
  Ga  Ga3  1  0.27623100  0.27623100  0.27623100  1
  S  S4  1  0.50000000  0.50000000  0.50000000  1
  S  S5  1  0.77246000  0.77246000  0.77246000  1
  S  S6  1  0.22754000  0.22754000  0.22754000  1
  S  S7  1  0.63206700  0.63206700  0.63206700  1
  S  S8  1  0.36793300  0.36793300  0.36793300  1
