# generated using pymatgen
data_CeSe2
_symmetry_space_group_name_H-M   'P 1'
_cell_length_a   21.62144063
_cell_length_b   21.62144063
_cell_length_c   20.43673736
_cell_angle_alpha   71.94654488
_cell_angle_beta   71.94654488
_cell_angle_gamma   22.96762059
_symmetry_Int_Tables_number   1
_chemical_formula_structural   CeSe2
_chemical_formula_sum   'Ce14 Se28'
_cell_volume   3536.71728798
_cell_formula_units_Z   14
loop_
 _symmetry_equiv_pos_site_id
 _symmetry_equiv_pos_as_xyz
  1  'x, y, z'
loop_
 _atom_site_type_symbol
 _atom_site_label
 _atom_site_symmetry_multiplicity
 _atom_site_fract_x
 _atom_site_fract_y
 _atom_site_fract_z
 _atom_site_occupancy
  Ce  Ce0  1  0.92853300  0.92853300  0.15932300  1
  Ce  Ce1  1  0.07146700  0.07146700  0.84067700  1
  Ce  Ce2  1  0.93765000  0.93765000  0.91330100  1
  Ce  Ce3  1  0.06235000  0.06235000  0.08669900  1
  Ce  Ce4  1  0.63061100  0.63061100  0.70889800  1
  Ce  Ce5  1  0.36938900  0.36938900  0.29110200  1
  Ce  Ce6  1  0.61929500  0.61929500  0.12031100  1
  Ce  Ce7  1  0.38070500  0.38070500  0.87968900  1
  Ce  Ce8  1  0.70666200  0.70666200  0.86556500  1
  Ce  Ce9  1  0.29333800  0.29333800  0.13443500  1
  Ce  Ce10  1  0.72096900  0.72096900  0.20974700  1
  Ce  Ce11  1  0.27903100  0.27903100  0.79025300  1
  Ce  Ce12  1  0.71576500  0.71576500  0.47821300  1
  Ce  Ce13  1  0.28423500  0.28423500  0.52178700  1
  Se  Se14  1  0.90352200  0.90352200  0.05133600  1
  Se  Se15  1  0.09647800  0.09647800  0.94866400  1
  Se  Se16  1  0.99555500  0.99555500  0.10849000  1
  Se  Se17  1  0.00444500  0.00444500  0.89151000  1
  Se  Se18  1  0.15819400  0.65960600  0.24401100  1
  Se  Se19  1  0.65960600  0.15819400  0.24401100  1
  Se  Se20  1  0.84180600  0.34039400  0.75598900  1
  Se  Se21  1  0.34039400  0.84180600  0.75598900  1
  Se  Se22  1  0.68448300  0.68448300  0.75466800  1
  Se  Se23  1  0.31551700  0.31551700  0.24533200  1
  Se  Se24  1  0.32839700  0.82777900  0.15174400  1
  Se  Se25  1  0.82777900  0.32839700  0.15174400  1
  Se  Se26  1  0.67160300  0.17222100  0.84825600  1
  Se  Se27  1  0.17222100  0.67160300  0.84825600  1
  Se  Se28  1  0.65294900  0.65294900  0.56877700  1
  Se  Se29  1  0.34705100  0.34705100  0.43122300  1
  Se  Se30  1  0.00000000  0.50000000  0.50000000  1
  Se  Se31  1  0.50000000  0.00000000  0.50000000  1
  Se  Se32  1  0.00348300  0.50359200  0.13898000  1
  Se  Se33  1  0.50359200  0.00348300  0.13898000  1
  Se  Se34  1  0.99651700  0.49640800  0.86102000  1
  Se  Se35  1  0.49640800  0.99651700  0.86102000  1
  Se  Se36  1  0.65774900  0.65774900  0.20505100  1
  Se  Se37  1  0.34225100  0.34225100  0.79494900  1
  Se  Se38  1  0.65512200  0.65512200  0.98452800  1
  Se  Se39  1  0.34487800  0.34487800  0.01547200  1
  Se  Se40  1  0.71688000  0.71688000  0.34513600  1
  Se  Se41  1  0.28312000  0.28312000  0.65486400  1
