# generated using pymatgen
data_ZrSn
_symmetry_space_group_name_H-M   'P 1'
_cell_length_a   5.31840900
_cell_length_b   5.60390700
_cell_length_c   12.60079100
_cell_angle_alpha   90.00000000
_cell_angle_beta   90.00000000
_cell_angle_gamma   90.00000000
_symmetry_Int_Tables_number   1
_chemical_formula_structural   ZrSn
_chemical_formula_sum   'Zr8 Sn8'
_cell_volume   375.55232960
_cell_formula_units_Z   8
loop_
 _symmetry_equiv_pos_site_id
 _symmetry_equiv_pos_as_xyz
  1  'x, y, z'
loop_
 _atom_site_type_symbol
 _atom_site_label
 _atom_site_symmetry_multiplicity
 _atom_site_fract_x
 _atom_site_fract_y
 _atom_site_fract_z
 _atom_site_occupancy
  Zr  Zr0  1  0.00000000  0.67780600  0.00000000  1
  Zr  Zr1  1  0.00000000  0.16679000  0.37545100  1
  Zr  Zr2  1  0.00000000  0.66140600  0.50000000  1
  Zr  Zr3  1  0.00000000  0.16679000  0.62454900  1
  Zr  Zr4  1  0.50000000  0.33859400  0.00000000  1
  Zr  Zr5  1  0.50000000  0.83321000  0.12454900  1
  Zr  Zr6  1  0.50000000  0.32219400  0.50000000  1
  Zr  Zr7  1  0.50000000  0.83321000  0.87545100  1
  Sn  Sn8  1  0.00000000  0.16738800  0.12257300  1
  Sn  Sn9  1  0.00000000  0.65979400  0.25025400  1
  Sn  Sn10  1  0.00000000  0.65979400  0.74974600  1
  Sn  Sn11  1  0.00000000  0.16738800  0.87742700  1
  Sn  Sn12  1  0.50000000  0.34020600  0.24974600  1
  Sn  Sn13  1  0.50000000  0.83261200  0.37742700  1
  Sn  Sn14  1  0.50000000  0.83261200  0.62257300  1
  Sn  Sn15  1  0.50000000  0.34020600  0.75025400  1
