# generated using pymatgen
data_ZrSn
_symmetry_space_group_name_H-M   'P 1'
_cell_length_a   5.22696800
_cell_length_b   5.61123300
_cell_length_c   9.54573200
_cell_angle_alpha   90.00000000
_cell_angle_beta   90.00000000
_cell_angle_gamma   90.00000000
_symmetry_Int_Tables_number   1
_chemical_formula_structural   ZrSn
_chemical_formula_sum   'Zr6 Sn6'
_cell_volume   279.97379311
_cell_formula_units_Z   6
loop_
 _symmetry_equiv_pos_site_id
 _symmetry_equiv_pos_as_xyz
  1  'x, y, z'
loop_
 _atom_site_type_symbol
 _atom_site_label
 _atom_site_symmetry_multiplicity
 _atom_site_fract_x
 _atom_site_fract_y
 _atom_site_fract_z
 _atom_site_occupancy
  Zr  Zr0  1  0.00000000  0.95593200  0.26381400  1
  Zr  Zr1  1  0.00000000  0.02527800  0.93783200  1
  Zr  Zr2  1  0.50000000  0.33447100  0.23817200  1
  Zr  Zr3  1  0.00000000  0.52527800  0.06216800  1
  Zr  Zr4  1  0.00000000  0.45593200  0.73618600  1
  Zr  Zr5  1  0.50000000  0.83447100  0.76182800  1
  Sn  Sn6  1  0.00000000  0.94595000  0.60707600  1
  Sn  Sn7  1  0.50000000  0.40504600  0.56874200  1
  Sn  Sn8  1  0.50000000  0.33338400  0.91144800  1
  Sn  Sn9  1  0.00000000  0.44595000  0.39292400  1
  Sn  Sn10  1  0.50000000  0.90504600  0.43125800  1
  Sn  Sn11  1  0.50000000  0.83338400  0.08855200  1
