# generated using pymatgen
data_Mg2Ti
_symmetry_space_group_name_H-M   'P 1'
_cell_length_a   4.85453900
_cell_length_b   8.34435200
_cell_length_c   12.43112883
_cell_angle_alpha   79.09029700
_cell_angle_beta   90.00000000
_cell_angle_gamma   90.00000000
_symmetry_Int_Tables_number   1
_chemical_formula_structural   Mg2Ti
_chemical_formula_sum   'Mg16 Ti8'
_cell_volume   494.45894305
_cell_formula_units_Z   8
loop_
 _symmetry_equiv_pos_site_id
 _symmetry_equiv_pos_as_xyz
  1  'x, y, z'
loop_
 _atom_site_type_symbol
 _atom_site_label
 _atom_site_symmetry_multiplicity
 _atom_site_fract_x
 _atom_site_fract_y
 _atom_site_fract_z
 _atom_site_occupancy
  Mg  Mg0  1  0.25000000  0.28218400  0.39988400  1
  Mg  Mg1  1  0.25000000  0.28619400  0.15351600  1
  Mg  Mg2  1  0.75000000  0.05872100  0.42775400  1
  Mg  Mg3  1  0.75000000  0.05642400  0.17993300  1
  Mg  Mg4  1  0.75000000  0.06409000  0.68126300  1
  Mg  Mg5  1  0.75000000  0.05995000  0.93036700  1
  Mg  Mg6  1  0.25000000  0.94127900  0.57224600  1
  Mg  Mg7  1  0.25000000  0.93591000  0.31873700  1
  Mg  Mg8  1  0.25000000  0.94357600  0.82006700  1
  Mg  Mg9  1  0.25000000  0.94005000  0.06963300  1
  Mg  Mg10  1  0.75000000  0.71380600  0.84648400  1
  Mg  Mg11  1  0.75000000  0.71781600  0.60011600  1
  Mg  Mg12  1  0.25000000  0.61137700  0.98773400  1
  Mg  Mg13  1  0.25000000  0.61034400  0.48533200  1
  Mg  Mg14  1  0.75000000  0.38862300  0.01226600  1
  Mg  Mg15  1  0.75000000  0.38965600  0.51466800  1
  Ti  Ti16  1  0.25000000  0.28934500  0.88182100  1
  Ti  Ti17  1  0.25000000  0.28992900  0.67138900  1
  Ti  Ti18  1  0.75000000  0.71065500  0.11817900  1
  Ti  Ti19  1  0.75000000  0.71007100  0.32861100  1
  Ti  Ti20  1  0.25000000  0.57786300  0.74015100  1
  Ti  Ti21  1  0.25000000  0.61288800  0.23665100  1
  Ti  Ti22  1  0.75000000  0.42213700  0.25984900  1
  Ti  Ti23  1  0.75000000  0.38711200  0.76334900  1
