data_image0
_chemical_formula_structural       Cs2Pd3S4
_chemical_formula_sum              "Cs2 Pd3 S4"
_cell_length_a       7.60067
_cell_length_b       7.60067
_cell_length_c       6.25593
_cell_angle_alpha    77.7261
_cell_angle_beta     102.274
_cell_angle_gamma    49.4089

_space_group_name_H-M_alt    "P 1"
_space_group_IT_number       1

loop_
  _space_group_symop_operation_xyz
  'x, y, z'

loop_
  _atom_site_type_symbol
  _atom_site_label
  _atom_site_symmetry_multiplicity
  _atom_site_fract_x
  _atom_site_fract_y
  _atom_site_fract_z
  _atom_site_occupancy
  Cs  Cs1       1.0  0.15900  0.15900  0.00000  1.0000
  Cs  Cs2       1.0  0.84100  0.84100  0.00000  1.0000
  Pd  Pd1       1.0  0.50000  0.50000  0.50000  1.0000
  Pd  Pd2       1.0  0.00000  0.00000  0.50000  1.0000
  Pd  Pd3       1.0  0.50000  0.50000  0.00000  1.0000
  S   S1        1.0  0.55800  0.22100  0.33600  1.0000
  S   S2        1.0  0.22100  0.55800  0.66400  1.0000
  S   S3        1.0  0.44200  0.77900  0.66400  1.0000
  S   S4        1.0  0.77900  0.44200  0.33600  1.0000
