# generated using pymatgen
data_Mg2Ti
_symmetry_space_group_name_H-M   'P 1'
_cell_length_a   5.34081916
_cell_length_b   5.34081916
_cell_length_c   5.60718036
_cell_angle_alpha   66.01946700
_cell_angle_beta   66.01946700
_cell_angle_gamma   61.55835625
_symmetry_Int_Tables_number   1
_chemical_formula_structural   Mg2Ti
_chemical_formula_sum   'Mg4 Ti2'
_cell_volume   123.90529520
_cell_formula_units_Z   2
loop_
 _symmetry_equiv_pos_site_id
 _symmetry_equiv_pos_as_xyz
  1  'x, y, z'
loop_
 _atom_site_type_symbol
 _atom_site_label
 _atom_site_symmetry_multiplicity
 _atom_site_fract_x
 _atom_site_fract_y
 _atom_site_fract_z
 _atom_site_occupancy
  Mg  Mg0  1  0.24544000  0.42196800  0.74773200  1
  Mg  Mg1  1  0.57803200  0.75456000  0.75226800  1
  Mg  Mg2  1  0.42196800  0.24544000  0.24773200  1
  Mg  Mg3  1  0.75456000  0.57803200  0.25226800  1
  Ti  Ti4  1  0.07862700  0.92137300  0.25000000  1
  Ti  Ti5  1  0.92137300  0.07862700  0.75000000  1
