# generated using pymatgen
data_YMg3
_symmetry_space_group_name_H-M   'P 1'
_cell_length_a   6.41790233
_cell_length_b   6.41790233
_cell_length_c   6.41790233
_cell_angle_alpha   150.41953699
_cell_angle_beta   126.68527360
_cell_angle_gamma   62.15492792
_symmetry_Int_Tables_number   1
_chemical_formula_structural   YMg3
_chemical_formula_sum   'Y1 Mg3'
_cell_volume   103.72453975
_cell_formula_units_Z   1
loop_
 _symmetry_equiv_pos_site_id
 _symmetry_equiv_pos_as_xyz
  1  'x, y, z'
loop_
 _atom_site_type_symbol
 _atom_site_label
 _atom_site_symmetry_multiplicity
 _atom_site_fract_x
 _atom_site_fract_y
 _atom_site_fract_z
 _atom_site_occupancy
  Y  Y0  1  0.33667000  0.00000000  0.33667000  1
  Mg  Mg1  1  0.83058900  0.50000000  0.33058900  1
  Mg  Mg2  1  0.24722800  0.24752400  0.99970400  1
  Mg  Mg3  1  0.75218000  0.75247600  0.99970400  1
