# generated using pymatgen
data_La5Mg
_symmetry_space_group_name_H-M   'P 1'
_cell_length_a   6.93145394
_cell_length_b   6.93145394
_cell_length_c   6.93145377
_cell_angle_alpha   55.07320692
_cell_angle_beta   55.07320692
_cell_angle_gamma   55.07319906
_symmetry_Int_Tables_number   1
_chemical_formula_structural   La5Mg
_chemical_formula_sum   'La5 Mg1'
_cell_volume   208.49655660
_cell_formula_units_Z   1
loop_
 _symmetry_equiv_pos_site_id
 _symmetry_equiv_pos_as_xyz
  1  'x, y, z'
loop_
 _atom_site_type_symbol
 _atom_site_label
 _atom_site_symmetry_multiplicity
 _atom_site_fract_x
 _atom_site_fract_y
 _atom_site_fract_z
 _atom_site_occupancy
  La  La0  1  0.00000000  0.65752900  0.34247100  1
  La  La1  1  0.16804800  0.16804800  0.16804800  1
  La  La2  1  0.34247100  0.00000000  0.65752900  1
  La  La3  1  0.65752900  0.34247100  0.00000000  1
  La  La4  1  0.83195200  0.83195200  0.83195200  1
  Mg  Mg5  1  0.50000000  0.50000000  0.50000000  1
