# generated using pymatgen
data_Mg3Ti
_symmetry_space_group_name_H-M   'P 1'
_cell_length_a   5.37137629
_cell_length_b   5.37137629
_cell_length_c   5.37137629
_cell_angle_alpha   131.62060187
_cell_angle_beta   131.62060187
_cell_angle_gamma   70.82890907
_symmetry_Int_Tables_number   1
_chemical_formula_structural   Mg3Ti
_chemical_formula_sum   'Mg3 Ti1'
_cell_volume   84.82456368
_cell_formula_units_Z   1
loop_
 _symmetry_equiv_pos_site_id
 _symmetry_equiv_pos_as_xyz
  1  'x, y, z'
loop_
 _atom_site_type_symbol
 _atom_site_label
 _atom_site_symmetry_multiplicity
 _atom_site_fract_x
 _atom_site_fract_y
 _atom_site_fract_z
 _atom_site_occupancy
  Mg  Mg0  1  0.50000000  0.50000000  0.00000000  1
  Mg  Mg1  1  0.25000000  0.75000000  0.50000000  1
  Mg  Mg2  1  0.75000000  0.25000000  0.50000000  1
  Ti  Ti3  1  0.00000000  0.00000000  0.00000000  1
