# generated using pymatgen
data_Sr5Mg
_symmetry_space_group_name_H-M   'P 1'
_cell_length_a   4.27615847
_cell_length_b   4.27615847
_cell_length_c   19.12615300
_cell_angle_alpha   90.00000000
_cell_angle_beta   90.00000000
_cell_angle_gamma   120.00000725
_symmetry_Int_Tables_number   1
_chemical_formula_structural   Sr5Mg
_chemical_formula_sum   'Sr5 Mg1'
_cell_volume   302.87666040
_cell_formula_units_Z   1
loop_
 _symmetry_equiv_pos_site_id
 _symmetry_equiv_pos_as_xyz
  1  'x, y, z'
loop_
 _atom_site_type_symbol
 _atom_site_label
 _atom_site_symmetry_multiplicity
 _atom_site_fract_x
 _atom_site_fract_y
 _atom_site_fract_z
 _atom_site_occupancy
  Sr  Sr0  1  0.33333300  0.66666700  0.86560400  1
  Sr  Sr1  1  0.00000000  0.00000000  0.68154500  1
  Sr  Sr2  1  0.33333300  0.66666700  0.50000000  1
  Sr  Sr3  1  0.00000000  0.00000000  0.31845500  1
  Sr  Sr4  1  0.33333300  0.66666700  0.13439600  1
  Mg  Mg5  1  0.00000000  0.00000000  0.00000000  1
