# generated using pymatgen
data_SrMg5
_symmetry_space_group_name_H-M   'P 1'
_cell_length_a   12.63523647
_cell_length_b   3.28253200
_cell_length_c   8.36550839
_cell_angle_alpha   90.00000000
_cell_angle_beta   107.15063816
_cell_angle_gamma   90.00000000
_symmetry_Int_Tables_number   1
_chemical_formula_structural   SrMg5
_chemical_formula_sum   'Sr2 Mg10'
_cell_volume   331.53567439
_cell_formula_units_Z   2
loop_
 _symmetry_equiv_pos_site_id
 _symmetry_equiv_pos_as_xyz
  1  'x, y, z'
loop_
 _atom_site_type_symbol
 _atom_site_label
 _atom_site_symmetry_multiplicity
 _atom_site_fract_x
 _atom_site_fract_y
 _atom_site_fract_z
 _atom_site_occupancy
  Sr  Sr0  1  0.38392200  0.00000000  0.27258800  1
  Sr  Sr1  1  0.88392200  0.50000000  0.27258800  1
  Mg  Mg2  1  0.00983000  0.00000000  0.98661500  1
  Mg  Mg3  1  0.15888800  0.50000000  0.34613400  1
  Mg  Mg4  1  0.06233800  0.00000000  0.62961800  1
  Mg  Mg5  1  0.33395000  0.00000000  0.67588900  1
  Mg  Mg6  1  0.21773900  0.50000000  0.92248900  1
  Mg  Mg7  1  0.50983000  0.50000000  0.98661500  1
  Mg  Mg8  1  0.65888800  0.00000000  0.34613400  1
  Mg  Mg9  1  0.56233800  0.50000000  0.62961800  1
  Mg  Mg10  1  0.83395000  0.50000000  0.67588900  1
  Mg  Mg11  1  0.71773900  0.00000000  0.92248900  1
