# generated using pymatgen
data_SrMg3
_symmetry_space_group_name_H-M   'P 1'
_cell_length_a   6.58481070
_cell_length_b   6.58481070
_cell_length_c   6.58481070
_cell_angle_alpha   148.03506194
_cell_angle_beta   126.10496542
_cell_angle_gamma   64.04668885
_symmetry_Int_Tables_number   1
_chemical_formula_structural   SrMg3
_chemical_formula_sum   'Sr1 Mg3'
_cell_volume   120.82011937
_cell_formula_units_Z   1
loop_
 _symmetry_equiv_pos_site_id
 _symmetry_equiv_pos_as_xyz
  1  'x, y, z'
loop_
 _atom_site_type_symbol
 _atom_site_label
 _atom_site_symmetry_multiplicity
 _atom_site_fract_x
 _atom_site_fract_y
 _atom_site_fract_z
 _atom_site_occupancy
  Sr  Sr0  1  0.65409200  0.00000000  0.65409200  1
  Mg  Mg1  1  0.16403200  0.50000000  0.66403200  1
  Mg  Mg2  1  0.24872500  0.24112000  0.00760500  1
  Mg  Mg3  1  0.76648500  0.75888000  0.00760500  1
