# generated using pymatgen
data_MgTi2
_symmetry_space_group_name_H-M   'P 1'
_cell_length_a   5.17804113
_cell_length_b   5.17804113
_cell_length_c   5.46476024
_cell_angle_alpha   63.81315399
_cell_angle_beta   63.81315399
_cell_angle_gamma   61.27150470
_symmetry_Int_Tables_number   1
_chemical_formula_structural   MgTi2
_chemical_formula_sum   'Mg2 Ti4'
_cell_volume   110.29962847
_cell_formula_units_Z   2
loop_
 _symmetry_equiv_pos_site_id
 _symmetry_equiv_pos_as_xyz
  1  'x, y, z'
loop_
 _atom_site_type_symbol
 _atom_site_label
 _atom_site_symmetry_multiplicity
 _atom_site_fract_x
 _atom_site_fract_y
 _atom_site_fract_z
 _atom_site_occupancy
  Mg  Mg0  1  0.08997800  0.91002200  0.25000000  1
  Mg  Mg1  1  0.91002200  0.08997800  0.75000000  1
  Ti  Ti2  1  0.24964000  0.41748100  0.75839000  1
  Ti  Ti3  1  0.58251900  0.75036000  0.74161000  1
  Ti  Ti4  1  0.41748100  0.24964000  0.25839000  1
  Ti  Ti5  1  0.75036000  0.58251900  0.24161000  1
