# generated using pymatgen
data_LaMg
_symmetry_space_group_name_H-M   'P 1'
_cell_length_a   8.73644084
_cell_length_b   8.73644084
_cell_length_c   5.68844600
_cell_angle_alpha   90.00000000
_cell_angle_beta   90.00000000
_cell_angle_gamma   154.84067542
_symmetry_Int_Tables_number   1
_chemical_formula_structural   LaMg
_chemical_formula_sum   'La3 Mg3'
_cell_volume   184.58289358
_cell_formula_units_Z   3
loop_
 _symmetry_equiv_pos_site_id
 _symmetry_equiv_pos_as_xyz
  1  'x, y, z'
loop_
 _atom_site_type_symbol
 _atom_site_label
 _atom_site_symmetry_multiplicity
 _atom_site_fract_x
 _atom_site_fract_y
 _atom_site_fract_z
 _atom_site_occupancy
  La  La0  1  0.98293300  0.01706700  0.00000000  1
  La  La1  1  0.64786500  0.35213500  0.00000000  1
  La  La2  1  0.79933600  0.20066400  0.50000000  1
  Mg  Mg3  1  0.32094700  0.67905300  0.00000000  1
  Mg  Mg4  1  0.11416400  0.88583600  0.50000000  1
  Mg  Mg5  1  0.46808800  0.53191200  0.50000000  1
