# generated using pymatgen
data_Mg3Sn
_symmetry_space_group_name_H-M   'P 1'
_cell_length_a   6.03173064
_cell_length_b   6.03173064
_cell_length_c   6.03173064
_cell_angle_alpha   146.69194764
_cell_angle_beta   127.62668519
_cell_angle_gamma   63.49702405
_symmetry_Int_Tables_number   1
_chemical_formula_structural   Mg3Sn
_chemical_formula_sum   'Mg3 Sn1'
_cell_volume   94.40312844
_cell_formula_units_Z   1
loop_
 _symmetry_equiv_pos_site_id
 _symmetry_equiv_pos_as_xyz
  1  'x, y, z'
loop_
 _atom_site_type_symbol
 _atom_site_label
 _atom_site_symmetry_multiplicity
 _atom_site_fract_x
 _atom_site_fract_y
 _atom_site_fract_z
 _atom_site_occupancy
  Mg  Mg0  1  0.83679700  0.50000000  0.33679700  1
  Mg  Mg1  1  0.24925000  0.25105200  0.99819800  1
  Mg  Mg2  1  0.74714700  0.74894800  0.99819800  1
  Sn  Sn3  1  0.33347200  0.00000000  0.33347200  1
