# generated using pymatgen
data_MgZn3
_symmetry_space_group_name_H-M   'P 1'
_cell_length_a   5.48229752
_cell_length_b   5.48229752
_cell_length_c   5.48229752
_cell_angle_alpha   149.08895142
_cell_angle_beta   127.52680423
_cell_angle_gamma   62.15389017
_symmetry_Int_Tables_number   1
_chemical_formula_structural   MgZn3
_chemical_formula_sum   'Mg1 Zn3'
_cell_volume   66.50335608
_cell_formula_units_Z   1
loop_
 _symmetry_equiv_pos_site_id
 _symmetry_equiv_pos_as_xyz
  1  'x, y, z'
loop_
 _atom_site_type_symbol
 _atom_site_label
 _atom_site_symmetry_multiplicity
 _atom_site_fract_x
 _atom_site_fract_y
 _atom_site_fract_z
 _atom_site_occupancy
  Mg  Mg0  1  0.33664600  0.00000000  0.33664600  1
  Zn  Zn1  1  0.83095100  0.50000000  0.33095100  1
  Zn  Zn2  1  0.24810100  0.24856700  0.99953400  1
  Zn  Zn3  1  0.75096800  0.75143300  0.99953400  1
