# generated using pymatgen
data_MgZn
_symmetry_space_group_name_H-M   'P 1'
_cell_length_a   5.40917649
_cell_length_b   5.40917649
_cell_length_c   4.96999020
_cell_angle_alpha   69.62332618
_cell_angle_beta   69.62332618
_cell_angle_gamma   33.02715235
_symmetry_Int_Tables_number   1
_chemical_formula_structural   MgZn
_chemical_formula_sum   'Mg2 Zn2'
_cell_volume   73.84652499
_cell_formula_units_Z   2
loop_
 _symmetry_equiv_pos_site_id
 _symmetry_equiv_pos_as_xyz
  1  'x, y, z'
loop_
 _atom_site_type_symbol
 _atom_site_label
 _atom_site_symmetry_multiplicity
 _atom_site_fract_x
 _atom_site_fract_y
 _atom_site_fract_z
 _atom_site_occupancy
  Mg  Mg0  1  0.88908400  0.88908400  0.81215100  1
  Mg  Mg1  1  0.11091600  0.11091600  0.18784900  1
  Zn  Zn2  1  0.64293300  0.64293300  0.67215600  1
  Zn  Zn3  1  0.35706700  0.35706700  0.32784400  1
