# generated using pymatgen
data_Mg2Zn
_symmetry_space_group_name_H-M   'P 1'
_cell_length_a   5.32442850
_cell_length_b   5.32442850
_cell_length_c   4.94003600
_cell_angle_alpha   90.00000000
_cell_angle_beta   90.00000000
_cell_angle_gamma   122.91053785
_symmetry_Int_Tables_number   1
_chemical_formula_structural   Mg2Zn
_chemical_formula_sum   'Mg4 Zn2'
_cell_volume   117.57287379
_cell_formula_units_Z   2
loop_
 _symmetry_equiv_pos_site_id
 _symmetry_equiv_pos_as_xyz
  1  'x, y, z'
loop_
 _atom_site_type_symbol
 _atom_site_label
 _atom_site_symmetry_multiplicity
 _atom_site_fract_x
 _atom_site_fract_y
 _atom_site_fract_z
 _atom_site_occupancy
  Mg  Mg0  1  0.02680800  0.33950600  0.75000000  1
  Mg  Mg1  1  0.33950600  0.02680800  0.75000000  1
  Mg  Mg2  1  0.66049400  0.97319200  0.25000000  1
  Mg  Mg3  1  0.97319200  0.66049400  0.25000000  1
  Zn  Zn4  1  0.66385500  0.66385500  0.75000000  1
  Zn  Zn5  1  0.33614500  0.33614500  0.25000000  1
