# generated using pymatgen
data_Mg2Zn
_symmetry_space_group_name_H-M   'P 1'
_cell_length_a   5.26178440
_cell_length_b   5.26178440
_cell_length_c   6.00892365
_cell_angle_alpha   61.26874600
_cell_angle_beta   61.26874600
_cell_angle_gamma   58.05071029
_symmetry_Int_Tables_number   1
_chemical_formula_structural   Mg2Zn
_chemical_formula_sum   'Mg4 Zn2'
_cell_volume   117.91845979
_cell_formula_units_Z   2
loop_
 _symmetry_equiv_pos_site_id
 _symmetry_equiv_pos_as_xyz
  1  'x, y, z'
loop_
 _atom_site_type_symbol
 _atom_site_label
 _atom_site_symmetry_multiplicity
 _atom_site_fract_x
 _atom_site_fract_y
 _atom_site_fract_z
 _atom_site_occupancy
  Mg  Mg0  1  0.24658500  0.41612500  0.75120400  1
  Mg  Mg1  1  0.58387500  0.75341500  0.74879600  1
  Mg  Mg2  1  0.41612500  0.24658500  0.25120400  1
  Mg  Mg3  1  0.75341500  0.58387500  0.24879600  1
  Zn  Zn4  1  0.08237300  0.91762700  0.25000000  1
  Zn  Zn5  1  0.91762700  0.08237300  0.75000000  1
