# generated using pymatgen
data_Mg2Ga
_symmetry_space_group_name_H-M   'P 1'
_cell_length_a   3.11797290
_cell_length_b   3.11797290
_cell_length_c   14.98943200
_cell_angle_alpha   90.00000000
_cell_angle_beta   90.00000000
_cell_angle_gamma   120.00001911
_symmetry_Int_Tables_number   1
_chemical_formula_structural   Mg2Ga
_chemical_formula_sum   'Mg4 Ga2'
_cell_volume   126.20030277
_cell_formula_units_Z   2
loop_
 _symmetry_equiv_pos_site_id
 _symmetry_equiv_pos_as_xyz
  1  'x, y, z'
loop_
 _atom_site_type_symbol
 _atom_site_label
 _atom_site_symmetry_multiplicity
 _atom_site_fract_x
 _atom_site_fract_y
 _atom_site_fract_z
 _atom_site_occupancy
  Mg  Mg0  1  0.33333300  0.66666700  0.08391400  1
  Mg  Mg1  1  0.66666700  0.33333300  0.26033900  1
  Mg  Mg2  1  0.33333300  0.66666700  0.73966100  1
  Mg  Mg3  1  0.66666700  0.33333300  0.91608600  1
  Ga  Ga4  1  0.33333300  0.66666700  0.42351300  1
  Ga  Ga5  1  0.66666700  0.33333300  0.57648700  1
