# generated using pymatgen
data_Mg2Ga
_symmetry_space_group_name_H-M   'P 1'
_cell_length_a   5.77662828
_cell_length_b   5.77662828
_cell_length_c   5.77662877
_cell_angle_alpha   56.10226433
_cell_angle_beta   56.10226433
_cell_angle_gamma   56.10225526
_symmetry_Int_Tables_number   1
_chemical_formula_structural   Mg2Ga
_chemical_formula_sum   'Mg4 Ga2'
_cell_volume   124.00148945
_cell_formula_units_Z   2
loop_
 _symmetry_equiv_pos_site_id
 _symmetry_equiv_pos_as_xyz
  1  'x, y, z'
loop_
 _atom_site_type_symbol
 _atom_site_label
 _atom_site_symmetry_multiplicity
 _atom_site_fract_x
 _atom_site_fract_y
 _atom_site_fract_z
 _atom_site_occupancy
  Mg  Mg0  1  0.33031400  0.00000000  0.66968600  1
  Mg  Mg1  1  0.00000000  0.66968600  0.33031400  1
  Mg  Mg2  1  0.50000000  0.50000000  0.50000000  1
  Mg  Mg3  1  0.66968600  0.33031400  0.00000000  1
  Ga  Ga4  1  0.83466500  0.83466500  0.83466500  1
  Ga  Ga5  1  0.16533500  0.16533500  0.16533500  1
