# generated using pymatgen
data_Mg2Zn
_symmetry_space_group_name_H-M   'P 1'
_cell_length_a   3.08820030
_cell_length_b   3.08820030
_cell_length_c   14.52655100
_cell_angle_alpha   90.00000000
_cell_angle_beta   90.00000000
_cell_angle_gamma   120.00000646
_symmetry_Int_Tables_number   1
_chemical_formula_structural   Mg2Zn
_chemical_formula_sum   'Mg4 Zn2'
_cell_volume   119.97866870
_cell_formula_units_Z   2
loop_
 _symmetry_equiv_pos_site_id
 _symmetry_equiv_pos_as_xyz
  1  'x, y, z'
loop_
 _atom_site_type_symbol
 _atom_site_label
 _atom_site_symmetry_multiplicity
 _atom_site_fract_x
 _atom_site_fract_y
 _atom_site_fract_z
 _atom_site_occupancy
  Mg  Mg0  1  0.66666700  0.33333300  0.90817700  1
  Mg  Mg1  1  0.66666700  0.33333300  0.59182300  1
  Mg  Mg2  1  0.33333300  0.66666700  0.40817700  1
  Mg  Mg3  1  0.33333300  0.66666700  0.09182300  1
  Zn  Zn4  1  0.33333300  0.66666700  0.75000000  1
  Zn  Zn5  1  0.66666700  0.33333300  0.25000000  1
