# generated using pymatgen
data_MgSb2
_symmetry_space_group_name_H-M   'P 1'
_cell_length_a   9.12626773
_cell_length_b   9.12626773
_cell_length_c   5.37993900
_cell_angle_alpha   90.00000000
_cell_angle_beta   90.00000000
_cell_angle_gamma   159.51575106
_symmetry_Int_Tables_number   1
_chemical_formula_structural   MgSb2
_chemical_formula_sum   'Mg2 Sb4'
_cell_volume   156.80849901
_cell_formula_units_Z   2
loop_
 _symmetry_equiv_pos_site_id
 _symmetry_equiv_pos_as_xyz
  1  'x, y, z'
loop_
 _atom_site_type_symbol
 _atom_site_label
 _atom_site_symmetry_multiplicity
 _atom_site_fract_x
 _atom_site_fract_y
 _atom_site_fract_z
 _atom_site_occupancy
  Mg  Mg0  1  0.29127300  0.70872700  0.25000000  1
  Mg  Mg1  1  0.70872700  0.29127300  0.75000000  1
  Sb  Sb2  1  0.64864600  0.35135400  0.25000000  1
  Sb  Sb3  1  0.95628400  0.04371600  0.25000000  1
  Sb  Sb4  1  0.04371600  0.95628400  0.75000000  1
  Sb  Sb5  1  0.35135400  0.64864600  0.75000000  1
