# generated using pymatgen
data_YMg
_symmetry_space_group_name_H-M   'P 1'
_cell_length_a   8.94038248
_cell_length_b   8.94038248
_cell_length_c   5.49304000
_cell_angle_alpha   90.00000000
_cell_angle_beta   90.00000000
_cell_angle_gamma   157.61496564
_symmetry_Int_Tables_number   1
_chemical_formula_structural   YMg
_chemical_formula_sum   'Y3 Mg3'
_cell_volume   167.20714277
_cell_formula_units_Z   3
loop_
 _symmetry_equiv_pos_site_id
 _symmetry_equiv_pos_as_xyz
  1  'x, y, z'
loop_
 _atom_site_type_symbol
 _atom_site_label
 _atom_site_symmetry_multiplicity
 _atom_site_fract_x
 _atom_site_fract_y
 _atom_site_fract_z
 _atom_site_occupancy
  Y  Y0  1  0.98988700  0.01011300  0.00000000  1
  Y  Y1  1  0.66582200  0.33417800  0.00000000  1
  Y  Y2  1  0.78826900  0.21173100  0.50000000  1
  Mg  Mg3  1  0.33179800  0.66820200  0.00000000  1
  Mg  Mg4  1  0.10862700  0.89137300  0.50000000  1
  Mg  Mg5  1  0.44893100  0.55106900  0.50000000  1
