# generated using pymatgen
data_YMg5
_symmetry_space_group_name_H-M   'P 1'
_cell_length_a   8.70612138
_cell_length_b   8.70612138
_cell_length_c   5.36690600
_cell_angle_alpha   90.00000000
_cell_angle_beta   90.00000000
_cell_angle_gamma   158.39262311
_symmetry_Int_Tables_number   1
_chemical_formula_structural   YMg5
_chemical_formula_sum   'Y1 Mg5'
_cell_volume   149.79917095
_cell_formula_units_Z   1
loop_
 _symmetry_equiv_pos_site_id
 _symmetry_equiv_pos_as_xyz
  1  'x, y, z'
loop_
 _atom_site_type_symbol
 _atom_site_label
 _atom_site_symmetry_multiplicity
 _atom_site_fract_x
 _atom_site_fract_y
 _atom_site_fract_z
 _atom_site_occupancy
  Y  Y0  1  0.77863600  0.22136400  0.00000000  1
  Mg  Mg1  1  0.99971200  0.00028800  0.50000000  1
  Mg  Mg2  1  0.33426900  0.66573100  0.50000000  1
  Mg  Mg3  1  0.66560600  0.33439400  0.50000000  1
  Mg  Mg4  1  0.10916600  0.89083400  0.00000000  1
  Mg  Mg5  1  0.44594400  0.55405600  0.00000000  1
