data_image0
_chemical_formula_structural       Br12Nd8S6
_chemical_formula_sum              "Br12 Nd8 S6"
_cell_length_a       15.2323
_cell_length_b       7.20537
_cell_length_c       15.2323
_cell_angle_alpha    94.5154
_cell_angle_beta     26.2668
_cell_angle_gamma    94.5154

_space_group_name_H-M_alt    "P 1"
_space_group_IT_number       1

loop_
  _space_group_symop_operation_xyz
  'x, y, z'

loop_
  _atom_site_type_symbol
  _atom_site_label
  _atom_site_symmetry_multiplicity
  _atom_site_fract_x
  _atom_site_fract_y
  _atom_site_fract_z
  _atom_site_occupancy
  Br  Br1       1.0  0.18200  0.68500  0.34800  1.0000
  Br  Br2       1.0  0.65200  0.81500  0.81800  1.0000
  Br  Br3       1.0  0.81800  0.31500  0.65200  1.0000
  Br  Br4       1.0  0.34800  0.18500  0.18200  1.0000
  Br  Br5       1.0  0.94400  0.61000  0.16000  1.0000
  Br  Br6       1.0  0.84000  0.89000  0.05590  1.0000
  Br  Br7       1.0  0.05590  0.39000  0.84000  1.0000
  Br  Br8       1.0  0.16000  0.11000  0.94400  1.0000
  Br  Br9       1.0  0.75000  0.55400  0.93900  1.0000
  Br  Br10      1.0  0.06110  0.94600  0.25000  1.0000
  Br  Br11      1.0  0.25000  0.44600  0.06110  1.0000
  Br  Br12      1.0  0.93900  0.05380  0.75000  1.0000
  Nd  Nd1       1.0  0.47700  0.09400  0.86500  1.0000
  Nd  Nd2       1.0  0.13500  0.40600  0.52300  1.0000
  Nd  Nd3       1.0  0.52300  0.90600  0.13500  1.0000
  Nd  Nd4       1.0  0.86500  0.59400  0.47700  1.0000
  Nd  Nd5       1.0  0.25300  0.01560  0.63300  1.0000
  Nd  Nd6       1.0  0.36700  0.48400  0.74700  1.0000
  Nd  Nd7       1.0  0.74700  0.98400  0.36700  1.0000
  Nd  Nd8       1.0  0.63300  0.51600  0.25300  1.0000
  S   S1        1.0  0.44800  0.75000  0.55200  1.0000
  S   S2        1.0  0.55200  0.25000  0.44800  1.0000
  S   S3        1.0  0.33100  0.71000  0.43600  1.0000
  S   S4        1.0  0.56400  0.79000  0.66900  1.0000
  S   S5        1.0  0.66900  0.29000  0.56400  1.0000
  S   S6        1.0  0.43600  0.21000  0.33100  1.0000
