# generated using pymatgen
data_MgZn
_symmetry_space_group_name_H-M   'P 1'
_cell_length_a   7.78260972
_cell_length_b   7.78260972
_cell_length_c   4.77663200
_cell_angle_alpha   90.00000000
_cell_angle_beta   90.00000000
_cell_angle_gamma   157.43036528
_symmetry_Int_Tables_number   1
_chemical_formula_structural   MgZn
_chemical_formula_sum   'Mg3 Zn3'
_cell_volume   111.04117212
_cell_formula_units_Z   3
loop_
 _symmetry_equiv_pos_site_id
 _symmetry_equiv_pos_as_xyz
  1  'x, y, z'
loop_
 _atom_site_type_symbol
 _atom_site_label
 _atom_site_symmetry_multiplicity
 _atom_site_fract_x
 _atom_site_fract_y
 _atom_site_fract_z
 _atom_site_occupancy
  Mg  Mg0  1  0.33362200  0.66637800  0.00000000  1
  Mg  Mg1  1  0.45549200  0.54450800  0.50000000  1
  Mg  Mg2  1  0.76664800  0.23335200  0.50000000  1
  Zn  Zn3  1  0.00614500  0.99385500  0.00000000  1
  Zn  Zn4  1  0.66118600  0.33881400  0.00000000  1
  Zn  Zn5  1  0.11024100  0.88975900  0.50000000  1
