# generated using pymatgen
data_MgGa5
_symmetry_space_group_name_H-M   'P 1'
_cell_length_a   5.62947864
_cell_length_b   5.62947864
_cell_length_c   7.03732052
_cell_angle_alpha   75.80418640
_cell_angle_beta   75.80418640
_cell_angle_gamma   32.40217334
_symmetry_Int_Tables_number   1
_chemical_formula_structural   MgGa5
_chemical_formula_sum   'Mg1 Ga5'
_cell_volume   115.54449349
_cell_formula_units_Z   1
loop_
 _symmetry_equiv_pos_site_id
 _symmetry_equiv_pos_as_xyz
  1  'x, y, z'
loop_
 _atom_site_type_symbol
 _atom_site_label
 _atom_site_symmetry_multiplicity
 _atom_site_fract_x
 _atom_site_fract_y
 _atom_site_fract_z
 _atom_site_occupancy
  Mg  Mg0  1  0.61138000  0.61138000  0.27621700  1
  Ga  Ga1  1  0.99892700  0.99892700  0.99699900  1
  Ga  Ga2  1  0.33176900  0.33176900  0.33428300  1
  Ga  Ga3  1  0.94220100  0.94220100  0.61481200  1
  Ga  Ga4  1  0.66810200  0.66810200  0.67071900  1
  Ga  Ga5  1  0.28095400  0.28095400  0.94030300  1
