# generated using pymatgen
data_MgCd2
_symmetry_space_group_name_H-M   'P 1'
_cell_length_a   6.19112641
_cell_length_b   6.19112641
_cell_length_c   7.30349356
_cell_angle_alpha   74.12246256
_cell_angle_beta   74.12246256
_cell_angle_gamma   29.81349109
_symmetry_Int_Tables_number   1
_chemical_formula_structural   MgCd2
_chemical_formula_sum   'Mg2 Cd4'
_cell_volume   133.48742128
_cell_formula_units_Z   2
loop_
 _symmetry_equiv_pos_site_id
 _symmetry_equiv_pos_as_xyz
  1  'x, y, z'
loop_
 _atom_site_type_symbol
 _atom_site_label
 _atom_site_symmetry_multiplicity
 _atom_site_fract_x
 _atom_site_fract_y
 _atom_site_fract_z
 _atom_site_occupancy
  Mg  Mg0  1  0.63848700  0.63848700  0.46982500  1
  Mg  Mg1  1  0.36151300  0.36151300  0.53017500  1
  Cd  Cd2  1  0.30384000  0.30384000  0.14597500  1
  Cd  Cd3  1  0.02749700  0.02749700  0.19876700  1
  Cd  Cd4  1  0.97250300  0.97250300  0.80123300  1
  Cd  Cd5  1  0.69616000  0.69616000  0.85402500  1
