# generated using pymatgen
data_MgZn3
_symmetry_space_group_name_H-M   'P 1'
_cell_length_a   2.90159600
_cell_length_b   4.67577500
_cell_length_c   4.88236200
_cell_angle_alpha   90.00000000
_cell_angle_beta   90.00000000
_cell_angle_gamma   90.00000000
_symmetry_Int_Tables_number   1
_chemical_formula_structural   MgZn3
_chemical_formula_sum   'Mg1 Zn3'
_cell_volume   66.24003073
_cell_formula_units_Z   1
loop_
 _symmetry_equiv_pos_site_id
 _symmetry_equiv_pos_as_xyz
  1  'x, y, z'
loop_
 _atom_site_type_symbol
 _atom_site_label
 _atom_site_symmetry_multiplicity
 _atom_site_fract_x
 _atom_site_fract_y
 _atom_site_fract_z
 _atom_site_occupancy
  Mg  Mg0  1  0.00000000  0.50000000  0.33532500  1
  Zn  Zn1  1  0.00000000  0.00000000  0.99674600  1
  Zn  Zn2  1  0.50000000  0.00000000  0.50360700  1
  Zn  Zn3  1  0.50000000  0.50000000  0.83098800  1
