# generated using pymatgen
data_Yb4Ni2C5
_symmetry_space_group_name_H-M   'P 1'
_cell_length_a   3.61530800
_cell_length_b   3.74060100
_cell_length_c   11.90168600
_cell_angle_alpha   90.00000000
_cell_angle_beta   90.00000000
_cell_angle_gamma   90.00000000
_symmetry_Int_Tables_number   1
_chemical_formula_structural   Yb4Ni2C5
_chemical_formula_sum   'Yb4 Ni2 C5'
_cell_volume   160.95155466
_cell_formula_units_Z   1
loop_
 _symmetry_equiv_pos_site_id
 _symmetry_equiv_pos_as_xyz
  1  'x, y, z'
loop_
 _atom_site_type_symbol
 _atom_site_label
 _atom_site_symmetry_multiplicity
 _atom_site_fract_x
 _atom_site_fract_y
 _atom_site_fract_z
 _atom_site_occupancy
  Yb  Yb0  1  0.50000000  0.52092500  0.20861300  1
  Yb  Yb1  1  0.50000000  0.52092500  0.79138700  1
  Yb  Yb2  1  0.50000000  0.20304100  0.50000000  1
  Yb  Yb3  1  0.00000000  0.99198500  0.00000000  1
  Ni  Ni4  1  0.00000000  0.68996500  0.38706600  1
  Ni  Ni5  1  0.00000000  0.68996500  0.61293400  1
  C  C6  1  0.00000000  0.99622700  0.24699300  1
  C  C7  1  0.00000000  0.99622700  0.75300700  1
  C  C8  1  0.00000000  0.20409400  0.33745400  1
  C  C9  1  0.00000000  0.20409400  0.66254600  1
  C  C10  1  0.50000000  0.48405300  0.00000000  1
