data_image0
_chemical_formula_structural       B56H80
_chemical_formula_sum              "B56 H80"
_cell_length_a       12.5609
_cell_length_b       9.41245
_cell_length_c       8.52412
_cell_angle_alpha    90
_cell_angle_beta     90
_cell_angle_gamma    90

_space_group_name_H-M_alt    "P 1"
_space_group_IT_number       1

loop_
  _space_group_symop_operation_xyz
  'x, y, z'

loop_
  _atom_site_type_symbol
  _atom_site_label
  _atom_site_symmetry_multiplicity
  _atom_site_fract_x
  _atom_site_fract_y
  _atom_site_fract_z
  _atom_site_occupancy
  B   B1        1.0  0.25900  0.33100  0.22500  1.0000
  B   B2        1.0  0.24100  0.66900  0.72500  1.0000
  B   B3        1.0  0.75900  0.16900  0.77500  1.0000
  B   B4        1.0  0.74100  0.83100  0.27500  1.0000
  B   B5        1.0  0.39000  0.36800  0.88500  1.0000
  B   B6        1.0  0.11000  0.63200  0.38500  1.0000
  B   B7        1.0  0.89000  0.13200  0.11500  1.0000
  B   B8        1.0  0.61000  0.86800  0.61500  1.0000
  B   B9        1.0  0.30700  0.42600  0.05690  1.0000
  B   B10       1.0  0.19300  0.57400  0.55700  1.0000
  B   B11       1.0  0.80700  0.07360  0.94300  1.0000
  B   B12       1.0  0.69300  0.92600  0.44300  1.0000
  B   B13       1.0  0.24600  0.07480  0.86600  1.0000
  B   B14       1.0  0.25400  0.92500  0.36600  1.0000
  B   B15       1.0  0.74600  0.42500  0.13400  1.0000
  B   B16       1.0  0.75400  0.57500  0.63400  1.0000
  B   B17       1.0  0.30600  0.23000  0.78600  1.0000
  B   B18       1.0  0.19400  0.77000  0.28600  1.0000
  B   B19       1.0  0.80600  0.27000  0.21400  1.0000
  B   B20       1.0  0.69400  0.73000  0.71400  1.0000
  B   B21       1.0  0.37000  0.05730  0.78300  1.0000
  B   B22       1.0  0.13000  0.94300  0.28300  1.0000
  B   B23       1.0  0.87000  0.44300  0.21700  1.0000
  B   B24       1.0  0.63000  0.55700  0.71700  1.0000
  B   B25       1.0  0.36800  0.25400  0.31800  1.0000
  B   B26       1.0  0.13200  0.74600  0.81800  1.0000
  B   B27       1.0  0.86800  0.24600  0.68200  1.0000
  B   B28       1.0  0.63200  0.75400  0.18200  1.0000
  B   B29       1.0  0.48200  0.29200  0.20200  1.0000
  B   B30       1.0  0.01780  0.70800  0.70200  1.0000
  B   B31       1.0  0.98200  0.20800  0.79800  1.0000
  B   B32       1.0  0.51800  0.79200  0.29800  1.0000
  B   B33       1.0  0.50300  0.26500  0.98300  1.0000
  B   B34       1.0  0.99700  0.73500  0.48300  1.0000
  B   B35       1.0  0.00284  0.23500  0.01660  1.0000
  B   B36       1.0  0.49700  0.76500  0.51700  1.0000
  B   B37       1.0  0.37800  0.42200  0.24000  1.0000
  B   B38       1.0  0.12200  0.57800  0.74000  1.0000
  B   B39       1.0  0.87800  0.07800  0.76000  1.0000
  B   B40       1.0  0.62200  0.92200  0.26000  1.0000
  B   B41       1.0  0.44600  0.42000  0.06180  1.0000
  B   B42       1.0  0.05390  0.58000  0.56200  1.0000
  B   B43       1.0  0.94600  0.08040  0.93800  1.0000
  B   B44       1.0  0.55400  0.92000  0.43800  1.0000
  B   B45       1.0  0.44400  0.21300  0.80600  1.0000
  B   B46       1.0  0.05570  0.78700  0.30600  1.0000
  B   B47       1.0  0.94400  0.28700  0.19400  1.0000
  B   B48       1.0  0.55600  0.71300  0.69400  1.0000
  B   B49       1.0  0.46800  0.07440  0.93900  1.0000
  B   B50       1.0  0.03250  0.92600  0.43900  1.0000
  B   B51       1.0  0.96800  0.42600  0.06110  1.0000
  B   B52       1.0  0.53200  0.57400  0.56100  1.0000
  B   B53       1.0  0.34500  0.98000  0.96300  1.0000
  B   B54       1.0  0.15500  0.02020  0.46300  1.0000
  B   B55       1.0  0.84500  0.52000  0.03660  1.0000
  B   B56       1.0  0.65500  0.48000  0.53700  1.0000
  H   H1        1.0  0.24400  0.31400  0.07230  1.0000
  H   H2        1.0  0.25600  0.68600  0.57200  1.0000
  H   H3        1.0  0.74400  0.18600  0.92800  1.0000
  H   H4        1.0  0.75600  0.81400  0.42800  1.0000
  H   H5        1.0  0.43500  0.17100  0.23800  1.0000
  H   H6        1.0  0.06480  0.82900  0.73800  1.0000
  H   H7        1.0  0.93500  0.32900  0.76200  1.0000
  H   H8        1.0  0.56500  0.67100  0.26200  1.0000
  H   H9        1.0  0.28300  0.19400  0.25000  1.0000
  H   H10       1.0  0.21700  0.80600  0.75000  1.0000
  H   H11       1.0  0.78300  0.30600  0.75000  1.0000
  H   H12       1.0  0.71700  0.69400  0.25000  1.0000
  H   H13       1.0  0.16400  0.02560  0.82500  1.0000
  H   H14       1.0  0.33600  0.97400  0.32500  1.0000
  H   H15       1.0  0.66400  0.47400  0.17500  1.0000
  H   H16       1.0  0.83600  0.52600  0.67500  1.0000
  H   H17       1.0  0.26000  0.27600  0.67500  1.0000
  H   H18       1.0  0.24000  0.72400  0.17500  1.0000
  H   H19       1.0  0.76000  0.22400  0.32500  1.0000
  H   H20       1.0  0.74000  0.77600  0.82500  1.0000
  H   H21       1.0  0.40700  0.46300  0.79500  1.0000
  H   H22       1.0  0.09280  0.53700  0.29500  1.0000
  H   H23       1.0  0.90700  0.03710  0.20500  1.0000
  H   H24       1.0  0.59300  0.96300  0.70500  1.0000
  H   H25       1.0  0.25100  0.52400  0.02520  1.0000
  H   H26       1.0  0.24900  0.47600  0.52500  1.0000
  H   H27       1.0  0.75100  0.97600  0.97500  1.0000
  H   H28       1.0  0.74900  0.02440  0.47500  1.0000
  H   H29       1.0  0.17600  0.35000  0.28700  1.0000
  H   H30       1.0  0.32400  0.65000  0.78700  1.0000
  H   H31       1.0  0.67600  0.15000  0.71300  1.0000
  H   H32       1.0  0.82400  0.85000  0.21300  1.0000
  H   H33       1.0  0.23100  0.21200  0.89400  1.0000
  H   H34       1.0  0.26900  0.78800  0.39400  1.0000
  H   H35       1.0  0.73100  0.28800  0.10600  1.0000
  H   H36       1.0  0.76900  0.71200  0.60600  1.0000
  H   H37       1.0  0.25600  0.04100  0.01870  1.0000
  H   H38       1.0  0.24400  0.95900  0.51900  1.0000
  H   H39       1.0  0.75600  0.45900  0.98100  1.0000
  H   H40       1.0  0.74400  0.54100  0.48100  1.0000
  H   H41       1.0  0.40800  0.04820  0.06400  1.0000
  H   H42       1.0  0.09230  0.95200  0.56400  1.0000
  H   H43       1.0  0.90800  0.45200  0.93600  1.0000
  H   H44       1.0  0.59200  0.54800  0.43600  1.0000
  H   H45       1.0  0.54200  0.99700  0.94400  1.0000
  H   H46       1.0  0.95800  0.00292  0.44400  1.0000
  H   H47       1.0  0.04240  0.50300  0.05560  1.0000
  H   H48       1.0  0.45800  0.49700  0.55600  1.0000
  H   H49       1.0  0.34000  0.85700  0.99700  1.0000
  H   H50       1.0  0.16000  0.14300  0.49700  1.0000
  H   H51       1.0  0.84000  0.64300  0.00346  1.0000
  H   H52       1.0  0.66000  0.35700  0.50300  1.0000
  H   H53       1.0  0.50100  0.52300  0.04530  1.0000
  H   H54       1.0  0.99900  0.47700  0.54500  1.0000
  H   H55       1.0  0.00050  0.97700  0.95500  1.0000
  H   H56       1.0  0.49900  0.02310  0.45500  1.0000
  H   H57       1.0  0.50100  0.23400  0.69500  1.0000
  H   H58       1.0  0.99900  0.76600  0.19500  1.0000
  H   H59       1.0  0.00111  0.26600  0.30500  1.0000
  H   H60       1.0  0.49900  0.73400  0.80500  1.0000
  H   H61       1.0  0.38700  0.52300  0.32200  1.0000
  H   H62       1.0  0.11300  0.47700  0.82200  1.0000
  H   H63       1.0  0.88700  0.97700  0.67800  1.0000
  H   H64       1.0  0.61300  0.02350  0.17800  1.0000
  H   H65       1.0  0.56300  0.29000  0.27400  1.0000
  H   H66       1.0  0.93700  0.71000  0.77400  1.0000
  H   H67       1.0  0.06340  0.21000  0.72600  1.0000
  H   H68       1.0  0.43700  0.79000  0.22600  1.0000
  H   H69       1.0  0.59500  0.28800  0.95400  1.0000
  H   H70       1.0  0.90500  0.71200  0.45400  1.0000
  H   H71       1.0  0.09490  0.21200  0.04600  1.0000
  H   H72       1.0  0.40500  0.78800  0.54600  1.0000
  H   H73       1.0  0.38400  0.98700  0.66900  1.0000
  H   H74       1.0  0.11600  0.01290  0.16900  1.0000
  H   H75       1.0  0.88400  0.51300  0.33100  1.0000
  H   H76       1.0  0.61600  0.48700  0.83100  1.0000
  H   H77       1.0  0.36800  0.21900  0.45200  1.0000
  H   H78       1.0  0.13200  0.78100  0.95200  1.0000
  H   H79       1.0  0.86800  0.28100  0.54800  1.0000
  H   H80       1.0  0.63200  0.71900  0.04780  1.0000
