# generated using pymatgen
data_ScGeRh
_symmetry_space_group_name_H-M   'P 1'
_cell_length_a   4.16707500
_cell_length_b   6.54527900
_cell_length_c   7.47194100
_cell_angle_alpha   90.00000000
_cell_angle_beta   90.00000000
_cell_angle_gamma   90.00000000
_symmetry_Int_Tables_number   1
_chemical_formula_structural   ScGeRh
_chemical_formula_sum   'Sc4 Ge4 Rh4'
_cell_volume   203.79471374
_cell_formula_units_Z   4
loop_
 _symmetry_equiv_pos_site_id
 _symmetry_equiv_pos_as_xyz
  1  'x, y, z'
loop_
 _atom_site_type_symbol
 _atom_site_label
 _atom_site_symmetry_multiplicity
 _atom_site_fract_x
 _atom_site_fract_y
 _atom_site_fract_z
 _atom_site_occupancy
  Sc  Sc0  1  0.25000000  0.01137000  0.30366900  1
  Sc  Sc1  1  0.25000000  0.51137000  0.19633100  1
  Sc  Sc2  1  0.75000000  0.98863000  0.69633100  1
  Sc  Sc3  1  0.75000000  0.48863000  0.80366900  1
  Ge  Ge4  1  0.25000000  0.27659600  0.61285300  1
  Ge  Ge5  1  0.25000000  0.77659600  0.88714700  1
  Ge  Ge6  1  0.75000000  0.72340400  0.38714700  1
  Ge  Ge7  1  0.75000000  0.22340400  0.11285300  1
  Rh  Rh8  1  0.25000000  0.15740200  0.93751000  1
  Rh  Rh9  1  0.25000000  0.65740200  0.56249000  1
  Rh  Rh10  1  0.75000000  0.84259800  0.06249000  1
  Rh  Rh11  1  0.75000000  0.34259800  0.43751000  1
