# generated using pymatgen
data_UCl2O3
_symmetry_space_group_name_H-M   'P 1'
_cell_length_a   8.83894900
_cell_length_b   6.48985300
_cell_length_c   6.77353224
_cell_angle_alpha   86.04484414
_cell_angle_beta   90.00000000
_cell_angle_gamma   90.00000000
_symmetry_Int_Tables_number   1
_chemical_formula_structural   UCl2O3
_chemical_formula_sum   'U2 Cl4 O6'
_cell_volume   387.62797762
_cell_formula_units_Z   2
loop_
 _symmetry_equiv_pos_site_id
 _symmetry_equiv_pos_as_xyz
  1  'x, y, z'
loop_
 _atom_site_type_symbol
 _atom_site_label
 _atom_site_symmetry_multiplicity
 _atom_site_fract_x
 _atom_site_fract_y
 _atom_site_fract_z
 _atom_site_occupancy
  U  U0  1  0.25000000  0.89958700  0.08803700  1
  U  U1  1  0.75000000  0.10041300  0.91196300  1
  Cl  Cl2  1  0.93773100  0.83515700  0.15189400  1
  Cl  Cl3  1  0.43773100  0.16484300  0.84810600  1
  Cl  Cl4  1  0.06226900  0.16484300  0.84810600  1
  Cl  Cl5  1  0.56226900  0.83515700  0.15189400  1
  O  O6  1  0.25000000  0.10078400  0.26146300  1
  O  O7  1  0.75000000  0.89921600  0.73853700  1
  O  O8  1  0.25000000  0.73346800  0.88251200  1
  O  O9  1  0.75000000  0.26653200  0.11748800  1
  O  O10  1  0.25000000  0.67809600  0.28441600  1
  O  O11  1  0.75000000  0.32190400  0.71558400  1
