# generated using pymatgen
data_BaWO4
_symmetry_space_group_name_H-M   'P 1'
_cell_length_a   6.82721845
_cell_length_b   6.82721845
_cell_length_c   6.82721845
_cell_angle_alpha   106.83650903
_cell_angle_beta   106.83650903
_cell_angle_gamma   114.87983205
_symmetry_Int_Tables_number   1
_chemical_formula_structural   BaWO4
_chemical_formula_sum   'Ba2 W2 O8'
_cell_volume   243.31529035
_cell_formula_units_Z   2
loop_
 _symmetry_equiv_pos_site_id
 _symmetry_equiv_pos_as_xyz
  1  'x, y, z'
loop_
 _atom_site_type_symbol
 _atom_site_label
 _atom_site_symmetry_multiplicity
 _atom_site_fract_x
 _atom_site_fract_y
 _atom_site_fract_z
 _atom_site_occupancy
  Ba  Ba0  1  0.75000000  0.25000000  0.50000000  1
  Ba  Ba1  1  0.50000000  0.50000000  0.00000000  1
  W  W2  1  0.25000000  0.75000000  0.50000000  1
  W  W3  1  0.00000000  0.00000000  0.00000000  1
  O  O4  1  0.97454200  0.15150300  0.82303900  1
  O  O5  1  0.32846400  0.15150300  0.17696100  1
  O  O6  1  0.40150300  0.07846400  0.67696100  1
  O  O7  1  0.40150300  0.72454200  0.32303900  1
  O  O8  1  0.27545800  0.59849700  0.67696100  1
  O  O9  1  0.92153600  0.59849700  0.32303900  1
  O  O10  1  0.84849700  0.67153600  0.82303900  1
  O  O11  1  0.84849700  0.02545800  0.17696100  1
