data_image0
_chemical_formula_structural       Cs6I18Zr4
_chemical_formula_sum              "Cs6 I18 Zr4"
_cell_length_a       8.4716
_cell_length_b       8.47282
_cell_length_c       20.385
_cell_angle_alpha    90.028
_cell_angle_beta     89.9903
_cell_angle_gamma    119.997

_space_group_name_H-M_alt    "P 1"
_space_group_IT_number       1

loop_
  _space_group_symop_operation_xyz
  'x, y, z'

loop_
  _atom_site_type_symbol
  _atom_site_label
  _atom_site_symmetry_multiplicity
  _atom_site_fract_x
  _atom_site_fract_y
  _atom_site_fract_z
  _atom_site_occupancy
  Cs  Cs1       1.0  0.33300  0.66700  0.06870  1.0000
  Cs  Cs2       1.0  0.66700  0.33300  0.56900  1.0000
  Cs  Cs3       1.0  0.66700  0.33300  0.93100  1.0000
  Cs  Cs4       1.0  0.33300  0.66700  0.43100  1.0000
  Cs  Cs5       1.0  0.00022  0.00016  0.25000  1.0000
  Cs  Cs6       1.0  0.00001  0.00008  0.75000  1.0000
  I   I1        1.0  0.83000  0.66100  0.09070  1.0000
  I   I2        1.0  0.16900  0.33800  0.59100  1.0000
  I   I3        1.0  0.33900  0.16900  0.09060  1.0000
  I   I4        1.0  0.83100  0.16900  0.09090  1.0000
  I   I5        1.0  0.16900  0.83100  0.59100  1.0000
  I   I6        1.0  0.66100  0.83000  0.59100  1.0000
  I   I7        1.0  0.16900  0.33900  0.90900  1.0000
  I   I8        1.0  0.16900  0.83100  0.90900  1.0000
  I   I9        1.0  0.66100  0.83100  0.90900  1.0000
  I   I10       1.0  0.33900  0.16900  0.40900  1.0000
  I   I11       1.0  0.83000  0.16900  0.40900  1.0000
  I   I12       1.0  0.83000  0.66100  0.40900  1.0000
  I   I13       1.0  0.49600  0.99200  0.25000  1.0000
  I   I14       1.0  0.50400  0.00749  0.75000  1.0000
  I   I15       1.0  0.00758  0.50400  0.25000  1.0000
  I   I16       1.0  0.49600  0.50400  0.25000  1.0000
  I   I17       1.0  0.50400  0.49600  0.75000  1.0000
  I   I18       1.0  0.99300  0.49700  0.75000  1.0000
  Zr  Zr1       1.0  0.66700  0.33300  0.17100  1.0000
  Zr  Zr2       1.0  0.33300  0.66700  0.67100  1.0000
  Zr  Zr3       1.0  0.33300  0.66700  0.82900  1.0000
  Zr  Zr4       1.0  0.66700  0.33300  0.32900  1.0000
