# generated using pymatgen
data_YIr3
_symmetry_space_group_name_H-M   'P 1'
_cell_length_a   9.26965323
_cell_length_b   9.26965323
_cell_length_c   9.26965268
_cell_angle_alpha   33.43510415
_cell_angle_beta   33.43510415
_cell_angle_gamma   33.43510216
_symmetry_Int_Tables_number   1
_chemical_formula_structural   YIr3
_chemical_formula_sum   'Y3 Ir9'
_cell_volume   215.34610335
_cell_formula_units_Z   3
loop_
 _symmetry_equiv_pos_site_id
 _symmetry_equiv_pos_as_xyz
  1  'x, y, z'
loop_
 _atom_site_type_symbol
 _atom_site_label
 _atom_site_symmetry_multiplicity
 _atom_site_fract_x
 _atom_site_fract_y
 _atom_site_fract_z
 _atom_site_occupancy
  Y  Y0  1  0.86045400  0.86045400  0.86045400  1
  Y  Y1  1  0.13954600  0.13954600  0.13954600  1
  Y  Y2  1  0.00000000  0.00000000  0.00000000  1
  Ir  Ir3  1  0.41819900  0.91766100  0.41819900  1
  Ir  Ir4  1  0.41819900  0.41819900  0.91766100  1
  Ir  Ir5  1  0.91766100  0.41819900  0.41819900  1
  Ir  Ir6  1  0.58180100  0.08233900  0.58180100  1
  Ir  Ir7  1  0.58180100  0.58180100  0.08233900  1
  Ir  Ir8  1  0.08233900  0.58180100  0.58180100  1
  Ir  Ir9  1  0.66728500  0.66728500  0.66728500  1
  Ir  Ir10  1  0.33271500  0.33271500  0.33271500  1
  Ir  Ir11  1  0.50000000  0.50000000  0.50000000  1
