# generated using pymatgen
data_CaSeO4
_symmetry_space_group_name_H-M   'P 1'
_cell_length_a   6.98240176
_cell_length_b   6.98240176
_cell_length_c   6.98240176
_cell_angle_alpha   137.06532355
_cell_angle_beta   137.06532355
_cell_angle_gamma   62.33755806
_symmetry_Int_Tables_number   1
_chemical_formula_structural   CaSeO4
_chemical_formula_sum   'Ca2 Se2 O8'
_cell_volume   156.04923469
_cell_formula_units_Z   2
loop_
 _symmetry_equiv_pos_site_id
 _symmetry_equiv_pos_as_xyz
  1  'x, y, z'
loop_
 _atom_site_type_symbol
 _atom_site_label
 _atom_site_symmetry_multiplicity
 _atom_site_fract_x
 _atom_site_fract_y
 _atom_site_fract_z
 _atom_site_occupancy
  Ca  Ca0  1  0.75000000  0.25000000  0.50000000  1
  Ca  Ca1  1  0.00000000  0.00000000  0.00000000  1
  Se  Se2  1  0.25000000  0.75000000  0.50000000  1
  Se  Se3  1  0.50000000  0.50000000  0.00000000  1
  O  O4  1  0.30604100  0.91879700  0.87540500  1
  O  O5  1  0.04339200  0.43063500  0.12459500  1
  O  O6  1  0.18063500  0.55604100  0.88724400  1
  O  O7  1  0.66879700  0.29339200  0.11275600  1
  O  O8  1  0.44395900  0.33120300  0.62459500  1
  O  O9  1  0.70660800  0.81936500  0.37540500  1
  O  O10  1  0.56936500  0.69395900  0.61275600  1
  O  O11  1  0.08120300  0.95660800  0.38724400  1
