# generated using pymatgen
data_HoSeF
_symmetry_space_group_name_H-M   'P 1'
_cell_length_a   4.10105000
_cell_length_b   6.32835700
_cell_length_c   9.97674700
_cell_angle_alpha   90.00000000
_cell_angle_beta   90.00000000
_cell_angle_gamma   90.00000000
_symmetry_Int_Tables_number   1
_chemical_formula_structural   HoSeF
_chemical_formula_sum   'Ho4 Se4 F4'
_cell_volume   258.92560177
_cell_formula_units_Z   4
loop_
 _symmetry_equiv_pos_site_id
 _symmetry_equiv_pos_as_xyz
  1  'x, y, z'
loop_
 _atom_site_type_symbol
 _atom_site_label
 _atom_site_symmetry_multiplicity
 _atom_site_fract_x
 _atom_site_fract_y
 _atom_site_fract_z
 _atom_site_occupancy
  Ho  Ho0  1  0.25000000  0.26458600  0.92131200  1
  Ho  Ho1  1  0.25000000  0.23541400  0.42131200  1
  Ho  Ho2  1  0.75000000  0.73541400  0.07868800  1
  Ho  Ho3  1  0.75000000  0.76458600  0.57868800  1
  Se  Se4  1  0.25000000  0.46496900  0.66641100  1
  Se  Se5  1  0.25000000  0.03503100  0.16641100  1
  Se  Se6  1  0.75000000  0.53503100  0.33358900  1
  Se  Se7  1  0.75000000  0.96496900  0.83358900  1
  F  F8  1  0.25000000  0.90807600  0.53403300  1
  F  F9  1  0.25000000  0.59192400  0.03403300  1
  F  F10  1  0.75000000  0.09192400  0.46596700  1
  F  F11  1  0.75000000  0.40807600  0.96596700  1
