# generated using pymatgen
data_SmVO4
_symmetry_space_group_name_H-M   'P 1'
_cell_length_a   6.83494257
_cell_length_b   6.83494257
_cell_length_c   6.83494257
_cell_angle_alpha   135.63094609
_cell_angle_beta   135.63094609
_cell_angle_gamma   64.55141728
_symmetry_Int_Tables_number   1
_chemical_formula_structural   SmVO4
_chemical_formula_sum   'Sm2 V2 O8'
_cell_volume   153.96246916
_cell_formula_units_Z   2
loop_
 _symmetry_equiv_pos_site_id
 _symmetry_equiv_pos_as_xyz
  1  'x, y, z'
loop_
 _atom_site_type_symbol
 _atom_site_label
 _atom_site_symmetry_multiplicity
 _atom_site_fract_x
 _atom_site_fract_y
 _atom_site_fract_z
 _atom_site_occupancy
  Sm  Sm0  1  0.25000000  0.75000000  0.50000000  1
  Sm  Sm1  1  0.50000000  0.50000000  0.00000000  1
  V  V2  1  0.75000000  0.25000000  0.50000000  1
  V  V3  1  0.00000000  0.00000000  0.00000000  1
  O  O4  1  0.08134100  0.47287500  0.89405800  1
  O  O5  1  0.57881600  0.18728200  0.10594200  1
  O  O6  1  0.93728200  0.33134100  0.10846600  1
  O  O7  1  0.22287500  0.82881600  0.89153400  1
  O  O8  1  0.66865900  0.77712500  0.60594200  1
  O  O9  1  0.17118400  0.06271800  0.39405800  1
  O  O10  1  0.81271800  0.91865900  0.39153400  1
  O  O11  1  0.52712500  0.42118400  0.60846600  1
