# generated using pymatgen
data_CBrN3O
_symmetry_space_group_name_H-M   'P 1'
_cell_length_a   5.40425900
_cell_length_b   6.97255121
_cell_length_c   6.45953710
_cell_angle_alpha   95.35542551
_cell_angle_beta   90.00000000
_cell_angle_gamma   90.00000000
_symmetry_Int_Tables_number   1
_chemical_formula_structural   CBrN3O
_chemical_formula_sum   'C2 Br2 N6 O2'
_cell_volume   242.34237841
_cell_formula_units_Z   2
loop_
 _symmetry_equiv_pos_site_id
 _symmetry_equiv_pos_as_xyz
  1  'x, y, z'
loop_
 _atom_site_type_symbol
 _atom_site_label
 _atom_site_symmetry_multiplicity
 _atom_site_fract_x
 _atom_site_fract_y
 _atom_site_fract_z
 _atom_site_occupancy
  C  C0  1  0.25084000  0.72324900  0.85258700  1
  C  C1  1  0.75084000  0.27675100  0.14741300  1
  Br  Br2  1  0.76569000  0.22587500  0.77428600  1
  Br  Br3  1  0.26569000  0.77412500  0.22571400  1
  N  N4  1  0.12730700  0.86871800  0.96969200  1
  N  N5  1  0.62730700  0.13128200  0.03030800  1
  N  N6  1  0.39012900  0.61406900  0.97823500  1
  N  N7  1  0.89012900  0.38593100  0.02176500  1
  N  N8  1  0.72563400  0.76238300  0.47515800  1
  N  N9  1  0.22563400  0.23761700  0.52484200  1
  O  O10  1  0.24140000  0.69410200  0.65914300  1
  O  O11  1  0.74140000  0.30589800  0.34085700  1
