# generated using pymatgen
data_Mn2CrRu
_symmetry_space_group_name_H-M   'P 1'
_cell_length_a   10.47191749
_cell_length_b   10.47191749
_cell_length_c   10.47191749
_cell_angle_alpha   121.82489509
_cell_angle_beta   120.97476362
_cell_angle_gamma   87.59370050
_symmetry_Int_Tables_number   1
_chemical_formula_structural   Mn2CrRu
_chemical_formula_sum   'Mn2 Cr1 Ru1'
_cell_volume   794.01481475
_cell_formula_units_Z   1
loop_
 _symmetry_equiv_pos_site_id
 _symmetry_equiv_pos_as_xyz
  1  'x, y, z'
loop_
 _atom_site_type_symbol
 _atom_site_label
 _atom_site_symmetry_multiplicity
 _atom_site_fract_x
 _atom_site_fract_y
 _atom_site_fract_z
 _atom_site_occupancy
  Mn  Mn0  1  0.72945700  0.00000000  0.72945700  1
  Mn  Mn1  1  0.27054300  0.00000000  0.27054300  1
  Cr  Cr2  1  0.00000000  0.00000000  0.00000000  1
  Ru  Ru3  1  0.50000000  0.00000000  0.50000000  1
