# generated using pymatgen
data_C
_symmetry_space_group_name_H-M   'P 1'
_cell_length_a   5.80144774
_cell_length_b   5.80144774
_cell_length_c   5.80144774
_cell_angle_alpha   108.68294005
_cell_angle_beta   108.68294005
_cell_angle_gamma   111.05955298
_symmetry_Int_Tables_number   1
_chemical_formula_structural   C
_chemical_formula_sum   C12
_cell_volume   150.22288343
_cell_formula_units_Z   12
loop_
 _symmetry_equiv_pos_site_id
 _symmetry_equiv_pos_as_xyz
  1  'x, y, z'
loop_
 _atom_site_type_symbol
 _atom_site_label
 _atom_site_symmetry_multiplicity
 _atom_site_fract_x
 _atom_site_fract_y
 _atom_site_fract_z
 _atom_site_occupancy
  C  C0  1  0.87871100  0.12128900  0.00000000  1
  C  C1  1  0.12128900  0.87871100  0.00000000  1
  C  C2  1  0.12128900  0.12128900  0.24257700  1
  C  C3  1  0.87871100  0.87871100  0.75742300  1
  C  C4  1  0.96986100  0.38828700  0.00000000  1
  C  C5  1  0.38828700  0.96986100  0.00000000  1
  C  C6  1  0.38828700  0.38828700  0.41842700  1
  C  C7  1  0.96986100  0.96986100  0.58157300  1
  C  C8  1  0.03013900  0.61171300  0.00000000  1
  C  C9  1  0.61171300  0.03013900  0.00000000  1
  C  C10  1  0.61171300  0.61171300  0.58157300  1
  C  C11  1  0.03013900  0.03013900  0.41842700  1
