# generated using pymatgen
data_AlHg3(OF3)2
_symmetry_space_group_name_H-M   'P 1'
_cell_length_a   5.53478070
_cell_length_b   5.53478070
_cell_length_c   5.53478075
_cell_angle_alpha   84.12072003
_cell_angle_beta   84.12072003
_cell_angle_gamma   84.12071372
_symmetry_Int_Tables_number   1
_chemical_formula_structural   AlHg3(OF3)2
_chemical_formula_sum   'Al1 Hg3 O2 F6'
_cell_volume   167.04655643
_cell_formula_units_Z   1
loop_
 _symmetry_equiv_pos_site_id
 _symmetry_equiv_pos_as_xyz
  1  'x, y, z'
loop_
 _atom_site_type_symbol
 _atom_site_label
 _atom_site_symmetry_multiplicity
 _atom_site_fract_x
 _atom_site_fract_y
 _atom_site_fract_z
 _atom_site_occupancy
  Al  Al0  1  0.00000000  0.00000000  0.00000000  1
  Hg  Hg1  1  0.50000000  0.50000000  0.00000000  1
  Hg  Hg2  1  0.00000000  0.50000000  0.50000000  1
  Hg  Hg3  1  0.50000000  0.00000000  0.50000000  1
  O  O4  1  0.62641100  0.62641100  0.62641100  1
  O  O5  1  0.37358900  0.37358900  0.37358900  1
  F  F6  1  0.13534800  0.78468700  0.78468700  1
  F  F7  1  0.78468700  0.13534800  0.78468700  1
  F  F8  1  0.78468700  0.78468700  0.13534800  1
  F  F9  1  0.86465200  0.21531300  0.21531300  1
  F  F10  1  0.21531300  0.86465200  0.21531300  1
  F  F11  1  0.21531300  0.21531300  0.86465200  1
