# generated using pymatgen
data_YbCuPbSe3
_symmetry_space_group_name_H-M   'P 1'
_cell_length_a   7.25560970
_cell_length_b   7.25560970
_cell_length_c   10.79498900
_cell_angle_alpha   90.00000000
_cell_angle_beta   90.00000000
_cell_angle_gamma   148.30858536
_symmetry_Int_Tables_number   1
_chemical_formula_structural   YbCuPbSe3
_chemical_formula_sum   'Yb2 Cu2 Pb2 Se6'
_cell_volume   298.54784210
_cell_formula_units_Z   2
loop_
 _symmetry_equiv_pos_site_id
 _symmetry_equiv_pos_as_xyz
  1  'x, y, z'
loop_
 _atom_site_type_symbol
 _atom_site_label
 _atom_site_symmetry_multiplicity
 _atom_site_fract_x
 _atom_site_fract_y
 _atom_site_fract_z
 _atom_site_occupancy
  Yb  Yb0  1  0.00000000  0.00000000  0.00000000  1
  Yb  Yb1  1  0.00000000  0.00000000  0.50000000  1
  Cu  Cu2  1  0.53094100  0.46905900  0.25000000  1
  Cu  Cu3  1  0.46905900  0.53094100  0.75000000  1
  Pb  Pb4  1  0.24099800  0.75900200  0.25000000  1
  Pb  Pb5  1  0.75900200  0.24099800  0.75000000  1
  Se  Se6  1  0.07356800  0.92643200  0.75000000  1
  Se  Se7  1  0.92643200  0.07356800  0.25000000  1
  Se  Se8  1  0.35714100  0.64285900  0.92459000  1
  Se  Se9  1  0.64285900  0.35714100  0.42459000  1
  Se  Se10  1  0.64285900  0.35714100  0.07541000  1
  Se  Se11  1  0.35714100  0.64285900  0.57541000  1
