# generated using pymatgen
data_Ti2NiW
_symmetry_space_group_name_H-M   'P 1'
_cell_length_a   10.13919576
_cell_length_b   10.13919576
_cell_length_c   10.13919576
_cell_angle_alpha   126.80190914
_cell_angle_beta   117.85237336
_cell_angle_gamma   86.20164178
_symmetry_Int_Tables_number   1
_chemical_formula_structural   Ti2NiW
_chemical_formula_sum   'Ti2 Ni1 W1'
_cell_volume   703.53090518
_cell_formula_units_Z   1
loop_
 _symmetry_equiv_pos_site_id
 _symmetry_equiv_pos_as_xyz
  1  'x, y, z'
loop_
 _atom_site_type_symbol
 _atom_site_label
 _atom_site_symmetry_multiplicity
 _atom_site_fract_x
 _atom_site_fract_y
 _atom_site_fract_z
 _atom_site_occupancy
  Ti  Ti0  1  0.00000000  0.25143000  0.25143000  1
  Ti  Ti1  1  0.00000000  0.74857000  0.74857000  1
  Ni  Ni2  1  0.00000000  0.00000000  0.00000000  1
  W  W3  1  0.00000000  0.50000000  0.50000000  1
