# generated using pymatgen
data_CaLaRh2
_symmetry_space_group_name_H-M   'P 1'
_cell_length_a   11.62315729
_cell_length_b   11.62315729
_cell_length_c   11.62315729
_cell_angle_alpha   129.17134413
_cell_angle_beta   116.99290033
_cell_angle_gamma   85.09397279
_symmetry_Int_Tables_number   1
_chemical_formula_structural   CaLaRh2
_chemical_formula_sum   'Ca1 La1 Rh2'
_cell_volume   1037.73358545
_cell_formula_units_Z   1
loop_
 _symmetry_equiv_pos_site_id
 _symmetry_equiv_pos_as_xyz
  1  'x, y, z'
loop_
 _atom_site_type_symbol
 _atom_site_label
 _atom_site_symmetry_multiplicity
 _atom_site_fract_x
 _atom_site_fract_y
 _atom_site_fract_z
 _atom_site_occupancy
  Ca  Ca0  1  0.00000000  0.00000000  0.00000000  1
  La  La1  1  0.00000000  0.50000000  0.50000000  1
  Rh  Rh2  1  0.00000000  0.27479800  0.27479800  1
  Rh  Rh3  1  0.00000000  0.72520200  0.72520200  1
