# generated using pymatgen
data_Tc2GeW
_symmetry_space_group_name_H-M   'P 1'
_cell_length_a   10.39939648
_cell_length_b   10.39939648
_cell_length_c   10.39939648
_cell_angle_alpha   127.49082759
_cell_angle_beta   117.67322500
_cell_angle_gamma   85.81008488
_symmetry_Int_Tables_number   1
_chemical_formula_structural   Tc2GeW
_chemical_formula_sum   'Tc2 Ge1 W1'
_cell_volume   754.31387684
_cell_formula_units_Z   1
loop_
 _symmetry_equiv_pos_site_id
 _symmetry_equiv_pos_as_xyz
  1  'x, y, z'
loop_
 _atom_site_type_symbol
 _atom_site_label
 _atom_site_symmetry_multiplicity
 _atom_site_fract_x
 _atom_site_fract_y
 _atom_site_fract_z
 _atom_site_occupancy
  Tc  Tc0  1  0.00000000  0.25767300  0.25767300  1
  Tc  Tc1  1  0.00000000  0.74232700  0.74232700  1
  Ge  Ge2  1  0.00000000  0.00000000  0.00000000  1
  W  W3  1  0.00000000  0.50000000  0.50000000  1
