# generated using pymatgen
data_Mg2HgPb
_symmetry_space_group_name_H-M   'P 1'
_cell_length_a   12.22971109
_cell_length_b   12.22971109
_cell_length_c   12.22971109
_cell_angle_alpha   125.71520740
_cell_angle_beta   120.75763741
_cell_angle_gamma   84.53921950
_symmetry_Int_Tables_number   1
_chemical_formula_structural   Mg2HgPb
_chemical_formula_sum   'Mg2 Hg1 Pb1'
_cell_volume   1220.81593828
_cell_formula_units_Z   1
loop_
 _symmetry_equiv_pos_site_id
 _symmetry_equiv_pos_as_xyz
  1  'x, y, z'
loop_
 _atom_site_type_symbol
 _atom_site_label
 _atom_site_symmetry_multiplicity
 _atom_site_fract_x
 _atom_site_fract_y
 _atom_site_fract_z
 _atom_site_occupancy
  Mg  Mg0  1  0.00000000  0.24930700  0.24930700  1
  Mg  Mg1  1  0.00000000  0.75069300  0.75069300  1
  Hg  Hg2  1  0.00000000  0.00000000  0.00000000  1
  Pb  Pb3  1  0.00000000  0.50000000  0.50000000  1
