# generated using pymatgen
data_Tl2CdIn
_symmetry_space_group_name_H-M   'P 1'
_cell_length_a   12.40350009
_cell_length_b   12.40350009
_cell_length_c   12.40350009
_cell_angle_alpha   121.72941049
_cell_angle_beta   119.43184627
_cell_angle_gamma   89.00894964
_symmetry_Int_Tables_number   1
_chemical_formula_structural   Tl2CdIn
_chemical_formula_sum   'Tl2 Cd1 In1'
_cell_volume   1336.58315898
_cell_formula_units_Z   1
loop_
 _symmetry_equiv_pos_site_id
 _symmetry_equiv_pos_as_xyz
  1  'x, y, z'
loop_
 _atom_site_type_symbol
 _atom_site_label
 _atom_site_symmetry_multiplicity
 _atom_site_fract_x
 _atom_site_fract_y
 _atom_site_fract_z
 _atom_site_occupancy
  Tl  Tl0  1  0.00000000  0.25570900  0.25570900  1
  Tl  Tl1  1  0.00000000  0.74429100  0.74429100  1
  Cd  Cd2  1  0.00000000  0.00000000  0.00000000  1
  In  In3  1  0.00000000  0.50000000  0.50000000  1
