# generated using pymatgen
data_LaSbPd2
_symmetry_space_group_name_H-M   'P 1'
_cell_length_a   11.74837348
_cell_length_b   11.74837348
_cell_length_c   11.74837348
_cell_angle_alpha   130.50645445
_cell_angle_beta   116.68281241
_cell_angle_gamma   84.34232355
_symmetry_Int_Tables_number   1
_chemical_formula_structural   LaSbPd2
_chemical_formula_sum   'La1 Sb1 Pd2'
_cell_volume   1056.19434101
_cell_formula_units_Z   1
loop_
 _symmetry_equiv_pos_site_id
 _symmetry_equiv_pos_as_xyz
  1  'x, y, z'
loop_
 _atom_site_type_symbol
 _atom_site_label
 _atom_site_symmetry_multiplicity
 _atom_site_fract_x
 _atom_site_fract_y
 _atom_site_fract_z
 _atom_site_occupancy
  La  La0  1  0.00000000  0.50000000  0.50000000  1
  Sb  Sb1  1  0.00000000  0.00000000  0.00000000  1
  Pd  Pd2  1  0.00000000  0.26178900  0.26178900  1
  Pd  Pd3  1  0.00000000  0.73821100  0.73821100  1
