# generated using pymatgen
data_Mg2ZnAg
_symmetry_space_group_name_H-M   'P 1'
_cell_length_a   11.40071543
_cell_length_b   11.40071543
_cell_length_c   11.40071543
_cell_angle_alpha   122.32293635
_cell_angle_beta   119.14034784
_cell_angle_gamma   88.75995091
_symmetry_Int_Tables_number   1
_chemical_formula_structural   Mg2ZnAg
_chemical_formula_sum   'Mg2 Zn1 Ag1'
_cell_volume   1034.93006696
_cell_formula_units_Z   1
loop_
 _symmetry_equiv_pos_site_id
 _symmetry_equiv_pos_as_xyz
  1  'x, y, z'
loop_
 _atom_site_type_symbol
 _atom_site_label
 _atom_site_symmetry_multiplicity
 _atom_site_fract_x
 _atom_site_fract_y
 _atom_site_fract_z
 _atom_site_occupancy
  Mg  Mg0  1  0.00000000  0.25615700  0.25615700  1
  Mg  Mg1  1  0.00000000  0.74384300  0.74384300  1
  Zn  Zn2  1  0.00000000  0.00000000  0.00000000  1
  Ag  Ag3  1  0.00000000  0.50000000  0.50000000  1
