# generated using pymatgen
data_AsS
_symmetry_space_group_name_H-M   'P 1'
_cell_length_a   7.28786335
_cell_length_b   7.28786335
_cell_length_c   6.99587500
_cell_angle_alpha   90.00000000
_cell_angle_beta   90.00000000
_cell_angle_gamma   135.76553121
_symmetry_Int_Tables_number   1
_chemical_formula_structural   AsS
_chemical_formula_sum   'As6 S6'
_cell_volume   259.20694283
_cell_formula_units_Z   6
loop_
 _symmetry_equiv_pos_site_id
 _symmetry_equiv_pos_as_xyz
  1  'x, y, z'
loop_
 _atom_site_type_symbol
 _atom_site_label
 _atom_site_symmetry_multiplicity
 _atom_site_fract_x
 _atom_site_fract_y
 _atom_site_fract_z
 _atom_site_occupancy
  As  As0  1  0.93856000  0.93856000  0.50935000  1
  As  As1  1  0.06144000  0.06144000  0.00935000  1
  As  As2  1  0.68512400  0.38928700  0.00663600  1
  As  As3  1  0.38928700  0.68512400  0.00663600  1
  As  As4  1  0.31487600  0.61071300  0.50663600  1
  As  As5  1  0.61071300  0.31487600  0.50663600  1
  S  S6  1  0.63740600  0.63740600  0.16810900  1
  S  S7  1  0.36259400  0.36259400  0.66810900  1
  S  S8  1  0.97506600  0.25118900  0.32943400  1
  S  S9  1  0.25118900  0.97506600  0.32943400  1
  S  S10  1  0.02493400  0.74881100  0.82943400  1
  S  S11  1  0.74881100  0.02493400  0.82943400  1
