# generated using pymatgen
data_Sc2BeTl
_symmetry_space_group_name_H-M   'P 1'
_cell_length_a   12.27094334
_cell_length_b   12.27094334
_cell_length_c   12.27094334
_cell_angle_alpha   126.35109165
_cell_angle_beta   117.22670077
_cell_angle_gamma   87.12002034
_symmetry_Int_Tables_number   1
_chemical_formula_structural   Sc2BeTl
_chemical_formula_sum   'Sc2 Be1 Tl1'
_cell_volume   1258.72027090
_cell_formula_units_Z   1
loop_
 _symmetry_equiv_pos_site_id
 _symmetry_equiv_pos_as_xyz
  1  'x, y, z'
loop_
 _atom_site_type_symbol
 _atom_site_label
 _atom_site_symmetry_multiplicity
 _atom_site_fract_x
 _atom_site_fract_y
 _atom_site_fract_z
 _atom_site_occupancy
  Sc  Sc0  1  0.00000000  0.23279700  0.23279700  1
  Sc  Sc1  1  0.00000000  0.76720300  0.76720300  1
  Be  Be2  1  0.00000000  0.00000000  0.00000000  1
  Tl  Tl3  1  0.00000000  0.50000000  0.50000000  1
