# generated using pymatgen
data_SrPbAu2
_symmetry_space_group_name_H-M   'P 1'
_cell_length_a   12.20019318
_cell_length_b   12.20019318
_cell_length_c   12.20019318
_cell_angle_alpha   123.95809112
_cell_angle_beta   112.33075491
_cell_angle_gamma   93.52367154
_symmetry_Int_Tables_number   1
_chemical_formula_structural   SrPbAu2
_chemical_formula_sum   'Sr1 Pb1 Au2'
_cell_volume   1301.59711526
_cell_formula_units_Z   1
loop_
 _symmetry_equiv_pos_site_id
 _symmetry_equiv_pos_as_xyz
  1  'x, y, z'
loop_
 _atom_site_type_symbol
 _atom_site_label
 _atom_site_symmetry_multiplicity
 _atom_site_fract_x
 _atom_site_fract_y
 _atom_site_fract_z
 _atom_site_occupancy
  Sr  Sr0  1  0.00000000  0.00000000  0.00000000  1
  Pb  Pb1  1  0.00000000  0.50000000  0.50000000  1
  Au  Au2  1  0.00000000  0.25101300  0.25101300  1
  Au  Au3  1  0.00000000  0.74898700  0.74898700  1
