# generated using pymatgen
data_Ca2GaHg
_symmetry_space_group_name_H-M   'P 1'
_cell_length_a   12.53427927
_cell_length_b   12.53427927
_cell_length_c   12.53427927
_cell_angle_alpha   121.39255999
_cell_angle_beta   119.40655574
_cell_angle_gamma   89.31803661
_symmetry_Int_Tables_number   1
_chemical_formula_structural   Ca2GaHg
_chemical_formula_sum   'Ca2 Ga1 Hg1'
_cell_volume   1383.41803375
_cell_formula_units_Z   1
loop_
 _symmetry_equiv_pos_site_id
 _symmetry_equiv_pos_as_xyz
  1  'x, y, z'
loop_
 _atom_site_type_symbol
 _atom_site_label
 _atom_site_symmetry_multiplicity
 _atom_site_fract_x
 _atom_site_fract_y
 _atom_site_fract_z
 _atom_site_occupancy
  Ca  Ca0  1  0.00000000  0.23343700  0.23343700  1
  Ca  Ca1  1  0.00000000  0.76656300  0.76656300  1
  Ga  Ga2  1  0.00000000  0.00000000  0.00000000  1
  Hg  Hg3  1  0.00000000  0.50000000  0.50000000  1
