# generated using pymatgen
data_Hf2OsRu
_symmetry_space_group_name_H-M   'P 1'
_cell_length_a   10.61828969
_cell_length_b   10.61828969
_cell_length_c   10.61828969
_cell_angle_alpha   128.84012857
_cell_angle_beta   117.22066096
_cell_angle_gamma   85.14881006
_symmetry_Int_Tables_number   1
_chemical_formula_structural   Hf2OsRu
_chemical_formula_sum   'Hf2 Os1 Ru1'
_cell_volume   793.06162636
_cell_formula_units_Z   1
loop_
 _symmetry_equiv_pos_site_id
 _symmetry_equiv_pos_as_xyz
  1  'x, y, z'
loop_
 _atom_site_type_symbol
 _atom_site_label
 _atom_site_symmetry_multiplicity
 _atom_site_fract_x
 _atom_site_fract_y
 _atom_site_fract_z
 _atom_site_occupancy
  Hf  Hf0  1  0.00000000  0.24788300  0.24788300  1
  Hf  Hf1  1  0.00000000  0.75211700  0.75211700  1
  Os  Os2  1  0.00000000  0.50000000  0.50000000  1
  Ru  Ru3  1  0.00000000  0.00000000  0.00000000  1
