# generated using pymatgen
data_SbSBr
_symmetry_space_group_name_H-M   'P 1'
_cell_length_a   4.01409500
_cell_length_b   8.78100000
_cell_length_c   10.22093000
_cell_angle_alpha   90.00000000
_cell_angle_beta   90.00000000
_cell_angle_gamma   90.00000000
_symmetry_Int_Tables_number   1
_chemical_formula_structural   SbSBr
_chemical_formula_sum   'Sb4 S4 Br4'
_cell_volume   360.26497138
_cell_formula_units_Z   4
loop_
 _symmetry_equiv_pos_site_id
 _symmetry_equiv_pos_as_xyz
  1  'x, y, z'
loop_
 _atom_site_type_symbol
 _atom_site_label
 _atom_site_symmetry_multiplicity
 _atom_site_fract_x
 _atom_site_fract_y
 _atom_site_fract_z
 _atom_site_occupancy
  Sb  Sb0  1  0.26910600  0.60754000  0.36968200  1
  Sb  Sb1  1  0.76910600  0.39246000  0.63031800  1
  Sb  Sb2  1  0.76910600  0.89246000  0.86968200  1
  Sb  Sb3  1  0.26910600  0.10754000  0.13031800  1
  S  S4  1  0.26065000  0.34262600  0.45790700  1
  S  S5  1  0.76065000  0.65737400  0.54209300  1
  S  S6  1  0.76065000  0.15737400  0.95790700  1
  S  S7  1  0.26065000  0.84262600  0.04209300  1
  Br  Br8  1  0.25644400  0.01289000  0.68760200  1
  Br  Br9  1  0.75644400  0.98711000  0.31239800  1
  Br  Br10  1  0.75644400  0.48711000  0.18760200  1
  Br  Br11  1  0.25644400  0.51289000  0.81239800  1
