# generated using pymatgen
data_Hf2MnZn
_symmetry_space_group_name_H-M   'P 1'
_cell_length_a   11.02952155
_cell_length_b   11.02952155
_cell_length_c   11.02952155
_cell_angle_alpha   124.50661390
_cell_angle_beta   120.31628119
_cell_angle_gamma   85.91281725
_symmetry_Int_Tables_number   1
_chemical_formula_structural   Hf2MnZn
_chemical_formula_sum   'Hf2 Mn1 Zn1'
_cell_volume   909.97908717
_cell_formula_units_Z   1
loop_
 _symmetry_equiv_pos_site_id
 _symmetry_equiv_pos_as_xyz
  1  'x, y, z'
loop_
 _atom_site_type_symbol
 _atom_site_label
 _atom_site_symmetry_multiplicity
 _atom_site_fract_x
 _atom_site_fract_y
 _atom_site_fract_z
 _atom_site_occupancy
  Hf  Hf0  1  0.00000000  0.20737600  0.20737600  1
  Hf  Hf1  1  0.00000000  0.79262400  0.79262400  1
  Mn  Mn2  1  0.00000000  0.00000000  0.00000000  1
  Zn  Zn3  1  0.00000000  0.50000000  0.50000000  1
