# generated using pymatgen
data_BaCaMg2
_symmetry_space_group_name_H-M   'P 1'
_cell_length_a   14.03181811
_cell_length_b   14.03181811
_cell_length_c   14.03181811
_cell_angle_alpha   120.17207861
_cell_angle_beta   118.98782974
_cell_angle_gamma   90.73211452
_symmetry_Int_Tables_number   1
_chemical_formula_structural   BaCaMg2
_chemical_formula_sum   'Ba1 Ca1 Mg2'
_cell_volume   1965.53141235
_cell_formula_units_Z   1
loop_
 _symmetry_equiv_pos_site_id
 _symmetry_equiv_pos_as_xyz
  1  'x, y, z'
loop_
 _atom_site_type_symbol
 _atom_site_label
 _atom_site_symmetry_multiplicity
 _atom_site_fract_x
 _atom_site_fract_y
 _atom_site_fract_z
 _atom_site_occupancy
  Ba  Ba0  1  0.50000000  0.00000000  0.50000000  1
  Ca  Ca1  1  0.00000000  0.00000000  0.00000000  1
  Mg  Mg2  1  0.24536100  0.00000000  0.24536100  1
  Mg  Mg3  1  0.75463900  0.00000000  0.75463900  1
