# generated using pymatgen
data_Ca2CdHg
_symmetry_space_group_name_H-M   'P 1'
_cell_length_a   13.12175329
_cell_length_b   13.12175329
_cell_length_c   13.12175329
_cell_angle_alpha   120.97310239
_cell_angle_beta   117.10200805
_cell_angle_gamma   91.70699490
_symmetry_Int_Tables_number   1
_chemical_formula_structural   Ca2CdHg
_chemical_formula_sum   'Ca2 Cd1 Hg1'
_cell_volume   1617.80584761
_cell_formula_units_Z   1
loop_
 _symmetry_equiv_pos_site_id
 _symmetry_equiv_pos_as_xyz
  1  'x, y, z'
loop_
 _atom_site_type_symbol
 _atom_site_label
 _atom_site_symmetry_multiplicity
 _atom_site_fract_x
 _atom_site_fract_y
 _atom_site_fract_z
 _atom_site_occupancy
  Ca  Ca0  1  0.25168000  0.00000000  0.25168000  1
  Ca  Ca1  1  0.74832000  0.00000000  0.74832000  1
  Cd  Cd2  1  0.00000000  0.00000000  0.00000000  1
  Hg  Hg3  1  0.50000000  0.00000000  0.50000000  1
