# generated using pymatgen
data_Sr2AgHg
_symmetry_space_group_name_H-M   'P 1'
_cell_length_a   13.32906795
_cell_length_b   13.32906795
_cell_length_c   13.32906795
_cell_angle_alpha   120.26138699
_cell_angle_beta   119.00479253
_cell_angle_gamma   90.64009754
_symmetry_Int_Tables_number   1
_chemical_formula_structural   Sr2AgHg
_chemical_formula_sum   'Sr2 Ag1 Hg1'
_cell_volume   1683.42000164
_cell_formula_units_Z   1
loop_
 _symmetry_equiv_pos_site_id
 _symmetry_equiv_pos_as_xyz
  1  'x, y, z'
loop_
 _atom_site_type_symbol
 _atom_site_label
 _atom_site_symmetry_multiplicity
 _atom_site_fract_x
 _atom_site_fract_y
 _atom_site_fract_z
 _atom_site_occupancy
  Sr  Sr0  1  0.76519800  0.00000000  0.76519800  1
  Sr  Sr1  1  0.23480200  0.00000000  0.23480200  1
  Ag  Ag2  1  0.00000000  0.00000000  0.00000000  1
  Hg  Hg3  1  0.50000000  0.00000000  0.50000000  1
