# generated using pymatgen
data_Si2TcRh
_symmetry_space_group_name_H-M   'P 1'
_cell_length_a   9.43951068
_cell_length_b   9.43951068
_cell_length_c   9.43951068
_cell_angle_alpha   122.92925200
_cell_angle_beta   118.19202246
_cell_angle_gamma   89.08144661
_symmetry_Int_Tables_number   1
_chemical_formula_structural   Si2TcRh
_chemical_formula_sum   'Si2 Tc1 Rh1'
_cell_volume   588.34106425
_cell_formula_units_Z   1
loop_
 _symmetry_equiv_pos_site_id
 _symmetry_equiv_pos_as_xyz
  1  'x, y, z'
loop_
 _atom_site_type_symbol
 _atom_site_label
 _atom_site_symmetry_multiplicity
 _atom_site_fract_x
 _atom_site_fract_y
 _atom_site_fract_z
 _atom_site_occupancy
  Si  Si0  1  0.00000000  0.25303100  0.25303100  1
  Si  Si1  1  0.00000000  0.74696900  0.74696900  1
  Tc  Tc2  1  0.00000000  0.00000000  0.00000000  1
  Rh  Rh3  1  0.00000000  0.50000000  0.50000000  1
