# generated using pymatgen
data_Ca2AlCd
_symmetry_space_group_name_H-M   'P 1'
_cell_length_a   12.83961319
_cell_length_b   12.83961319
_cell_length_c   12.83961319
_cell_angle_alpha   121.40035186
_cell_angle_beta   119.47313586
_cell_angle_gamma   89.25339780
_symmetry_Int_Tables_number   1
_chemical_formula_structural   Ca2AlCd
_chemical_formula_sum   'Ca2 Al1 Cd1'
_cell_volume   1486.16939046
_cell_formula_units_Z   1
loop_
 _symmetry_equiv_pos_site_id
 _symmetry_equiv_pos_as_xyz
  1  'x, y, z'
loop_
 _atom_site_type_symbol
 _atom_site_label
 _atom_site_symmetry_multiplicity
 _atom_site_fract_x
 _atom_site_fract_y
 _atom_site_fract_z
 _atom_site_occupancy
  Ca  Ca0  1  0.00000000  0.23304500  0.23304500  1
  Ca  Ca1  1  0.00000000  0.76695500  0.76695500  1
  Al  Al2  1  0.00000000  0.00000000  0.00000000  1
  Cd  Cd3  1  0.00000000  0.50000000  0.50000000  1
