# generated using pymatgen
data_Sr2AgSb
_symmetry_space_group_name_H-M   'P 1'
_cell_length_a   12.81724669
_cell_length_b   12.81724669
_cell_length_c   12.81724669
_cell_angle_alpha   123.30609004
_cell_angle_beta   118.82583460
_cell_angle_gamma   88.20861891
_symmetry_Int_Tables_number   1
_chemical_formula_structural   Sr2AgSb
_chemical_formula_sum   'Sr2 Ag1 Sb1'
_cell_volume   1461.23618482
_cell_formula_units_Z   1
loop_
 _symmetry_equiv_pos_site_id
 _symmetry_equiv_pos_as_xyz
  1  'x, y, z'
loop_
 _atom_site_type_symbol
 _atom_site_label
 _atom_site_symmetry_multiplicity
 _atom_site_fract_x
 _atom_site_fract_y
 _atom_site_fract_z
 _atom_site_occupancy
  Sr  Sr0  1  0.00000000  0.25980800  0.25980800  1
  Sr  Sr1  1  0.00000000  0.74019200  0.74019200  1
  Ag  Ag2  1  0.00000000  0.00000000  0.00000000  1
  Sb  Sb3  1  0.00000000  0.50000000  0.50000000  1
