# generated using pymatgen
data_YScIn2
_symmetry_space_group_name_H-M   'P 1'
_cell_length_a   12.15890511
_cell_length_b   12.15890511
_cell_length_c   12.15890511
_cell_angle_alpha   122.89414927
_cell_angle_beta   119.76934848
_cell_angle_gamma   87.73058710
_symmetry_Int_Tables_number   1
_chemical_formula_structural   YScIn2
_chemical_formula_sum   'Y1 Sc1 In2'
_cell_volume   1243.20490824
_cell_formula_units_Z   1
loop_
 _symmetry_equiv_pos_site_id
 _symmetry_equiv_pos_as_xyz
  1  'x, y, z'
loop_
 _atom_site_type_symbol
 _atom_site_label
 _atom_site_symmetry_multiplicity
 _atom_site_fract_x
 _atom_site_fract_y
 _atom_site_fract_z
 _atom_site_occupancy
  Y  Y0  1  0.00000000  0.50000000  0.50000000  1
  Sc  Sc1  1  0.00000000  0.00000000  0.00000000  1
  In  In2  1  0.00000000  0.24532800  0.24532800  1
  In  In3  1  0.00000000  0.75467200  0.75467200  1
