# generated using pymatgen
data_Ta2OsRh
_symmetry_space_group_name_H-M   'P 1'
_cell_length_a   10.39120951
_cell_length_b   10.39120951
_cell_length_c   10.39120951
_cell_angle_alpha   127.19739365
_cell_angle_beta   117.81554468
_cell_angle_gamma   85.91768923
_symmetry_Int_Tables_number   1
_chemical_formula_structural   Ta2OsRh
_chemical_formula_sum   'Ta2 Os1 Rh1'
_cell_volume   754.22485827
_cell_formula_units_Z   1
loop_
 _symmetry_equiv_pos_site_id
 _symmetry_equiv_pos_as_xyz
  1  'x, y, z'
loop_
 _atom_site_type_symbol
 _atom_site_label
 _atom_site_symmetry_multiplicity
 _atom_site_fract_x
 _atom_site_fract_y
 _atom_site_fract_z
 _atom_site_occupancy
  Ta  Ta0  1  0.00000000  0.25280900  0.25280900  1
  Ta  Ta1  1  0.00000000  0.74719100  0.74719100  1
  Os  Os2  1  0.00000000  0.50000000  0.50000000  1
  Rh  Rh3  1  0.00000000  0.00000000  0.00000000  1
