# generated using pymatgen
data_NaAg2Pb
_symmetry_space_group_name_H-M   'P 1'
_cell_length_a   12.10369681
_cell_length_b   12.10369681
_cell_length_c   12.10369681
_cell_angle_alpha   123.40855832
_cell_angle_beta   118.88923760
_cell_angle_gamma   88.06742714
_symmetry_Int_Tables_number   1
_chemical_formula_structural   NaAg2Pb
_chemical_formula_sum   'Na1 Ag2 Pb1'
_cell_volume   1228.79918418
_cell_formula_units_Z   1
loop_
 _symmetry_equiv_pos_site_id
 _symmetry_equiv_pos_as_xyz
  1  'x, y, z'
loop_
 _atom_site_type_symbol
 _atom_site_label
 _atom_site_symmetry_multiplicity
 _atom_site_fract_x
 _atom_site_fract_y
 _atom_site_fract_z
 _atom_site_occupancy
  Na  Na0  1  0.00000000  0.00000000  0.00000000  1
  Ag  Ag1  1  0.00000000  0.25347700  0.25347700  1
  Ag  Ag2  1  0.00000000  0.74652300  0.74652300  1
  Pb  Pb3  1  0.00000000  0.50000000  0.50000000  1
