# generated using pymatgen
data_BeCo2P
_symmetry_space_group_name_H-M   'P 1'
_cell_length_a   8.46932743
_cell_length_b   8.46932743
_cell_length_c   8.46932743
_cell_angle_alpha   120.31942312
_cell_angle_beta   119.19105259
_cell_angle_gamma   90.42722308
_symmetry_Int_Tables_number   1
_chemical_formula_structural   BeCo2P
_chemical_formula_sum   'Be1 Co2 P1'
_cell_volume   431.09231267
_cell_formula_units_Z   1
loop_
 _symmetry_equiv_pos_site_id
 _symmetry_equiv_pos_as_xyz
  1  'x, y, z'
loop_
 _atom_site_type_symbol
 _atom_site_label
 _atom_site_symmetry_multiplicity
 _atom_site_fract_x
 _atom_site_fract_y
 _atom_site_fract_z
 _atom_site_occupancy
  Be  Be0  1  0.00000000  0.00000000  0.00000000  1
  Co  Co1  1  0.74053100  0.00000000  0.74053100  1
  Co  Co2  1  0.25946900  0.00000000  0.25946900  1
  P  P3  1  0.50000000  0.00000000  0.50000000  1
