# generated using pymatgen
data_HfBe2Pt
_symmetry_space_group_name_H-M   'P 1'
_cell_length_a   9.92848130
_cell_length_b   9.92848130
_cell_length_c   9.92848130
_cell_angle_alpha   124.83007006
_cell_angle_beta   118.30257180
_cell_angle_gamma   87.40520851
_symmetry_Int_Tables_number   1
_chemical_formula_structural   HfBe2Pt
_chemical_formula_sum   'Hf1 Be2 Pt1'
_cell_volume   672.00702617
_cell_formula_units_Z   1
loop_
 _symmetry_equiv_pos_site_id
 _symmetry_equiv_pos_as_xyz
  1  'x, y, z'
loop_
 _atom_site_type_symbol
 _atom_site_label
 _atom_site_symmetry_multiplicity
 _atom_site_fract_x
 _atom_site_fract_y
 _atom_site_fract_z
 _atom_site_occupancy
  Hf  Hf0  1  0.00000000  0.00000000  0.00000000  1
  Be  Be1  1  0.00000000  0.27566400  0.27566400  1
  Be  Be2  1  0.00000000  0.72433600  0.72433600  1
  Pt  Pt3  1  0.00000000  0.50000000  0.50000000  1
