# generated using pymatgen
data_YZn2Cd
_symmetry_space_group_name_H-M   'P 1'
_cell_length_a   11.86777804
_cell_length_b   11.86777804
_cell_length_c   11.86777804
_cell_angle_alpha   122.74810393
_cell_angle_beta   118.78186587
_cell_angle_gamma   88.71515264
_symmetry_Int_Tables_number   1
_chemical_formula_structural   YZn2Cd
_chemical_formula_sum   'Y1 Zn2 Cd1'
_cell_volume   1166.15002950
_cell_formula_units_Z   1
loop_
 _symmetry_equiv_pos_site_id
 _symmetry_equiv_pos_as_xyz
  1  'x, y, z'
loop_
 _atom_site_type_symbol
 _atom_site_label
 _atom_site_symmetry_multiplicity
 _atom_site_fract_x
 _atom_site_fract_y
 _atom_site_fract_z
 _atom_site_occupancy
  Y  Y0  1  0.00000000  0.00000000  0.00000000  1
  Zn  Zn1  1  0.00000000  0.25718700  0.25718700  1
  Zn  Zn2  1  0.00000000  0.74281300  0.74281300  1
  Cd  Cd3  1  0.00000000  0.50000000  0.50000000  1
