# generated using pymatgen
data_La2HgIr
_symmetry_space_group_name_H-M   'P 1'
_cell_length_a   12.51984452
_cell_length_b   12.51984452
_cell_length_c   12.51984452
_cell_angle_alpha   126.23044115
_cell_angle_beta   120.27962393
_cell_angle_gamma   84.53401104
_symmetry_Int_Tables_number   1
_chemical_formula_structural   La2HgIr
_chemical_formula_sum   'La2 Hg1 Ir1'
_cell_volume   1307.84746584
_cell_formula_units_Z   1
loop_
 _symmetry_equiv_pos_site_id
 _symmetry_equiv_pos_as_xyz
  1  'x, y, z'
loop_
 _atom_site_type_symbol
 _atom_site_label
 _atom_site_symmetry_multiplicity
 _atom_site_fract_x
 _atom_site_fract_y
 _atom_site_fract_z
 _atom_site_occupancy
  La  La0  1  0.00000000  0.21459600  0.21459600  1
  La  La1  1  0.00000000  0.78540400  0.78540400  1
  Hg  Hg2  1  0.00000000  0.50000000  0.50000000  1
  Ir  Ir3  1  0.00000000  0.00000000  0.00000000  1
