# generated using pymatgen
data_Ho3(CuSn)4
_symmetry_space_group_name_H-M   'P 1'
_cell_length_a   8.40399148
_cell_length_b   8.40399148
_cell_length_c   6.93955515
_cell_angle_alpha   65.76176235
_cell_angle_beta   65.76176235
_cell_angle_gamma   30.78754926
_symmetry_Int_Tables_number   1
_chemical_formula_structural   Ho3(CuSn)4
_chemical_formula_sum   'Ho3 Cu4 Sn4'
_cell_volume   226.99167560
_cell_formula_units_Z   1
loop_
 _symmetry_equiv_pos_site_id
 _symmetry_equiv_pos_as_xyz
  1  'x, y, z'
loop_
 _atom_site_type_symbol
 _atom_site_label
 _atom_site_symmetry_multiplicity
 _atom_site_fract_x
 _atom_site_fract_y
 _atom_site_fract_z
 _atom_site_occupancy
  Ho  Ho0  1  0.00000000  0.00000000  0.00000000  1
  Ho  Ho1  1  0.13070100  0.13070100  0.36505200  1
  Ho  Ho2  1  0.86929900  0.86929900  0.63494800  1
  Cu  Cu3  1  0.33255300  0.33255300  0.98023900  1
  Cu  Cu4  1  0.66744700  0.66744700  0.01976100  1
  Cu  Cu5  1  0.32349600  0.32349600  0.36826500  1
  Cu  Cu6  1  0.67650400  0.67650400  0.63173500  1
  Sn  Sn7  1  0.21544800  0.21544800  0.79231500  1
  Sn  Sn8  1  0.78455200  0.78455200  0.20768500  1
  Sn  Sn9  1  0.50342200  0.50342200  0.69978900  1
  Sn  Sn10  1  0.49657800  0.49657800  0.30021100  1
