# generated using pymatgen
data_Hf2ZnMo
_symmetry_space_group_name_H-M   'P 1'
_cell_length_a   11.08529329
_cell_length_b   11.08529329
_cell_length_c   11.08529329
_cell_angle_alpha   123.63851416
_cell_angle_beta   116.75749741
_cell_angle_gamma   89.76127069
_symmetry_Int_Tables_number   1
_chemical_formula_structural   Hf2ZnMo
_chemical_formula_sum   'Hf2 Zn1 Mo1'
_cell_volume   955.97582551
_cell_formula_units_Z   1
loop_
 _symmetry_equiv_pos_site_id
 _symmetry_equiv_pos_as_xyz
  1  'x, y, z'
loop_
 _atom_site_type_symbol
 _atom_site_label
 _atom_site_symmetry_multiplicity
 _atom_site_fract_x
 _atom_site_fract_y
 _atom_site_fract_z
 _atom_site_occupancy
  Hf  Hf0  1  0.00000000  0.28071700  0.28071700  1
  Hf  Hf1  1  0.00000000  0.71928300  0.71928300  1
  Zn  Zn2  1  0.00000000  0.00000000  0.00000000  1
  Mo  Mo3  1  0.00000000  0.50000000  0.50000000  1
