# generated using pymatgen
data_Y2MgCd
_symmetry_space_group_name_H-M   'P 1'
_cell_length_a   12.55018759
_cell_length_b   12.55018759
_cell_length_c   12.55018759
_cell_angle_alpha   120.32639989
_cell_angle_beta   118.62223880
_cell_angle_gamma   90.91917860
_symmetry_Int_Tables_number   1
_chemical_formula_structural   Y2MgCd
_chemical_formula_sum   'Y2 Mg1 Cd1'
_cell_volume   1408.29788738
_cell_formula_units_Z   1
loop_
 _symmetry_equiv_pos_site_id
 _symmetry_equiv_pos_as_xyz
  1  'x, y, z'
loop_
 _atom_site_type_symbol
 _atom_site_label
 _atom_site_symmetry_multiplicity
 _atom_site_fract_x
 _atom_site_fract_y
 _atom_site_fract_z
 _atom_site_occupancy
  Y  Y0  1  0.26002400  0.00000000  0.26002400  1
  Y  Y1  1  0.73997600  0.00000000  0.73997600  1
  Mg  Mg2  1  0.00000000  0.00000000  0.00000000  1
  Cd  Cd3  1  0.50000000  0.00000000  0.50000000  1
