# generated using pymatgen
data_NaTl2In
_symmetry_space_group_name_H-M   'P 1'
_cell_length_a   12.83092002
_cell_length_b   12.83092002
_cell_length_c   12.83092002
_cell_angle_alpha   124.33068550
_cell_angle_beta   118.45733321
_cell_angle_gamma   87.68045787
_symmetry_Int_Tables_number   1
_chemical_formula_structural   NaTl2In
_chemical_formula_sum   'Na1 Tl2 In1'
_cell_volume   1455.85895012
_cell_formula_units_Z   1
loop_
 _symmetry_equiv_pos_site_id
 _symmetry_equiv_pos_as_xyz
  1  'x, y, z'
loop_
 _atom_site_type_symbol
 _atom_site_label
 _atom_site_symmetry_multiplicity
 _atom_site_fract_x
 _atom_site_fract_y
 _atom_site_fract_z
 _atom_site_occupancy
  Na  Na0  1  0.00000000  0.00000000  0.00000000  1
  Tl  Tl1  1  0.00000000  0.26099500  0.26099500  1
  Tl  Tl2  1  0.00000000  0.73900500  0.73900500  1
  In  In3  1  0.00000000  0.50000000  0.50000000  1
