# generated using pymatgen
data_ZrSiRu2
_symmetry_space_group_name_H-M   'P 1'
_cell_length_a   10.47208807
_cell_length_b   10.47208807
_cell_length_c   10.47208807
_cell_angle_alpha   128.80755935
_cell_angle_beta   117.29405962
_cell_angle_gamma   85.10879110
_symmetry_Int_Tables_number   1
_chemical_formula_structural   ZrSiRu2
_chemical_formula_sum   'Zr1 Si1 Ru2'
_cell_volume   760.64831196
_cell_formula_units_Z   1
loop_
 _symmetry_equiv_pos_site_id
 _symmetry_equiv_pos_as_xyz
  1  'x, y, z'
loop_
 _atom_site_type_symbol
 _atom_site_label
 _atom_site_symmetry_multiplicity
 _atom_site_fract_x
 _atom_site_fract_y
 _atom_site_fract_z
 _atom_site_occupancy
  Zr  Zr0  1  0.00000000  0.50000000  0.50000000  1
  Si  Si1  1  0.00000000  0.00000000  0.00000000  1
  Ru  Ru2  1  0.00000000  0.25038400  0.25038400  1
  Ru  Ru3  1  0.00000000  0.74961600  0.74961600  1
