data_image0
_chemical_formula_structural       O20Si4Y8
_chemical_formula_sum              "O20 Si4 Y8"
_cell_length_a       7.87874
_cell_length_b       10.2506
_cell_length_c       7.87874
_cell_angle_alpha    118.959
_cell_angle_beta     49.4807
_cell_angle_gamma    118.959

_space_group_name_H-M_alt    "P 1"
_space_group_IT_number       1

loop_
  _space_group_symop_operation_xyz
  'x, y, z'

loop_
  _atom_site_type_symbol
  _atom_site_label
  _atom_site_symmetry_multiplicity
  _atom_site_fract_x
  _atom_site_fract_y
  _atom_site_fract_z
  _atom_site_occupancy
  O   O1        1.0  0.74900  0.54400  0.85800  1.0000
  O   O2        1.0  0.14200  0.95600  0.25100  1.0000
  O   O3        1.0  0.25100  0.45600  0.14200  1.0000
  O   O4        1.0  0.85800  0.04380  0.74900  1.0000
  O   O5        1.0  0.62100  0.90300  0.42300  1.0000
  O   O6        1.0  0.57700  0.59700  0.37900  1.0000
  O   O7        1.0  0.37900  0.09700  0.57700  1.0000
  O   O8        1.0  0.42300  0.40300  0.62100  1.0000
  O   O9        1.0  0.83800  0.66800  0.56800  1.0000
  O   O10       1.0  0.43200  0.83200  0.16200  1.0000
  O   O11       1.0  0.16200  0.33200  0.43200  1.0000
  O   O12       1.0  0.56800  0.16800  0.83800  1.0000
  O   O13       1.0  0.89100  0.84400  0.93500  1.0000
  O   O14       1.0  0.06500  0.65600  0.10900  1.0000
  O   O15       1.0  0.10900  0.15600  0.06500  1.0000
  O   O16       1.0  0.93500  0.34400  0.89100  1.0000
  O   O17       1.0  0.18000  0.68800  0.58700  1.0000
  O   O18       1.0  0.41300  0.81200  0.82000  1.0000
  O   O19       1.0  0.82000  0.31200  0.41300  1.0000
  O   O20       1.0  0.58700  0.18800  0.18000  1.0000
  Si  Si1       1.0  0.90800  0.68400  0.72900  1.0000
  Si  Si2       1.0  0.27100  0.81600  0.09150  1.0000
  Si  Si3       1.0  0.09150  0.31600  0.27100  1.0000
  Si  Si4       1.0  0.72900  0.18400  0.90800  1.0000
  Y   Y1        1.0  0.29000  0.96000  0.78200  1.0000
  Y   Y2        1.0  0.21800  0.54000  0.71000  1.0000
  Y   Y3        1.0  0.71000  0.04040  0.21800  1.0000
  Y   Y4        1.0  0.78200  0.46000  0.29000  1.0000
  Y   Y5        1.0  0.50100  0.67100  0.22200  1.0000
  Y   Y6        1.0  0.77800  0.82900  0.49900  1.0000
  Y   Y7        1.0  0.49900  0.32900  0.77800  1.0000
  Y   Y8        1.0  0.22200  0.17100  0.50100  1.0000
