# generated using pymatgen
data_Ba2TlHg
_symmetry_space_group_name_H-M   'P 1'
_cell_length_a   14.02559715
_cell_length_b   14.02559715
_cell_length_c   14.02559715
_cell_angle_alpha   124.89682320
_cell_angle_beta   117.98878629
_cell_angle_gamma   87.62732561
_symmetry_Int_Tables_number   1
_chemical_formula_structural   Ba2TlHg
_chemical_formula_sum   'Ba2 Tl1 Hg1'
_cell_volume   1897.50830905
_cell_formula_units_Z   1
loop_
 _symmetry_equiv_pos_site_id
 _symmetry_equiv_pos_as_xyz
  1  'x, y, z'
loop_
 _atom_site_type_symbol
 _atom_site_label
 _atom_site_symmetry_multiplicity
 _atom_site_fract_x
 _atom_site_fract_y
 _atom_site_fract_z
 _atom_site_occupancy
  Ba  Ba0  1  0.00000000  0.25130200  0.25130200  1
  Ba  Ba1  1  0.00000000  0.74869800  0.74869800  1
  Tl  Tl2  1  0.00000000  0.50000000  0.50000000  1
  Hg  Hg3  1  0.00000000  0.00000000  0.00000000  1
