# generated using pymatgen
data_NbTcW2
_symmetry_space_group_name_H-M   'P 1'
_cell_length_a   10.57262897
_cell_length_b   10.57262897
_cell_length_c   10.57262897
_cell_angle_alpha   128.91314144
_cell_angle_beta   119.17562303
_cell_angle_gamma   83.36004986
_symmetry_Int_Tables_number   1
_chemical_formula_structural   NbTcW2
_chemical_formula_sum   'Nb1 Tc1 W2'
_cell_volume   770.66347576
_cell_formula_units_Z   1
loop_
 _symmetry_equiv_pos_site_id
 _symmetry_equiv_pos_as_xyz
  1  'x, y, z'
loop_
 _atom_site_type_symbol
 _atom_site_label
 _atom_site_symmetry_multiplicity
 _atom_site_fract_x
 _atom_site_fract_y
 _atom_site_fract_z
 _atom_site_occupancy
  Nb  Nb0  1  0.00000000  0.00000000  0.00000000  1
  Tc  Tc1  1  0.00000000  0.50000000  0.50000000  1
  W  W2  1  0.00000000  0.25406800  0.25406800  1
  W  W3  1  0.00000000  0.74593200  0.74593200  1
