# generated using pymatgen
data_Hf2RePd
_symmetry_space_group_name_H-M   'P 1'
_cell_length_a   10.90582502
_cell_length_b   10.90582502
_cell_length_c   10.90582502
_cell_angle_alpha   126.90082959
_cell_angle_beta   117.66244106
_cell_angle_gamma   86.29075365
_symmetry_Int_Tables_number   1
_chemical_formula_structural   Hf2RePd
_chemical_formula_sum   'Hf2 Re1 Pd1'
_cell_volume   875.73904154
_cell_formula_units_Z   1
loop_
 _symmetry_equiv_pos_site_id
 _symmetry_equiv_pos_as_xyz
  1  'x, y, z'
loop_
 _atom_site_type_symbol
 _atom_site_label
 _atom_site_symmetry_multiplicity
 _atom_site_fract_x
 _atom_site_fract_y
 _atom_site_fract_z
 _atom_site_occupancy
  Hf  Hf0  1  0.00000000  0.26175900  0.26175900  1
  Hf  Hf1  1  0.00000000  0.73824100  0.73824100  1
  Re  Re2  1  0.00000000  0.50000000  0.50000000  1
  Pd  Pd3  1  0.00000000  0.00000000  0.00000000  1
