data_image0
_chemical_formula_structural       F48Li12Na12Sc8
_chemical_formula_sum              "F48 Li12 Na12 Sc8"
_cell_length_a       10.2408
_cell_length_b       10.2408
_cell_length_c       10.2408
_cell_angle_alpha    109.471
_cell_angle_beta     109.471
_cell_angle_gamma    109.471

_space_group_name_H-M_alt    "P 1"
_space_group_IT_number       1

loop_
  _space_group_symop_operation_xyz
  'x, y, z'

loop_
  _atom_site_type_symbol
  _atom_site_label
  _atom_site_symmetry_multiplicity
  _atom_site_fract_x
  _atom_site_fract_y
  _atom_site_fract_z
  _atom_site_occupancy
  F   F1        1.0  0.09490  0.71500  0.68500  1.0000
  F   F2        1.0  0.62000  0.40500  0.09020  1.0000
  F   F3        1.0  0.62000  0.71500  0.52900  1.0000
  F   F4        1.0  0.68500  0.09020  0.97100  1.0000
  F   F5        1.0  0.81500  0.78500  0.40500  1.0000
  F   F6        1.0  0.88000  0.41000  0.09490  1.0000
  F   F7        1.0  0.71500  0.52900  0.62000  1.0000
  F   F8        1.0  0.52900  0.62000  0.71500  1.0000
  F   F9        1.0  0.41000  0.09490  0.88000  1.0000
  F   F10       1.0  0.97100  0.68500  0.09020  1.0000
  F   F11       1.0  0.09020  0.97100  0.68500  1.0000
  F   F12       1.0  0.40500  0.81500  0.78500  1.0000
  F   F13       1.0  0.78500  0.40500  0.81500  1.0000
  F   F14       1.0  0.09490  0.88000  0.41000  1.0000
  F   F15       1.0  0.91000  0.38000  0.59500  1.0000
  F   F16       1.0  0.12000  0.02950  0.21500  1.0000
  F   F17       1.0  0.02950  0.21500  0.12000  1.0000
  F   F18       1.0  0.28500  0.31500  0.90500  1.0000
  F   F19       1.0  0.59000  0.18500  0.47100  1.0000
  F   F20       1.0  0.21500  0.12000  0.02950  1.0000
  F   F21       1.0  0.68500  0.09490  0.71500  1.0000
  F   F22       1.0  0.52900  0.41000  0.81500  1.0000
  F   F23       1.0  0.81500  0.52900  0.41000  1.0000
  F   F24       1.0  0.40500  0.09020  0.62000  1.0000
  F   F25       1.0  0.88000  0.97100  0.78500  1.0000
  F   F26       1.0  0.97100  0.78500  0.88000  1.0000
  F   F27       1.0  0.09020  0.62000  0.40500  1.0000
  F   F28       1.0  0.71500  0.68500  0.09490  1.0000
  F   F29       1.0  0.41000  0.81500  0.52900  1.0000
  F   F30       1.0  0.78500  0.88000  0.97100  1.0000
  F   F31       1.0  0.90500  0.12000  0.59000  1.0000
  F   F32       1.0  0.21500  0.59500  0.18500  1.0000
  F   F33       1.0  0.59500  0.18500  0.21500  1.0000
  F   F34       1.0  0.91000  0.02950  0.31500  1.0000
  F   F35       1.0  0.02950  0.31500  0.91000  1.0000
  F   F36       1.0  0.59000  0.90500  0.12000  1.0000
  F   F37       1.0  0.47100  0.38000  0.28500  1.0000
  F   F38       1.0  0.28500  0.47100  0.38000  1.0000
  F   F39       1.0  0.12000  0.59000  0.90500  1.0000
  F   F40       1.0  0.18500  0.21500  0.59500  1.0000
  F   F41       1.0  0.31500  0.91000  0.02950  1.0000
  F   F42       1.0  0.38000  0.28500  0.47100  1.0000
  F   F43       1.0  0.38000  0.59500  0.91000  1.0000
  F   F44       1.0  0.90500  0.28500  0.31500  1.0000
  F   F45       1.0  0.31500  0.90500  0.28500  1.0000
  F   F46       1.0  0.47100  0.59000  0.18500  1.0000
  F   F47       1.0  0.18500  0.47100  0.59000  1.0000
  F   F48       1.0  0.59500  0.91000  0.38000  1.0000
  Li  Li1       1.0  0.25000  0.12500  0.87500  1.0000
  Li  Li2       1.0  0.87500  0.12500  0.75000  1.0000
  Li  Li3       1.0  0.75000  0.87500  0.12500  1.0000
  Li  Li4       1.0  0.25000  0.62500  0.37500  1.0000
  Li  Li5       1.0  0.62500  0.37500  0.25000  1.0000
  Li  Li6       1.0  0.12500  0.75000  0.87500  1.0000
  Li  Li7       1.0  0.37500  0.25000  0.62500  1.0000
  Li  Li8       1.0  0.37500  0.62500  0.75000  1.0000
  Li  Li9       1.0  0.62500  0.75000  0.37500  1.0000
  Li  Li10      1.0  0.87500  0.25000  0.12500  1.0000
  Li  Li11      1.0  0.12500  0.87500  0.25000  1.0000
  Li  Li12      1.0  0.75000  0.37500  0.62500  1.0000
  Na  Na1       1.0  0.25000  0.37500  0.12500  1.0000
  Na  Na2       1.0  0.37500  0.12500  0.25000  1.0000
  Na  Na3       1.0  0.37500  0.75000  0.12500  1.0000
  Na  Na4       1.0  0.12500  0.25000  0.37500  1.0000
  Na  Na5       1.0  0.87500  0.62500  0.25000  1.0000
  Na  Na6       1.0  0.25000  0.87500  0.62500  1.0000
  Na  Na7       1.0  0.75000  0.62500  0.87500  1.0000
  Na  Na8       1.0  0.62500  0.87500  0.75000  1.0000
  Na  Na9       1.0  0.62500  0.25000  0.87500  1.0000
  Na  Na10      1.0  0.87500  0.75000  0.62500  1.0000
  Na  Na11      1.0  0.12500  0.37500  0.75000  1.0000
  Na  Na12      1.0  0.75000  0.12500  0.37500  1.0000
  Sc  Sc1       1.0  0.00000  0.50000  0.00000  1.0000
  Sc  Sc2       1.0  0.00000  0.00000  0.50000  1.0000
  Sc  Sc3       1.0  0.50000  0.00000  0.00000  1.0000
  Sc  Sc4       1.0  0.50000  0.50000  0.50000  1.0000
  Sc  Sc5       1.0  1.00000  0.50000  0.50000  1.0000
  Sc  Sc6       1.0  0.50000  0.50000  0.00000  1.0000
  Sc  Sc7       1.0  0.50000  0.00000  0.50000  1.0000
  Sc  Sc8       1.0  0.00000  0.00000  0.00000  1.0000
