# generated using pymatgen
data_VRe2Si
_symmetry_space_group_name_H-M   'P 1'
_cell_length_a   10.02069813
_cell_length_b   10.02069813
_cell_length_c   10.02069813
_cell_angle_alpha   126.92529514
_cell_angle_beta   117.66818754
_cell_angle_gamma   86.26605067
_symmetry_Int_Tables_number   1
_chemical_formula_structural   VRe2Si
_chemical_formula_sum   'V1 Re2 Si1'
_cell_volume   679.13979086
_cell_formula_units_Z   1
loop_
 _symmetry_equiv_pos_site_id
 _symmetry_equiv_pos_as_xyz
  1  'x, y, z'
loop_
 _atom_site_type_symbol
 _atom_site_label
 _atom_site_symmetry_multiplicity
 _atom_site_fract_x
 _atom_site_fract_y
 _atom_site_fract_z
 _atom_site_occupancy
  V  V0  1  0.00000000  0.50000000  0.50000000  1
  Re  Re1  1  0.00000000  0.25825800  0.25825800  1
  Re  Re2  1  0.00000000  0.74174200  0.74174200  1
  Si  Si3  1  0.00000000  0.00000000  0.00000000  1
