# generated using pymatgen
data_La2AgPb
_symmetry_space_group_name_H-M   'P 1'
_cell_length_a   14.05700258
_cell_length_b   14.05700258
_cell_length_c   14.05700258
_cell_angle_alpha   130.62033647
_cell_angle_beta   117.08404607
_cell_angle_gamma   83.89558552
_symmetry_Int_Tables_number   1
_chemical_formula_structural   La2AgPb
_chemical_formula_sum   'La2 Ag1 Pb1'
_cell_volume   1801.37043916
_cell_formula_units_Z   1
loop_
 _symmetry_equiv_pos_site_id
 _symmetry_equiv_pos_as_xyz
  1  'x, y, z'
loop_
 _atom_site_type_symbol
 _atom_site_label
 _atom_site_symmetry_multiplicity
 _atom_site_fract_x
 _atom_site_fract_y
 _atom_site_fract_z
 _atom_site_occupancy
  La  La0  1  0.00000000  0.24622500  0.24622500  1
  La  La1  1  0.00000000  0.75377500  0.75377500  1
  Ag  Ag2  1  0.00000000  0.00000000  0.00000000  1
  Pb  Pb3  1  0.00000000  0.50000000  0.50000000  1
