# generated using pymatgen
data_Cd2CuPt
_symmetry_space_group_name_H-M   'P 1'
_cell_length_a   10.87337350
_cell_length_b   10.87337350
_cell_length_c   10.87337350
_cell_angle_alpha   123.85028015
_cell_angle_beta   118.79094481
_cell_angle_gamma   87.78555074
_symmetry_Int_Tables_number   1
_chemical_formula_structural   Cd2CuPt
_chemical_formula_sum   'Cd2 Cu1 Pt1'
_cell_volume   887.88419791
_cell_formula_units_Z   1
loop_
 _symmetry_equiv_pos_site_id
 _symmetry_equiv_pos_as_xyz
  1  'x, y, z'
loop_
 _atom_site_type_symbol
 _atom_site_label
 _atom_site_symmetry_multiplicity
 _atom_site_fract_x
 _atom_site_fract_y
 _atom_site_fract_z
 _atom_site_occupancy
  Cd  Cd0  1  0.00000000  0.24601600  0.24601600  1
  Cd  Cd1  1  0.00000000  0.75398400  0.75398400  1
  Cu  Cu2  1  0.00000000  0.00000000  0.00000000  1
  Pt  Pt3  1  0.00000000  0.50000000  0.50000000  1
