# generated using pymatgen
data_CeSe2
_symmetry_space_group_name_H-M   'P 1'
_cell_length_a   16.57420049
_cell_length_b   21.91943582
_cell_length_c   21.45804685
_cell_angle_alpha   93.85195165
_cell_angle_beta   95.69642253
_cell_angle_gamma   91.65349530
_symmetry_Int_Tables_number   1
_chemical_formula_structural   CeSe2
_chemical_formula_sum   'Ce16 Se32'
_cell_volume   7734.67057545
_cell_formula_units_Z   16
loop_
 _symmetry_equiv_pos_site_id
 _symmetry_equiv_pos_as_xyz
  1  'x, y, z'
loop_
 _atom_site_type_symbol
 _atom_site_label
 _atom_site_symmetry_multiplicity
 _atom_site_fract_x
 _atom_site_fract_y
 _atom_site_fract_z
 _atom_site_occupancy
  Ce  Ce0  1  0.60393276  0.26065333  0.63992790  1
  Ce  Ce1  1  0.39606724  0.73934667  0.36007210  1
  Ce  Ce2  1  0.43610577  0.41882293  0.69922146  1
  Ce  Ce3  1  0.56389423  0.58117707  0.30077854  1
  Ce  Ce4  1  0.39598826  0.23789413  0.36017014  1
  Ce  Ce5  1  0.60401174  0.76210587  0.63982986  1
  Ce  Ce6  1  0.67223209  0.24975528  0.43308749  1
  Ce  Ce7  1  0.32776791  0.75024472  0.56691251  1
  Ce  Ce8  1  0.23444680  0.08244926  0.43035566  1
  Ce  Ce9  1  0.76555320  0.91755074  0.56964434  1
  Ce  Ce10  1  0.76602700  0.10345525  0.56956553  1
  Ce  Ce11  1  0.23397300  0.89654475  0.43043447  1
  Ce  Ce12  1  0.56382790  0.39534573  0.30072295  1
  Ce  Ce13  1  0.43617210  0.60465427  0.69927705  1
  Ce  Ce14  1  0.32824403  0.25090729  0.56689887  1
  Ce  Ce15  1  0.67175597  0.74909271  0.43310113  1
  Se  Se16  1  0.72107276  0.17890892  0.66566068  1
  Se  Se17  1  0.27892724  0.82109108  0.33433932  1
  Se  Se18  1  0.69324819  0.33027641  0.34445175  1
  Se  Se19  1  0.30675181  0.66972359  0.65554825  1
  Se  Se20  1  0.21328120  0.16080187  0.53130313  1
  Se  Se21  1  0.78671880  0.83919813  0.46869687  1
  Se  Se22  1  0.66220047  0.00660560  0.54084983  1
  Se  Se23  1  0.33779953  0.99339440  0.45915017  1
  Se  Se24  1  0.64365739  0.31776149  0.53836469  1
  Se  Se25  1  0.35634261  0.68223851  0.46163531  1
  Se  Se26  1  0.56989648  0.35128315  0.72534403  1
  Se  Se27  1  0.43010352  0.64871685  0.27465597  1
  Se  Se28  1  0.30696197  0.34201424  0.65553885  1
  Se  Se29  1  0.69303803  0.65798576  0.34446115  1
  Se  Se30  1  0.87098628  0.01447944  0.59824127  1
  Se  Se31  1  0.12901372  0.98552056  0.40175873  1
  Se  Se32  1  0.27869969  0.14770434  0.33430602  1
  Se  Se33  1  0.72130031  0.85229566  0.66569398  1
  Se  Se34  1  0.53580560  0.18112544  0.39288392  1
  Se  Se35  1  0.46419440  0.81887456  0.60711608  1
  Se  Se36  1  0.35714165  0.30675522  0.46196983  1
  Se  Se37  1  0.64285835  0.69324478  0.53803017  1
  Se  Se38  1  0.78753106  0.16958351  0.46866880  1
  Se  Se39  1  0.21246894  0.83041649  0.53133120  1
  Se  Se40  1  0.46434831  0.19332916  0.60718257  1
  Se  Se41  1  0.53565169  0.80667084  0.39281743  1
  Se  Se42  1  0.58944409  0.48359536  0.22152120  1
  Se  Se43  1  0.41055591  0.51640464  0.77847880  1
  Se  Se44  1  0.43013327  0.31850402  0.27443964  1
  Se  Se45  1  0.56986673  0.68149598  0.72556036  1
  Se  Se46  1  0.53760959  0.49278185  0.37855489  1
  Se  Se47  1  0.46239041  0.50721815  0.62144511  1
