# generated using pymatgen
data_Mg2TlIn
_symmetry_space_group_name_H-M   'P 1'
_cell_length_a   12.40651202
_cell_length_b   12.40651202
_cell_length_c   12.40651202
_cell_angle_alpha   120.20867404
_cell_angle_beta   118.78224453
_cell_angle_gamma   90.88050606
_symmetry_Int_Tables_number   1
_chemical_formula_structural   Mg2TlIn
_chemical_formula_sum   'Mg2 Tl1 In1'
_cell_volume   1360.17707320
_cell_formula_units_Z   1
loop_
 _symmetry_equiv_pos_site_id
 _symmetry_equiv_pos_as_xyz
  1  'x, y, z'
loop_
 _atom_site_type_symbol
 _atom_site_label
 _atom_site_symmetry_multiplicity
 _atom_site_fract_x
 _atom_site_fract_y
 _atom_site_fract_z
 _atom_site_occupancy
  Mg  Mg0  1  0.75412400  0.00000000  0.75412400  1
  Mg  Mg1  1  0.24587600  0.00000000  0.24587600  1
  Tl  Tl2  1  0.50000000  0.00000000  0.50000000  1
  In  In3  1  0.00000000  0.00000000  0.00000000  1
