# generated using pymatgen
data_NbCr2Tc
_symmetry_space_group_name_H-M   'P 1'
_cell_length_a   11.12051112
_cell_length_b   11.12051112
_cell_length_c   11.12051112
_cell_angle_alpha   130.37928908
_cell_angle_beta   112.06910516
_cell_angle_gamma   88.64945975
_symmetry_Int_Tables_number   1
_chemical_formula_structural   NbCr2Tc
_chemical_formula_sum   'Nb1 Cr2 Tc1'
_cell_volume   922.57809982
_cell_formula_units_Z   1
loop_
 _symmetry_equiv_pos_site_id
 _symmetry_equiv_pos_as_xyz
  1  'x, y, z'
loop_
 _atom_site_type_symbol
 _atom_site_label
 _atom_site_symmetry_multiplicity
 _atom_site_fract_x
 _atom_site_fract_y
 _atom_site_fract_z
 _atom_site_occupancy
  Nb  Nb0  1  0.00000000  0.00000000  0.00000000  1
  Cr  Cr1  1  0.00000000  0.25105100  0.25105100  1
  Cr  Cr2  1  0.00000000  0.74894900  0.74894900  1
  Tc  Tc3  1  0.00000000  0.50000000  0.50000000  1
