# generated using pymatgen
data_Y2AlPb
_symmetry_space_group_name_H-M   'P 1'
_cell_length_a   12.85944510
_cell_length_b   12.85944510
_cell_length_c   12.85944510
_cell_angle_alpha   126.69883742
_cell_angle_beta   119.03215840
_cell_angle_gamma   85.24418670
_symmetry_Int_Tables_number   1
_chemical_formula_structural   Y2AlPb
_chemical_formula_sum   'Y2 Al1 Pb1'
_cell_volume   1424.22571225
_cell_formula_units_Z   1
loop_
 _symmetry_equiv_pos_site_id
 _symmetry_equiv_pos_as_xyz
  1  'x, y, z'
loop_
 _atom_site_type_symbol
 _atom_site_label
 _atom_site_symmetry_multiplicity
 _atom_site_fract_x
 _atom_site_fract_y
 _atom_site_fract_z
 _atom_site_occupancy
  Y  Y0  1  0.00000000  0.25229600  0.25229600  1
  Y  Y1  1  0.00000000  0.74770400  0.74770400  1
  Al  Al2  1  0.00000000  0.00000000  0.00000000  1
  Pb  Pb3  1  0.00000000  0.50000000  0.50000000  1
