# generated using pymatgen
data_Zr2BeTc
_symmetry_space_group_name_H-M   'P 1'
_cell_length_a   11.06426613
_cell_length_b   11.06426613
_cell_length_c   11.06426613
_cell_angle_alpha   126.61931298
_cell_angle_beta   120.22691522
_cell_angle_gamma   84.26535892
_symmetry_Int_Tables_number   1
_chemical_formula_structural   Zr2BeTc
_chemical_formula_sum   'Zr2 Be1 Tc1'
_cell_volume   899.24888142
_cell_formula_units_Z   1
loop_
 _symmetry_equiv_pos_site_id
 _symmetry_equiv_pos_as_xyz
  1  'x, y, z'
loop_
 _atom_site_type_symbol
 _atom_site_label
 _atom_site_symmetry_multiplicity
 _atom_site_fract_x
 _atom_site_fract_y
 _atom_site_fract_z
 _atom_site_occupancy
  Zr  Zr0  1  0.00000000  0.27330300  0.27330300  1
  Zr  Zr1  1  0.00000000  0.72669700  0.72669700  1
  Be  Be2  1  0.00000000  0.00000000  0.00000000  1
  Tc  Tc3  1  0.00000000  0.50000000  0.50000000  1
