# generated using pymatgen
data_TiCrRe2
_symmetry_space_group_name_H-M   'P 1'
_cell_length_a   10.40723927
_cell_length_b   10.40723927
_cell_length_c   10.40723927
_cell_angle_alpha   124.56447235
_cell_angle_beta   120.33857664
_cell_angle_gamma   85.84573711
_symmetry_Int_Tables_number   1
_chemical_formula_structural   TiCrRe2
_chemical_formula_sum   'Ti1 Cr1 Re2'
_cell_volume   763.90642010
_cell_formula_units_Z   1
loop_
 _symmetry_equiv_pos_site_id
 _symmetry_equiv_pos_as_xyz
  1  'x, y, z'
loop_
 _atom_site_type_symbol
 _atom_site_label
 _atom_site_symmetry_multiplicity
 _atom_site_fract_x
 _atom_site_fract_y
 _atom_site_fract_z
 _atom_site_occupancy
  Ti  Ti0  1  0.00000000  0.00000000  0.00000000  1
  Cr  Cr1  1  0.00000000  0.50000000  0.50000000  1
  Re  Re2  1  0.00000000  0.22804500  0.22804500  1
  Re  Re3  1  0.00000000  0.77195500  0.77195500  1
