# generated using pymatgen
data_Mg2CdPb
_symmetry_space_group_name_H-M   'P 1'
_cell_length_a   12.14060155
_cell_length_b   12.14060155
_cell_length_c   12.14060155
_cell_angle_alpha   124.72585378
_cell_angle_beta   118.45887190
_cell_angle_gamma   87.35324000
_symmetry_Int_Tables_number   1
_chemical_formula_structural   Mg2CdPb
_chemical_formula_sum   'Mg2 Cd1 Pb1'
_cell_volume   1228.55880173
_cell_formula_units_Z   1
loop_
 _symmetry_equiv_pos_site_id
 _symmetry_equiv_pos_as_xyz
  1  'x, y, z'
loop_
 _atom_site_type_symbol
 _atom_site_label
 _atom_site_symmetry_multiplicity
 _atom_site_fract_x
 _atom_site_fract_y
 _atom_site_fract_z
 _atom_site_occupancy
  Mg  Mg0  1  0.00000000  0.25113400  0.25113400  1
  Mg  Mg1  1  0.00000000  0.74886600  0.74886600  1
  Cd  Cd2  1  0.00000000  0.00000000  0.00000000  1
  Pb  Pb3  1  0.00000000  0.50000000  0.50000000  1
