# generated using pymatgen
data_Sr2HgBi
_symmetry_space_group_name_H-M   'P 1'
_cell_length_a   13.46871344
_cell_length_b   13.46871344
_cell_length_c   13.46871344
_cell_angle_alpha   122.21244801
_cell_angle_beta   119.09341575
_cell_angle_gamma   88.89440517
_symmetry_Int_Tables_number   1
_chemical_formula_structural   Sr2HgBi
_chemical_formula_sum   'Sr2 Hg1 Bi1'
_cell_volume   1708.66160455
_cell_formula_units_Z   1
loop_
 _symmetry_equiv_pos_site_id
 _symmetry_equiv_pos_as_xyz
  1  'x, y, z'
loop_
 _atom_site_type_symbol
 _atom_site_label
 _atom_site_symmetry_multiplicity
 _atom_site_fract_x
 _atom_site_fract_y
 _atom_site_fract_z
 _atom_site_occupancy
  Sr  Sr0  1  0.00000000  0.26946200  0.26946200  1
  Sr  Sr1  1  0.00000000  0.73053800  0.73053800  1
  Hg  Hg2  1  0.00000000  0.00000000  0.00000000  1
  Bi  Bi3  1  0.00000000  0.50000000  0.50000000  1
