# generated using pymatgen
data_Ba2TlPd
_symmetry_space_group_name_H-M   'P 1'
_cell_length_a   13.96625044
_cell_length_b   13.96625044
_cell_length_c   13.96625044
_cell_angle_alpha   124.78242165
_cell_angle_beta   118.68258209
_cell_angle_gamma   87.11001118
_symmetry_Int_Tables_number   1
_chemical_formula_structural   Ba2TlPd
_chemical_formula_sum   'Ba2 Tl1 Pd1'
_cell_volume   1866.19204660
_cell_formula_units_Z   1
loop_
 _symmetry_equiv_pos_site_id
 _symmetry_equiv_pos_as_xyz
  1  'x, y, z'
loop_
 _atom_site_type_symbol
 _atom_site_label
 _atom_site_symmetry_multiplicity
 _atom_site_fract_x
 _atom_site_fract_y
 _atom_site_fract_z
 _atom_site_occupancy
  Ba  Ba0  1  0.00000000  0.21836800  0.21836800  1
  Ba  Ba1  1  0.00000000  0.78163200  0.78163200  1
  Tl  Tl2  1  0.00000000  0.50000000  0.50000000  1
  Pd  Pd3  1  0.00000000  0.00000000  0.00000000  1
