# generated using pymatgen
data_Mg2GaHg
_symmetry_space_group_name_H-M   'P 1'
_cell_length_a   11.12890102
_cell_length_b   11.12890102
_cell_length_c   11.12890102
_cell_angle_alpha   121.94096583
_cell_angle_beta   118.20617705
_cell_angle_gamma   89.90311394
_symmetry_Int_Tables_number   1
_chemical_formula_structural   Mg2GaHg
_chemical_formula_sum   'Mg2 Ga1 Hg1'
_cell_volume   972.25356709
_cell_formula_units_Z   1
loop_
 _symmetry_equiv_pos_site_id
 _symmetry_equiv_pos_as_xyz
  1  'x, y, z'
loop_
 _atom_site_type_symbol
 _atom_site_label
 _atom_site_symmetry_multiplicity
 _atom_site_fract_x
 _atom_site_fract_y
 _atom_site_fract_z
 _atom_site_occupancy
  Mg  Mg0  1  0.00000000  0.24167400  0.24167400  1
  Mg  Mg1  1  0.00000000  0.75832600  0.75832600  1
  Ga  Ga2  1  0.00000000  0.00000000  0.00000000  1
  Hg  Hg3  1  0.00000000  0.50000000  0.50000000  1
