# generated using pymatgen
data_MgCuPt2
_symmetry_space_group_name_H-M   'P 1'
_cell_length_a   8.41532360
_cell_length_b   8.41532360
_cell_length_c   8.41532360
_cell_angle_alpha   109.19518075
_cell_angle_beta   109.19518075
_cell_angle_gamma   110.02472230
_symmetry_Int_Tables_number   1
_chemical_formula_structural   MgCuPt2
_chemical_formula_sum   'Mg1 Cu1 Pt2'
_cell_volume   458.73316424
_cell_formula_units_Z   1
loop_
 _symmetry_equiv_pos_site_id
 _symmetry_equiv_pos_as_xyz
  1  'x, y, z'
loop_
 _atom_site_type_symbol
 _atom_site_label
 _atom_site_symmetry_multiplicity
 _atom_site_fract_x
 _atom_site_fract_y
 _atom_site_fract_z
 _atom_site_occupancy
  Mg  Mg0  1  0.00000000  0.00000000  0.00000000  1
  Cu  Cu1  1  0.50000000  0.50000000  0.00000000  1
  Pt  Pt2  1  0.25554400  0.25554400  0.00000000  1
  Pt  Pt3  1  0.74445600  0.74445600  0.00000000  1
