# generated using pymatgen
data_In2HgBi
_symmetry_space_group_name_H-M   'P 1'
_cell_length_a   12.18435479
_cell_length_b   12.18435479
_cell_length_c   12.18435479
_cell_angle_alpha   124.35010173
_cell_angle_beta   118.45954205
_cell_angle_gamma   87.66246910
_symmetry_Int_Tables_number   1
_chemical_formula_structural   In2HgBi
_chemical_formula_sum   'In2 Hg1 Bi1'
_cell_volume   1246.42320326
_cell_formula_units_Z   1
loop_
 _symmetry_equiv_pos_site_id
 _symmetry_equiv_pos_as_xyz
  1  'x, y, z'
loop_
 _atom_site_type_symbol
 _atom_site_label
 _atom_site_symmetry_multiplicity
 _atom_site_fract_x
 _atom_site_fract_y
 _atom_site_fract_z
 _atom_site_occupancy
  In  In0  1  0.00000000  0.25677400  0.25677400  1
  In  In1  1  0.00000000  0.74322600  0.74322600  1
  Hg  Hg2  1  0.00000000  0.00000000  0.00000000  1
  Bi  Bi3  1  0.00000000  0.50000000  0.50000000  1
