# generated using pymatgen
data_In2IrRh
_symmetry_space_group_name_H-M   'P 1'
_cell_length_a   9.92745206
_cell_length_b   9.92745206
_cell_length_c   9.92745206
_cell_angle_alpha   121.59484788
_cell_angle_beta   117.49490504
_cell_angle_gamma   90.82628819
_symmetry_Int_Tables_number   1
_chemical_formula_structural   In2IrRh
_chemical_formula_sum   'In2 Ir1 Rh1'
_cell_volume   695.41389819
_cell_formula_units_Z   1
loop_
 _symmetry_equiv_pos_site_id
 _symmetry_equiv_pos_as_xyz
  1  'x, y, z'
loop_
 _atom_site_type_symbol
 _atom_site_label
 _atom_site_symmetry_multiplicity
 _atom_site_fract_x
 _atom_site_fract_y
 _atom_site_fract_z
 _atom_site_occupancy
  In  In0  1  0.74914200  0.00000000  0.74914200  1
  In  In1  1  0.25085800  0.00000000  0.25085800  1
  Ir  Ir2  1  0.50000000  0.00000000  0.50000000  1
  Rh  Rh3  1  0.00000000  0.00000000  0.00000000  1
