# generated using pymatgen
data_TiCdCu2
_symmetry_space_group_name_H-M   'P 1'
_cell_length_a   10.17085170
_cell_length_b   10.17085170
_cell_length_c   10.17085170
_cell_angle_alpha   121.95302443
_cell_angle_beta   118.94838766
_cell_angle_gamma   89.24107507
_symmetry_Int_Tables_number   1
_chemical_formula_structural   TiCdCu2
_chemical_formula_sum   'Ti1 Cd1 Cu2'
_cell_volume   738.18854928
_cell_formula_units_Z   1
loop_
 _symmetry_equiv_pos_site_id
 _symmetry_equiv_pos_as_xyz
  1  'x, y, z'
loop_
 _atom_site_type_symbol
 _atom_site_label
 _atom_site_symmetry_multiplicity
 _atom_site_fract_x
 _atom_site_fract_y
 _atom_site_fract_z
 _atom_site_occupancy
  Ti  Ti0  1  0.00000000  0.00000000  0.00000000  1
  Cd  Cd1  1  0.50000000  0.00000000  0.50000000  1
  Cu  Cu2  1  0.23790200  0.00000000  0.23790200  1
  Cu  Cu3  1  0.76209800  0.00000000  0.76209800  1
