# generated using pymatgen
data_CdIn2Ga
_symmetry_space_group_name_H-M   'P 1'
_cell_length_a   11.76763604
_cell_length_b   11.76763604
_cell_length_c   11.76763604
_cell_angle_alpha   120.72387549
_cell_angle_beta   119.82682974
_cell_angle_gamma   89.52550348
_symmetry_Int_Tables_number   1
_chemical_formula_structural   CdIn2Ga
_chemical_formula_sum   'Cd1 In2 Ga1'
_cell_volume   1147.33871306
_cell_formula_units_Z   1
loop_
 _symmetry_equiv_pos_site_id
 _symmetry_equiv_pos_as_xyz
  1  'x, y, z'
loop_
 _atom_site_type_symbol
 _atom_site_label
 _atom_site_symmetry_multiplicity
 _atom_site_fract_x
 _atom_site_fract_y
 _atom_site_fract_z
 _atom_site_occupancy
  Cd  Cd0  1  0.00000000  0.50000000  0.50000000  1
  In  In1  1  0.00000000  0.23477400  0.23477400  1
  In  In2  1  0.00000000  0.76522600  0.76522600  1
  Ga  Ga3  1  0.00000000  0.00000000  0.00000000  1
