# generated using pymatgen
data_Ba2HgSb
_symmetry_space_group_name_H-M   'P 1'
_cell_length_a   13.54994275
_cell_length_b   13.54994275
_cell_length_c   13.54994275
_cell_angle_alpha   119.74965923
_cell_angle_beta   119.09124692
_cell_angle_gamma   91.00769974
_symmetry_Int_Tables_number   1
_chemical_formula_structural   Ba2HgSb
_chemical_formula_sum   'Ba2 Hg1 Sb1'
_cell_volume   1774.16875076
_cell_formula_units_Z   1
loop_
 _symmetry_equiv_pos_site_id
 _symmetry_equiv_pos_as_xyz
  1  'x, y, z'
loop_
 _atom_site_type_symbol
 _atom_site_label
 _atom_site_symmetry_multiplicity
 _atom_site_fract_x
 _atom_site_fract_y
 _atom_site_fract_z
 _atom_site_occupancy
  Ba  Ba0  1  0.22408800  0.00000000  0.22408800  1
  Ba  Ba1  1  0.77591200  0.00000000  0.77591200  1
  Hg  Hg2  1  0.50000000  0.00000000  0.50000000  1
  Sb  Sb3  1  0.00000000  0.00000000  0.00000000  1
