# generated using pymatgen
data_LaHg2Pb
_symmetry_space_group_name_H-M   'P 1'
_cell_length_a   12.52062120
_cell_length_b   12.52062120
_cell_length_c   12.52062120
_cell_angle_alpha   121.82524251
_cell_angle_beta   119.55888953
_cell_angle_gamma   88.81687022
_symmetry_Int_Tables_number   1
_chemical_formula_structural   LaHg2Pb
_chemical_formula_sum   'La1 Hg2 Pb1'
_cell_volume   1372.38943129
_cell_formula_units_Z   1
loop_
 _symmetry_equiv_pos_site_id
 _symmetry_equiv_pos_as_xyz
  1  'x, y, z'
loop_
 _atom_site_type_symbol
 _atom_site_label
 _atom_site_symmetry_multiplicity
 _atom_site_fract_x
 _atom_site_fract_y
 _atom_site_fract_z
 _atom_site_occupancy
  La  La0  1  0.00000000  0.00000000  0.00000000  1
  Hg  Hg1  1  0.00000000  0.25862700  0.25862700  1
  Hg  Hg2  1  0.00000000  0.74137300  0.74137300  1
  Pb  Pb3  1  0.00000000  0.50000000  0.50000000  1
