# generated using pymatgen
data_La2CdIn
_symmetry_space_group_name_H-M   'P 1'
_cell_length_a   12.64074331
_cell_length_b   12.64074331
_cell_length_c   12.64074331
_cell_angle_alpha   122.10375628
_cell_angle_beta   119.59311943
_cell_angle_gamma   88.55074571
_symmetry_Int_Tables_number   1
_chemical_formula_structural   La2CdIn
_chemical_formula_sum   'La2 Cd1 In1'
_cell_volume   1408.56728131
_cell_formula_units_Z   1
loop_
 _symmetry_equiv_pos_site_id
 _symmetry_equiv_pos_as_xyz
  1  'x, y, z'
loop_
 _atom_site_type_symbol
 _atom_site_label
 _atom_site_symmetry_multiplicity
 _atom_site_fract_x
 _atom_site_fract_y
 _atom_site_fract_z
 _atom_site_occupancy
  La  La0  1  0.00000000  0.25676000  0.25676000  1
  La  La1  1  0.00000000  0.74324000  0.74324000  1
  Cd  Cd2  1  0.00000000  0.00000000  0.00000000  1
  In  In3  1  0.00000000  0.50000000  0.50000000  1
