# generated using pymatgen
data_Hf2MoPt
_symmetry_space_group_name_H-M   'P 1'
_cell_length_a   10.90751762
_cell_length_b   10.90751762
_cell_length_c   10.90751762
_cell_angle_alpha   126.01190108
_cell_angle_beta   118.13131684
_cell_angle_gamma   86.59191419
_symmetry_Int_Tables_number   1
_chemical_formula_structural   Hf2MoPt
_chemical_formula_sum   'Hf2 Mo1 Pt1'
_cell_volume   881.51689477
_cell_formula_units_Z   1
loop_
 _symmetry_equiv_pos_site_id
 _symmetry_equiv_pos_as_xyz
  1  'x, y, z'
loop_
 _atom_site_type_symbol
 _atom_site_label
 _atom_site_symmetry_multiplicity
 _atom_site_fract_x
 _atom_site_fract_y
 _atom_site_fract_z
 _atom_site_occupancy
  Hf  Hf0  1  0.00000000  0.24386200  0.24386200  1
  Hf  Hf1  1  0.00000000  0.75613800  0.75613800  1
  Mo  Mo2  1  0.00000000  0.00000000  0.00000000  1
  Pt  Pt3  1  0.00000000  0.50000000  0.50000000  1
