# generated using pymatgen
data_ZrScPd2
_symmetry_space_group_name_H-M   'P 1'
_cell_length_a   10.97286966
_cell_length_b   10.97286966
_cell_length_c   10.97286966
_cell_angle_alpha   126.67915779
_cell_angle_beta   120.41065629
_cell_angle_gamma   84.05765684
_symmetry_Int_Tables_number   1
_chemical_formula_structural   ZrScPd2
_chemical_formula_sum   'Zr1 Sc1 Pd2'
_cell_volume   875.22183944
_cell_formula_units_Z   1
loop_
 _symmetry_equiv_pos_site_id
 _symmetry_equiv_pos_as_xyz
  1  'x, y, z'
loop_
 _atom_site_type_symbol
 _atom_site_label
 _atom_site_symmetry_multiplicity
 _atom_site_fract_x
 _atom_site_fract_y
 _atom_site_fract_z
 _atom_site_occupancy
  Zr  Zr0  1  0.00000000  0.50000000  0.50000000  1
  Sc  Sc1  1  0.00000000  0.00000000  0.00000000  1
  Pd  Pd2  1  0.00000000  0.23776100  0.23776100  1
  Pd  Pd3  1  0.00000000  0.76223900  0.76223900  1
