# generated using pymatgen
data_K2HgAu
_symmetry_space_group_name_H-M   'P 1'
_cell_length_a   12.70661865
_cell_length_b   12.70661865
_cell_length_c   12.70661865
_cell_angle_alpha   121.25627046
_cell_angle_beta   116.10180429
_cell_angle_gamma   92.35928949
_symmetry_Int_Tables_number   1
_chemical_formula_structural   K2HgAu
_chemical_formula_sum   'K2 Hg1 Au1'
_cell_volume   1474.74200255
_cell_formula_units_Z   1
loop_
 _symmetry_equiv_pos_site_id
 _symmetry_equiv_pos_as_xyz
  1  'x, y, z'
loop_
 _atom_site_type_symbol
 _atom_site_label
 _atom_site_symmetry_multiplicity
 _atom_site_fract_x
 _atom_site_fract_y
 _atom_site_fract_z
 _atom_site_occupancy
  K  K0  1  0.22849900  0.00000000  0.22849900  1
  K  K1  1  0.77150100  0.00000000  0.77150100  1
  Hg  Hg2  1  0.50000000  0.00000000  0.50000000  1
  Au  Au3  1  0.00000000  0.00000000  0.00000000  1
