# generated using pymatgen
data_TiCuAu2
_symmetry_space_group_name_H-M   'P 1'
_cell_length_a   10.48235286
_cell_length_b   10.48235286
_cell_length_c   10.48235286
_cell_angle_alpha   123.05856221
_cell_angle_beta   119.02828091
_cell_angle_gamma   88.23860916
_symmetry_Int_Tables_number   1
_chemical_formula_structural   TiCuAu2
_chemical_formula_sum   'Ti1 Cu1 Au2'
_cell_volume   799.90063156
_cell_formula_units_Z   1
loop_
 _symmetry_equiv_pos_site_id
 _symmetry_equiv_pos_as_xyz
  1  'x, y, z'
loop_
 _atom_site_type_symbol
 _atom_site_label
 _atom_site_symmetry_multiplicity
 _atom_site_fract_x
 _atom_site_fract_y
 _atom_site_fract_z
 _atom_site_occupancy
  Ti  Ti0  1  0.00000000  0.00000000  0.00000000  1
  Cu  Cu1  1  0.00000000  0.50000000  0.50000000  1
  Au  Au2  1  0.00000000  0.25219000  0.25219000  1
  Au  Au3  1  0.00000000  0.74781000  0.74781000  1
