# generated using pymatgen
data_Ta2MnW
_symmetry_space_group_name_H-M   'P 1'
_cell_length_a   10.83956004
_cell_length_b   10.83956004
_cell_length_c   10.83956004
_cell_angle_alpha   126.72832373
_cell_angle_beta   118.80631272
_cell_angle_gamma   85.41881200
_symmetry_Int_Tables_number   1
_chemical_formula_structural   Ta2MnW
_chemical_formula_sum   'Ta2 Mn1 W1'
_cell_volume   854.21097077
_cell_formula_units_Z   1
loop_
 _symmetry_equiv_pos_site_id
 _symmetry_equiv_pos_as_xyz
  1  'x, y, z'
loop_
 _atom_site_type_symbol
 _atom_site_label
 _atom_site_symmetry_multiplicity
 _atom_site_fract_x
 _atom_site_fract_y
 _atom_site_fract_z
 _atom_site_occupancy
  Ta  Ta0  1  0.00000000  0.25858400  0.25858400  1
  Ta  Ta1  1  0.00000000  0.74141600  0.74141600  1
  Mn  Mn2  1  0.00000000  0.00000000  0.00000000  1
  W  W3  1  0.00000000  0.50000000  0.50000000  1
