# generated using pymatgen
data_Ta2CuRe
_symmetry_space_group_name_H-M   'P 1'
_cell_length_a   10.30014817
_cell_length_b   10.30014817
_cell_length_c   10.30014817
_cell_angle_alpha   123.28317582
_cell_angle_beta   117.97076219
_cell_angle_gamma   88.98017827
_symmetry_Int_Tables_number   1
_chemical_formula_structural   Ta2CuRe
_chemical_formula_sum   'Ta2 Cu1 Re1'
_cell_volume   763.15088232
_cell_formula_units_Z   1
loop_
 _symmetry_equiv_pos_site_id
 _symmetry_equiv_pos_as_xyz
  1  'x, y, z'
loop_
 _atom_site_type_symbol
 _atom_site_label
 _atom_site_symmetry_multiplicity
 _atom_site_fract_x
 _atom_site_fract_y
 _atom_site_fract_z
 _atom_site_occupancy
  Ta  Ta0  1  0.00000000  0.26667400  0.26667400  1
  Ta  Ta1  1  0.00000000  0.73332600  0.73332600  1
  Cu  Cu2  1  0.00000000  0.00000000  0.00000000  1
  Re  Re3  1  0.00000000  0.50000000  0.50000000  1
