# generated using pymatgen
data_Hf2RePt
_symmetry_space_group_name_H-M   'P 1'
_cell_length_a   10.88860590
_cell_length_b   10.88860590
_cell_length_c   10.88860590
_cell_angle_alpha   126.80186250
_cell_angle_beta   117.90671159
_cell_angle_gamma   86.15354078
_symmetry_Int_Tables_number   1
_chemical_formula_structural   Hf2RePt
_chemical_formula_sum   'Hf2 Re1 Pt1'
_cell_volume   871.00058879
_cell_formula_units_Z   1
loop_
 _symmetry_equiv_pos_site_id
 _symmetry_equiv_pos_as_xyz
  1  'x, y, z'
loop_
 _atom_site_type_symbol
 _atom_site_label
 _atom_site_symmetry_multiplicity
 _atom_site_fract_x
 _atom_site_fract_y
 _atom_site_fract_z
 _atom_site_occupancy
  Hf  Hf0  1  0.00000000  0.23793700  0.23793700  1
  Hf  Hf1  1  0.00000000  0.76206300  0.76206300  1
  Re  Re2  1  0.00000000  0.00000000  0.00000000  1
  Pt  Pt3  1  0.00000000  0.50000000  0.50000000  1
