# generated using pymatgen
data_K2RbNa
_symmetry_space_group_name_H-M   'P 1'
_cell_length_a   16.28837408
_cell_length_b   16.28837408
_cell_length_c   16.28837408
_cell_angle_alpha   120.93387876
_cell_angle_beta   117.32346769
_cell_angle_gamma   91.54361953
_symmetry_Int_Tables_number   1
_chemical_formula_structural   K2RbNa
_chemical_formula_sum   'K2 Rb1 Na1'
_cell_volume   3091.06496026
_cell_formula_units_Z   1
loop_
 _symmetry_equiv_pos_site_id
 _symmetry_equiv_pos_as_xyz
  1  'x, y, z'
loop_
 _atom_site_type_symbol
 _atom_site_label
 _atom_site_symmetry_multiplicity
 _atom_site_fract_x
 _atom_site_fract_y
 _atom_site_fract_z
 _atom_site_occupancy
  K  K0  1  0.22239800  0.00000000  0.22239800  1
  K  K1  1  0.77760200  0.00000000  0.77760200  1
  Rb  Rb2  1  0.50000000  0.00000000  0.50000000  1
  Na  Na3  1  0.00000000  0.00000000  0.00000000  1
