# generated using pymatgen
data_Sc2TcRh
_symmetry_space_group_name_H-M   'P 1'
_cell_length_a   11.02756401
_cell_length_b   11.02756401
_cell_length_c   11.02756401
_cell_angle_alpha   130.90538558
_cell_angle_beta   116.79011892
_cell_angle_gamma   83.94198248
_symmetry_Int_Tables_number   1
_chemical_formula_structural   Sc2TcRh
_chemical_formula_sum   'Sc2 Tc1 Rh1'
_cell_volume   868.28740685
_cell_formula_units_Z   1
loop_
 _symmetry_equiv_pos_site_id
 _symmetry_equiv_pos_as_xyz
  1  'x, y, z'
loop_
 _atom_site_type_symbol
 _atom_site_label
 _atom_site_symmetry_multiplicity
 _atom_site_fract_x
 _atom_site_fract_y
 _atom_site_fract_z
 _atom_site_occupancy
  Sc  Sc0  1  0.00000000  0.25108600  0.25108600  1
  Sc  Sc1  1  0.00000000  0.74891400  0.74891400  1
  Tc  Tc2  1  0.00000000  0.00000000  0.00000000  1
  Rh  Rh3  1  0.00000000  0.50000000  0.50000000  1
