# generated using pymatgen
data_Zn2CuRh
_symmetry_space_group_name_H-M   'P 1'
_cell_length_a   9.87680427
_cell_length_b   9.87680427
_cell_length_c   9.87680427
_cell_angle_alpha   122.27423389
_cell_angle_beta   118.28740058
_cell_angle_gamma   89.54926334
_symmetry_Int_Tables_number   1
_chemical_formula_structural   Zn2CuRh
_chemical_formula_sum   'Zn2 Cu1 Rh1'
_cell_volume   677.34231945
_cell_formula_units_Z   1
loop_
 _symmetry_equiv_pos_site_id
 _symmetry_equiv_pos_as_xyz
  1  'x, y, z'
loop_
 _atom_site_type_symbol
 _atom_site_label
 _atom_site_symmetry_multiplicity
 _atom_site_fract_x
 _atom_site_fract_y
 _atom_site_fract_z
 _atom_site_occupancy
  Zn  Zn0  1  0.00000000  0.24692000  0.24692000  1
  Zn  Zn1  1  0.00000000  0.75308000  0.75308000  1
  Cu  Cu2  1  0.00000000  0.00000000  0.00000000  1
  Rh  Rh3  1  0.00000000  0.50000000  0.50000000  1
