# generated using pymatgen
data_Sc2CdAu
_symmetry_space_group_name_H-M   'P 1'
_cell_length_a   11.85025472
_cell_length_b   11.85025472
_cell_length_c   11.85025472
_cell_angle_alpha   122.96235242
_cell_angle_beta   118.67267674
_cell_angle_gamma   88.63090180
_symmetry_Int_Tables_number   1
_chemical_formula_structural   Sc2CdAu
_chemical_formula_sum   'Sc2 Cd1 Au1'
_cell_volume   1159.70879193
_cell_formula_units_Z   1
loop_
 _symmetry_equiv_pos_site_id
 _symmetry_equiv_pos_as_xyz
  1  'x, y, z'
loop_
 _atom_site_type_symbol
 _atom_site_label
 _atom_site_symmetry_multiplicity
 _atom_site_fract_x
 _atom_site_fract_y
 _atom_site_fract_z
 _atom_site_occupancy
  Sc  Sc0  1  0.00000000  0.27199000  0.27199000  1
  Sc  Sc1  1  0.00000000  0.72801000  0.72801000  1
  Cd  Cd2  1  0.00000000  0.00000000  0.00000000  1
  Au  Au3  1  0.00000000  0.50000000  0.50000000  1
