# generated using pymatgen
data_CdSbRh2
_symmetry_space_group_name_H-M   'P 1'
_cell_length_a   10.76093941
_cell_length_b   10.76093941
_cell_length_c   10.76093941
_cell_angle_alpha   123.00794278
_cell_angle_beta   119.40422040
_cell_angle_gamma   87.95277477
_symmetry_Int_Tables_number   1
_chemical_formula_structural   CdSbRh2
_chemical_formula_sum   'Cd1 Sb1 Rh2'
_cell_volume   863.34114401
_cell_formula_units_Z   1
loop_
 _symmetry_equiv_pos_site_id
 _symmetry_equiv_pos_as_xyz
  1  'x, y, z'
loop_
 _atom_site_type_symbol
 _atom_site_label
 _atom_site_symmetry_multiplicity
 _atom_site_fract_x
 _atom_site_fract_y
 _atom_site_fract_z
 _atom_site_occupancy
  Cd  Cd0  1  0.00000000  0.00000000  0.00000000  1
  Sb  Sb1  1  0.00000000  0.50000000  0.50000000  1
  Rh  Rh2  1  0.00000000  0.26894300  0.26894300  1
  Rh  Rh3  1  0.00000000  0.73105700  0.73105700  1
