# generated using pymatgen
data_MnCdRh2
_symmetry_space_group_name_H-M   'P 1'
_cell_length_a   10.79347202
_cell_length_b   10.79347202
_cell_length_c   10.79347202
_cell_angle_alpha   126.70756016
_cell_angle_beta   119.19383644
_cell_angle_gamma   85.09541302
_symmetry_Int_Tables_number   1
_chemical_formula_structural   MnCdRh2
_chemical_formula_sum   'Mn1 Cd1 Rh2'
_cell_volume   841.01817836
_cell_formula_units_Z   1
loop_
 _symmetry_equiv_pos_site_id
 _symmetry_equiv_pos_as_xyz
  1  'x, y, z'
loop_
 _atom_site_type_symbol
 _atom_site_label
 _atom_site_symmetry_multiplicity
 _atom_site_fract_x
 _atom_site_fract_y
 _atom_site_fract_z
 _atom_site_occupancy
  Mn  Mn0  1  0.00000000  0.00000000  0.00000000  1
  Cd  Cd1  1  0.00000000  0.50000000  0.50000000  1
  Rh  Rh2  1  0.00000000  0.21312400  0.21312400  1
  Rh  Rh3  1  0.00000000  0.78687600  0.78687600  1
