# generated using pymatgen
data_TaBeOs2
_symmetry_space_group_name_H-M   'P 1'
_cell_length_a   10.32231742
_cell_length_b   10.32231742
_cell_length_c   10.32231742
_cell_angle_alpha   128.39728184
_cell_angle_beta   117.61774366
_cell_angle_gamma   85.14231530
_symmetry_Int_Tables_number   1
_chemical_formula_structural   TaBeOs2
_chemical_formula_sum   'Ta1 Be1 Os2'
_cell_volume   730.31500997
_cell_formula_units_Z   1
loop_
 _symmetry_equiv_pos_site_id
 _symmetry_equiv_pos_as_xyz
  1  'x, y, z'
loop_
 _atom_site_type_symbol
 _atom_site_label
 _atom_site_symmetry_multiplicity
 _atom_site_fract_x
 _atom_site_fract_y
 _atom_site_fract_z
 _atom_site_occupancy
  Ta  Ta0  1  0.00000000  0.50000000  0.50000000  1
  Be  Be1  1  0.00000000  0.00000000  0.00000000  1
  Os  Os2  1  0.00000000  0.25043800  0.25043800  1
  Os  Os3  1  0.00000000  0.74956200  0.74956200  1
