data_image0
_chemical_formula_structural       Cl4N4O16S4
_chemical_formula_sum              "Cl4 N4 O16 S4"
_cell_length_a       8.18631
_cell_length_b       6.8985
_cell_length_c       7.1096
_cell_angle_alpha    90
_cell_angle_beta     107.252
_cell_angle_gamma    90

_space_group_name_H-M_alt    "P 1"
_space_group_IT_number       1

loop_
  _space_group_symop_operation_xyz
  'x, y, z'

loop_
  _atom_site_type_symbol
  _atom_site_label
  _atom_site_symmetry_multiplicity
  _atom_site_fract_x
  _atom_site_fract_y
  _atom_site_fract_z
  _atom_site_occupancy
  Cl  Cl1       1.0  0.52500  0.26300  0.40800  1.0000
  Cl  Cl2       1.0  0.47500  0.76300  0.09150  1.0000
  Cl  Cl3       1.0  0.47500  0.73700  0.59200  1.0000
  Cl  Cl4       1.0  0.52500  0.23700  0.90800  1.0000
  N   N1        1.0  0.34000  0.61700  0.15200  1.0000
  N   N2        1.0  0.66000  0.11700  0.34800  1.0000
  N   N3        1.0  0.66000  0.38300  0.84800  1.0000
  N   N4        1.0  0.34000  0.88300  0.65200  1.0000
  O   O1        1.0  0.24000  0.09920  0.96700  1.0000
  O   O2        1.0  0.76000  0.59900  0.53300  1.0000
  O   O3        1.0  0.76000  0.90100  0.03290  1.0000
  O   O4        1.0  0.24000  0.40100  0.46700  1.0000
  O   O5        1.0  0.76700  0.46300  0.00081  1.0000
  O   O6        1.0  0.23300  0.96300  0.49900  1.0000
  O   O7        1.0  0.23300  0.53700  0.99900  1.0000
  O   O8        1.0  0.76700  0.03720  0.50100  1.0000
  O   O9        1.0  0.24000  0.92000  0.31800  1.0000
  O   O10       1.0  0.76000  0.42000  0.18200  1.0000
  O   O11       1.0  0.76000  0.07990  0.68200  1.0000
  O   O12       1.0  0.24000  0.58000  0.81800  1.0000
  O   O13       1.0  0.98500  0.19200  0.06080  1.0000
  O   O14       1.0  0.01480  0.69200  0.43900  1.0000
  O   O15       1.0  0.01480  0.80800  0.93900  1.0000
  O   O16       1.0  0.98500  0.30800  0.56100  1.0000
  S   S1        1.0  0.16900  0.18400  0.11400  1.0000
  S   S2        1.0  0.83100  0.68400  0.38600  1.0000
  S   S3        1.0  0.83100  0.81600  0.88600  1.0000
  S   S4        1.0  0.16900  0.31600  0.61400  1.0000
