# generated using pymatgen
data_AlO2
_symmetry_space_group_name_H-M   'P 1'
_cell_length_a   5.60403699
_cell_length_b   5.60403699
_cell_length_c   3.64661200
_cell_angle_alpha   90.00000000
_cell_angle_beta   90.00000000
_cell_angle_gamma   149.20051549
_symmetry_Int_Tables_number   1
_chemical_formula_structural   AlO2
_chemical_formula_sum   'Al2 O4'
_cell_volume   58.63964156
_cell_formula_units_Z   2
loop_
 _symmetry_equiv_pos_site_id
 _symmetry_equiv_pos_as_xyz
  1  'x, y, z'
loop_
 _atom_site_type_symbol
 _atom_site_label
 _atom_site_symmetry_multiplicity
 _atom_site_fract_x
 _atom_site_fract_y
 _atom_site_fract_z
 _atom_site_occupancy
  Al  Al0  1  0.33186700  0.66813300  0.75000000  1
  Al  Al1  1  0.66813300  0.33186700  0.25000000  1
  O  O2  1  0.70581600  0.29418400  0.75000000  1
  O  O3  1  0.29418400  0.70581600  0.25000000  1
  O  O4  1  0.93892800  0.06107200  0.75000000  1
  O  O5  1  0.06107200  0.93892800  0.25000000  1
