# generated using pymatgen
data_Mg2HgRh
_symmetry_space_group_name_H-M   'P 1'
_cell_length_a   11.54892859
_cell_length_b   11.54892859
_cell_length_c   11.54892859
_cell_angle_alpha   122.37502916
_cell_angle_beta   116.22288939
_cell_angle_gamma   91.29940582
_symmetry_Int_Tables_number   1
_chemical_formula_structural   Mg2HgRh
_chemical_formula_sum   'Mg2 Hg1 Rh1'
_cell_volume   1096.58222193
_cell_formula_units_Z   1
loop_
 _symmetry_equiv_pos_site_id
 _symmetry_equiv_pos_as_xyz
  1  'x, y, z'
loop_
 _atom_site_type_symbol
 _atom_site_label
 _atom_site_symmetry_multiplicity
 _atom_site_fract_x
 _atom_site_fract_y
 _atom_site_fract_z
 _atom_site_occupancy
  Mg  Mg0  1  0.00000000  0.22440000  0.22440000  1
  Mg  Mg1  1  0.00000000  0.77560000  0.77560000  1
  Hg  Hg2  1  0.00000000  0.50000000  0.50000000  1
  Rh  Rh3  1  0.00000000  0.00000000  0.00000000  1
