# generated using pymatgen
data_CaZnAu2
_symmetry_space_group_name_H-M   'P 1'
_cell_length_a   11.90304839
_cell_length_b   11.90304839
_cell_length_c   11.90304839
_cell_angle_alpha   125.82873271
_cell_angle_beta   118.07506771
_cell_angle_gamma   86.79019811
_symmetry_Int_Tables_number   1
_chemical_formula_structural   CaZnAu2
_chemical_formula_sum   'Ca1 Zn1 Au2'
_cell_volume   1148.24296663
_cell_formula_units_Z   1
loop_
 _symmetry_equiv_pos_site_id
 _symmetry_equiv_pos_as_xyz
  1  'x, y, z'
loop_
 _atom_site_type_symbol
 _atom_site_label
 _atom_site_symmetry_multiplicity
 _atom_site_fract_x
 _atom_site_fract_y
 _atom_site_fract_z
 _atom_site_occupancy
  Ca  Ca0  1  0.00000000  0.00000000  0.00000000  1
  Zn  Zn1  1  0.00000000  0.50000000  0.50000000  1
  Au  Au2  1  0.00000000  0.25295800  0.25295800  1
  Au  Au3  1  0.00000000  0.74704200  0.74704200  1
