# generated using pymatgen
data_RbV2Fe(AgO4)2
_symmetry_space_group_name_H-M   'P 1'
_cell_length_a   5.54177453
_cell_length_b   15.15381701
_cell_length_c   5.54175200
_cell_angle_alpha   89.99849684
_cell_angle_beta   59.99887264
_cell_angle_gamma   89.99607109
_symmetry_Int_Tables_number   1
_chemical_formula_structural   RbV2Fe(AgO4)2
_chemical_formula_sum   'Rb2 V4 Fe2 Ag4 O16'
_cell_volume   403.03584637
_cell_formula_units_Z   2
loop_
 _symmetry_equiv_pos_site_id
 _symmetry_equiv_pos_as_xyz
  1  'x, y, z'
loop_
 _atom_site_type_symbol
 _atom_site_label
 _atom_site_symmetry_multiplicity
 _atom_site_fract_x
 _atom_site_fract_y
 _atom_site_fract_z
 _atom_site_occupancy
  Rb  Rb0  1  0.00000100  0.99999800  0.00000000  1
  Rb  Rb1  1  0.00000100  0.49999600  0.00000000  1
  V  V2  1  0.66675300  0.13525300  0.66666900  1
  V  V3  1  0.66675500  0.63528300  0.66666500  1
  V  V4  1  0.33324300  0.36473300  0.33333600  1
  V  V5  1  0.33324800  0.86473300  0.33333200  1
  Fe  Fe6  1  0.99999900  0.75000900  0.99999900  1
  Fe  Fe7  1  0.99999700  0.24999100  0.00000200  1
  Ag  Ag8  1  0.33334500  0.13295600  0.33333300  1
  Ag  Ag9  1  0.33333800  0.63295600  0.33333500  1
  Ag  Ag10  1  0.66666700  0.36704700  0.66666200  1
  Ag  Ag11  1  0.66666500  0.86704800  0.66666300  1
  O  O12  1  0.33327900  0.47631800  0.33333600  1
  O  O13  1  0.33328100  0.97631500  0.33333600  1
  O  O14  1  0.66671700  0.02367000  0.66666600  1
  O  O15  1  0.66672100  0.52369900  0.66666200  1
  O  O16  1  0.66995400  0.32834600  0.25353900  1
  O  O17  1  0.66995700  0.82835700  0.25352900  1
  O  O18  1  0.25352300  0.32834700  0.07648500  1
  O  O19  1  0.25351700  0.82835700  0.07648900  1
  O  O20  1  0.07647700  0.32834300  0.66997300  1
  O  O21  1  0.07648400  0.82835400  0.66997100  1
  O  O22  1  0.33005200  0.17164000  0.74646700  1
  O  O23  1  0.33004300  0.67165500  0.74646400  1
  O  O24  1  0.74647600  0.17164000  0.92350400  1
  O  O25  1  0.74647700  0.67165400  0.92351600  1
  O  O26  1  0.92350900  0.17164300  0.33004000  1
  O  O27  1  0.92352100  0.67165900  0.33002800  1
