# generated using pymatgen
data_Al2Zn2S5
_symmetry_space_group_name_H-M   'P 1'
_cell_length_a   15.25278390
_cell_length_b   15.25278390
_cell_length_c   15.25278389
_cell_angle_alpha   13.82619177
_cell_angle_beta   13.82619177
_cell_angle_gamma   13.82619014
_symmetry_Int_Tables_number   1
_chemical_formula_structural   Al2Zn2S5
_chemical_formula_sum   'Al2 Zn2 S5'
_cell_volume   176.35742668
_cell_formula_units_Z   1
loop_
 _symmetry_equiv_pos_site_id
 _symmetry_equiv_pos_as_xyz
  1  'x, y, z'
loop_
 _atom_site_type_symbol
 _atom_site_label
 _atom_site_symmetry_multiplicity
 _atom_site_fract_x
 _atom_site_fract_y
 _atom_site_fract_z
 _atom_site_occupancy
  Al  Al0  1  0.72372400  0.72372400  0.72372400  1
  Al  Al1  1  0.27627600  0.27627600  0.27627600  1
  Zn  Zn2  1  0.86639000  0.86639000  0.86639000  1
  Zn  Zn3  1  0.13361000  0.13361000  0.13361000  1
  S  S4  1  0.50000000  0.50000000  0.50000000  1
  S  S5  1  0.77179800  0.77179800  0.77179800  1
  S  S6  1  0.22820200  0.22820200  0.22820200  1
  S  S7  1  0.63124400  0.63124400  0.63124400  1
  S  S8  1  0.36875600  0.36875600  0.36875600  1
