# generated using pymatgen
data_Nb2TcRu
_symmetry_space_group_name_H-M   'P 1'
_cell_length_a   10.15433685
_cell_length_b   10.15433685
_cell_length_c   10.15433685
_cell_angle_alpha   128.10402971
_cell_angle_beta   117.21889622
_cell_angle_gamma   85.72851413
_symmetry_Int_Tables_number   1
_chemical_formula_structural   Nb2TcRu
_chemical_formula_sum   'Nb2 Tc1 Ru1'
_cell_volume   699.61711639
_cell_formula_units_Z   1
loop_
 _symmetry_equiv_pos_site_id
 _symmetry_equiv_pos_as_xyz
  1  'x, y, z'
loop_
 _atom_site_type_symbol
 _atom_site_label
 _atom_site_symmetry_multiplicity
 _atom_site_fract_x
 _atom_site_fract_y
 _atom_site_fract_z
 _atom_site_occupancy
  Nb  Nb0  1  0.00000000  0.24832700  0.24832700  1
  Nb  Nb1  1  0.00000000  0.75167300  0.75167300  1
  Tc  Tc2  1  0.00000000  0.00000000  0.00000000  1
  Ru  Ru3  1  0.00000000  0.50000000  0.50000000  1
