# generated using pymatgen
data_Al2ZnS4
_symmetry_space_group_name_H-M   'P 1'
_cell_length_a   24.06810447
_cell_length_b   24.06810447
_cell_length_c   24.06810466
_cell_angle_alpha   8.78408752
_cell_angle_beta   8.78408752
_cell_angle_gamma   8.78408629
_symmetry_Int_Tables_number   1
_chemical_formula_structural   Al2ZnS4
_chemical_formula_sum   'Al4 Zn2 S8'
_cell_volume   282.12972176
_cell_formula_units_Z   2
loop_
 _symmetry_equiv_pos_site_id
 _symmetry_equiv_pos_as_xyz
  1  'x, y, z'
loop_
 _atom_site_type_symbol
 _atom_site_label
 _atom_site_symmetry_multiplicity
 _atom_site_fract_x
 _atom_site_fract_y
 _atom_site_fract_z
 _atom_site_occupancy
  Al  Al0  1  0.60545900  0.60545900  0.60545900  1
  Al  Al1  1  0.88802100  0.88802100  0.88802100  1
  Al  Al2  1  0.77202000  0.77202000  0.77202000  1
  Al  Al3  1  0.05451400  0.05451400  0.05451400  1
  Zn  Zn4  1  0.32407700  0.32407700  0.32407700  1
  Zn  Zn5  1  0.49155100  0.49155100  0.49155100  1
  S  S6  1  0.00085100  0.00085100  0.00085100  1
  S  S7  1  0.28791800  0.28791800  0.28791800  1
  S  S8  1  0.91931000  0.91931000  0.91931000  1
  S  S9  1  0.54240700  0.54240700  0.54240700  1
  S  S10  1  0.83493700  0.83493700  0.83493700  1
  S  S11  1  0.45455800  0.45455800  0.45455800  1
  S  S12  1  0.08582100  0.08582100  0.08582100  1
  S  S13  1  0.37550900  0.37550900  0.37550900  1
