# generated using pymatgen
data_Ba3Ta4NbO15
_symmetry_space_group_name_H-M   'P 1'
_cell_length_a   12.78284300
_cell_length_b   12.78284300
_cell_length_c   4.02491400
_cell_angle_alpha   90.00000000
_cell_angle_beta   90.00000000
_cell_angle_gamma   90.00000000
_symmetry_Int_Tables_number   1
_chemical_formula_structural   Ba3Ta4NbO15
_chemical_formula_sum   'Ba6 Ta8 Nb2 O30'
_cell_volume   657.67527504
_cell_formula_units_Z   2
loop_
 _symmetry_equiv_pos_site_id
 _symmetry_equiv_pos_as_xyz
  1  'x, y, z'
loop_
 _atom_site_type_symbol
 _atom_site_label
 _atom_site_symmetry_multiplicity
 _atom_site_fract_x
 _atom_site_fract_y
 _atom_site_fract_z
 _atom_site_occupancy
  Ba  Ba0  1  0.00000000  0.00000000  0.00000000  1
  Ba  Ba1  1  0.50000000  0.50000000  0.00000000  1
  Ba  Ba2  1  0.16927000  0.66927000  0.00000000  1
  Ba  Ba3  1  0.83073000  0.33073000  0.00000000  1
  Ba  Ba4  1  0.66927000  0.83073000  0.00000000  1
  Ba  Ba5  1  0.33073000  0.16927000  0.00000000  1
  Ta  Ta6  1  0.07536400  0.21362700  0.50000000  1
  Ta  Ta7  1  0.92463600  0.78637300  0.50000000  1
  Ta  Ta8  1  0.57536400  0.28637300  0.50000000  1
  Ta  Ta9  1  0.42463600  0.71362700  0.50000000  1
  Ta  Ta10  1  0.78637300  0.07536400  0.50000000  1
  Ta  Ta11  1  0.21362700  0.92463600  0.50000000  1
  Ta  Ta12  1  0.71362700  0.57536400  0.50000000  1
  Ta  Ta13  1  0.28637300  0.42463600  0.50000000  1
  Nb  Nb14  1  0.00000000  0.50000000  0.50000000  1
  Nb  Nb15  1  0.50000000  0.00000000  0.50000000  1
  O  O16  1  0.00000000  0.50000000  0.00000000  1
  O  O17  1  0.50000000  0.00000000  0.00000000  1
  O  O18  1  0.28173800  0.78173800  0.50000000  1
  O  O19  1  0.71826200  0.21826200  0.50000000  1
  O  O20  1  0.78173800  0.71826200  0.50000000  1
  O  O21  1  0.21826200  0.28173800  0.50000000  1
  O  O22  1  0.07712800  0.20897100  0.00000000  1
  O  O23  1  0.92287200  0.79102900  0.00000000  1
  O  O24  1  0.57712800  0.29102900  0.00000000  1
  O  O25  1  0.42287200  0.70897100  0.00000000  1
  O  O26  1  0.79102900  0.07712800  0.00000000  1
  O  O27  1  0.20897100  0.92287200  0.00000000  1
  O  O28  1  0.70897100  0.57712800  0.00000000  1
  O  O29  1  0.29102900  0.42287200  0.00000000  1
  O  O30  1  0.34159600  0.00765900  0.50000000  1
  O  O31  1  0.65840400  0.99234100  0.50000000  1
  O  O32  1  0.84159600  0.49234100  0.50000000  1
  O  O33  1  0.15840400  0.50765900  0.50000000  1
  O  O34  1  0.99234100  0.34159600  0.50000000  1
  O  O35  1  0.00765900  0.65840400  0.50000000  1
  O  O36  1  0.50765900  0.84159600  0.50000000  1
  O  O37  1  0.49234100  0.15840400  0.50000000  1
  O  O38  1  0.14003900  0.06819700  0.50000000  1
  O  O39  1  0.85996100  0.93180300  0.50000000  1
  O  O40  1  0.64003900  0.43180300  0.50000000  1
  O  O41  1  0.35996100  0.56819700  0.50000000  1
  O  O42  1  0.93180300  0.14003900  0.50000000  1
  O  O43  1  0.06819700  0.85996100  0.50000000  1
  O  O44  1  0.56819700  0.64003900  0.50000000  1
  O  O45  1  0.43180300  0.35996100  0.50000000  1
