# generated using pymatgen
data_Yb(P2Rh3)2
_symmetry_space_group_name_H-M   'P 1'
_cell_length_a   7.01744196
_cell_length_b   7.01744196
_cell_length_c   3.71474600
_cell_angle_alpha   90.00000000
_cell_angle_beta   90.00000000
_cell_angle_gamma   119.99999966
_symmetry_Int_Tables_number   1
_chemical_formula_structural   Yb(P2Rh3)2
_chemical_formula_sum   'Yb1 P4 Rh6'
_cell_volume   158.42270197
_cell_formula_units_Z   1
loop_
 _symmetry_equiv_pos_site_id
 _symmetry_equiv_pos_as_xyz
  1  'x, y, z'
loop_
 _atom_site_type_symbol
 _atom_site_label
 _atom_site_symmetry_multiplicity
 _atom_site_fract_x
 _atom_site_fract_y
 _atom_site_fract_z
 _atom_site_occupancy
  Yb  Yb0  1  0.00000000  0.00000000  0.50000000  1
  P  P1  1  0.66666700  0.33333300  0.50000000  1
  P  P2  1  0.19275100  0.37585200  0.00000000  1
  P  P3  1  0.18310200  0.80724900  0.00000000  1
  P  P4  1  0.62414800  0.81689800  0.00000000  1
  Rh  Rh5  1  0.48045800  0.93235500  0.50000000  1
  Rh  Rh6  1  0.45189700  0.51954200  0.50000000  1
  Rh  Rh7  1  0.06764500  0.54810300  0.50000000  1
  Rh  Rh8  1  0.79364000  0.60422300  0.00000000  1
  Rh  Rh9  1  0.81058300  0.20636000  0.00000000  1
  Rh  Rh10  1  0.39577700  0.18941700  0.00000000  1
