# generated using pymatgen
data_MnCuPt2
_symmetry_space_group_name_H-M   'P 1'
_cell_length_a   9.96741920
_cell_length_b   9.96741920
_cell_length_c   9.96741920
_cell_angle_alpha   124.96689485
_cell_angle_beta   117.39096851
_cell_angle_gamma   88.09955888
_symmetry_Int_Tables_number   1
_chemical_formula_structural   MnCuPt2
_chemical_formula_sum   'Mn1 Cu1 Pt2'
_cell_volume   683.41092083
_cell_formula_units_Z   1
loop_
 _symmetry_equiv_pos_site_id
 _symmetry_equiv_pos_as_xyz
  1  'x, y, z'
loop_
 _atom_site_type_symbol
 _atom_site_label
 _atom_site_symmetry_multiplicity
 _atom_site_fract_x
 _atom_site_fract_y
 _atom_site_fract_z
 _atom_site_occupancy
  Mn  Mn0  1  0.00000000  0.00000000  0.00000000  1
  Cu  Cu1  1  0.00000000  0.50000000  0.50000000  1
  Pt  Pt2  1  0.00000000  0.24292500  0.24292500  1
  Pt  Pt3  1  0.00000000  0.75707500  0.75707500  1
