# generated using pymatgen
data_Al2ZnS4
_symmetry_space_group_name_H-M   'P 1'
_cell_length_a   3.69613045
_cell_length_b   3.69613045
_cell_length_c   23.80581800
_cell_angle_alpha   90.00000000
_cell_angle_beta   90.00000000
_cell_angle_gamma   120.00000813
_symmetry_Int_Tables_number   1
_chemical_formula_structural   Al2ZnS4
_chemical_formula_sum   'Al4 Zn2 S8'
_cell_volume   281.64904787
_cell_formula_units_Z   2
loop_
 _symmetry_equiv_pos_site_id
 _symmetry_equiv_pos_as_xyz
  1  'x, y, z'
loop_
 _atom_site_type_symbol
 _atom_site_label
 _atom_site_symmetry_multiplicity
 _atom_site_fract_x
 _atom_site_fract_y
 _atom_site_fract_z
 _atom_site_occupancy
  Al  Al0  1  0.66666700  0.33333300  0.24810900  1
  Al  Al1  1  0.33333300  0.66666700  0.74810900  1
  Al  Al2  1  0.33333300  0.66666700  0.40195600  1
  Al  Al3  1  0.66666700  0.33333300  0.90195600  1
  Zn  Zn4  1  0.00000000  0.00000000  0.09208300  1
  Zn  Zn5  1  0.00000000  0.00000000  0.59208300  1
  S  S6  1  0.00000000  0.00000000  0.43879100  1
  S  S7  1  0.00000000  0.00000000  0.93879100  1
  S  S8  1  0.33333300  0.66666700  0.30690600  1
  S  S9  1  0.66666700  0.33333300  0.80690600  1
  S  S10  1  0.00000000  0.00000000  0.20024200  1
  S  S11  1  0.00000000  0.00000000  0.70024200  1
  S  S12  1  0.66666700  0.33333300  0.06141400  1
  S  S13  1  0.33333300  0.66666700  0.56141400  1
