# generated using pymatgen
data_H2CO
_symmetry_space_group_name_H-M   'P 1'
_cell_length_a   4.95683616
_cell_length_b   4.95683616
_cell_length_c   7.33720400
_cell_angle_alpha   90.00000000
_cell_angle_beta   90.00000000
_cell_angle_gamma   129.81427104
_symmetry_Int_Tables_number   1
_chemical_formula_structural   H2CO
_chemical_formula_sum   'H8 C4 O4'
_cell_volume   138.47491066
_cell_formula_units_Z   4
loop_
 _symmetry_equiv_pos_site_id
 _symmetry_equiv_pos_as_xyz
  1  'x, y, z'
loop_
 _atom_site_type_symbol
 _atom_site_label
 _atom_site_symmetry_multiplicity
 _atom_site_fract_x
 _atom_site_fract_y
 _atom_site_fract_z
 _atom_site_occupancy
  H  H0  1  0.23808800  0.40000300  0.57296600  1
  H  H1  1  0.76191200  0.59999700  0.07296600  1
  H  H2  1  0.40000300  0.23808800  0.42703400  1
  H  H3  1  0.59999700  0.76191200  0.92703400  1
  H  H4  1  0.90956500  0.44792000  0.82094500  1
  H  H5  1  0.09043500  0.55208000  0.32094500  1
  H  H6  1  0.44792000  0.90956500  0.17905500  1
  H  H7  1  0.55208000  0.09043500  0.67905500  1
  C  C8  1  0.66208100  0.33791900  0.75000000  1
  C  C9  1  0.33791900  0.66208100  0.25000000  1
  C  C10  1  0.47040800  0.47040800  0.50000000  1
  C  C11  1  0.52959200  0.52959200  0.00000000  1
  O  O12  1  0.40059400  0.24900000  0.87715600  1
  O  O13  1  0.59940600  0.75100000  0.37715600  1
  O  O14  1  0.24900000  0.40059400  0.12284400  1
  O  O15  1  0.75100000  0.59940600  0.62284400  1
