# generated using pymatgen
data_Ba3TaNb4O15
_symmetry_space_group_name_H-M   'P 1'
_cell_length_a   12.83065600
_cell_length_b   12.83065600
_cell_length_c   4.03785800
_cell_angle_alpha   90.00000000
_cell_angle_beta   90.00000000
_cell_angle_gamma   90.00000000
_symmetry_Int_Tables_number   1
_chemical_formula_structural   Ba3TaNb4O15
_chemical_formula_sum   'Ba6 Ta2 Nb8 O30'
_cell_volume   664.73533458
_cell_formula_units_Z   2
loop_
 _symmetry_equiv_pos_site_id
 _symmetry_equiv_pos_as_xyz
  1  'x, y, z'
loop_
 _atom_site_type_symbol
 _atom_site_label
 _atom_site_symmetry_multiplicity
 _atom_site_fract_x
 _atom_site_fract_y
 _atom_site_fract_z
 _atom_site_occupancy
  Ba  Ba0  1  0.50000000  0.50000000  0.00000000  1
  Ba  Ba1  1  0.00000000  0.00000000  0.00000000  1
  Ba  Ba2  1  0.66971900  0.16971900  0.00000000  1
  Ba  Ba3  1  0.33028100  0.83028100  0.00000000  1
  Ba  Ba4  1  0.16971900  0.33028100  0.00000000  1
  Ba  Ba5  1  0.83028100  0.66971900  0.00000000  1
  Ta  Ta6  1  0.50000000  0.00000000  0.50000000  1
  Ta  Ta7  1  0.00000000  0.50000000  0.50000000  1
  Nb  Nb8  1  0.57688700  0.71323200  0.50000000  1
  Nb  Nb9  1  0.42311300  0.28676800  0.50000000  1
  Nb  Nb10  1  0.07688700  0.78676800  0.50000000  1
  Nb  Nb11  1  0.92311300  0.21323200  0.50000000  1
  Nb  Nb12  1  0.28676800  0.57688700  0.50000000  1
  Nb  Nb13  1  0.71323200  0.42311300  0.50000000  1
  Nb  Nb14  1  0.21323200  0.07688700  0.50000000  1
  Nb  Nb15  1  0.78676800  0.92311300  0.50000000  1
  O  O16  1  0.50000000  0.00000000  0.00000000  1
  O  O17  1  0.00000000  0.50000000  0.00000000  1
  O  O18  1  0.78104400  0.28104400  0.50000000  1
  O  O19  1  0.21895600  0.71895600  0.50000000  1
  O  O20  1  0.28104400  0.21895600  0.50000000  1
  O  O21  1  0.71895600  0.78104400  0.50000000  1
  O  O22  1  0.57679800  0.70951700  0.00000000  1
  O  O23  1  0.42320200  0.29048300  0.00000000  1
  O  O24  1  0.07679800  0.79048300  0.00000000  1
  O  O25  1  0.92320200  0.20951700  0.00000000  1
  O  O26  1  0.29048300  0.57679800  0.00000000  1
  O  O27  1  0.70951700  0.42320200  0.00000000  1
  O  O28  1  0.20951700  0.07679800  0.00000000  1
  O  O29  1  0.79048300  0.92320200  0.00000000  1
  O  O30  1  0.84486100  0.50726900  0.50000000  1
  O  O31  1  0.15513900  0.49273100  0.50000000  1
  O  O32  1  0.34486100  0.99273100  0.50000000  1
  O  O33  1  0.65513900  0.00726900  0.50000000  1
  O  O34  1  0.49273100  0.84486100  0.50000000  1
  O  O35  1  0.50726900  0.15513900  0.50000000  1
  O  O36  1  0.00726900  0.34486100  0.50000000  1
  O  O37  1  0.99273100  0.65513900  0.50000000  1
  O  O38  1  0.63949600  0.56966600  0.50000000  1
  O  O39  1  0.36050400  0.43033400  0.50000000  1
  O  O40  1  0.13949600  0.93033400  0.50000000  1
  O  O41  1  0.86050400  0.06966600  0.50000000  1
  O  O42  1  0.43033400  0.63949600  0.50000000  1
  O  O43  1  0.56966600  0.36050400  0.50000000  1
  O  O44  1  0.06966600  0.13949600  0.50000000  1
  O  O45  1  0.93033400  0.86050400  0.50000000  1
