# generated using pymatgen
data_H6CNF
_symmetry_space_group_name_H-M   'P 1'
_cell_length_a   5.38388700
_cell_length_b   5.90788000
_cell_length_c   9.15913700
_cell_angle_alpha   90.00000000
_cell_angle_beta   90.00000000
_cell_angle_gamma   90.00000000
_symmetry_Int_Tables_number   1
_chemical_formula_structural   H6CNF
_chemical_formula_sum   'H24 C4 N4 F4'
_cell_volume   291.32795255
_cell_formula_units_Z   4
loop_
 _symmetry_equiv_pos_site_id
 _symmetry_equiv_pos_as_xyz
  1  'x, y, z'
loop_
 _atom_site_type_symbol
 _atom_site_label
 _atom_site_symmetry_multiplicity
 _atom_site_fract_x
 _atom_site_fract_y
 _atom_site_fract_z
 _atom_site_occupancy
  H  H0  1  0.25000000  0.24298800  0.83431600  1
  H  H1  1  0.75000000  0.75701200  0.16568400  1
  H  H2  1  0.25000000  0.74298800  0.16568400  1
  H  H3  1  0.75000000  0.25701200  0.83431600  1
  H  H4  1  0.41171700  0.99889000  0.86542700  1
  H  H5  1  0.58828300  0.00111000  0.13457300  1
  H  H6  1  0.91171700  0.00111000  0.13457300  1
  H  H7  1  0.08828300  0.99889000  0.86542700  1
  H  H8  1  0.08828300  0.49889000  0.13457300  1
  H  H9  1  0.91171700  0.50111000  0.86542700  1
  H  H10  1  0.58828300  0.50111000  0.86542700  1
  H  H11  1  0.41171700  0.49889000  0.13457300  1
  H  H12  1  0.25000000  0.81734000  0.65042500  1
  H  H13  1  0.75000000  0.18266000  0.34957500  1
  H  H14  1  0.25000000  0.31734000  0.34957500  1
  H  H15  1  0.75000000  0.68266000  0.65042500  1
  H  H16  1  0.08382400  0.07145400  0.60898300  1
  H  H17  1  0.91617600  0.92854600  0.39101700  1
  H  H18  1  0.58382400  0.92854600  0.39101700  1
  H  H19  1  0.41617600  0.07145400  0.60898300  1
  H  H20  1  0.41617600  0.57145400  0.39101700  1
  H  H21  1  0.58382400  0.42854600  0.60898300  1
  H  H22  1  0.91617600  0.42854600  0.60898300  1
  H  H23  1  0.08382400  0.57145400  0.39101700  1
  C  C24  1  0.25000000  0.00205500  0.66116200  1
  C  C25  1  0.75000000  0.99794500  0.33883800  1
  C  C26  1  0.25000000  0.50205500  0.33883800  1
  C  C27  1  0.75000000  0.49794500  0.66116200  1
  N  N28  1  0.25000000  0.06135500  0.81816800  1
  N  N29  1  0.75000000  0.93864500  0.18183200  1
  N  N30  1  0.25000000  0.56135500  0.18183200  1
  N  N31  1  0.75000000  0.43864500  0.81816800  1
  F  F32  1  0.25000000  0.00056100  0.14565100  1
  F  F33  1  0.75000000  0.99943900  0.85434900  1
  F  F34  1  0.25000000  0.50056100  0.85434900  1
  F  F35  1  0.75000000  0.49943900  0.14565100  1
