# generated using pymatgen
data_Sc2TlOs
_symmetry_space_group_name_H-M   'P 1'
_cell_length_a   11.93477551
_cell_length_b   11.93477551
_cell_length_c   11.93477551
_cell_angle_alpha   127.71894498
_cell_angle_beta   116.71998041
_cell_angle_gamma   86.47872636
_symmetry_Int_Tables_number   1
_chemical_formula_structural   Sc2TlOs
_chemical_formula_sum   'Sc2 Tl1 Os1'
_cell_volume   1144.88672745
_cell_formula_units_Z   1
loop_
 _symmetry_equiv_pos_site_id
 _symmetry_equiv_pos_as_xyz
  1  'x, y, z'
loop_
 _atom_site_type_symbol
 _atom_site_label
 _atom_site_symmetry_multiplicity
 _atom_site_fract_x
 _atom_site_fract_y
 _atom_site_fract_z
 _atom_site_occupancy
  Sc  Sc0  1  0.00000000  0.21341700  0.21341700  1
  Sc  Sc1  1  0.00000000  0.78658300  0.78658300  1
  Tl  Tl2  1  0.00000000  0.50000000  0.50000000  1
  Os  Os3  1  0.00000000  0.00000000  0.00000000  1
