# generated using pymatgen
data_Cs2ReO4
_symmetry_space_group_name_H-M   'P 1'
_cell_length_a   6.64105400
_cell_length_b   8.66819800
_cell_length_c   11.80796300
_cell_angle_alpha   90.00000000
_cell_angle_beta   90.00000000
_cell_angle_gamma   90.00000000
_symmetry_Int_Tables_number   1
_chemical_formula_structural   Cs2ReO4
_chemical_formula_sum   'Cs8 Re4 O16'
_cell_volume   679.73685564
_cell_formula_units_Z   4
loop_
 _symmetry_equiv_pos_site_id
 _symmetry_equiv_pos_as_xyz
  1  'x, y, z'
loop_
 _atom_site_type_symbol
 _atom_site_label
 _atom_site_symmetry_multiplicity
 _atom_site_fract_x
 _atom_site_fract_y
 _atom_site_fract_z
 _atom_site_occupancy
  Cs  Cs0  1  0.25000000  0.99085500  0.79227800  1
  Cs  Cs1  1  0.75000000  0.50914500  0.29227800  1
  Cs  Cs2  1  0.75000000  0.00914500  0.20772200  1
  Cs  Cs3  1  0.25000000  0.49085500  0.70772200  1
  Cs  Cs4  1  0.25000000  0.67170400  0.08549200  1
  Cs  Cs5  1  0.75000000  0.82829600  0.58549200  1
  Cs  Cs6  1  0.75000000  0.32829600  0.91450800  1
  Cs  Cs7  1  0.25000000  0.17170400  0.41450800  1
  Re  Re8  1  0.25000000  0.22452200  0.07938100  1
  Re  Re9  1  0.75000000  0.27547800  0.57938100  1
  Re  Re10  1  0.75000000  0.77547800  0.92061900  1
  Re  Re11  1  0.25000000  0.72452200  0.42061900  1
  O  O12  1  0.02867100  0.29959100  0.15001800  1
  O  O13  1  0.97132900  0.20040900  0.65001800  1
  O  O14  1  0.52867100  0.70040900  0.84998200  1
  O  O15  1  0.47132900  0.79959100  0.34998200  1
  O  O16  1  0.97132900  0.70040900  0.84998200  1
  O  O17  1  0.02867100  0.79959100  0.34998200  1
  O  O18  1  0.47132900  0.29959100  0.15001800  1
  O  O19  1  0.52867100  0.20040900  0.65001800  1
  O  O20  1  0.25000000  0.01684800  0.08093400  1
  O  O21  1  0.75000000  0.48315200  0.58093400  1
  O  O22  1  0.75000000  0.98315200  0.91906600  1
  O  O23  1  0.25000000  0.51684800  0.41906600  1
  O  O24  1  0.25000000  0.29533700  0.93445800  1
  O  O25  1  0.75000000  0.20466300  0.43445800  1
  O  O26  1  0.75000000  0.70466300  0.06554200  1
  O  O27  1  0.25000000  0.79533700  0.56554200  1
