# generated using pymatgen
data_GaAgO2
_symmetry_space_group_name_H-M   'P 1'
_cell_length_a   6.43050818
_cell_length_b   6.43050818
_cell_length_c   6.43050808
_cell_angle_alpha   27.06759779
_cell_angle_beta   27.06759779
_cell_angle_gamma   27.06760479
_symmetry_Int_Tables_number   1
_chemical_formula_structural   GaAgO2
_chemical_formula_sum   'Ga1 Ag1 O2'
_cell_volume   48.56951449
_cell_formula_units_Z   1
loop_
 _symmetry_equiv_pos_site_id
 _symmetry_equiv_pos_as_xyz
  1  'x, y, z'
loop_
 _atom_site_type_symbol
 _atom_site_label
 _atom_site_symmetry_multiplicity
 _atom_site_fract_x
 _atom_site_fract_y
 _atom_site_fract_z
 _atom_site_occupancy
  Ga  Ga0  1  0.99796000  0.99796000  0.99796000  1
  Ag  Ag1  1  0.15989200  0.15989200  0.15989200  1
  O  O2  1  0.27797000  0.27797000  0.27797000  1
  O  O3  1  0.72317700  0.72317700  0.72317700  1
