# generated using pymatgen
data_CrN2
_symmetry_space_group_name_H-M   'P 1'
_cell_length_a   10.69015866
_cell_length_b   10.69015866
_cell_length_c   26.61598201
_cell_angle_alpha   76.09095047
_cell_angle_beta   76.09095047
_cell_angle_gamma   30.82775254
_symmetry_Int_Tables_number   1
_chemical_formula_structural   CrN2
_chemical_formula_sum   'Cr24 N48'
_cell_volume   1509.49119138
_cell_formula_units_Z   24
loop_
 _symmetry_equiv_pos_site_id
 _symmetry_equiv_pos_as_xyz
  1  'x, y, z'
loop_
 _atom_site_type_symbol
 _atom_site_label
 _atom_site_symmetry_multiplicity
 _atom_site_fract_x
 _atom_site_fract_y
 _atom_site_fract_z
 _atom_site_occupancy
  Cr  Cr0  1  0.02145300  0.06075600  0.93549400  1
  Cr  Cr1  1  0.06075600  0.02145300  0.43549400  1
  Cr  Cr2  1  0.71865000  0.68705900  0.76657400  1
  Cr  Cr3  1  0.68705900  0.71865000  0.26657400  1
  Cr  Cr4  1  0.89141700  0.93371000  0.87389900  1
  Cr  Cr5  1  0.93371000  0.89141700  0.37389900  1
  Cr  Cr6  1  0.54983400  0.59798700  0.70501500  1
  Cr  Cr7  1  0.59798700  0.54983400  0.20501500  1
  Cr  Cr8  1  0.40218000  0.44647100  0.79862000  1
  Cr  Cr9  1  0.44647100  0.40218000  0.29862000  1
  Cr  Cr10  1  0.78224500  0.73855400  0.96410000  1
  Cr  Cr11  1  0.73855400  0.78224500  0.46410000  1
  Cr  Cr12  1  0.31549100  0.28210900  0.73366800  1
  Cr  Cr13  1  0.28210900  0.31549100  0.23366800  1
  Cr  Cr14  1  0.61841100  0.65399300  0.89887500  1
  Cr  Cr15  1  0.65399300  0.61841100  0.39887500  1
  Cr  Cr16  1  0.37855300  0.34485700  0.60098600  1
  Cr  Cr17  1  0.34485700  0.37855300  0.10098600  1
  Cr  Cr18  1  0.97177300  0.94125800  0.56505000  1
  Cr  Cr19  1  0.94125800  0.97177300  0.06505000  1
  Cr  Cr20  1  0.21071200  0.25681200  0.53984200  1
  Cr  Cr21  1  0.25681200  0.21071200  0.03984200  1
  Cr  Cr22  1  0.05655500  0.10598400  0.63002100  1
  Cr  Cr23  1  0.10598400  0.05655500  0.13002100  1
  N  N24  1  0.29435900  0.86381300  0.66820800  1
  N  N25  1  0.86381300  0.29435900  0.16820800  1
  N  N26  1  0.79272500  0.35647000  0.66561900  1
  N  N27  1  0.35647000  0.79272500  0.16561900  1
  N  N28  1  0.53683000  0.95809800  0.00506800  1
  N  N29  1  0.95809800  0.53683000  0.50506800  1
  N  N30  1  0.03121800  0.46003400  0.99780000  1
  N  N31  1  0.46003400  0.03121800  0.49780000  1
  N  N32  1  0.13640000  0.69684100  0.83292300  1
  N  N33  1  0.69684100  0.13640000  0.33292300  1
  N  N34  1  0.63293800  0.20066600  0.83878800  1
  N  N35  1  0.20066600  0.63293800  0.33878800  1
  N  N36  1  0.67564000  0.13298900  0.57820500  1
  N  N37  1  0.13298900  0.67564000  0.07820500  1
  N  N38  1  0.18595900  0.63422100  0.58107500  1
  N  N39  1  0.63422100  0.18595900  0.08107500  1
  N  N40  1  0.53475300  0.97411600  0.74956100  1
  N  N41  1  0.97411600  0.53475300  0.24956100  1
  N  N42  1  0.02227900  0.46902800  0.74957200  1
  N  N43  1  0.46902800  0.02227900  0.24957200  1
  N  N44  1  0.31189600  0.87096300  0.91727800  1
  N  N45  1  0.87096300  0.31189600  0.41727800  1
  N  N46  1  0.80744500  0.36229000  0.91934600  1
  N  N47  1  0.36229000  0.80744500  0.41934600  1
  N  N48  1  0.96456700  0.99005200  0.90134000  1
  N  N49  1  0.99005200  0.96456700  0.40134000  1
  N  N50  1  0.84160700  0.83495400  0.92252800  1
  N  N51  1  0.83495400  0.84160700  0.42252800  1
  N  N52  1  0.66981400  0.66472700  0.83156100  1
  N  N53  1  0.66472700  0.66981400  0.33156100  1
  N  N54  1  0.63014300  0.64565100  0.73334600  1
  N  N55  1  0.64565100  0.63014300  0.23334600  1
  N  N56  1  0.35844500  0.36074400  0.76523000  1
  N  N57  1  0.36074400  0.35844500  0.26523000  1
  N  N58  1  0.35575900  0.31320500  0.66687800  1
  N  N59  1  0.31320500  0.35575900  0.16687800  1
  N  N60  1  0.47519300  0.52299700  0.75322600  1
  N  N61  1  0.52299700  0.47519300  0.25322600  1
  N  N62  1  0.12550100  0.18085500  0.58163200  1
  N  N63  1  0.18085500  0.12550100  0.08163200  1
  N  N64  1  0.00850400  0.01739400  0.60021100  1
  N  N65  1  0.01739400  0.00850400  0.10021100  1
  N  N66  1  0.98234700  0.01960800  0.99974400  1
  N  N67  1  0.01960800  0.98234700  0.49974400  1
  N  N68  1  0.69687900  0.70408900  0.92670000  1
  N  N69  1  0.70408900  0.69687900  0.42670000  1
  N  N70  1  0.28519400  0.29537400  0.57491900  1
  N  N71  1  0.29537400  0.28519400  0.07491900  1
