# generated using pymatgen
data_H6CNCl
_symmetry_space_group_name_H-M   'P 1'
_cell_length_a   6.57988200
_cell_length_b   6.71403900
_cell_length_c   8.74729500
_cell_angle_alpha   90.00000000
_cell_angle_beta   90.00000000
_cell_angle_gamma   90.00000000
_symmetry_Int_Tables_number   1
_chemical_formula_structural   H6CNCl
_chemical_formula_sum   'H24 C4 N4 Cl4'
_cell_volume   386.43436281
_cell_formula_units_Z   4
loop_
 _symmetry_equiv_pos_site_id
 _symmetry_equiv_pos_as_xyz
  1  'x, y, z'
loop_
 _atom_site_type_symbol
 _atom_site_label
 _atom_site_symmetry_multiplicity
 _atom_site_fract_x
 _atom_site_fract_y
 _atom_site_fract_z
 _atom_site_occupancy
  H  H0  1  0.25000000  0.18321300  0.83233700  1
  H  H1  1  0.75000000  0.81678700  0.16766300  1
  H  H2  1  0.25000000  0.68321300  0.16766300  1
  H  H3  1  0.75000000  0.31678700  0.83233700  1
  H  H4  1  0.37928700  0.96677300  0.83930900  1
  H  H5  1  0.62071300  0.03322700  0.16069100  1
  H  H6  1  0.87928700  0.03322700  0.16069100  1
  H  H7  1  0.12071300  0.96677300  0.83930900  1
  H  H8  1  0.12071300  0.46677300  0.16069100  1
  H  H9  1  0.87928700  0.53322700  0.83930900  1
  H  H10  1  0.62071300  0.53322700  0.83930900  1
  H  H11  1  0.37928700  0.46677300  0.16069100  1
  H  H12  1  0.25000000  0.87328600  0.58876500  1
  H  H13  1  0.75000000  0.12671400  0.41123500  1
  H  H14  1  0.25000000  0.37328600  0.41123500  1
  H  H15  1  0.75000000  0.62671400  0.58876500  1
  H  H16  1  0.11407700  0.10361500  0.58445600  1
  H  H17  1  0.88592300  0.89638500  0.41554400  1
  H  H18  1  0.61407700  0.89638500  0.41554400  1
  H  H19  1  0.38592300  0.10361500  0.58445600  1
  H  H20  1  0.38592300  0.60361500  0.41554400  1
  H  H21  1  0.61407700  0.39638500  0.58445600  1
  H  H22  1  0.88592300  0.39638500  0.58445600  1
  H  H23  1  0.11407700  0.60361500  0.41554400  1
  C  C24  1  0.25000000  0.02788300  0.62654400  1
  C  C25  1  0.75000000  0.97211700  0.37345600  1
  C  C26  1  0.25000000  0.52788300  0.37345600  1
  C  C27  1  0.75000000  0.47211700  0.62654400  1
  N  N28  1  0.25000000  0.03468300  0.79621700  1
  N  N29  1  0.75000000  0.96531700  0.20378300  1
  N  N30  1  0.25000000  0.53468300  0.20378300  1
  N  N31  1  0.75000000  0.46531700  0.79621700  1
  Cl  Cl32  1  0.25000000  0.00913000  0.18630600  1
  Cl  Cl33  1  0.75000000  0.99087000  0.81369400  1
  Cl  Cl34  1  0.25000000  0.50913000  0.81369400  1
  Cl  Cl35  1  0.75000000  0.49087000  0.18630600  1
