# generated using pymatgen
data_TlCd2Bi
_symmetry_space_group_name_H-M   'P 1'
_cell_length_a   12.17027906
_cell_length_b   12.17027906
_cell_length_c   12.17027906
_cell_angle_alpha   121.54726058
_cell_angle_beta   117.97752514
_cell_angle_gamma   90.43964223
_symmetry_Int_Tables_number   1
_chemical_formula_structural   TlCd2Bi
_chemical_formula_sum   'Tl1 Cd2 Bi1'
_cell_volume   1277.63676352
_cell_formula_units_Z   1
loop_
 _symmetry_equiv_pos_site_id
 _symmetry_equiv_pos_as_xyz
  1  'x, y, z'
loop_
 _atom_site_type_symbol
 _atom_site_label
 _atom_site_symmetry_multiplicity
 _atom_site_fract_x
 _atom_site_fract_y
 _atom_site_fract_z
 _atom_site_occupancy
  Tl  Tl0  1  0.00000000  0.00000000  0.00000000  1
  Cd  Cd1  1  0.00000000  0.25908600  0.25908600  1
  Cd  Cd2  1  0.00000000  0.74091400  0.74091400  1
  Bi  Bi3  1  0.00000000  0.50000000  0.50000000  1
