# generated using pymatgen
data_La2CdAg
_symmetry_space_group_name_H-M   'P 1'
_cell_length_a   11.87921265
_cell_length_b   11.87921265
_cell_length_c   11.87921265
_cell_angle_alpha   120.99596770
_cell_angle_beta   119.08673642
_cell_angle_gamma   89.93635332
_symmetry_Int_Tables_number   1
_chemical_formula_structural   La2CdAg
_chemical_formula_sum   'La2 Cd1 Ag1'
_cell_volume   1184.20040880
_cell_formula_units_Z   1
loop_
 _symmetry_equiv_pos_site_id
 _symmetry_equiv_pos_as_xyz
  1  'x, y, z'
loop_
 _atom_site_type_symbol
 _atom_site_label
 _atom_site_symmetry_multiplicity
 _atom_site_fract_x
 _atom_site_fract_y
 _atom_site_fract_z
 _atom_site_occupancy
  La  La0  1  0.00000000  0.23891800  0.23891800  1
  La  La1  1  0.00000000  0.76108200  0.76108200  1
  Cd  Cd2  1  0.00000000  0.50000000  0.50000000  1
  Ag  Ag3  1  0.00000000  0.00000000  0.00000000  1
