# generated using pymatgen
data_MgInAu2
_symmetry_space_group_name_H-M   'P 1'
_cell_length_a   11.25716140
_cell_length_b   11.25716140
_cell_length_c   11.25716140
_cell_angle_alpha   124.06111949
_cell_angle_beta   118.69668556
_cell_angle_gamma   87.69323864
_symmetry_Int_Tables_number   1
_chemical_formula_structural   MgInAu2
_chemical_formula_sum   'Mg1 In1 Au2'
_cell_volume   983.98472097
_cell_formula_units_Z   1
loop_
 _symmetry_equiv_pos_site_id
 _symmetry_equiv_pos_as_xyz
  1  'x, y, z'
loop_
 _atom_site_type_symbol
 _atom_site_label
 _atom_site_symmetry_multiplicity
 _atom_site_fract_x
 _atom_site_fract_y
 _atom_site_fract_z
 _atom_site_occupancy
  Mg  Mg0  1  0.00000000  0.00000000  0.00000000  1
  In  In1  1  0.00000000  0.50000000  0.50000000  1
  Au  Au2  1  0.00000000  0.24421000  0.24421000  1
  Au  Au3  1  0.00000000  0.75579000  0.75579000  1
