# generated using pymatgen
data_Cs2AuBr
_symmetry_space_group_name_H-M   'P 1'
_cell_length_a   13.30800404
_cell_length_b   13.30800404
_cell_length_c   13.30800404
_cell_angle_alpha   120.18365841
_cell_angle_beta   119.44540879
_cell_angle_gamma   90.32272091
_symmetry_Int_Tables_number   1
_chemical_formula_structural   Cs2AuBr
_chemical_formula_sum   'Cs2 Au1 Br1'
_cell_volume   1671.12794267
_cell_formula_units_Z   1
loop_
 _symmetry_equiv_pos_site_id
 _symmetry_equiv_pos_as_xyz
  1  'x, y, z'
loop_
 _atom_site_type_symbol
 _atom_site_label
 _atom_site_symmetry_multiplicity
 _atom_site_fract_x
 _atom_site_fract_y
 _atom_site_fract_z
 _atom_site_occupancy
  Cs  Cs0  1  0.24990000  0.00000000  0.24990000  1
  Cs  Cs1  1  0.75010000  0.00000000  0.75010000  1
  Au  Au2  1  0.50000000  0.00000000  0.50000000  1
  Br  Br3  1  0.00000000  0.00000000  0.00000000  1
