# generated using pymatgen
data_ZnSiIr2
_symmetry_space_group_name_H-M   'P 1'
_cell_length_a   10.14015182
_cell_length_b   10.14015182
_cell_length_c   10.14015182
_cell_angle_alpha   124.13501094
_cell_angle_beta   119.48968597
_cell_angle_gamma   86.93827479
_symmetry_Int_Tables_number   1
_chemical_formula_structural   ZnSiIr2
_chemical_formula_sum   'Zn1 Si1 Ir2'
_cell_volume   714.37423689
_cell_formula_units_Z   1
loop_
 _symmetry_equiv_pos_site_id
 _symmetry_equiv_pos_as_xyz
  1  'x, y, z'
loop_
 _atom_site_type_symbol
 _atom_site_label
 _atom_site_symmetry_multiplicity
 _atom_site_fract_x
 _atom_site_fract_y
 _atom_site_fract_z
 _atom_site_occupancy
  Zn  Zn0  1  0.00000000  0.50000000  0.50000000  1
  Si  Si1  1  0.00000000  0.00000000  0.00000000  1
  Ir  Ir2  1  0.00000000  0.22706400  0.22706400  1
  Ir  Ir3  1  0.00000000  0.77293600  0.77293600  1
