# generated using pymatgen
data_TiGaAu2
_symmetry_space_group_name_H-M   'P 1'
_cell_length_a   10.72558824
_cell_length_b   10.72558824
_cell_length_c   10.72558824
_cell_angle_alpha   122.56761600
_cell_angle_beta   118.97106310
_cell_angle_gamma   88.70143036
_symmetry_Int_Tables_number   1
_chemical_formula_structural   TiGaAu2
_chemical_formula_sum   'Ti1 Ga1 Au2'
_cell_volume   860.98780996
_cell_formula_units_Z   1
loop_
 _symmetry_equiv_pos_site_id
 _symmetry_equiv_pos_as_xyz
  1  'x, y, z'
loop_
 _atom_site_type_symbol
 _atom_site_label
 _atom_site_symmetry_multiplicity
 _atom_site_fract_x
 _atom_site_fract_y
 _atom_site_fract_z
 _atom_site_occupancy
  Ti  Ti0  1  0.00000000  0.00000000  0.00000000  1
  Ga  Ga1  1  0.00000000  0.50000000  0.50000000  1
  Au  Au2  1  0.00000000  0.25453400  0.25453400  1
  Au  Au3  1  0.00000000  0.74546600  0.74546500  1
