# generated using pymatgen
data_Cd2InBi
_symmetry_space_group_name_H-M   'P 1'
_cell_length_a   12.05358704
_cell_length_b   12.05358704
_cell_length_c   12.05358704
_cell_angle_alpha   121.35448104
_cell_angle_beta   119.42929399
_cell_angle_gamma   89.33074258
_symmetry_Int_Tables_number   1
_chemical_formula_structural   Cd2InBi
_chemical_formula_sum   'Cd2 In1 Bi1'
_cell_volume   1230.45623587
_cell_formula_units_Z   1
loop_
 _symmetry_equiv_pos_site_id
 _symmetry_equiv_pos_as_xyz
  1  'x, y, z'
loop_
 _atom_site_type_symbol
 _atom_site_label
 _atom_site_symmetry_multiplicity
 _atom_site_fract_x
 _atom_site_fract_y
 _atom_site_fract_z
 _atom_site_occupancy
  Cd  Cd0  1  0.00000000  0.25331000  0.25331000  1
  Cd  Cd1  1  0.00000000  0.74669000  0.74669000  1
  In  In2  1  0.00000000  0.00000000  0.00000000  1
  Bi  Bi3  1  0.00000000  0.50000000  0.50000000  1
