# generated using pymatgen
data_Fe2IrRh
_symmetry_space_group_name_H-M   'P 1'
_cell_length_a   9.69513878
_cell_length_b   9.69513878
_cell_length_c   9.69513878
_cell_angle_alpha   124.48729039
_cell_angle_beta   118.58389515
_cell_angle_gamma   87.43983364
_symmetry_Int_Tables_number   1
_chemical_formula_structural   Fe2IrRh
_chemical_formula_sum   'Fe2 Ir1 Rh1'
_cell_volume   626.54088955
_cell_formula_units_Z   1
loop_
 _symmetry_equiv_pos_site_id
 _symmetry_equiv_pos_as_xyz
  1  'x, y, z'
loop_
 _atom_site_type_symbol
 _atom_site_label
 _atom_site_symmetry_multiplicity
 _atom_site_fract_x
 _atom_site_fract_y
 _atom_site_fract_z
 _atom_site_occupancy
  Fe  Fe0  1  0.00000000  0.24998200  0.24998200  1
  Fe  Fe1  1  0.00000000  0.75001800  0.75001800  1
  Ir  Ir2  1  0.00000000  0.50000000  0.50000000  1
  Rh  Rh3  1  0.00000000  0.00000000  0.00000000  1
