# generated using pymatgen
data_MgBiPd2
_symmetry_space_group_name_H-M   'P 1'
_cell_length_a   11.20058024
_cell_length_b   11.20058024
_cell_length_c   11.20058024
_cell_angle_alpha   125.67436539
_cell_angle_beta   118.20352921
_cell_angle_gamma   86.80221713
_symmetry_Int_Tables_number   1
_chemical_formula_structural   MgBiPd2
_chemical_formula_sum   'Mg1 Bi1 Pd2'
_cell_volume   957.34232977
_cell_formula_units_Z   1
loop_
 _symmetry_equiv_pos_site_id
 _symmetry_equiv_pos_as_xyz
  1  'x, y, z'
loop_
 _atom_site_type_symbol
 _atom_site_label
 _atom_site_symmetry_multiplicity
 _atom_site_fract_x
 _atom_site_fract_y
 _atom_site_fract_z
 _atom_site_occupancy
  Mg  Mg0  1  0.00000000  0.00000000  0.00000000  1
  Bi  Bi1  1  0.00000000  0.50000000  0.50000000  1
  Pd  Pd2  1  0.00000000  0.25171300  0.25171300  1
  Pd  Pd3  1  0.00000000  0.74828700  0.74828700  1
