# generated using pymatgen
data_Mn2AlMo
_symmetry_space_group_name_H-M   'P 1'
_cell_length_a   10.54283579
_cell_length_b   10.54283579
_cell_length_c   10.54283579
_cell_angle_alpha   120.60241976
_cell_angle_beta   118.79309327
_cell_angle_gamma   90.53137997
_symmetry_Int_Tables_number   1
_chemical_formula_structural   Mn2AlMo
_chemical_formula_sum   'Mn2 Al1 Mo1'
_cell_volume   832.11391815
_cell_formula_units_Z   1
loop_
 _symmetry_equiv_pos_site_id
 _symmetry_equiv_pos_as_xyz
  1  'x, y, z'
loop_
 _atom_site_type_symbol
 _atom_site_label
 _atom_site_symmetry_multiplicity
 _atom_site_fract_x
 _atom_site_fract_y
 _atom_site_fract_z
 _atom_site_occupancy
  Mn  Mn0  1  0.76912500  0.00000000  0.76912500  1
  Mn  Mn1  1  0.23087500  0.00000000  0.23087500  1
  Al  Al2  1  0.00000000  0.00000000  0.00000000  1
  Mo  Mo3  1  0.50000000  0.00000000  0.50000000  1
