# generated using pymatgen
data_Si2TcIr
_symmetry_space_group_name_H-M   'P 1'
_cell_length_a   9.78347454
_cell_length_b   9.78347454
_cell_length_c   9.78347454
_cell_angle_alpha   124.56728676
_cell_angle_beta   118.49926255
_cell_angle_gamma   87.44828378
_symmetry_Int_Tables_number   1
_chemical_formula_structural   Si2TcIr
_chemical_formula_sum   'Si2 Tc1 Ir1'
_cell_volume   643.72304160
_cell_formula_units_Z   1
loop_
 _symmetry_equiv_pos_site_id
 _symmetry_equiv_pos_as_xyz
  1  'x, y, z'
loop_
 _atom_site_type_symbol
 _atom_site_label
 _atom_site_symmetry_multiplicity
 _atom_site_fract_x
 _atom_site_fract_y
 _atom_site_fract_z
 _atom_site_occupancy
  Si  Si0  1  0.00000000  0.25308100  0.25308100  1
  Si  Si1  1  0.00000000  0.74691900  0.74691900  1
  Tc  Tc2  1  0.00000000  0.00000000  0.00000000  1
  Ir  Ir3  1  0.00000000  0.50000000  0.50000000  1
