# generated using pymatgen
data_NaIn2Bi
_symmetry_space_group_name_H-M   'P 1'
_cell_length_a   12.24252120
_cell_length_b   12.24252120
_cell_length_c   12.24252120
_cell_angle_alpha   123.21707200
_cell_angle_beta   118.81196507
_cell_angle_gamma   88.29524567
_symmetry_Int_Tables_number   1
_chemical_formula_structural   NaIn2Bi
_chemical_formula_sum   'Na1 In2 Bi1'
_cell_volume   1274.51225272
_cell_formula_units_Z   1
loop_
 _symmetry_equiv_pos_site_id
 _symmetry_equiv_pos_as_xyz
  1  'x, y, z'
loop_
 _atom_site_type_symbol
 _atom_site_label
 _atom_site_symmetry_multiplicity
 _atom_site_fract_x
 _atom_site_fract_y
 _atom_site_fract_z
 _atom_site_occupancy
  Na  Na0  1  0.00000000  0.00000000  0.00000000  1
  In  In1  1  0.00000000  0.26591200  0.26591200  1
  In  In2  1  0.00000000  0.73408800  0.73408800  1
  Bi  Bi3  1  0.00000000  0.50000000  0.50000000  1
