# generated using pymatgen
data_HfCuRh2
_symmetry_space_group_name_H-M   'P 1'
_cell_length_a   10.51751213
_cell_length_b   10.51751213
_cell_length_c   10.51751213
_cell_angle_alpha   127.47533396
_cell_angle_beta   117.61654999
_cell_angle_gamma   85.87274959
_symmetry_Int_Tables_number   1
_chemical_formula_structural   HfCuRh2
_chemical_formula_sum   'Hf1 Cu1 Rh2'
_cell_volume   780.76423297
_cell_formula_units_Z   1
loop_
 _symmetry_equiv_pos_site_id
 _symmetry_equiv_pos_as_xyz
  1  'x, y, z'
loop_
 _atom_site_type_symbol
 _atom_site_label
 _atom_site_symmetry_multiplicity
 _atom_site_fract_x
 _atom_site_fract_y
 _atom_site_fract_z
 _atom_site_occupancy
  Hf  Hf0  1  0.00000000  0.50000000  0.50000000  1
  Cu  Cu1  1  0.00000000  0.00000000  0.00000000  1
  Rh  Rh2  1  0.00000000  0.26345700  0.26345700  1
  Rh  Rh3  1  0.00000000  0.73654300  0.73654300  1
