# generated using pymatgen
data_Be2IrRu
_symmetry_space_group_name_H-M   'P 1'
_cell_length_a   9.08638767
_cell_length_b   9.08638767
_cell_length_c   9.08638767
_cell_angle_alpha   124.08780429
_cell_angle_beta   118.50594592
_cell_angle_gamma   87.83870994
_symmetry_Int_Tables_number   1
_chemical_formula_structural   Be2IrRu
_chemical_formula_sum   'Be2 Ir1 Ru1'
_cell_volume   518.05067098
_cell_formula_units_Z   1
loop_
 _symmetry_equiv_pos_site_id
 _symmetry_equiv_pos_as_xyz
  1  'x, y, z'
loop_
 _atom_site_type_symbol
 _atom_site_label
 _atom_site_symmetry_multiplicity
 _atom_site_fract_x
 _atom_site_fract_y
 _atom_site_fract_z
 _atom_site_occupancy
  Be  Be0  1  0.00000000  0.25360400  0.25360400  1
  Be  Be1  1  0.00000000  0.74639600  0.74639600  1
  Ir  Ir2  1  0.00000000  0.50000000  0.50000000  1
  Ru  Ru3  1  0.00000000  0.00000000  0.00000000  1
