# generated using pymatgen
data_TiVW2
_symmetry_space_group_name_H-M   'P 1'
_cell_length_a   10.38398624
_cell_length_b   10.38398624
_cell_length_c   10.38398624
_cell_angle_alpha   129.10802458
_cell_angle_beta   119.64655072
_cell_angle_gamma   82.79425989
_symmetry_Int_Tables_number   1
_chemical_formula_structural   TiVW2
_chemical_formula_sum   'Ti1 V1 W2'
_cell_volume   725.61117779
_cell_formula_units_Z   1
loop_
 _symmetry_equiv_pos_site_id
 _symmetry_equiv_pos_as_xyz
  1  'x, y, z'
loop_
 _atom_site_type_symbol
 _atom_site_label
 _atom_site_symmetry_multiplicity
 _atom_site_fract_x
 _atom_site_fract_y
 _atom_site_fract_z
 _atom_site_occupancy
  Ti  Ti0  1  0.00000000  0.00000000  0.00000000  1
  V  V1  1  0.00000000  0.50000000  0.50000000  1
  W  W2  1  0.00000000  0.25812700  0.25812700  1
  W  W3  1  0.00000000  0.74187300  0.74187300  1
