# generated using pymatgen
data_Mg2CdIn
_symmetry_space_group_name_H-M   'P 1'
_cell_length_a   11.79486239
_cell_length_b   11.79486239
_cell_length_c   11.79486239
_cell_angle_alpha   122.32955730
_cell_angle_beta   119.14549264
_cell_angle_gamma   88.74986020
_symmetry_Int_Tables_number   1
_chemical_formula_structural   Mg2CdIn
_chemical_formula_sum   'Mg2 Cd1 In1'
_cell_volume   1145.91386243
_cell_formula_units_Z   1
loop_
 _symmetry_equiv_pos_site_id
 _symmetry_equiv_pos_as_xyz
  1  'x, y, z'
loop_
 _atom_site_type_symbol
 _atom_site_label
 _atom_site_symmetry_multiplicity
 _atom_site_fract_x
 _atom_site_fract_y
 _atom_site_fract_z
 _atom_site_occupancy
  Mg  Mg0  1  0.00000000  0.24963000  0.24963000  1
  Mg  Mg1  1  0.00000000  0.75037000  0.75037000  1
  Cd  Cd2  1  0.00000000  0.00000000  0.00000000  1
  In  In3  1  0.00000000  0.50000000  0.50000000  1
