# generated using pymatgen
data_NaSr2Cd
_symmetry_space_group_name_H-M   'P 1'
_cell_length_a   14.12663094
_cell_length_b   14.12663094
_cell_length_c   14.12663094
_cell_angle_alpha   120.91675408
_cell_angle_beta   119.72637547
_cell_angle_gamma   89.44705157
_symmetry_Int_Tables_number   1
_chemical_formula_structural   NaSr2Cd
_chemical_formula_sum   'Na1 Sr2 Cd1'
_cell_volume   1983.36924391
_cell_formula_units_Z   1
loop_
 _symmetry_equiv_pos_site_id
 _symmetry_equiv_pos_as_xyz
  1  'x, y, z'
loop_
 _atom_site_type_symbol
 _atom_site_label
 _atom_site_symmetry_multiplicity
 _atom_site_fract_x
 _atom_site_fract_y
 _atom_site_fract_z
 _atom_site_occupancy
  Na  Na0  1  0.00000000  0.00000000  0.00000000  1
  Sr  Sr1  1  0.00000000  0.26538800  0.26538800  1
  Sr  Sr2  1  0.00000000  0.73461200  0.73461200  1
  Cd  Cd3  1  0.00000000  0.50000000  0.50000000  1
