# generated using pymatgen
data_ZnGaAg2
_symmetry_space_group_name_H-M   'P 1'
_cell_length_a   10.63275047
_cell_length_b   10.63275047
_cell_length_c   10.63275047
_cell_angle_alpha   122.56941149
_cell_angle_beta   119.14564787
_cell_angle_gamma   88.54726380
_symmetry_Int_Tables_number   1
_chemical_formula_structural   ZnGaAg2
_chemical_formula_sum   'Zn1 Ga1 Ag2'
_cell_volume   837.72969806
_cell_formula_units_Z   1
loop_
 _symmetry_equiv_pos_site_id
 _symmetry_equiv_pos_as_xyz
  1  'x, y, z'
loop_
 _atom_site_type_symbol
 _atom_site_label
 _atom_site_symmetry_multiplicity
 _atom_site_fract_x
 _atom_site_fract_y
 _atom_site_fract_z
 _atom_site_occupancy
  Zn  Zn0  1  0.00000000  0.00000000  0.00000000  1
  Ga  Ga1  1  0.00000000  0.50000000  0.50000000  1
  Ag  Ag2  1  0.00000000  0.25081600  0.25081600  1
  Ag  Ag3  1  0.00000000  0.74918400  0.74918400  1
