# generated using pymatgen
data_Zn2IrRh
_symmetry_space_group_name_H-M   'P 1'
_cell_length_a   10.19559710
_cell_length_b   10.19559710
_cell_length_c   10.19559710
_cell_angle_alpha   123.26940392
_cell_angle_beta   118.73845163
_cell_angle_gamma   88.31592249
_symmetry_Int_Tables_number   1
_chemical_formula_structural   Zn2IrRh
_chemical_formula_sum   'Zn2 Ir1 Rh1'
_cell_volume   736.20212495
_cell_formula_units_Z   1
loop_
 _symmetry_equiv_pos_site_id
 _symmetry_equiv_pos_as_xyz
  1  'x, y, z'
loop_
 _atom_site_type_symbol
 _atom_site_label
 _atom_site_symmetry_multiplicity
 _atom_site_fract_x
 _atom_site_fract_y
 _atom_site_fract_z
 _atom_site_occupancy
  Zn  Zn0  1  0.00000000  0.25037400  0.25037400  1
  Zn  Zn1  1  0.00000000  0.74962600  0.74962600  1
  Ir  Ir2  1  0.00000000  0.50000000  0.50000000  1
  Rh  Rh3  1  0.00000000  0.00000000  0.00000000  1
