# generated using pymatgen
data_Nb2CrMo
_symmetry_space_group_name_H-M   'P 1'
_cell_length_a   10.51550473
_cell_length_b   10.51550473
_cell_length_c   10.51550473
_cell_angle_alpha   127.03130688
_cell_angle_beta   117.75679661
_cell_angle_gamma   86.10255439
_symmetry_Int_Tables_number   1
_chemical_formula_structural   Nb2CrMo
_chemical_formula_sum   'Nb2 Cr1 Mo1'
_cell_volume   783.38291906
_cell_formula_units_Z   1
loop_
 _symmetry_equiv_pos_site_id
 _symmetry_equiv_pos_as_xyz
  1  'x, y, z'
loop_
 _atom_site_type_symbol
 _atom_site_label
 _atom_site_symmetry_multiplicity
 _atom_site_fract_x
 _atom_site_fract_y
 _atom_site_fract_z
 _atom_site_occupancy
  Nb  Nb0  1  0.00000000  0.26186000  0.26186000  1
  Nb  Nb1  1  0.00000000  0.73814000  0.73814000  1
  Cr  Cr2  1  0.00000000  0.00000000  0.00000000  1
  Mo  Mo3  1  0.00000000  0.50000000  0.50000000  1
