# generated using pymatgen
data_Rb2NaHg
_symmetry_space_group_name_H-M   'P 1'
_cell_length_a   14.63305936
_cell_length_b   14.63305936
_cell_length_c   14.63305936
_cell_angle_alpha   121.38329209
_cell_angle_beta   115.90743241
_cell_angle_gamma   92.42552862
_symmetry_Int_Tables_number   1
_chemical_formula_structural   Rb2NaHg
_chemical_formula_sum   'Rb2 Na1 Hg1'
_cell_volume   2252.64249426
_cell_formula_units_Z   1
loop_
 _symmetry_equiv_pos_site_id
 _symmetry_equiv_pos_as_xyz
  1  'x, y, z'
loop_
 _atom_site_type_symbol
 _atom_site_label
 _atom_site_symmetry_multiplicity
 _atom_site_fract_x
 _atom_site_fract_y
 _atom_site_fract_z
 _atom_site_occupancy
  Rb  Rb0  1  0.24984100  0.00000000  0.24984100  1
  Rb  Rb1  1  0.75015900  0.00000000  0.75015900  1
  Na  Na2  1  0.00000000  0.00000000  0.00000000  1
  Hg  Hg3  1  0.50000000  0.00000000  0.50000000  1
