# generated using pymatgen
data_AlCrOs2
_symmetry_space_group_name_H-M   'P 1'
_cell_length_a   10.15433067
_cell_length_b   10.15433067
_cell_length_c   10.15433067
_cell_angle_alpha   126.87272043
_cell_angle_beta   119.87089240
_cell_angle_gamma   84.37099613
_symmetry_Int_Tables_number   1
_chemical_formula_structural   AlCrOs2
_chemical_formula_sum   'Al1 Cr1 Os2'
_cell_volume   695.22795153
_cell_formula_units_Z   1
loop_
 _symmetry_equiv_pos_site_id
 _symmetry_equiv_pos_as_xyz
  1  'x, y, z'
loop_
 _atom_site_type_symbol
 _atom_site_label
 _atom_site_symmetry_multiplicity
 _atom_site_fract_x
 _atom_site_fract_y
 _atom_site_fract_z
 _atom_site_occupancy
  Al  Al0  1  0.00000000  0.00000000  0.00000000  1
  Cr  Cr1  1  0.00000000  0.50000000  0.50000000  1
  Os  Os2  1  0.00000000  0.26627600  0.26627600  1
  Os  Os3  1  0.00000000  0.73372400  0.73372400  1
