# generated using pymatgen
data_Sc2GaPd
_symmetry_space_group_name_H-M   'P 1'
_cell_length_a   10.84698922
_cell_length_b   10.84698922
_cell_length_c   10.84698922
_cell_angle_alpha   124.65064066
_cell_angle_beta   116.40211104
_cell_angle_gamma   89.24142583
_symmetry_Int_Tables_number   1
_chemical_formula_structural   Sc2GaPd
_chemical_formula_sum   'Sc2 Ga1 Pd1'
_cell_volume   889.26160755
_cell_formula_units_Z   1
loop_
 _symmetry_equiv_pos_site_id
 _symmetry_equiv_pos_as_xyz
  1  'x, y, z'
loop_
 _atom_site_type_symbol
 _atom_site_label
 _atom_site_symmetry_multiplicity
 _atom_site_fract_x
 _atom_site_fract_y
 _atom_site_fract_z
 _atom_site_occupancy
  Sc  Sc0  1  0.00000000  0.26225500  0.26225500  1
  Sc  Sc1  1  0.00000000  0.73774500  0.73774500  1
  Ga  Ga2  1  0.00000000  0.00000000  0.00000000  1
  Pd  Pd3  1  0.00000000  0.50000000  0.50000000  1
