# generated using pymatgen
data_LaMgAu2
_symmetry_space_group_name_H-M   'P 1'
_cell_length_a   13.72486226
_cell_length_b   13.72486226
_cell_length_c   13.72486226
_cell_angle_alpha   130.76857991
_cell_angle_beta   116.73253939
_cell_angle_gamma   84.09774584
_symmetry_Int_Tables_number   1
_chemical_formula_structural   LaMgAu2
_chemical_formula_sum   'La1 Mg1 Au2'
_cell_volume   1677.66360483
_cell_formula_units_Z   1
loop_
 _symmetry_equiv_pos_site_id
 _symmetry_equiv_pos_as_xyz
  1  'x, y, z'
loop_
 _atom_site_type_symbol
 _atom_site_label
 _atom_site_symmetry_multiplicity
 _atom_site_fract_x
 _atom_site_fract_y
 _atom_site_fract_z
 _atom_site_occupancy
  La  La0  1  0.00000000  0.50000000  0.50000000  1
  Mg  Mg1  1  0.00000000  0.00000000  0.00000000  1
  Au  Au2  1  0.00000000  0.25036800  0.25036800  1
  Au  Au3  1  0.00000000  0.74963200  0.74963200  1
