# generated using pymatgen
data_ZnCdAg2
_symmetry_space_group_name_H-M   'P 1'
_cell_length_a   11.34311852
_cell_length_b   11.34311852
_cell_length_c   11.34311852
_cell_angle_alpha   123.98100134
_cell_angle_beta   118.68970328
_cell_angle_gamma   87.76582498
_symmetry_Int_Tables_number   1
_chemical_formula_structural   ZnCdAg2
_chemical_formula_sum   'Zn1 Cd1 Ag2'
_cell_volume   1007.51298315
_cell_formula_units_Z   1
loop_
 _symmetry_equiv_pos_site_id
 _symmetry_equiv_pos_as_xyz
  1  'x, y, z'
loop_
 _atom_site_type_symbol
 _atom_site_label
 _atom_site_symmetry_multiplicity
 _atom_site_fract_x
 _atom_site_fract_y
 _atom_site_fract_z
 _atom_site_occupancy
  Zn  Zn0  1  0.00000000  0.00000000  0.00000000  1
  Cd  Cd1  1  0.00000000  0.50000000  0.50000000  1
  Ag  Ag2  1  0.00000000  0.23783300  0.23783300  1
  Ag  Ag3  1  0.00000000  0.76216700  0.76216700  1
