# generated using pymatgen
data_KNa2P
_symmetry_space_group_name_H-M   'P 1'
_cell_length_a   14.03056377
_cell_length_b   14.03056377
_cell_length_c   14.03056377
_cell_angle_alpha   123.86323853
_cell_angle_beta   119.74680038
_cell_angle_gamma   86.94006996
_symmetry_Int_Tables_number   1
_chemical_formula_structural   KNa2P
_chemical_formula_sum   'K1 Na2 P1'
_cell_volume   1893.53597450
_cell_formula_units_Z   1
loop_
 _symmetry_equiv_pos_site_id
 _symmetry_equiv_pos_as_xyz
  1  'x, y, z'
loop_
 _atom_site_type_symbol
 _atom_site_label
 _atom_site_symmetry_multiplicity
 _atom_site_fract_x
 _atom_site_fract_y
 _atom_site_fract_z
 _atom_site_occupancy
  K  K0  1  0.00000000  0.50000000  0.50000000  1
  Na  Na1  1  0.00000000  0.20210500  0.20210500  1
  Na  Na2  1  0.00000000  0.79789500  0.79789500  1
  P  P3  1  0.00000000  0.00000000  0.00000000  1
