# generated using pymatgen
data_Ca2ZnPb
_symmetry_space_group_name_H-M   'P 1'
_cell_length_a   13.12957408
_cell_length_b   13.12957408
_cell_length_c   13.12957408
_cell_angle_alpha   123.19540899
_cell_angle_beta   118.94186439
_cell_angle_gamma   88.19957894
_symmetry_Int_Tables_number   1
_chemical_formula_structural   Ca2ZnPb
_chemical_formula_sum   'Ca2 Zn1 Pb1'
_cell_volume   1570.91655635
_cell_formula_units_Z   1
loop_
 _symmetry_equiv_pos_site_id
 _symmetry_equiv_pos_as_xyz
  1  'x, y, z'
loop_
 _atom_site_type_symbol
 _atom_site_label
 _atom_site_symmetry_multiplicity
 _atom_site_fract_x
 _atom_site_fract_y
 _atom_site_fract_z
 _atom_site_occupancy
  Ca  Ca0  1  0.00000000  0.25783800  0.25783800  1
  Ca  Ca1  1  0.00000000  0.74216200  0.74216200  1
  Zn  Zn2  1  0.00000000  0.00000000  0.00000000  1
  Pb  Pb3  1  0.00000000  0.50000000  0.50000000  1
