# generated using pymatgen
data_Y2AlCd
_symmetry_space_group_name_H-M   'P 1'
_cell_length_a   12.50540700
_cell_length_b   12.50540700
_cell_length_c   12.50540700
_cell_angle_alpha   121.31772710
_cell_angle_beta   119.68740945
_cell_angle_gamma   89.13759542
_symmetry_Int_Tables_number   1
_chemical_formula_structural   Y2AlCd
_chemical_formula_sum   'Y2 Al1 Cd1'
_cell_volume   1371.83395098
_cell_formula_units_Z   1
loop_
 _symmetry_equiv_pos_site_id
 _symmetry_equiv_pos_as_xyz
  1  'x, y, z'
loop_
 _atom_site_type_symbol
 _atom_site_label
 _atom_site_symmetry_multiplicity
 _atom_site_fract_x
 _atom_site_fract_y
 _atom_site_fract_z
 _atom_site_occupancy
  Y  Y0  1  0.00000000  0.23677900  0.23677900  1
  Y  Y1  1  0.00000000  0.76322100  0.76322100  1
  Al  Al2  1  0.00000000  0.00000000  0.00000000  1
  Cd  Cd3  1  0.00000000  0.50000000  0.50000000  1
