# generated using pymatgen
data_Al2TcAu
_symmetry_space_group_name_H-M   'P 1'
_cell_length_a   10.39563055
_cell_length_b   10.39563055
_cell_length_c   10.39563055
_cell_angle_alpha   123.39087150
_cell_angle_beta   118.89056515
_cell_angle_gamma   88.08103835
_symmetry_Int_Tables_number   1
_chemical_formula_structural   Al2TcAu
_chemical_formula_sum   'Al2 Tc1 Au1'
_cell_volume   778.65558589
_cell_formula_units_Z   1
loop_
 _symmetry_equiv_pos_site_id
 _symmetry_equiv_pos_as_xyz
  1  'x, y, z'
loop_
 _atom_site_type_symbol
 _atom_site_label
 _atom_site_symmetry_multiplicity
 _atom_site_fract_x
 _atom_site_fract_y
 _atom_site_fract_z
 _atom_site_occupancy
  Al  Al0  1  0.00000000  0.24797100  0.24797100  1
  Al  Al1  1  0.00000000  0.75202900  0.75202900  1
  Tc  Tc2  1  0.00000000  0.00000000  0.00000000  1
  Au  Au3  1  0.00000000  0.50000000  0.50000000  1
