# generated using pymatgen
data_Mg2CuIr
_symmetry_space_group_name_H-M   'P 1'
_cell_length_a   10.23378408
_cell_length_b   10.23378408
_cell_length_c   10.23378408
_cell_angle_alpha   121.89641371
_cell_angle_beta   119.05967984
_cell_angle_gamma   89.19178392
_symmetry_Int_Tables_number   1
_chemical_formula_structural   Mg2CuIr
_chemical_formula_sum   'Mg2 Cu1 Ir1'
_cell_volume   751.72450275
_cell_formula_units_Z   1
loop_
 _symmetry_equiv_pos_site_id
 _symmetry_equiv_pos_as_xyz
  1  'x, y, z'
loop_
 _atom_site_type_symbol
 _atom_site_label
 _atom_site_symmetry_multiplicity
 _atom_site_fract_x
 _atom_site_fract_y
 _atom_site_fract_z
 _atom_site_occupancy
  Mg  Mg0  1  0.00000000  0.25213800  0.25213800  1
  Mg  Mg1  1  0.00000000  0.74786200  0.74786200  1
  Cu  Cu2  1  0.00000000  0.00000000  0.00000000  1
  Ir  Ir3  1  0.00000000  0.50000000  0.50000000  1
