# generated using pymatgen
data_Zr2PdAu
_symmetry_space_group_name_H-M   'P 1'
_cell_length_a   11.22902171
_cell_length_b   11.22902171
_cell_length_c   11.22902171
_cell_angle_alpha   124.71655810
_cell_angle_beta   117.05497258
_cell_angle_gamma   88.60400704
_symmetry_Int_Tables_number   1
_chemical_formula_structural   Zr2PdAu
_chemical_formula_sum   'Zr2 Pd1 Au1'
_cell_volume   981.76023012
_cell_formula_units_Z   1
loop_
 _symmetry_equiv_pos_site_id
 _symmetry_equiv_pos_as_xyz
  1  'x, y, z'
loop_
 _atom_site_type_symbol
 _atom_site_label
 _atom_site_symmetry_multiplicity
 _atom_site_fract_x
 _atom_site_fract_y
 _atom_site_fract_z
 _atom_site_occupancy
  Zr  Zr0  1  0.00000000  0.23448100  0.23448100  1
  Zr  Zr1  1  0.00000000  0.76551900  0.76551900  1
  Pd  Pd2  1  0.00000000  0.00000000  0.00000000  1
  Au  Au3  1  0.00000000  0.50000000  0.50000000  1
