# generated using pymatgen
data_Al2TcPd
_symmetry_space_group_name_H-M   'P 1'
_cell_length_a   10.18044784
_cell_length_b   10.18044784
_cell_length_c   10.18044784
_cell_angle_alpha   123.67141460
_cell_angle_beta   118.79859527
_cell_angle_gamma   87.92764811
_symmetry_Int_Tables_number   1
_chemical_formula_structural   Al2TcPd
_chemical_formula_sum   'Al2 Tc1 Pd1'
_cell_volume   729.90242079
_cell_formula_units_Z   1
loop_
 _symmetry_equiv_pos_site_id
 _symmetry_equiv_pos_as_xyz
  1  'x, y, z'
loop_
 _atom_site_type_symbol
 _atom_site_label
 _atom_site_symmetry_multiplicity
 _atom_site_fract_x
 _atom_site_fract_y
 _atom_site_fract_z
 _atom_site_occupancy
  Al  Al0  1  0.00000000  0.25177300  0.25177300  1
  Al  Al1  1  0.00000000  0.74822700  0.74822700  1
  Tc  Tc2  1  0.00000000  0.00000000  0.00000000  1
  Pd  Pd3  1  0.00000000  0.50000000  0.50000000  1
