# generated using pymatgen
data_Nb2TcRh
_symmetry_space_group_name_H-M   'P 1'
_cell_length_a   10.14695635
_cell_length_b   10.14695635
_cell_length_c   10.14695635
_cell_angle_alpha   127.26258749
_cell_angle_beta   116.38572112
_cell_angle_gamma   87.14085469
_symmetry_Int_Tables_number   1
_chemical_formula_structural   Nb2TcRh
_chemical_formula_sum   'Nb2 Tc1 Rh1'
_cell_volume   708.77676118
_cell_formula_units_Z   1
loop_
 _symmetry_equiv_pos_site_id
 _symmetry_equiv_pos_as_xyz
  1  'x, y, z'
loop_
 _atom_site_type_symbol
 _atom_site_label
 _atom_site_symmetry_multiplicity
 _atom_site_fract_x
 _atom_site_fract_y
 _atom_site_fract_z
 _atom_site_occupancy
  Nb  Nb0  1  0.00000000  0.24438400  0.24438400  1
  Nb  Nb1  1  0.00000000  0.75561600  0.75561600  1
  Tc  Tc2  1  0.00000000  0.00000000  0.00000000  1
  Rh  Rh3  1  0.00000000  0.50000000  0.50000000  1
