# generated using pymatgen
data_MgVCuO4
_symmetry_space_group_name_H-M   'P 1'
_cell_length_a   5.26130597
_cell_length_b   5.26130597
_cell_length_c   6.33993100
_cell_angle_alpha   90.00000000
_cell_angle_beta   90.00000000
_cell_angle_gamma   113.15320647
_symmetry_Int_Tables_number   1
_chemical_formula_structural   MgVCuO4
_chemical_formula_sum   'Mg2 V2 Cu2 O8'
_cell_volume   161.36262952
_cell_formula_units_Z   2
loop_
 _symmetry_equiv_pos_site_id
 _symmetry_equiv_pos_as_xyz
  1  'x, y, z'
loop_
 _atom_site_type_symbol
 _atom_site_label
 _atom_site_symmetry_multiplicity
 _atom_site_fract_x
 _atom_site_fract_y
 _atom_site_fract_z
 _atom_site_occupancy
  Mg  Mg0  1  0.00000000  0.00000000  0.00000000  1
  Mg  Mg1  1  0.00000000  0.00000000  0.50000000  1
  V  V2  1  0.35655100  0.64344900  0.25000000  1
  V  V3  1  0.64344900  0.35655100  0.75000000  1
  Cu  Cu4  1  0.66645300  0.33354700  0.25000000  1
  Cu  Cu5  1  0.33354700  0.66645300  0.75000000  1
  O  O6  1  0.22341900  0.27035800  0.25000000  1
  O  O7  1  0.27035800  0.22341900  0.75000000  1
  O  O8  1  0.77658100  0.72964200  0.75000000  1
  O  O9  1  0.72964200  0.77658100  0.25000000  1
  O  O10  1  0.24011700  0.75988300  0.02889700  1
  O  O11  1  0.75988300  0.24011700  0.97110300  1
  O  O12  1  0.24011700  0.75988300  0.47110300  1
  O  O13  1  0.75988300  0.24011700  0.52889700  1
