# generated using pymatgen
data_Mn2NbGa
_symmetry_space_group_name_H-M   'P 1'
_cell_length_a   10.26601768
_cell_length_b   10.26601768
_cell_length_c   10.26601768
_cell_angle_alpha   122.49168864
_cell_angle_beta   119.37873835
_cell_angle_gamma   88.40939753
_symmetry_Int_Tables_number   1
_chemical_formula_structural   Mn2NbGa
_chemical_formula_sum   'Mn2 Nb1 Ga1'
_cell_volume   753.20214264
_cell_formula_units_Z   1
loop_
 _symmetry_equiv_pos_site_id
 _symmetry_equiv_pos_as_xyz
  1  'x, y, z'
loop_
 _atom_site_type_symbol
 _atom_site_label
 _atom_site_symmetry_multiplicity
 _atom_site_fract_x
 _atom_site_fract_y
 _atom_site_fract_z
 _atom_site_occupancy
  Mn  Mn0  1  0.00000000  0.26015700  0.26015700  1
  Mn  Mn1  1  0.00000000  0.73984300  0.73984300  1
  Nb  Nb2  1  0.00000000  0.50000000  0.50000000  1
  Ga  Ga3  1  0.00000000  0.00000000  0.00000000  1
