# generated using pymatgen
data_ZrGeRh2
_symmetry_space_group_name_H-M   'P 1'
_cell_length_a   10.58668843
_cell_length_b   10.58668843
_cell_length_c   10.58668843
_cell_angle_alpha   128.69481458
_cell_angle_beta   117.26869010
_cell_angle_gamma   85.21965976
_symmetry_Int_Tables_number   1
_chemical_formula_structural   ZrGeRh2
_chemical_formula_sum   'Zr1 Ge1 Rh2'
_cell_volume   787.09460515
_cell_formula_units_Z   1
loop_
 _symmetry_equiv_pos_site_id
 _symmetry_equiv_pos_as_xyz
  1  'x, y, z'
loop_
 _atom_site_type_symbol
 _atom_site_label
 _atom_site_symmetry_multiplicity
 _atom_site_fract_x
 _atom_site_fract_y
 _atom_site_fract_z
 _atom_site_occupancy
  Zr  Zr0  1  0.00000000  0.50000000  0.50000000  1
  Ge  Ge1  1  0.00000000  0.00000000  0.00000000  1
  Rh  Rh2  1  0.00000000  0.25857600  0.25857600  1
  Rh  Rh3  1  0.00000000  0.74142400  0.74142400  1
