# generated using pymatgen
data_ScZnAg2
_symmetry_space_group_name_H-M   'P 1'
_cell_length_a   11.52574914
_cell_length_b   11.52574914
_cell_length_c   11.52574914
_cell_angle_alpha   122.89202384
_cell_angle_beta   119.35516395
_cell_angle_gamma   88.09287825
_symmetry_Int_Tables_number   1
_chemical_formula_structural   ScZnAg2
_chemical_formula_sum   'Sc1 Zn1 Ag2'
_cell_volume   1062.31357377
_cell_formula_units_Z   1
loop_
 _symmetry_equiv_pos_site_id
 _symmetry_equiv_pos_as_xyz
  1  'x, y, z'
loop_
 _atom_site_type_symbol
 _atom_site_label
 _atom_site_symmetry_multiplicity
 _atom_site_fract_x
 _atom_site_fract_y
 _atom_site_fract_z
 _atom_site_occupancy
  Sc  Sc0  1  0.00000000  0.00000000  0.00000000  1
  Zn  Zn1  1  0.00000000  0.50000000  0.50000000  1
  Ag  Ag2  1  0.00000000  0.25101000  0.25101000  1
  Ag  Ag3  1  0.00000000  0.74899000  0.74899000  1
