# generated using pymatgen
data_CaSnPd2
_symmetry_space_group_name_H-M   'P 1'
_cell_length_a   11.51078603
_cell_length_b   11.51078603
_cell_length_c   11.51078603
_cell_angle_alpha   128.38641077
_cell_angle_beta   117.38510193
_cell_angle_gamma   85.35792939
_symmetry_Int_Tables_number   1
_chemical_formula_structural   CaSnPd2
_chemical_formula_sum   'Ca1 Sn1 Pd2'
_cell_volume   1014.56460288
_cell_formula_units_Z   1
loop_
 _symmetry_equiv_pos_site_id
 _symmetry_equiv_pos_as_xyz
  1  'x, y, z'
loop_
 _atom_site_type_symbol
 _atom_site_label
 _atom_site_symmetry_multiplicity
 _atom_site_fract_x
 _atom_site_fract_y
 _atom_site_fract_z
 _atom_site_occupancy
  Ca  Ca0  1  0.00000000  0.00000000  0.00000000  1
  Sn  Sn1  1  0.00000000  0.50000000  0.50000000  1
  Pd  Pd2  1  0.00000000  0.24798000  0.24798000  1
  Pd  Pd3  1  0.00000000  0.75202000  0.75202000  1
