# generated using pymatgen
data_LaScTl2
_symmetry_space_group_name_H-M   'P 1'
_cell_length_a   12.49516432
_cell_length_b   12.49516432
_cell_length_c   12.49516432
_cell_angle_alpha   123.09280438
_cell_angle_beta   119.67004062
_cell_angle_gamma   87.65014833
_symmetry_Int_Tables_number   1
_chemical_formula_structural   LaScTl2
_chemical_formula_sum   'La1 Sc1 Tl2'
_cell_volume   1347.84451557
_cell_formula_units_Z   1
loop_
 _symmetry_equiv_pos_site_id
 _symmetry_equiv_pos_as_xyz
  1  'x, y, z'
loop_
 _atom_site_type_symbol
 _atom_site_label
 _atom_site_symmetry_multiplicity
 _atom_site_fract_x
 _atom_site_fract_y
 _atom_site_fract_z
 _atom_site_occupancy
  La  La0  1  0.00000000  0.50000000  0.50000000  1
  Sc  Sc1  1  0.00000000  0.00000000  0.00000000  1
  Tl  Tl2  1  0.00000000  0.24300500  0.24300500  1
  Tl  Tl3  1  0.00000000  0.75699500  0.75699500  1
