# generated using pymatgen
data_BaSrHg2
_symmetry_space_group_name_H-M   'P 1'
_cell_length_a   13.20640490
_cell_length_b   13.20640490
_cell_length_c   13.20640490
_cell_angle_alpha   120.02234628
_cell_angle_beta   112.98566386
_cell_angle_gamma   96.26698083
_symmetry_Int_Tables_number   1
_chemical_formula_structural   BaSrHg2
_chemical_formula_sum   'Ba1 Sr1 Hg2'
_cell_volume   1696.65354420
_cell_formula_units_Z   1
loop_
 _symmetry_equiv_pos_site_id
 _symmetry_equiv_pos_as_xyz
  1  'x, y, z'
loop_
 _atom_site_type_symbol
 _atom_site_label
 _atom_site_symmetry_multiplicity
 _atom_site_fract_x
 _atom_site_fract_y
 _atom_site_fract_z
 _atom_site_occupancy
  Ba  Ba0  1  0.50000000  0.00000000  0.50000000  1
  Sr  Sr1  1  0.00000000  0.00000000  0.00000000  1
  Hg  Hg2  1  0.75476300  0.00000000  0.75476300  1
  Hg  Hg3  1  0.24523700  0.00000000  0.24523700  1
