# generated using pymatgen
data_TiCdRh2
_symmetry_space_group_name_H-M   'P 1'
_cell_length_a   10.67604157
_cell_length_b   10.67604157
_cell_length_c   10.67604157
_cell_angle_alpha   126.04775270
_cell_angle_beta   118.06052088
_cell_angle_gamma   86.62543269
_symmetry_Int_Tables_number   1
_chemical_formula_structural   TiCdRh2
_chemical_formula_sum   'Ti1 Cd1 Rh2'
_cell_volume   826.69338650
_cell_formula_units_Z   1
loop_
 _symmetry_equiv_pos_site_id
 _symmetry_equiv_pos_as_xyz
  1  'x, y, z'
loop_
 _atom_site_type_symbol
 _atom_site_label
 _atom_site_symmetry_multiplicity
 _atom_site_fract_x
 _atom_site_fract_y
 _atom_site_fract_z
 _atom_site_occupancy
  Ti  Ti0  1  0.00000000  0.00000000  0.00000000  1
  Cd  Cd1  1  0.00000000  0.50000000  0.50000000  1
  Rh  Rh2  1  0.00000000  0.21333700  0.21333700  1
  Rh  Rh3  1  0.00000000  0.78666300  0.78666300  1
