# generated using pymatgen
data_CaYZn2
_symmetry_space_group_name_H-M   'P 1'
_cell_length_a   12.12153126
_cell_length_b   12.12153126
_cell_length_c   12.12153126
_cell_angle_alpha   118.66953734
_cell_angle_beta   118.39742014
_cell_angle_gamma   92.55958483
_symmetry_Int_Tables_number   1
_chemical_formula_structural   CaYZn2
_chemical_formula_sum   'Ca1 Y1 Zn2'
_cell_volume   1285.90127462
_cell_formula_units_Z   1
loop_
 _symmetry_equiv_pos_site_id
 _symmetry_equiv_pos_as_xyz
  1  'x, y, z'
loop_
 _atom_site_type_symbol
 _atom_site_label
 _atom_site_symmetry_multiplicity
 _atom_site_fract_x
 _atom_site_fract_y
 _atom_site_fract_z
 _atom_site_occupancy
  Ca  Ca0  1  0.00000000  0.00000000  0.00000000  1
  Y  Y1  1  0.00000000  0.50000000  0.50000000  1
  Zn  Zn2  1  0.00000000  0.25583000  0.25583000  1
  Zn  Zn3  1  0.00000000  0.74417000  0.74417000  1
