# generated using pymatgen
data_HfTiBe2
_symmetry_space_group_name_H-M   'P 1'
_cell_length_a   10.24451935
_cell_length_b   10.24451935
_cell_length_c   10.24451935
_cell_angle_alpha   120.54282833
_cell_angle_beta   119.98140868
_cell_angle_gamma   89.54728696
_symmetry_Int_Tables_number   1
_chemical_formula_structural   HfTiBe2
_chemical_formula_sum   'Hf1 Ti1 Be2'
_cell_volume   757.19520297
_cell_formula_units_Z   1
loop_
 _symmetry_equiv_pos_site_id
 _symmetry_equiv_pos_as_xyz
  1  'x, y, z'
loop_
 _atom_site_type_symbol
 _atom_site_label
 _atom_site_symmetry_multiplicity
 _atom_site_fract_x
 _atom_site_fract_y
 _atom_site_fract_z
 _atom_site_occupancy
  Hf  Hf0  1  0.00000000  0.50000000  0.50000000  1
  Ti  Ti1  1  0.00000000  0.00000000  0.00000000  1
  Be  Be2  1  0.00000000  0.24545000  0.24545000  1
  Be  Be3  1  0.00000000  0.75455000  0.75455000  1
