# generated using pymatgen
data_NaCd2Ag
_symmetry_space_group_name_H-M   'P 1'
_cell_length_a   12.45942869
_cell_length_b   12.45942869
_cell_length_c   12.45942869
_cell_angle_alpha   123.97897293
_cell_angle_beta   118.65419101
_cell_angle_gamma   87.79868942
_symmetry_Int_Tables_number   1
_chemical_formula_structural   NaCd2Ag
_chemical_formula_sum   'Na1 Cd2 Ag1'
_cell_volume   1335.57799436
_cell_formula_units_Z   1
loop_
 _symmetry_equiv_pos_site_id
 _symmetry_equiv_pos_as_xyz
  1  'x, y, z'
loop_
 _atom_site_type_symbol
 _atom_site_label
 _atom_site_symmetry_multiplicity
 _atom_site_fract_x
 _atom_site_fract_y
 _atom_site_fract_z
 _atom_site_occupancy
  Na  Na0  1  0.00000000  0.00000000  0.00000000  1
  Cd  Cd1  1  0.00000000  0.26198300  0.26198300  1
  Cd  Cd2  1  0.00000000  0.73801700  0.73801700  1
  Ag  Ag3  1  0.00000000  0.50000000  0.50000000  1
