# generated using pymatgen
data_TlHg2Bi
_symmetry_space_group_name_H-M   'P 1'
_cell_length_a   12.33756743
_cell_length_b   12.33756743
_cell_length_c   12.33756743
_cell_angle_alpha   123.05567297
_cell_angle_beta   118.15935908
_cell_angle_gamma   89.00419413
_symmetry_Int_Tables_number   1
_chemical_formula_structural   TlHg2Bi
_chemical_formula_sum   'Tl1 Hg2 Bi1'
_cell_volume   1312.44678034
_cell_formula_units_Z   1
loop_
 _symmetry_equiv_pos_site_id
 _symmetry_equiv_pos_as_xyz
  1  'x, y, z'
loop_
 _atom_site_type_symbol
 _atom_site_label
 _atom_site_symmetry_multiplicity
 _atom_site_fract_x
 _atom_site_fract_y
 _atom_site_fract_z
 _atom_site_occupancy
  Tl  Tl0  1  0.00000000  0.00000000  0.00000000  1
  Hg  Hg1  1  0.00000000  0.25555800  0.25555800  1
  Hg  Hg2  1  0.00000000  0.74444200  0.74444200  1
  Bi  Bi3  1  0.00000000  0.50000000  0.50000000  1
