# generated using pymatgen
data_AlZnPd2
_symmetry_space_group_name_H-M   'P 1'
_cell_length_a   10.20359470
_cell_length_b   10.20359470
_cell_length_c   10.20359470
_cell_angle_alpha   124.21706779
_cell_angle_beta   118.62088353
_cell_angle_gamma   87.63062725
_symmetry_Int_Tables_number   1
_chemical_formula_structural   AlZnPd2
_chemical_formula_sum   'Al1 Zn1 Pd2'
_cell_volume   732.08018088
_cell_formula_units_Z   1
loop_
 _symmetry_equiv_pos_site_id
 _symmetry_equiv_pos_as_xyz
  1  'x, y, z'
loop_
 _atom_site_type_symbol
 _atom_site_label
 _atom_site_symmetry_multiplicity
 _atom_site_fract_x
 _atom_site_fract_y
 _atom_site_fract_z
 _atom_site_occupancy
  Al  Al0  1  0.00000000  0.00000000  0.00000000  1
  Zn  Zn1  1  0.00000000  0.50000000  0.50000000  1
  Pd  Pd2  1  0.00000000  0.23720600  0.23720600  1
  Pd  Pd3  1  0.00000000  0.76279400  0.76279400  1
