# generated using pymatgen
data_GaCuNi2
_symmetry_space_group_name_H-M   'P 1'
_cell_length_a   9.04795845
_cell_length_b   9.05370785
_cell_length_c   9.05370834
_cell_angle_alpha   61.20766195
_cell_angle_beta   60.02100676
_cell_angle_gamma   60.02100330
_symmetry_Int_Tables_number   1
_chemical_formula_structural   GaCuNi2
_chemical_formula_sum   'Ga1 Cu1 Ni2'
_cell_volume   529.22033243
_cell_formula_units_Z   1
loop_
 _symmetry_equiv_pos_site_id
 _symmetry_equiv_pos_as_xyz
  1  'x, y, z'
loop_
 _atom_site_type_symbol
 _atom_site_label
 _atom_site_symmetry_multiplicity
 _atom_site_fract_x
 _atom_site_fract_y
 _atom_site_fract_z
 _atom_site_occupancy
  Ga  Ga0  1  0.50000000  0.00000000  0.00000000  1
  Cu  Cu1  1  0.00000000  0.00000000  0.00000000  1
  Ni  Ni2  1  0.74479700  0.00000000  0.00000000  1
  Ni  Ni3  1  0.25520300  0.00000000  0.00000000  1
