# generated using pymatgen
data_AlTc2Mo
_symmetry_space_group_name_H-M   'P 1'
_cell_length_a   10.30555930
_cell_length_b   10.30555930
_cell_length_c   10.30555930
_cell_angle_alpha   125.35797918
_cell_angle_beta   118.46494936
_cell_angle_gamma   86.82968204
_symmetry_Int_Tables_number   1
_chemical_formula_structural   AlTc2Mo
_chemical_formula_sum   'Al1 Tc2 Mo1'
_cell_volume   746.67404383
_cell_formula_units_Z   1
loop_
 _symmetry_equiv_pos_site_id
 _symmetry_equiv_pos_as_xyz
  1  'x, y, z'
loop_
 _atom_site_type_symbol
 _atom_site_label
 _atom_site_symmetry_multiplicity
 _atom_site_fract_x
 _atom_site_fract_y
 _atom_site_fract_z
 _atom_site_occupancy
  Al  Al0  1  0.00000000  0.00000000  0.00000000  1
  Tc  Tc1  1  0.00000000  0.26674900  0.26674900  1
  Tc  Tc2  1  0.00000000  0.73325100  0.73325100  1
  Mo  Mo3  1  0.00000000  0.50000000  0.50000000  1
