# generated using pymatgen
data_CaSbRh2
_symmetry_space_group_name_H-M   'P 1'
_cell_length_a   11.44882623
_cell_length_b   11.44882623
_cell_length_c   11.44882623
_cell_angle_alpha   129.06366333
_cell_angle_beta   120.35903218
_cell_angle_gamma   82.20665852
_symmetry_Int_Tables_number   1
_chemical_formula_structural   CaSbRh2
_chemical_formula_sum   'Ca1 Sb1 Rh2'
_cell_volume   967.21589555
_cell_formula_units_Z   1
loop_
 _symmetry_equiv_pos_site_id
 _symmetry_equiv_pos_as_xyz
  1  'x, y, z'
loop_
 _atom_site_type_symbol
 _atom_site_label
 _atom_site_symmetry_multiplicity
 _atom_site_fract_x
 _atom_site_fract_y
 _atom_site_fract_z
 _atom_site_occupancy
  Ca  Ca0  1  0.00000000  0.00000000  0.00000000  1
  Sb  Sb1  1  0.00000000  0.50000000  0.50000000  1
  Rh  Rh2  1  0.00000000  0.25656400  0.25656400  1
  Rh  Rh3  1  0.00000000  0.74343600  0.74343600  1
