# generated using pymatgen
data_Mn2MoRh
_symmetry_space_group_name_H-M   'P 1'
_cell_length_a   11.59828499
_cell_length_b   11.59828499
_cell_length_c   11.59828499
_cell_angle_alpha   126.53669669
_cell_angle_beta   124.37432242
_cell_angle_gamma   80.79689501
_symmetry_Int_Tables_number   1
_chemical_formula_structural   Mn2MoRh
_chemical_formula_sum   'Mn2 Mo1 Rh1'
_cell_volume   997.48227983
_cell_formula_units_Z   1
loop_
 _symmetry_equiv_pos_site_id
 _symmetry_equiv_pos_as_xyz
  1  'x, y, z'
loop_
 _atom_site_type_symbol
 _atom_site_label
 _atom_site_symmetry_multiplicity
 _atom_site_fract_x
 _atom_site_fract_y
 _atom_site_fract_z
 _atom_site_occupancy
  Mn  Mn0  1  0.00000000  0.27644400  0.27644400  1
  Mn  Mn1  1  0.00000000  0.72355600  0.72355600  1
  Mo  Mo2  1  0.00000000  0.00000000  0.00000000  1
  Rh  Rh3  1  0.00000000  0.50000000  0.50000000  1
