# generated using pymatgen
data_CsHfMg14O15
_symmetry_space_group_name_H-M   'P 1'
_cell_length_a   4.16523900
_cell_length_b   8.39689600
_cell_length_c   11.61623200
_cell_angle_alpha   90.00000000
_cell_angle_beta   90.00000000
_cell_angle_gamma   90.00000000
_symmetry_Int_Tables_number   1
_chemical_formula_structural   CsHfMg14O15
_chemical_formula_sum   'Cs1 Hf1 Mg14 O15'
_cell_volume   406.27862838
_cell_formula_units_Z   1
loop_
 _symmetry_equiv_pos_site_id
 _symmetry_equiv_pos_as_xyz
  1  'x, y, z'
loop_
 _atom_site_type_symbol
 _atom_site_label
 _atom_site_symmetry_multiplicity
 _atom_site_fract_x
 _atom_site_fract_y
 _atom_site_fract_z
 _atom_site_occupancy
  Cs  Cs0  1  0.00000000  0.00000000  0.93325700  1
  Hf  Hf1  1  0.00000000  0.50000000  0.46818600  1
  Mg  Mg2  1  0.00000000  0.50000000  0.04602700  1
  Mg  Mg3  1  0.00000000  0.00000000  0.47530800  1
  Mg  Mg4  1  0.50000000  0.75496200  0.08546100  1
  Mg  Mg5  1  0.50000000  0.24503800  0.08546100  1
  Mg  Mg6  1  0.50000000  0.76023800  0.47138000  1
  Mg  Mg7  1  0.50000000  0.23976200  0.47138000  1
  Mg  Mg8  1  0.50000000  0.00000000  0.66102100  1
  Mg  Mg9  1  0.50000000  0.50000000  0.73035100  1
  Mg  Mg10  1  0.50000000  0.00000000  0.26598000  1
  Mg  Mg11  1  0.50000000  0.50000000  0.25714000  1
  Mg  Mg12  1  0.00000000  0.75203900  0.67327000  1
  Mg  Mg13  1  0.00000000  0.24796100  0.67327000  1
  Mg  Mg14  1  0.00000000  0.76563500  0.25504900  1
  Mg  Mg15  1  0.00000000  0.23436500  0.25504900  1
  O  O16  1  0.00000000  0.00000000  0.66384600  1
  O  O17  1  0.00000000  0.00000000  0.30244400  1
  O  O18  1  0.00000000  0.50000000  0.29531800  1
  O  O19  1  0.50000000  0.75033000  0.67232200  1
  O  O20  1  0.50000000  0.24967000  0.67232200  1
  O  O21  1  0.50000000  0.74860400  0.28398200  1
  O  O22  1  0.50000000  0.25139600  0.28398200  1
  O  O23  1  0.50000000  0.00000000  0.09291200  1
  O  O24  1  0.50000000  0.50000000  0.08422700  1
  O  O25  1  0.50000000  0.00000000  0.48193600  1
  O  O26  1  0.50000000  0.50000000  0.46701500  1
  O  O27  1  0.00000000  0.72984100  0.08497800  1
  O  O28  1  0.00000000  0.27015900  0.08497800  1
  O  O29  1  0.00000000  0.74385300  0.48607200  1
  O  O30  1  0.00000000  0.25614700  0.48607200  1
