# generated using pymatgen
data_BaNa2Sr
_symmetry_space_group_name_H-M   'P 1'
_cell_length_a   15.14814310
_cell_length_b   15.14814310
_cell_length_c   15.14814310
_cell_angle_alpha   120.77712670
_cell_angle_beta   117.93870274
_cell_angle_gamma   91.13300635
_symmetry_Int_Tables_number   1
_chemical_formula_structural   BaNa2Sr
_chemical_formula_sum   'Ba1 Na2 Sr1'
_cell_volume   2479.36558628
_cell_formula_units_Z   1
loop_
 _symmetry_equiv_pos_site_id
 _symmetry_equiv_pos_as_xyz
  1  'x, y, z'
loop_
 _atom_site_type_symbol
 _atom_site_label
 _atom_site_symmetry_multiplicity
 _atom_site_fract_x
 _atom_site_fract_y
 _atom_site_fract_z
 _atom_site_occupancy
  Ba  Ba0  1  0.50000000  0.00000000  0.50000000  1
  Na  Na1  1  0.24691300  0.00000000  0.24691300  1
  Na  Na2  1  0.75308700  0.00000000  0.75308700  1
  Sr  Sr3  1  0.00000000  0.00000000  0.00000000  1
