# generated using pymatgen
data_CsRbMg14O15
_symmetry_space_group_name_H-M   'P 1'
_cell_length_a   4.23986000
_cell_length_b   8.94921700
_cell_length_c   9.59816700
_cell_angle_alpha   90.00000000
_cell_angle_beta   90.00000000
_cell_angle_gamma   90.00000000
_symmetry_Int_Tables_number   1
_chemical_formula_structural   CsRbMg14O15
_chemical_formula_sum   'Cs1 Rb1 Mg14 O15'
_cell_volume   364.18735072
_cell_formula_units_Z   1
loop_
 _symmetry_equiv_pos_site_id
 _symmetry_equiv_pos_as_xyz
  1  'x, y, z'
loop_
 _atom_site_type_symbol
 _atom_site_label
 _atom_site_symmetry_multiplicity
 _atom_site_fract_x
 _atom_site_fract_y
 _atom_site_fract_z
 _atom_site_occupancy
  Cs  Cs0  1  0.00000000  0.50000000  0.88390100  1
  Rb  Rb1  1  0.00000000  0.00000000  0.05505200  1
  Mg  Mg2  1  0.00000000  0.00000000  0.51353600  1
  Mg  Mg3  1  0.00000000  0.50000000  0.47303700  1
  Mg  Mg4  1  0.50000000  0.74996800  0.99106600  1
  Mg  Mg5  1  0.50000000  0.25003200  0.99106600  1
  Mg  Mg6  1  0.50000000  0.74213600  0.49972100  1
  Mg  Mg7  1  0.50000000  0.25786400  0.49972100  1
  Mg  Mg8  1  0.50000000  0.00000000  0.73839800  1
  Mg  Mg9  1  0.50000000  0.50000000  0.70217100  1
  Mg  Mg10  1  0.50000000  0.00000000  0.30451300  1
  Mg  Mg11  1  0.50000000  0.50000000  0.23206700  1
  Mg  Mg12  1  0.00000000  0.78300600  0.74708900  1
  Mg  Mg13  1  0.00000000  0.21699400  0.74708900  1
  Mg  Mg14  1  0.00000000  0.73271700  0.23329700  1
  Mg  Mg15  1  0.00000000  0.26728300  0.23329700  1
  O  O16  1  0.00000000  0.00000000  0.72026700  1
  O  O17  1  0.00000000  0.00000000  0.31254200  1
  O  O18  1  0.00000000  0.50000000  0.27007000  1
  O  O19  1  0.50000000  0.72666000  0.74865200  1
  O  O20  1  0.50000000  0.27334000  0.74865200  1
  O  O21  1  0.50000000  0.75595600  0.26694100  1
  O  O22  1  0.50000000  0.24404400  0.26694100  1
  O  O23  1  0.50000000  0.00000000  0.93725400  1
  O  O24  1  0.50000000  0.50000000  0.02674200  1
  O  O25  1  0.50000000  0.00000000  0.51930100  1
  O  O26  1  0.50000000  0.50000000  0.50054100  1
  O  O27  1  0.00000000  0.73566000  0.01098000  1
  O  O28  1  0.00000000  0.26434000  0.01098000  1
  O  O29  1  0.00000000  0.72720300  0.53255700  1
  O  O30  1  0.00000000  0.27279700  0.53255700  1
