# generated using pymatgen
data_NaMg30BO31
_symmetry_space_group_name_H-M   'P 1'
_cell_length_a   8.45106500
_cell_length_b   8.56892800
_cell_length_c   8.62486500
_cell_angle_alpha   90.00000000
_cell_angle_beta   90.00000000
_cell_angle_gamma   90.00000000
_symmetry_Int_Tables_number   1
_chemical_formula_structural   NaMg30BO31
_chemical_formula_sum   'Na1 Mg30 B1 O31'
_cell_volume   624.58311852
_cell_formula_units_Z   1
loop_
 _symmetry_equiv_pos_site_id
 _symmetry_equiv_pos_as_xyz
  1  'x, y, z'
loop_
 _atom_site_type_symbol
 _atom_site_label
 _atom_site_symmetry_multiplicity
 _atom_site_fract_x
 _atom_site_fract_y
 _atom_site_fract_z
 _atom_site_occupancy
  Na  Na0  1  0.00000000  0.99879300  0.00000000  1
  Mg  Mg1  1  0.00000000  0.99846400  0.50000000  1
  Mg  Mg2  1  0.50000000  0.99742600  0.00000000  1
  Mg  Mg3  1  0.00000000  0.50064300  0.00000000  1
  Mg  Mg4  1  0.00000000  0.50914800  0.50000000  1
  Mg  Mg5  1  0.50000000  0.50145200  0.00000000  1
  Mg  Mg6  1  0.50000000  0.49761700  0.50000000  1
  Mg  Mg7  1  0.74210200  0.99984400  0.75812500  1
  Mg  Mg8  1  0.74210200  0.99984400  0.24187500  1
  Mg  Mg9  1  0.25789800  0.99984400  0.75812500  1
  Mg  Mg10  1  0.25789800  0.99984400  0.24187500  1
  Mg  Mg11  1  0.75011600  0.49954300  0.75095600  1
  Mg  Mg12  1  0.75011600  0.49954300  0.24904400  1
  Mg  Mg13  1  0.24988400  0.49954300  0.75095600  1
  Mg  Mg14  1  0.24988400  0.49954300  0.24904400  1
  Mg  Mg15  1  0.00000000  0.24677300  0.75574700  1
  Mg  Mg16  1  0.00000000  0.24677300  0.24425300  1
  Mg  Mg17  1  0.50000000  0.24753400  0.76197600  1
  Mg  Mg18  1  0.50000000  0.24753400  0.23802400  1
  Mg  Mg19  1  0.00000000  0.75258700  0.75130200  1
  Mg  Mg20  1  0.00000000  0.75258700  0.24869800  1
  Mg  Mg21  1  0.50000000  0.75405100  0.74500600  1
  Mg  Mg22  1  0.50000000  0.75405100  0.25499400  1
  Mg  Mg23  1  0.75201900  0.24880700  0.00000000  1
  Mg  Mg24  1  0.75105000  0.25213900  0.50000000  1
  Mg  Mg25  1  0.24798100  0.24880700  0.00000000  1
  Mg  Mg26  1  0.24895000  0.25213900  0.50000000  1
  Mg  Mg27  1  0.75066900  0.75081800  0.00000000  1
  Mg  Mg28  1  0.73605300  0.74750100  0.50000000  1
  Mg  Mg29  1  0.24933100  0.75081800  0.00000000  1
  Mg  Mg30  1  0.26394700  0.74750100  0.50000000  1
  B  B31  1  0.50000000  0.05578000  0.50000000  1
  O  O32  1  0.00000000  0.26278800  0.00000000  1
  O  O33  1  0.50000000  0.25583000  0.00000000  1
  O  O34  1  0.50000000  0.22827300  0.50000000  1
  O  O35  1  0.00000000  0.73677700  0.00000000  1
  O  O36  1  0.00000000  0.75674500  0.50000000  1
  O  O37  1  0.50000000  0.74436300  0.00000000  1
  O  O38  1  0.50000000  0.72473000  0.50000000  1
  O  O39  1  0.74982100  0.24795800  0.74767400  1
  O  O40  1  0.74982100  0.24795800  0.25232600  1
  O  O41  1  0.25017900  0.24795800  0.74767400  1
  O  O42  1  0.25017900  0.24795800  0.25232600  1
  O  O43  1  0.74960600  0.75177700  0.74647600  1
  O  O44  1  0.74960600  0.75177700  0.25352400  1
  O  O45  1  0.25039400  0.75177700  0.74647600  1
  O  O46  1  0.25039400  0.75177700  0.25352400  1
  O  O47  1  0.00000000  0.99955700  0.72970000  1
  O  O48  1  0.00000000  0.99955700  0.27030000  1
  O  O49  1  0.50000000  0.00378800  0.76489000  1
  O  O50  1  0.50000000  0.00378800  0.23511000  1
  O  O51  1  0.00000000  0.49943500  0.74481500  1
  O  O52  1  0.00000000  0.49943500  0.25518500  1
  O  O53  1  0.50000000  0.49300400  0.74724800  1
  O  O54  1  0.50000000  0.49300400  0.25275200  1
  O  O55  1  0.74047300  0.00007000  0.00000000  1
  O  O56  1  0.66364200  0.00242100  0.50000000  1
  O  O57  1  0.25952700  0.00007000  0.00000000  1
  O  O58  1  0.33635800  0.00242100  0.50000000  1
  O  O59  1  0.74873600  0.49970000  0.00000000  1
  O  O60  1  0.75060100  0.49415700  0.50000000  1
  O  O61  1  0.25126400  0.49970000  0.00000000  1
  O  O62  1  0.24939900  0.49415700  0.50000000  1
