# generated using pymatgen
data_CsMg6BO7
_symmetry_space_group_name_H-M   'P 1'
_cell_length_a   4.26858805
_cell_length_b   4.26858805
_cell_length_c   12.19909824
_cell_angle_alpha   88.72292073
_cell_angle_beta   88.72292073
_cell_angle_gamma   91.04936721
_symmetry_Int_Tables_number   1
_chemical_formula_structural   CsMg6BO7
_chemical_formula_sum   'Cs1 Mg6 B1 O7'
_cell_volume   222.12810539
_cell_formula_units_Z   1
loop_
 _symmetry_equiv_pos_site_id
 _symmetry_equiv_pos_as_xyz
  1  'x, y, z'
loop_
 _atom_site_type_symbol
 _atom_site_label
 _atom_site_symmetry_multiplicity
 _atom_site_fract_x
 _atom_site_fract_y
 _atom_site_fract_z
 _atom_site_occupancy
  Cs  Cs0  1  0.99567400  0.99567400  0.03352100  1
  Mg  Mg1  1  0.99969400  0.99969400  0.54421400  1
  Mg  Mg2  1  0.49675800  0.49675800  0.53430300  1
  Mg  Mg3  1  0.50741400  0.01134900  0.35954500  1
  Mg  Mg4  1  0.49564900  0.97571600  0.72406600  1
  Mg  Mg5  1  0.01134900  0.50741400  0.35954500  1
  Mg  Mg6  1  0.97571600  0.49564900  0.72406600  1
  B  B7  1  0.38604600  0.38604600  0.84686700  1
  O  O8  1  0.99315800  0.99315800  0.70472100  1
  O  O9  1  0.50935000  0.50935000  0.35950800  1
  O  O10  1  0.48863200  0.48863200  0.72536300  1
  O  O11  1  0.53134500  0.13231100  0.88222300  1
  O  O12  1  0.49871600  0.99877000  0.53465300  1
  O  O13  1  0.13231100  0.53134500  0.88222300  1
  O  O14  1  0.99877000  0.49871600  0.53465300  1
