# generated using pymatgen
data_CsKMg6
_symmetry_space_group_name_H-M   'P 1'
_cell_length_a   5.08659200
_cell_length_b   6.83671200
_cell_length_c   8.79539403
_cell_angle_alpha   68.45718460
_cell_angle_beta   90.00000000
_cell_angle_gamma   90.00000000
_symmetry_Int_Tables_number   1
_chemical_formula_structural   CsKMg6
_chemical_formula_sum   'Cs1 K1 Mg6'
_cell_volume   284.49812865
_cell_formula_units_Z   1
loop_
 _symmetry_equiv_pos_site_id
 _symmetry_equiv_pos_as_xyz
  1  'x, y, z'
loop_
 _atom_site_type_symbol
 _atom_site_label
 _atom_site_symmetry_multiplicity
 _atom_site_fract_x
 _atom_site_fract_y
 _atom_site_fract_z
 _atom_site_occupancy
  Cs  Cs0  1  0.00000000  0.81294800  0.87414400  1
  K  K1  1  0.00000000  0.32297200  0.85388400  1
  Mg  Mg2  1  0.00000000  0.32731000  0.34156800  1
  Mg  Mg3  1  0.00000000  0.83140500  0.34255500  1
  Mg  Mg4  1  0.50000000  0.22039500  0.55790800  1
  Mg  Mg5  1  0.50000000  0.72285300  0.55640500  1
  Mg  Mg6  1  0.50000000  0.13543400  0.22837400  1
  Mg  Mg7  1  0.50000000  0.62668300  0.24516300  1
