# generated using pymatgen
data_CsMg30BO31
_symmetry_space_group_name_H-M   'P 1'
_cell_length_a   8.58137800
_cell_length_b   8.65170200
_cell_length_c   8.77200600
_cell_angle_alpha   90.00000000
_cell_angle_beta   90.00000000
_cell_angle_gamma   90.00000000
_symmetry_Int_Tables_number   1
_chemical_formula_structural   CsMg30BO31
_chemical_formula_sum   'Cs1 Mg30 B1 O31'
_cell_volume   651.26464856
_cell_formula_units_Z   1
loop_
 _symmetry_equiv_pos_site_id
 _symmetry_equiv_pos_as_xyz
  1  'x, y, z'
loop_
 _atom_site_type_symbol
 _atom_site_label
 _atom_site_symmetry_multiplicity
 _atom_site_fract_x
 _atom_site_fract_y
 _atom_site_fract_z
 _atom_site_occupancy
  Cs  Cs0  1  0.00000000  0.00000000  0.00936900  1
  Mg  Mg1  1  0.50000000  0.00000000  0.01434100  1
  Mg  Mg2  1  0.00000000  0.50000000  0.99941100  1
  Mg  Mg3  1  0.00000000  0.00000000  0.50543000  1
  Mg  Mg4  1  0.50000000  0.00000000  0.50154700  1
  Mg  Mg5  1  0.00000000  0.50000000  0.50103900  1
  Mg  Mg6  1  0.50000000  0.50000000  0.50292900  1
  Mg  Mg7  1  0.74175400  0.74243500  0.99715800  1
  Mg  Mg8  1  0.25824600  0.74243500  0.99715800  1
  Mg  Mg9  1  0.74175400  0.25756500  0.99715800  1
  Mg  Mg10  1  0.25824600  0.25756500  0.99715800  1
  Mg  Mg11  1  0.74922000  0.74898400  0.50101200  1
  Mg  Mg12  1  0.25078000  0.74898400  0.50101200  1
  Mg  Mg13  1  0.74922000  0.25101600  0.50101200  1
  Mg  Mg14  1  0.25078000  0.25101600  0.50101200  1
  Mg  Mg15  1  0.74564600  0.00000000  0.74517200  1
  Mg  Mg16  1  0.25435400  0.00000000  0.74517200  1
  Mg  Mg17  1  0.74263500  0.50000000  0.74850900  1
  Mg  Mg18  1  0.25736500  0.50000000  0.74850900  1
  Mg  Mg19  1  0.75002800  0.00000000  0.26184600  1
  Mg  Mg20  1  0.24997200  0.00000000  0.26184600  1
  Mg  Mg21  1  0.75346300  0.50000000  0.25002000  1
  Mg  Mg22  1  0.24653700  0.50000000  0.25002000  1
  Mg  Mg23  1  0.00000000  0.74400300  0.74571900  1
  Mg  Mg24  1  0.50000000  0.73645000  0.75193400  1
  Mg  Mg25  1  0.00000000  0.25599700  0.74571900  1
  Mg  Mg26  1  0.50000000  0.26355000  0.75193400  1
  Mg  Mg27  1  0.00000000  0.74636200  0.25726000  1
  Mg  Mg28  1  0.50000000  0.75136900  0.25064400  1
  Mg  Mg29  1  0.00000000  0.25363800  0.25726000  1
  Mg  Mg30  1  0.50000000  0.24863100  0.25064400  1
  B  B31  1  0.50000000  0.50000000  0.04910500  1
  O  O32  1  0.00000000  0.00000000  0.72033700  1
  O  O33  1  0.00000000  0.50000000  0.74537400  1
  O  O34  1  0.50000000  0.50000000  0.72880500  1
  O  O35  1  0.00000000  0.00000000  0.29119600  1
  O  O36  1  0.50000000  0.00000000  0.25193800  1
  O  O37  1  0.00000000  0.50000000  0.25133200  1
  O  O38  1  0.50000000  0.50000000  0.21943100  1
  O  O39  1  0.74952800  0.74500200  0.74968400  1
  O  O40  1  0.25047200  0.74500200  0.74968400  1
  O  O41  1  0.74952800  0.25499800  0.74968400  1
  O  O42  1  0.25047200  0.25499800  0.74968400  1
  O  O43  1  0.75040000  0.75136600  0.24727200  1
  O  O44  1  0.24960000  0.75136600  0.24727200  1
  O  O45  1  0.75040000  0.24863400  0.24727200  1
  O  O46  1  0.24960000  0.24863400  0.24727200  1
  O  O47  1  0.71150400  0.00000000  0.98450000  1
  O  O48  1  0.28849600  0.00000000  0.98450000  1
  O  O49  1  0.70463000  0.50000000  0.00601700  1
  O  O50  1  0.29537000  0.50000000  0.00601700  1
  O  O51  1  0.74280300  0.00000000  0.50086200  1
  O  O52  1  0.25719700  0.00000000  0.50086200  1
  O  O53  1  0.74660000  0.50000000  0.49187000  1
  O  O54  1  0.25340000  0.50000000  0.49187000  1
  O  O55  1  0.00000000  0.71262200  0.99626100  1
  O  O56  1  0.50000000  0.70882400  0.00767700  1
  O  O57  1  0.00000000  0.28737800  0.99626100  1
  O  O58  1  0.50000000  0.29117600  0.00767700  1
  O  O59  1  0.00000000  0.74152400  0.50048400  1
  O  O60  1  0.50000000  0.74374000  0.49018200  1
  O  O61  1  0.00000000  0.25847600  0.50048400  1
  O  O62  1  0.50000000  0.25626000  0.49018200  1
