# generated using pymatgen
data_Ba2AgAu
_symmetry_space_group_name_H-M   'P 1'
_cell_length_a   13.39962410
_cell_length_b   13.39962410
_cell_length_c   13.39962410
_cell_angle_alpha   121.91339628
_cell_angle_beta   119.37329957
_cell_angle_gamma   88.90360566
_symmetry_Int_Tables_number   1
_chemical_formula_structural   Ba2AgAu
_chemical_formula_sum   'Ba2 Ag1 Au1'
_cell_volume   1683.29216013
_cell_formula_units_Z   1
loop_
 _symmetry_equiv_pos_site_id
 _symmetry_equiv_pos_as_xyz
  1  'x, y, z'
loop_
 _atom_site_type_symbol
 _atom_site_label
 _atom_site_symmetry_multiplicity
 _atom_site_fract_x
 _atom_site_fract_y
 _atom_site_fract_z
 _atom_site_occupancy
  Ba  Ba0  1  0.00000000  0.25551000  0.25551000  1
  Ba  Ba1  1  0.00000000  0.74449000  0.74449000  1
  Ag  Ag2  1  0.00000000  0.00000000  0.00000000  1
  Au  Au3  1  0.00000000  0.50000000  0.50000000  1
