# generated using pymatgen
data_RbMg6C
_symmetry_space_group_name_H-M   'P 1'
_cell_length_a   11.60956887
_cell_length_b   11.60956887
_cell_length_c   3.41717500
_cell_angle_alpha   90.00000000
_cell_angle_beta   90.00000000
_cell_angle_gamma   150.98511378
_symmetry_Int_Tables_number   1
_chemical_formula_structural   RbMg6C
_chemical_formula_sum   'Rb1 Mg6 C1'
_cell_volume   223.39535180
_cell_formula_units_Z   1
loop_
 _symmetry_equiv_pos_site_id
 _symmetry_equiv_pos_as_xyz
  1  'x, y, z'
loop_
 _atom_site_type_symbol
 _atom_site_label
 _atom_site_symmetry_multiplicity
 _atom_site_fract_x
 _atom_site_fract_y
 _atom_site_fract_z
 _atom_site_occupancy
  Rb  Rb0  1  0.78621000  0.21379000  0.50000000  1
  Mg  Mg1  1  0.29771300  0.21097400  0.50000000  1
  Mg  Mg2  1  0.78902600  0.70228700  0.50000000  1
  Mg  Mg3  1  0.19807800  0.32871900  0.00000000  1
  Mg  Mg4  1  0.67128100  0.80192200  0.00000000  1
  Mg  Mg5  1  0.63990800  0.36009200  0.00000000  1
  Mg  Mg6  1  0.15628700  0.84371300  0.00000000  1
  C  C7  1  0.46150200  0.53849800  0.50000000  1
