# generated using pymatgen
data_NbMo2W
_symmetry_space_group_name_H-M   'P 1'
_cell_length_a   9.94640040
_cell_length_b   9.94640040
_cell_length_c   9.94640040
_cell_angle_alpha   124.91910065
_cell_angle_beta   113.37359823
_cell_angle_gamma   91.76818752
_symmetry_Int_Tables_number   1
_chemical_formula_structural   NbMo2W
_chemical_formula_sum   'Nb1 Mo2 W1'
_cell_volume   695.78292338
_cell_formula_units_Z   1
loop_
 _symmetry_equiv_pos_site_id
 _symmetry_equiv_pos_as_xyz
  1  'x, y, z'
loop_
 _atom_site_type_symbol
 _atom_site_label
 _atom_site_symmetry_multiplicity
 _atom_site_fract_x
 _atom_site_fract_y
 _atom_site_fract_z
 _atom_site_occupancy
  Nb  Nb0  1  0.00000000  0.00000000  0.00000000  1
  Mo  Mo1  1  0.00000000  0.25023000  0.25023000  1
  Mo  Mo2  1  0.00000000  0.74977000  0.74977000  1
  W  W3  1  0.00000000  0.50000000  0.50000000  1
