# generated using pymatgen
data_NaMg2Cd
_symmetry_space_group_name_H-M   'P 1'
_cell_length_a   12.59091876
_cell_length_b   12.59091876
_cell_length_c   12.59091876
_cell_angle_alpha   120.54060285
_cell_angle_beta   119.80655313
_cell_angle_gamma   89.70079783
_symmetry_Int_Tables_number   1
_chemical_formula_structural   NaMg2Cd
_chemical_formula_sum   'Na1 Mg2 Cd1'
_cell_volume   1407.62672625
_cell_formula_units_Z   1
loop_
 _symmetry_equiv_pos_site_id
 _symmetry_equiv_pos_as_xyz
  1  'x, y, z'
loop_
 _atom_site_type_symbol
 _atom_site_label
 _atom_site_symmetry_multiplicity
 _atom_site_fract_x
 _atom_site_fract_y
 _atom_site_fract_z
 _atom_site_occupancy
  Na  Na0  1  0.00000000  0.00000000  0.00000000  1
  Mg  Mg1  1  0.00000000  0.25447900  0.25447900  1
  Mg  Mg2  1  0.00000000  0.74552100  0.74552100  1
  Cd  Cd3  1  0.00000000  0.50000000  0.50000000  1
