# generated using pymatgen
data_MgAsPd2
_symmetry_space_group_name_H-M   'P 1'
_cell_length_a   10.74146940
_cell_length_b   10.74146940
_cell_length_c   10.74146940
_cell_angle_alpha   125.60645771
_cell_angle_beta   117.93770749
_cell_angle_gamma   87.09236951
_symmetry_Int_Tables_number   1
_chemical_formula_structural   MgAsPd2
_chemical_formula_sum   'Mg1 As1 Pd2'
_cell_volume   846.59254514
_cell_formula_units_Z   1
loop_
 _symmetry_equiv_pos_site_id
 _symmetry_equiv_pos_as_xyz
  1  'x, y, z'
loop_
 _atom_site_type_symbol
 _atom_site_label
 _atom_site_symmetry_multiplicity
 _atom_site_fract_x
 _atom_site_fract_y
 _atom_site_fract_z
 _atom_site_occupancy
  Mg  Mg0  1  0.00000000  0.00000000  0.00000000  1
  As  As1  1  0.00000000  0.50000000  0.50000000  1
  Pd  Pd2  1  0.00000000  0.26823600  0.26823600  1
  Pd  Pd3  1  0.00000000  0.73176400  0.73176400  1
