# generated using pymatgen
data_AlTc2W
_symmetry_space_group_name_H-M   'P 1'
_cell_length_a   10.36719607
_cell_length_b   10.36719607
_cell_length_c   10.36719607
_cell_angle_alpha   125.77931787
_cell_angle_beta   118.28438000
_cell_angle_gamma   86.64553481
_symmetry_Int_Tables_number   1
_chemical_formula_structural   AlTc2W
_chemical_formula_sum   'Al1 Tc2 W1'
_cell_volume   757.88257329
_cell_formula_units_Z   1
loop_
 _symmetry_equiv_pos_site_id
 _symmetry_equiv_pos_as_xyz
  1  'x, y, z'
loop_
 _atom_site_type_symbol
 _atom_site_label
 _atom_site_symmetry_multiplicity
 _atom_site_fract_x
 _atom_site_fract_y
 _atom_site_fract_z
 _atom_site_occupancy
  Al  Al0  1  0.00000000  0.00000000  0.00000000  1
  Tc  Tc1  1  0.00000000  0.26567800  0.26567800  1
  Tc  Tc2  1  0.00000000  0.73432200  0.73432200  1
  W  W3  1  0.00000000  0.50000000  0.50000000  1
