# generated using pymatgen
data_CrN2
_symmetry_space_group_name_H-M   'P 1'
_cell_length_a   5.65972306
_cell_length_b   5.65972306
_cell_length_c   9.19354100
_cell_angle_alpha   90.00000000
_cell_angle_beta   90.00000000
_cell_angle_gamma   119.98348272
_symmetry_Int_Tables_number   1
_chemical_formula_structural   CrN2
_chemical_formula_sum   'Cr4 N8'
_cell_volume   255.07980148
_cell_formula_units_Z   4
loop_
 _symmetry_equiv_pos_site_id
 _symmetry_equiv_pos_as_xyz
  1  'x, y, z'
loop_
 _atom_site_type_symbol
 _atom_site_label
 _atom_site_symmetry_multiplicity
 _atom_site_fract_x
 _atom_site_fract_y
 _atom_site_fract_z
 _atom_site_occupancy
  Cr  Cr0  1  0.83687800  0.17011600  0.56165100  1
  Cr  Cr1  1  0.17011600  0.83687800  0.43834900  1
  Cr  Cr2  1  0.16312200  0.82988400  0.06165100  1
  Cr  Cr3  1  0.82988400  0.16312200  0.93834900  1
  N  N4  1  0.83159200  0.16840800  0.75000000  1
  N  N5  1  0.16840800  0.83159200  0.25000000  1
  N  N6  1  0.98114300  0.98114300  0.00000000  1
  N  N7  1  0.02678700  0.50788200  0.00277400  1
  N  N8  1  0.50788200  0.02678700  0.99722600  1
  N  N9  1  0.01885700  0.01885700  0.50000000  1
  N  N10  1  0.97321300  0.49211800  0.50277400  1
  N  N11  1  0.49211800  0.97321300  0.49722600  1
