# generated using pymatgen
data_TaMoW2
_symmetry_space_group_name_H-M   'P 1'
_cell_length_a   10.61778542
_cell_length_b   10.61778542
_cell_length_c   10.61778542
_cell_angle_alpha   129.04368109
_cell_angle_beta   117.33350591
_cell_angle_gamma   84.88921309
_symmetry_Int_Tables_number   1
_chemical_formula_structural   TaMoW2
_chemical_formula_sum   'Ta1 Mo1 W2'
_cell_volume   790.36903715
_cell_formula_units_Z   1
loop_
 _symmetry_equiv_pos_site_id
 _symmetry_equiv_pos_as_xyz
  1  'x, y, z'
loop_
 _atom_site_type_symbol
 _atom_site_label
 _atom_site_symmetry_multiplicity
 _atom_site_fract_x
 _atom_site_fract_y
 _atom_site_fract_z
 _atom_site_occupancy
  Ta  Ta0  1  0.00000000  0.50000000  0.50000000  1
  Mo  Mo1  1  0.00000000  0.00000000  0.00000000  1
  W  W2  1  0.00000000  0.24419000  0.24419000  1
  W  W3  1  0.00000000  0.75581000  0.75581000  1
