# generated using pymatgen
data_CaLaPd2
_symmetry_space_group_name_H-M   'P 1'
_cell_length_a   11.61280156
_cell_length_b   11.61280156
_cell_length_c   11.61280156
_cell_angle_alpha   123.66910897
_cell_angle_beta   118.41098423
_cell_angle_gamma   88.27005567
_symmetry_Int_Tables_number   1
_chemical_formula_structural   CaLaPd2
_chemical_formula_sum   'Ca1 La1 Pd2'
_cell_volume   1086.45189866
_cell_formula_units_Z   1
loop_
 _symmetry_equiv_pos_site_id
 _symmetry_equiv_pos_as_xyz
  1  'x, y, z'
loop_
 _atom_site_type_symbol
 _atom_site_label
 _atom_site_symmetry_multiplicity
 _atom_site_fract_x
 _atom_site_fract_y
 _atom_site_fract_z
 _atom_site_occupancy
  Ca  Ca0  1  0.00000000  0.00000000  0.00000000  1
  La  La1  1  0.00000000  0.50000000  0.50000000  1
  Pd  Pd2  1  0.00000000  0.27914000  0.27914000  1
  Pd  Pd3  1  0.00000000  0.72086000  0.72086000  1
