# generated using pymatgen
data_RbMg6Si
_symmetry_space_group_name_H-M   'P 1'
_cell_length_a   7.84708865
_cell_length_b   7.84708865
_cell_length_c   4.56417300
_cell_angle_alpha   90.00000000
_cell_angle_beta   90.00000000
_cell_angle_gamma   127.44456159
_symmetry_Int_Tables_number   1
_chemical_formula_structural   RbMg6Si
_chemical_formula_sum   'Rb1 Mg6 Si1'
_cell_volume   223.13515036
_cell_formula_units_Z   1
loop_
 _symmetry_equiv_pos_site_id
 _symmetry_equiv_pos_as_xyz
  1  'x, y, z'
loop_
 _atom_site_type_symbol
 _atom_site_label
 _atom_site_symmetry_multiplicity
 _atom_site_fract_x
 _atom_site_fract_y
 _atom_site_fract_z
 _atom_site_occupancy
  Rb  Rb0  1  0.30869000  0.69131000  0.50000000  1
  Mg  Mg1  1  0.16462600  0.26642200  0.00000000  1
  Mg  Mg2  1  0.73357800  0.83537400  0.00000000  1
  Mg  Mg3  1  0.67259300  0.32740700  0.00000000  1
  Mg  Mg4  1  0.32867500  0.14828500  0.50000000  1
  Mg  Mg5  1  0.85171500  0.67132500  0.50000000  1
  Mg  Mg6  1  0.82615600  0.17384400  0.50000000  1
  Si  Si7  1  0.11396600  0.88603400  0.00000000  1
