# generated using pymatgen
data_CsMg30BO31
_symmetry_space_group_name_H-M   'P 1'
_cell_length_a   8.43332200
_cell_length_b   8.62181900
_cell_length_c   8.92104200
_cell_angle_alpha   90.00000000
_cell_angle_beta   90.00000000
_cell_angle_gamma   90.00000000
_symmetry_Int_Tables_number   1
_chemical_formula_structural   CsMg30BO31
_chemical_formula_sum   'Cs1 Mg30 B1 O31'
_cell_volume   648.65410103
_cell_formula_units_Z   1
loop_
 _symmetry_equiv_pos_site_id
 _symmetry_equiv_pos_as_xyz
  1  'x, y, z'
loop_
 _atom_site_type_symbol
 _atom_site_label
 _atom_site_symmetry_multiplicity
 _atom_site_fract_x
 _atom_site_fract_y
 _atom_site_fract_z
 _atom_site_occupancy
  Cs  Cs0  1  0.00000000  0.97482600  0.00000000  1
  Mg  Mg1  1  0.00000000  0.00389400  0.50000000  1
  Mg  Mg2  1  0.50000000  0.99808100  0.50000000  1
  Mg  Mg3  1  0.00000000  0.51158100  0.00000000  1
  Mg  Mg4  1  0.50000000  0.49101900  0.00000000  1
  Mg  Mg5  1  0.00000000  0.49739200  0.50000000  1
  Mg  Mg6  1  0.50000000  0.50176200  0.50000000  1
  Mg  Mg7  1  0.25774400  0.00093800  0.26658400  1
  Mg  Mg8  1  0.74225600  0.00093800  0.26658400  1
  Mg  Mg9  1  0.25774400  0.00093800  0.73341600  1
  Mg  Mg10  1  0.74225600  0.00093800  0.73341600  1
  Mg  Mg11  1  0.25068800  0.49840700  0.25118900  1
  Mg  Mg12  1  0.74931200  0.49840700  0.25118900  1
  Mg  Mg13  1  0.25068800  0.49840700  0.74881100  1
  Mg  Mg14  1  0.74931200  0.49840700  0.74881100  1
  Mg  Mg15  1  0.26900200  0.73417800  0.00000000  1
  Mg  Mg16  1  0.73099800  0.73417800  0.00000000  1
  Mg  Mg17  1  0.25340600  0.74805100  0.50000000  1
  Mg  Mg18  1  0.74659400  0.74805100  0.50000000  1
  Mg  Mg19  1  0.24485700  0.25712200  0.00000000  1
  Mg  Mg20  1  0.75514300  0.25712200  0.00000000  1
  Mg  Mg21  1  0.24860200  0.25227700  0.50000000  1
  Mg  Mg22  1  0.75139800  0.25227700  0.50000000  1
  Mg  Mg23  1  0.00000000  0.74300500  0.26634000  1
  Mg  Mg24  1  0.50000000  0.75525400  0.24360800  1
  Mg  Mg25  1  0.00000000  0.74300500  0.73366000  1
  Mg  Mg26  1  0.50000000  0.75525400  0.75639200  1
  Mg  Mg27  1  0.00000000  0.25296600  0.25485100  1
  Mg  Mg28  1  0.50000000  0.24745400  0.26312500  1
  Mg  Mg29  1  0.00000000  0.25296600  0.74514900  1
  Mg  Mg30  1  0.50000000  0.24745400  0.73687500  1
  B  B31  1  0.50000000  0.06427800  0.00000000  1
  O  O32  1  0.50000000  0.72090200  0.00000000  1
  O  O33  1  0.00000000  0.74363800  0.50000000  1
  O  O34  1  0.50000000  0.74517500  0.50000000  1
  O  O35  1  0.00000000  0.27806000  0.00000000  1
  O  O36  1  0.50000000  0.23513200  0.00000000  1
  O  O37  1  0.00000000  0.25561700  0.50000000  1
  O  O38  1  0.50000000  0.25525700  0.50000000  1
  O  O39  1  0.25054400  0.75314600  0.24861600  1
  O  O40  1  0.74945600  0.75314600  0.24861600  1
  O  O41  1  0.25054400  0.75314600  0.75138400  1
  O  O42  1  0.74945600  0.75314600  0.75138400  1
  O  O43  1  0.25003100  0.24717800  0.24740000  1
  O  O44  1  0.74996900  0.24717800  0.24740000  1
  O  O45  1  0.25003100  0.24717800  0.75260000  1
  O  O46  1  0.74996900  0.24717800  0.75260000  1
  O  O47  1  0.34202900  0.00740100  0.00000000  1
  O  O48  1  0.65797100  0.00740100  0.00000000  1
  O  O49  1  0.25183400  0.00105600  0.50000000  1
  O  O50  1  0.74816600  0.00105600  0.50000000  1
  O  O51  1  0.25754100  0.49191000  0.00000000  1
  O  O52  1  0.74245900  0.49191000  0.00000000  1
  O  O53  1  0.25154100  0.49953400  0.50000000  1
  O  O54  1  0.74845900  0.49953400  0.50000000  1
  O  O55  1  0.00000000  0.00291800  0.28138600  1
  O  O56  1  0.50000000  0.00293300  0.27484500  1
  O  O57  1  0.00000000  0.00291800  0.71861400  1
  O  O58  1  0.50000000  0.00293300  0.72515500  1
  O  O59  1  0.00000000  0.49796700  0.26094400  1
  O  O60  1  0.50000000  0.49333100  0.25117200  1
  O  O61  1  0.00000000  0.49796700  0.73905600  1
  O  O62  1  0.50000000  0.49333100  0.74882800  1
