# generated using pymatgen
data_CeMg14Cu
_symmetry_space_group_name_H-M   'P 1'
_cell_length_a   6.46322608
_cell_length_b   6.46322608
_cell_length_c   10.06903200
_cell_angle_alpha   90.00000000
_cell_angle_beta   90.00000000
_cell_angle_gamma   120.00000083
_symmetry_Int_Tables_number   1
_chemical_formula_structural   CeMg14Cu
_chemical_formula_sum   'Ce1 Mg14 Cu1'
_cell_volume   364.26466439
_cell_formula_units_Z   1
loop_
 _symmetry_equiv_pos_site_id
 _symmetry_equiv_pos_as_xyz
  1  'x, y, z'
loop_
 _atom_site_type_symbol
 _atom_site_label
 _atom_site_symmetry_multiplicity
 _atom_site_fract_x
 _atom_site_fract_y
 _atom_site_fract_z
 _atom_site_occupancy
  Ce  Ce0  1  0.00000000  0.00000000  0.50000000  1
  Mg  Mg1  1  0.99722500  0.49861200  0.00000000  1
  Mg  Mg2  1  0.01337400  0.50668700  0.50000000  1
  Mg  Mg3  1  0.50138800  0.00277500  0.00000000  1
  Mg  Mg4  1  0.49331300  0.98662600  0.50000000  1
  Mg  Mg5  1  0.50138800  0.49861200  0.00000000  1
  Mg  Mg6  1  0.49331300  0.50668700  0.50000000  1
  Mg  Mg7  1  0.16381000  0.83619000  0.23745400  1
  Mg  Mg8  1  0.16381000  0.83619000  0.76254600  1
  Mg  Mg9  1  0.16381000  0.32761900  0.23745400  1
  Mg  Mg10  1  0.16381000  0.32761900  0.76254600  1
  Mg  Mg11  1  0.67238100  0.83619000  0.23745400  1
  Mg  Mg12  1  0.67238100  0.83619000  0.76254600  1
  Mg  Mg13  1  0.66666700  0.33333300  0.25733200  1
  Mg  Mg14  1  0.66666700  0.33333300  0.74266800  1
  Cu  Cu15  1  0.00000000  0.00000000  0.00000000  1
