# generated using pymatgen
data_Mg14CoSn
_symmetry_space_group_name_H-M   'P 1'
_cell_length_a   6.20582156
_cell_length_b   6.20582156
_cell_length_c   10.24417600
_cell_angle_alpha   90.00000000
_cell_angle_beta   90.00000000
_cell_angle_gamma   119.99999535
_symmetry_Int_Tables_number   1
_chemical_formula_structural   Mg14CoSn
_chemical_formula_sum   'Mg14 Co1 Sn1'
_cell_volume   341.66953107
_cell_formula_units_Z   1
loop_
 _symmetry_equiv_pos_site_id
 _symmetry_equiv_pos_as_xyz
  1  'x, y, z'
loop_
 _atom_site_type_symbol
 _atom_site_label
 _atom_site_symmetry_multiplicity
 _atom_site_fract_x
 _atom_site_fract_y
 _atom_site_fract_z
 _atom_site_occupancy
  Mg  Mg0  1  0.99645600  0.49822800  0.00000000  1
  Mg  Mg1  1  0.00026000  0.50013000  0.50000000  1
  Mg  Mg2  1  0.50177200  0.00354400  0.00000000  1
  Mg  Mg3  1  0.49987000  0.99974000  0.50000000  1
  Mg  Mg4  1  0.50177200  0.49822800  0.00000000  1
  Mg  Mg5  1  0.49987000  0.50013000  0.50000000  1
  Mg  Mg6  1  0.16162600  0.83837400  0.23767000  1
  Mg  Mg7  1  0.16162600  0.83837400  0.76233000  1
  Mg  Mg8  1  0.16162600  0.32325200  0.23767000  1
  Mg  Mg9  1  0.16162600  0.32325200  0.76233000  1
  Mg  Mg10  1  0.67674800  0.83837400  0.23767000  1
  Mg  Mg11  1  0.67674800  0.83837400  0.76233000  1
  Mg  Mg12  1  0.66666700  0.33333300  0.24978700  1
  Mg  Mg13  1  0.66666700  0.33333300  0.75021300  1
  Co  Co14  1  0.00000000  0.00000000  0.00000000  1
  Sn  Sn15  1  0.00000000  0.00000000  0.50000000  1
