# generated using pymatgen
data_NaMg6Nb
_symmetry_space_group_name_H-M   'P 1'
_cell_length_a   6.32647070
_cell_length_b   6.32647070
_cell_length_c   5.10744200
_cell_angle_alpha   90.00000000
_cell_angle_beta   90.00000000
_cell_angle_gamma   119.23378191
_symmetry_Int_Tables_number   1
_chemical_formula_structural   NaMg6Nb
_chemical_formula_sum   'Na1 Mg6 Nb1'
_cell_volume   178.38515698
_cell_formula_units_Z   1
loop_
 _symmetry_equiv_pos_site_id
 _symmetry_equiv_pos_as_xyz
  1  'x, y, z'
loop_
 _atom_site_type_symbol
 _atom_site_label
 _atom_site_symmetry_multiplicity
 _atom_site_fract_x
 _atom_site_fract_y
 _atom_site_fract_z
 _atom_site_occupancy
  Na  Na0  1  0.83470900  0.16529100  0.00000000  1
  Mg  Mg1  1  0.82409900  0.64406700  0.00000000  1
  Mg  Mg2  1  0.35593300  0.17590100  0.00000000  1
  Mg  Mg3  1  0.33356000  0.66644000  0.00000000  1
  Mg  Mg4  1  0.66665500  0.83213300  0.50000000  1
  Mg  Mg5  1  0.16786700  0.33334500  0.50000000  1
  Mg  Mg6  1  0.16303500  0.83696500  0.50000000  1
  Nb  Nb7  1  0.65414200  0.34585800  0.50000000  1
