# generated using pymatgen
data_YMg6Cu
_symmetry_space_group_name_H-M   'P 1'
_cell_length_a   6.47072172
_cell_length_b   6.47072172
_cell_length_c   4.96580000
_cell_angle_alpha   90.00000000
_cell_angle_beta   90.00000000
_cell_angle_gamma   120.96747911
_symmetry_Int_Tables_number   1
_chemical_formula_structural   YMg6Cu
_chemical_formula_sum   'Y1 Mg6 Cu1'
_cell_volume   178.28232301
_cell_formula_units_Z   1
loop_
 _symmetry_equiv_pos_site_id
 _symmetry_equiv_pos_as_xyz
  1  'x, y, z'
loop_
 _atom_site_type_symbol
 _atom_site_label
 _atom_site_symmetry_multiplicity
 _atom_site_fract_x
 _atom_site_fract_y
 _atom_site_fract_z
 _atom_site_occupancy
  Y  Y0  1  0.17958200  0.82041800  0.00000000  1
  Mg  Mg1  1  0.18123200  0.33781900  0.00000000  1
  Mg  Mg2  1  0.66218100  0.81876800  0.00000000  1
  Mg  Mg3  1  0.66302200  0.33697800  0.00000000  1
  Mg  Mg4  1  0.33454800  0.18270800  0.50000000  1
  Mg  Mg5  1  0.81729200  0.66545200  0.50000000  1
  Mg  Mg6  1  0.83055500  0.16944500  0.50000000  1
  Cu  Cu7  1  0.33158700  0.66841300  0.50000000  1
