# generated using pymatgen
data_Mg14CdC
_symmetry_space_group_name_H-M   'P 1'
_cell_length_a   6.36074893
_cell_length_b   6.36074893
_cell_length_c   9.61843900
_cell_angle_alpha   90.00000000
_cell_angle_beta   90.00000000
_cell_angle_gamma   116.59568545
_symmetry_Int_Tables_number   1
_chemical_formula_structural   Mg14CdC
_chemical_formula_sum   'Mg14 Cd1 C1'
_cell_volume   347.97649993
_cell_formula_units_Z   1
loop_
 _symmetry_equiv_pos_site_id
 _symmetry_equiv_pos_as_xyz
  1  'x, y, z'
loop_
 _atom_site_type_symbol
 _atom_site_label
 _atom_site_symmetry_multiplicity
 _atom_site_fract_x
 _atom_site_fract_y
 _atom_site_fract_z
 _atom_site_occupancy
  Mg  Mg0  1  0.83912300  0.16087700  0.00000000  1
  Mg  Mg1  1  0.33815300  0.66184700  0.00000000  1
  Mg  Mg2  1  0.36735700  0.11599400  0.50000000  1
  Mg  Mg3  1  0.32401300  0.15942200  0.00000000  1
  Mg  Mg4  1  0.88400600  0.63264300  0.50000000  1
  Mg  Mg5  1  0.84057800  0.67598700  0.00000000  1
  Mg  Mg6  1  0.18086700  0.36693000  0.28866800  1
  Mg  Mg7  1  0.18086700  0.36693000  0.71133200  1
  Mg  Mg8  1  0.63307000  0.81913300  0.28866800  1
  Mg  Mg9  1  0.63307000  0.81913300  0.71133200  1
  Mg  Mg10  1  0.66207000  0.33793000  0.24483300  1
  Mg  Mg11  1  0.66207000  0.33793000  0.75516700  1
  Mg  Mg12  1  0.16673400  0.83326600  0.25897000  1
  Mg  Mg13  1  0.16673400  0.83326600  0.74103000  1
  Cd  Cd14  1  0.84815400  0.15184600  0.50000000  1
  C  C15  1  0.27314200  0.72685800  0.50000000  1
