# generated using pymatgen
data_Al4CN3O
_symmetry_space_group_name_H-M   'P 1'
_cell_length_a   5.39663147
_cell_length_b   5.39663147
_cell_length_c   9.06709800
_cell_angle_alpha   90.00000000
_cell_angle_beta   90.00000000
_cell_angle_gamma   112.03265358
_symmetry_Int_Tables_number   1
_chemical_formula_structural   Al4CN3O
_chemical_formula_sum   'Al8 C2 N6 O2'
_cell_volume   244.78207424
_cell_formula_units_Z   2
loop_
 _symmetry_equiv_pos_site_id
 _symmetry_equiv_pos_as_xyz
  1  'x, y, z'
loop_
 _atom_site_type_symbol
 _atom_site_label
 _atom_site_symmetry_multiplicity
 _atom_site_fract_x
 _atom_site_fract_y
 _atom_site_fract_z
 _atom_site_occupancy
  Al  Al0  1  0.89537800  0.54878000  0.39113100  1
  Al  Al1  1  0.45122000  0.10462200  0.39113100  1
  Al  Al2  1  0.10462200  0.45122000  0.89113100  1
  Al  Al3  1  0.54878000  0.89537800  0.89113100  1
  Al  Al4  1  0.04887900  0.95112100  0.67689600  1
  Al  Al5  1  0.95112100  0.04887900  0.17689600  1
  Al  Al6  1  0.40343600  0.59656400  0.59241000  1
  Al  Al7  1  0.59656400  0.40343600  0.09241000  1
  C  C8  1  0.19638700  0.80361300  0.50491600  1
  C  C9  1  0.80361300  0.19638700  0.00491600  1
  N  N10  1  0.67881400  0.83083800  0.70764900  1
  N  N11  1  0.32118600  0.16916200  0.20764900  1
  N  N12  1  0.18199000  0.81801000  0.83690900  1
  N  N13  1  0.83083800  0.67881400  0.20764900  1
  N  N14  1  0.81801000  0.18199000  0.33690900  1
  N  N15  1  0.16916200  0.32118600  0.70764900  1
  O  O16  1  0.43573700  0.56426300  0.97683000  1
  O  O17  1  0.56426200  0.43573800  0.47683000  1
