# generated using pymatgen
data_HfMg6FeO8
_symmetry_space_group_name_H-M   'P 1'
_cell_length_a   4.32553800
_cell_length_b   4.32553800
_cell_length_c   8.83689300
_cell_angle_alpha   90.00000000
_cell_angle_beta   90.00000000
_cell_angle_gamma   90.00000000
_symmetry_Int_Tables_number   1
_chemical_formula_structural   HfMg6FeO8
_chemical_formula_sum   'Hf1 Mg6 Fe1 O8'
_cell_volume   165.34073343
_cell_formula_units_Z   1
loop_
 _symmetry_equiv_pos_site_id
 _symmetry_equiv_pos_as_xyz
  1  'x, y, z'
loop_
 _atom_site_type_symbol
 _atom_site_label
 _atom_site_symmetry_multiplicity
 _atom_site_fract_x
 _atom_site_fract_y
 _atom_site_fract_z
 _atom_site_occupancy
  Hf  Hf0  1  0.50000000  0.50000000  0.00000000  1
  Mg  Mg1  1  0.00000000  0.00000000  0.50000000  1
  Mg  Mg2  1  0.50000000  0.50000000  0.50000000  1
  Mg  Mg3  1  0.00000000  0.50000000  0.25918600  1
  Mg  Mg4  1  0.00000000  0.50000000  0.74081400  1
  Mg  Mg5  1  0.50000000  0.00000000  0.25918600  1
  Mg  Mg6  1  0.50000000  0.00000000  0.74081400  1
  Fe  Fe7  1  0.00000000  0.00000000  0.00000000  1
  O  O8  1  0.00000000  0.00000000  0.26215300  1
  O  O9  1  0.00000000  0.00000000  0.73784700  1
  O  O10  1  0.50000000  0.50000000  0.25570700  1
  O  O11  1  0.50000000  0.50000000  0.74429300  1
  O  O12  1  0.00000000  0.50000000  0.00000000  1
  O  O13  1  0.00000000  0.50000000  0.50000000  1
  O  O14  1  0.50000000  0.00000000  0.00000000  1
  O  O15  1  0.50000000  0.00000000  0.50000000  1
