# generated using pymatgen
data_SrCeMg6
_symmetry_space_group_name_H-M   'P 1'
_cell_length_a   6.81270556
_cell_length_b   6.81270556
_cell_length_c   5.43597500
_cell_angle_alpha   90.00000000
_cell_angle_beta   90.00000000
_cell_angle_gamma   117.44827671
_symmetry_Int_Tables_number   1
_chemical_formula_structural   SrCeMg6
_chemical_formula_sum   'Sr1 Ce1 Mg6'
_cell_volume   223.89762121
_cell_formula_units_Z   1
loop_
 _symmetry_equiv_pos_site_id
 _symmetry_equiv_pos_as_xyz
  1  'x, y, z'
loop_
 _atom_site_type_symbol
 _atom_site_label
 _atom_site_symmetry_multiplicity
 _atom_site_fract_x
 _atom_site_fract_y
 _atom_site_fract_z
 _atom_site_occupancy
  Sr  Sr0  1  0.65513800  0.34486200  0.50000000  1
  Ce  Ce1  1  0.84872000  0.15128000  0.00000000  1
  Mg  Mg2  1  0.84247900  0.67291800  0.00000000  1
  Mg  Mg3  1  0.32708200  0.15752100  0.00000000  1
  Mg  Mg4  1  0.34062800  0.65937200  0.00000000  1
  Mg  Mg5  1  0.66570400  0.84120200  0.50000000  1
  Mg  Mg6  1  0.15879800  0.33429600  0.50000000  1
  Mg  Mg7  1  0.16145300  0.83854700  0.50000000  1
