# generated using pymatgen
data_Mg6MnSnO8
_symmetry_space_group_name_H-M   'P 1'
_cell_length_a   4.47535500
_cell_length_b   4.47535500
_cell_length_c   8.86906300
_cell_angle_alpha   90.00000000
_cell_angle_beta   90.00000000
_cell_angle_gamma   90.00000000
_symmetry_Int_Tables_number   1
_chemical_formula_structural   Mg6MnSnO8
_chemical_formula_sum   'Mg6 Mn1 Sn1 O8'
_cell_volume   177.63671009
_cell_formula_units_Z   1
loop_
 _symmetry_equiv_pos_site_id
 _symmetry_equiv_pos_as_xyz
  1  'x, y, z'
loop_
 _atom_site_type_symbol
 _atom_site_label
 _atom_site_symmetry_multiplicity
 _atom_site_fract_x
 _atom_site_fract_y
 _atom_site_fract_z
 _atom_site_occupancy
  Mg  Mg0  1  0.00000000  0.00000000  0.50000000  1
  Mg  Mg1  1  0.50000000  0.50000000  0.50000000  1
  Mg  Mg2  1  0.00000000  0.50000000  0.26308200  1
  Mg  Mg3  1  0.00000000  0.50000000  0.73691800  1
  Mg  Mg4  1  0.50000000  0.00000000  0.26308200  1
  Mg  Mg5  1  0.50000000  0.00000000  0.73691800  1
  Mn  Mn6  1  0.00000000  0.00000000  0.00000000  1
  Sn  Sn7  1  0.50000000  0.50000000  0.00000000  1
  O  O8  1  0.00000000  0.00000000  0.25897000  1
  O  O9  1  0.00000000  0.00000000  0.74103000  1
  O  O10  1  0.50000000  0.50000000  0.27426100  1
  O  O11  1  0.50000000  0.50000000  0.72573900  1
  O  O12  1  0.00000000  0.50000000  0.00000000  1
  O  O13  1  0.00000000  0.50000000  0.50000000  1
  O  O14  1  0.50000000  0.00000000  0.00000000  1
  O  O15  1  0.50000000  0.00000000  0.50000000  1
