# generated using pymatgen
data_CeSe2
_symmetry_space_group_name_H-M   'P 1'
_cell_length_a   13.87022401
_cell_length_b   13.87022401
_cell_length_c   13.87022401
_cell_angle_alpha   151.20324505
_cell_angle_beta   148.44501457
_cell_angle_gamma   43.24152552
_symmetry_Int_Tables_number   1
_chemical_formula_structural   CeSe2
_chemical_formula_sum   'Ce4 Se8'
_cell_volume   670.88741123
_cell_formula_units_Z   4
loop_
 _symmetry_equiv_pos_site_id
 _symmetry_equiv_pos_as_xyz
  1  'x, y, z'
loop_
 _atom_site_type_symbol
 _atom_site_label
 _atom_site_symmetry_multiplicity
 _atom_site_fract_x
 _atom_site_fract_y
 _atom_site_fract_z
 _atom_site_occupancy
  Ce  Ce0  1  0.93858000  0.68858000  0.25000000  1
  Ce  Ce1  1  0.56142000  0.81142000  0.75000000  1
  Ce  Ce2  1  0.68904900  0.43904900  0.25000000  1
  Ce  Ce3  1  0.81095100  0.06095100  0.75000000  1
  Se  Se4  1  0.80003700  0.13356400  0.18844100  1
  Se  Se5  1  0.44512300  0.61159600  0.31155900  1
  Se  Se6  1  0.05487700  0.36643600  0.16647300  1
  Se  Se7  1  0.69996300  0.88840400  0.33352700  1
  Se  Se8  1  0.25000000  0.92306400  0.67306400  1
  Se  Se9  1  0.75000000  0.57693600  0.82693600  1
  Se  Se10  1  0.94140800  0.75000000  0.69140800  1
  Se  Se11  1  0.55859200  0.25000000  0.80859200  1
