data_image0
_chemical_formula_structural       Ca4O16V8
_chemical_formula_sum              "Ca4 O16 V8"
_cell_length_a       10.6589
_cell_length_b       9.12254
_cell_length_c       3.03372
_cell_angle_alpha    90
_cell_angle_beta     90
_cell_angle_gamma    90

_space_group_name_H-M_alt    "P 1"
_space_group_IT_number       1

loop_
  _space_group_symop_operation_xyz
  'x, y, z'

loop_
  _atom_site_type_symbol
  _atom_site_label
  _atom_site_symmetry_multiplicity
  _atom_site_fract_x
  _atom_site_fract_y
  _atom_site_fract_z
  _atom_site_occupancy
  Ca  Ca1       1.0  0.34500  0.24800  0.25000  1.0000
  Ca  Ca2       1.0  0.84500  0.25200  0.75000  1.0000
  Ca  Ca3       1.0  0.15500  0.74800  0.25000  1.0000
  Ca  Ca4       1.0  0.65500  0.75200  0.75000  1.0000
  O   O1        1.0  0.92500  0.07930  0.25000  1.0000
  O   O2        1.0  0.42500  0.42100  0.75000  1.0000
  O   O3        1.0  0.57500  0.57900  0.25000  1.0000
  O   O4        1.0  0.07510  0.92100  0.75000  1.0000
  O   O5        1.0  0.21700  0.48400  0.25000  1.0000
  O   O6        1.0  0.71700  0.01650  0.75000  1.0000
  O   O7        1.0  0.28300  0.98400  0.25000  1.0000
  O   O8        1.0  0.78300  0.51600  0.75000  1.0000
  O   O9        1.0  0.97700  0.37600  0.25000  1.0000
  O   O10       1.0  0.47700  0.12400  0.75000  1.0000
  O   O11       1.0  0.52300  0.87600  0.25000  1.0000
  O   O12       1.0  0.02310  0.62400  0.75000  1.0000
  O   O13       1.0  0.66800  0.28800  0.25000  1.0000
  O   O14       1.0  0.16800  0.21200  0.75000  1.0000
  O   O15       1.0  0.83200  0.78800  0.25000  1.0000
  O   O16       1.0  0.33200  0.71200  0.75000  1.0000
  V   V1        1.0  0.11200  0.07090  0.25000  1.0000
  V   V2        1.0  0.61200  0.42900  0.75000  1.0000
  V   V3        1.0  0.38800  0.57100  0.25000  1.0000
  V   V4        1.0  0.88800  0.92900  0.75000  1.0000
  V   V5        1.0  0.60500  0.07820  0.25000  1.0000
  V   V6        1.0  0.10500  0.42200  0.75000  1.0000
  V   V7        1.0  0.89500  0.57800  0.25000  1.0000
  V   V8        1.0  0.39500  0.92200  0.75000  1.0000
