# generated using pymatgen
data_CeMg6C
_symmetry_space_group_name_H-M   'P 1'
_cell_length_a   6.69914905
_cell_length_b   6.69914905
_cell_length_c   4.63421800
_cell_angle_alpha   90.00000000
_cell_angle_beta   90.00000000
_cell_angle_gamma   109.25681534
_symmetry_Int_Tables_number   1
_chemical_formula_structural   CeMg6C
_chemical_formula_sum   'Ce1 Mg6 C1'
_cell_volume   196.34083953
_cell_formula_units_Z   1
loop_
 _symmetry_equiv_pos_site_id
 _symmetry_equiv_pos_as_xyz
  1  'x, y, z'
loop_
 _atom_site_type_symbol
 _atom_site_label
 _atom_site_symmetry_multiplicity
 _atom_site_fract_x
 _atom_site_fract_y
 _atom_site_fract_z
 _atom_site_occupancy
  Ce  Ce0  1  0.34443600  0.65556400  0.50000000  1
  Mg  Mg1  1  0.87621900  0.73581800  0.50000000  1
  Mg  Mg2  1  0.26418200  0.12378100  0.50000000  1
  Mg  Mg3  1  0.78623100  0.21376900  0.50000000  1
  Mg  Mg4  1  0.65959500  0.91760100  0.00000000  1
  Mg  Mg5  1  0.08239900  0.34040500  0.00000000  1
  Mg  Mg6  1  0.59365800  0.40634200  0.00000000  1
  C  C7  1  0.39328000  0.60672000  0.00000000  1
