# generated using pymatgen
data_K4Na4Mo5(WO8)3
_symmetry_space_group_name_H-M   'P 1'
_cell_length_a   7.99280200
_cell_length_b   7.99556100
_cell_length_c   8.04733700
_cell_angle_alpha   90.00000000
_cell_angle_beta   90.00000000
_cell_angle_gamma   90.00000000
_symmetry_Int_Tables_number   1
_chemical_formula_structural   K4Na4Mo5(WO8)3
_chemical_formula_sum   'K4 Na4 Mo5 W3 O24'
_cell_volume   514.28065024
_cell_formula_units_Z   1
loop_
 _symmetry_equiv_pos_site_id
 _symmetry_equiv_pos_as_xyz
  1  'x, y, z'
loop_
 _atom_site_type_symbol
 _atom_site_label
 _atom_site_symmetry_multiplicity
 _atom_site_fract_x
 _atom_site_fract_y
 _atom_site_fract_z
 _atom_site_occupancy
  K  K0  1  0.25215300  0.25213100  0.25313400  1
  K  K1  1  0.25215300  0.25213100  0.74686600  1
  K  K2  1  0.25215300  0.74786900  0.25313400  1
  K  K3  1  0.25215300  0.74786900  0.74686600  1
  Na  Na4  1  0.74750500  0.25249200  0.25313100  1
  Na  Na5  1  0.74750500  0.25249200  0.74686900  1
  Na  Na6  1  0.74750500  0.74750800  0.25313100  1
  Na  Na7  1  0.74750500  0.74750800  0.74686900  1
  Mo  Mo8  1  0.99822600  0.00000000  0.50000000  1
  Mo  Mo9  1  0.50189600  0.00000000  0.50000000  1
  Mo  Mo10  1  0.50119100  0.50000000  0.00000000  1
  Mo  Mo11  1  0.99791600  0.50000000  0.50000000  1
  Mo  Mo12  1  0.50272300  0.50000000  0.50000000  1
  W  W13  1  0.99810000  0.00000000  0.00000000  1
  W  W14  1  0.50224400  0.00000000  0.00000000  1
  W  W15  1  0.99745200  0.50000000  0.00000000  1
  O  O16  1  0.99583900  0.25647100  0.00000000  1
  O  O17  1  0.50404000  0.24520600  0.00000000  1
  O  O18  1  0.99551300  0.26204200  0.50000000  1
  O  O19  1  0.50437000  0.25567500  0.50000000  1
  O  O20  1  0.99583900  0.74352900  0.00000000  1
  O  O21  1  0.50404000  0.75479400  0.00000000  1
  O  O22  1  0.99551300  0.73795800  0.50000000  1
  O  O23  1  0.50437000  0.74432500  0.50000000  1
  O  O24  1  0.99527000  0.00000000  0.23755900  1
  O  O25  1  0.50440500  0.00000000  0.24168900  1
  O  O26  1  0.99527000  0.00000000  0.76244100  1
  O  O27  1  0.50440500  0.00000000  0.75831100  1
  O  O28  1  0.99538600  0.50000000  0.24171400  1
  O  O29  1  0.50468100  0.50000000  0.26056700  1
  O  O30  1  0.99538600  0.50000000  0.75828600  1
  O  O31  1  0.50468100  0.50000000  0.73943300  1
  O  O32  1  0.25725900  0.00000000  0.00000000  1
  O  O33  1  0.74420900  0.00000000  0.00000000  1
  O  O34  1  0.26315100  0.00000000  0.50000000  1
  O  O35  1  0.73899600  0.00000000  0.50000000  1
  O  O36  1  0.24374600  0.50000000  0.00000000  1
  O  O37  1  0.75349000  0.50000000  0.00000000  1
  O  O38  1  0.25661900  0.50000000  0.50000000  1
  O  O39  1  0.74514400  0.50000000  0.50000000  1
