# generated using pymatgen
data_BaSr7Co4(CuO5)4
_symmetry_space_group_name_H-M   'P 1'
_cell_length_a   11.09500800
_cell_length_b   11.07346115
_cell_length_c   17.87966413
_cell_angle_alpha   108.23829550
_cell_angle_beta   108.03592150
_cell_angle_gamma   89.79613287
_symmetry_Int_Tables_number   1
_chemical_formula_structural   BaSr7Co4(CuO5)4
_chemical_formula_sum   'Ba4 Sr28 Co16 Cu16 O80'
_cell_volume   1973.20042366
_cell_formula_units_Z   4
loop_
 _symmetry_equiv_pos_site_id
 _symmetry_equiv_pos_as_xyz
  1  'x, y, z'
loop_
 _atom_site_type_symbol
 _atom_site_label
 _atom_site_symmetry_multiplicity
 _atom_site_fract_x
 _atom_site_fract_y
 _atom_site_fract_z
 _atom_site_occupancy
  Ba  Ba0  1  0.30790142  0.06031323  0.11981139  1
  Ba  Ba1  1  0.31004171  0.55809404  0.11865493  1
  Ba  Ba2  1  0.80951630  0.05971824  0.11971504  1
  Ba  Ba3  1  0.05728642  0.81185389  0.11965923  1
  Sr  Sr4  1  0.30841097  0.05773874  0.61210807  1
  Sr  Sr5  1  0.30319229  0.55729780  0.61160359  1
  Sr  Sr6  1  0.80802021  0.05850578  0.61123869  1
  Sr  Sr7  1  0.80500306  0.55614104  0.11159751  1
  Sr  Sr8  1  0.80396624  0.55905870  0.61197947  1
  Sr  Sr9  1  0.19321825  0.44391651  0.38908953  1
  Sr  Sr10  1  0.19607549  0.43849135  0.88579497  1
  Sr  Sr11  1  0.19549721  0.94235949  0.38892075  1
  Sr  Sr12  1  0.19216671  0.94342968  0.88565542  1
  Sr  Sr13  1  0.69321879  0.44361933  0.38863309  1
  Sr  Sr14  1  0.69038331  0.44234674  0.88534773  1
  Sr  Sr15  1  0.69632665  0.94543157  0.38719292  1
  Sr  Sr16  1  0.69346605  0.94051015  0.88626953  1
  Sr  Sr17  1  0.05586604  0.30454869  0.11006900  1
  Sr  Sr18  1  0.05621575  0.30336487  0.61172156  1
  Sr  Sr19  1  0.05569610  0.79977139  0.61124249  1
  Sr  Sr20  1  0.55567535  0.30783274  0.11179739  1
  Sr  Sr21  1  0.56022496  0.30718165  0.61327548  1
  Sr  Sr22  1  0.55924092  0.80196100  0.11108994  1
  Sr  Sr23  1  0.55386900  0.80670995  0.61297083  1
  Sr  Sr24  1  0.44639092  0.19846515  0.39140145  1
  Sr  Sr25  1  0.44295803  0.19655896  0.88596725  1
  Sr  Sr26  1  0.44323477  0.69854212  0.39089042  1
  Sr  Sr27  1  0.44457031  0.69235819  0.88465109  1
  Sr  Sr28  1  0.94579078  0.19666991  0.39007530  1
  Sr  Sr29  1  0.94265952  0.19362887  0.88449597  1
  Sr  Sr30  1  0.94660875  0.69303245  0.39039074  1
  Sr  Sr31  1  0.94054542  0.69441647  0.88546722  1
  Co  Co32  1  0.99450439  0.99676308  0.99054296  1
  Co  Co33  1  0.00097519  0.99948196  0.50081494  1
  Co  Co34  1  0.99598006  0.49627847  0.99490861  1
  Co  Co35  1  0.99973660  0.49885523  0.50157683  1
  Co  Co36  1  0.49694211  0.99811403  0.99553302  1
  Co  Co37  1  0.50154372  0.00058737  0.50138306  1
  Co  Co38  1  0.49937868  0.49826843  0.99608914  1
  Co  Co39  1  0.49992306  0.50055963  0.50004316  1
  Co  Co40  1  0.24803290  0.24818552  0.99604060  1
  Co  Co41  1  0.25128897  0.25180427  0.50170708  1
  Co  Co42  1  0.24706905  0.74611490  0.99211847  1
  Co  Co43  1  0.24959820  0.74976794  0.50136451  1
  Co  Co44  1  0.74822305  0.24969994  0.99754341  1
  Co  Co45  1  0.75252003  0.25173624  0.50155598  1
  Co  Co46  1  0.74692831  0.74712404  0.99526026  1
  Co  Co47  1  0.74972288  0.75037751  0.49893311  1
  Cu  Cu48  1  0.12125463  0.11114399  0.25773815  1
  Cu  Cu49  1  0.11423387  0.09843044  0.74806396  1
  Cu  Cu50  1  0.11026462  0.59562272  0.24962699  1
  Cu  Cu51  1  0.11325038  0.59689793  0.74850745  1
  Cu  Cu52  1  0.61942671  0.10480813  0.25122503  1
  Cu  Cu53  1  0.61375464  0.10024546  0.74920271  1
  Cu  Cu54  1  0.62123165  0.60368317  0.25470182  1
  Cu  Cu55  1  0.61409018  0.60059973  0.74865934  1
  Cu  Cu56  1  0.36588905  0.40033017  0.25316414  1
  Cu  Cu57  1  0.36408555  0.39815446  0.74692138  1
  Cu  Cu58  1  0.37494285  0.89942398  0.25515850  1
  Cu  Cu59  1  0.36417784  0.90026940  0.75002333  1
  Cu  Cu60  1  0.86353607  0.40341829  0.25047381  1
  Cu  Cu61  1  0.86579818  0.40011795  0.74998979  1
  Cu  Cu62  1  0.86544970  0.89302189  0.25271986  1
  Cu  Cu63  1  0.86227576  0.89954411  0.74676281  1
  O  O64  1  0.12053916  0.11436823  0.49759352  1
  O  O65  1  0.12220572  0.12758108  0.99290895  1
  O  O66  1  0.12217530  0.62264993  0.49535747  1
  O  O67  1  0.12930244  0.63016587  0.99230271  1
  O  O68  1  0.63231774  0.13185991  0.49669323  1
  O  O69  1  0.62831550  0.13217880  0.99389112  1
  O  O70  1  0.61297928  0.62078705  0.49679441  1
  O  O71  1  0.62495638  0.62558227  0.99419897  1
  O  O72  1  0.11607969  0.37916447  0.99861653  1
  O  O73  1  0.12346417  0.37611152  0.50437903  1
  O  O74  1  0.11500605  0.88124723  0.99693854  1
  O  O75  1  0.13485584  0.86889986  0.50479302  1
  O  O76  1  0.61843250  0.38316959  0.00123188  1
  O  O77  1  0.62991402  0.37745067  0.50706156  1
  O  O78  1  0.61606906  0.87988240  0.99970535  1
  O  O79  1  0.62393519  0.88405406  0.50413198  1
  O  O80  1  0.38212042  0.11981737  0.49719326  1
  O  O81  1  0.37856306  0.11531404  0.99310112  1
  O  O82  1  0.36508159  0.63087391  0.49739373  1
  O  O83  1  0.38083771  0.61455485  0.99365229  1
  O  O84  1  0.87238029  0.12295223  0.49469289  1
  O  O85  1  0.87933774  0.11511525  0.99327461  1
  O  O86  1  0.87180048  0.61846839  0.49690574  1
  O  O87  1  0.87647837  0.61287011  0.99281805  1
  O  O88  1  0.37362755  0.37063147  0.99948104  1
  O  O89  1  0.38348444  0.38724118  0.50591202  1
  O  O90  1  0.36760801  0.86605555  0.99862124  1
  O  O91  1  0.37647990  0.87843697  0.50628444  1
  O  O92  1  0.86630209  0.36753405  0.99897639  1
  O  O93  1  0.87081482  0.37130504  0.50421751  1
  O  O94  1  0.86926526  0.87166087  0.99781016  1
  O  O95  1  0.88651712  0.88346398  0.50550542  1
  O  O96  1  0.07249685  0.09346250  0.14572122  1
  O  O97  1  0.07644785  0.08361045  0.63656501  1
  O  O98  1  0.06158110  0.57127918  0.13527093  1
  O  O99  1  0.07128223  0.58113794  0.63625345  1
  O  O100  1  0.56939135  0.08706740  0.13816369  1
  O  O101  1  0.57607242  0.08552746  0.63730762  1
  O  O102  1  0.58078555  0.58596650  0.14199898  1
  O  O103  1  0.57467810  0.58753257  0.63744241  1
  O  O104  1  0.43371271  0.41384400  0.36532404  1
  O  O105  1  0.43746984  0.41428213  0.85940805  1
  O  O106  1  0.44158366  0.91232334  0.36620251  1
  O  O107  1  0.43907703  0.91616301  0.86197561  1
  O  O108  1  0.93578312  0.41417311  0.36213611  1
  O  O109  1  0.93878251  0.41552851  0.86204127  1
  O  O110  1  0.93637759  0.90987308  0.36479090  1
  O  O111  1  0.93569666  0.91427983  0.85899756  1
  O  O112  1  0.32560096  0.31338722  0.13882704  1
  O  O113  1  0.32370612  0.30237155  0.63392430  1
  O  O114  1  0.33169476  0.81235575  0.14189127  1
  O  O115  1  0.32400733  0.80181380  0.63900477  1
  O  O116  1  0.82280583  0.31452718  0.13583845  1
  O  O117  1  0.82727914  0.30243979  0.63859990  1
  O  O118  1  0.81599902  0.80202295  0.13859972  1
  O  O119  1  0.82035631  0.80416973  0.63420622  1
  O  O120  1  0.19065739  0.20383578  0.37026645  1
  O  O121  1  0.18672439  0.19341450  0.86025776  1
  O  O122  1  0.18746724  0.69659360  0.36007165  1
  O  O123  1  0.18899316  0.69578642  0.86037341  1
  O  O124  1  0.69314849  0.20063764  0.36224588  1
  O  O125  1  0.68681956  0.19677094  0.86097716  1
  O  O126  1  0.69208508  0.70027812  0.36760354  1
  O  O127  1  0.68517550  0.69413367  0.86133001  1
  O  O128  1  0.47163798  0.04847322  0.26292434  1
  O  O129  1  0.45218632  0.05168474  0.74904322  1
  O  O130  1  0.46854690  0.54690454  0.26209889  1
  O  O131  1  0.45108469  0.55056246  0.74733500  1
  O  O132  1  0.97182447  0.03678264  0.26076174  1
  O  O133  1  0.95237612  0.05030688  0.74762391  1
  O  O134  1  0.94875401  0.55705026  0.25193521  1
  O  O135  1  0.95037266  0.55306049  0.74854694  1
  O  O136  1  0.20196007  0.44625655  0.24989184  1
  O  O137  1  0.20100745  0.44403342  0.74853438  1
  O  O138  1  0.22352116  0.97005737  0.26034668  1
  O  O139  1  0.20151123  0.94578843  0.74831522  1
  O  O140  1  0.70166600  0.44519024  0.25124652  1
  O  O141  1  0.70341424  0.44916967  0.75000270  1
  O  O142  1  0.70622466  0.95157464  0.24868809  1
  O  O143  1  0.70165973  0.94776756  0.74951811  1
