# generated using pymatgen
data_Sr7CaMnFe7O24
_symmetry_space_group_name_H-M   'P 1'
_cell_length_a   7.80905960
_cell_length_b   7.80905960
_cell_length_c   7.80906000
_cell_angle_alpha   89.99870815
_cell_angle_beta   89.99870815
_cell_angle_gamma   89.99871335
_symmetry_Int_Tables_number   1
_chemical_formula_structural   Sr7CaMnFe7O24
_chemical_formula_sum   'Sr7 Ca1 Mn1 Fe7 O24'
_cell_volume   476.20750423
_cell_formula_units_Z   1
loop_
 _symmetry_equiv_pos_site_id
 _symmetry_equiv_pos_as_xyz
  1  'x, y, z'
loop_
 _atom_site_type_symbol
 _atom_site_label
 _atom_site_symmetry_multiplicity
 _atom_site_fract_x
 _atom_site_fract_y
 _atom_site_fract_z
 _atom_site_occupancy
  Sr  Sr0  1  0.74983900  0.25018700  0.74983900  1
  Sr  Sr1  1  0.74984400  0.25015800  0.25015800  1
  Sr  Sr2  1  0.74983900  0.74983900  0.25018700  1
  Sr  Sr3  1  0.25015800  0.25015800  0.74984400  1
  Sr  Sr4  1  0.25005000  0.25005000  0.25005000  1
  Sr  Sr5  1  0.25018700  0.74983900  0.74983900  1
  Sr  Sr6  1  0.25015800  0.74984400  0.25015800  1
  Ca  Ca7  1  0.75007800  0.75007800  0.75007800  1
  Mn  Mn8  1  0.50047800  0.50047800  0.50047800  1
  Fe  Fe9  1  0.50049800  0.99949900  0.99949900  1
  Fe  Fe10  1  0.50047800  0.99945700  0.50047800  1
  Fe  Fe11  1  0.50047800  0.50047800  0.99945700  1
  Fe  Fe12  1  0.99953700  0.99953700  0.99953700  1
  Fe  Fe13  1  0.99949900  0.99949900  0.50049800  1
  Fe  Fe14  1  0.99949900  0.50049800  0.99949900  1
  Fe  Fe15  1  0.99945700  0.50047800  0.50047800  1
  O  O16  1  0.74941900  0.99794300  0.99794300  1
  O  O17  1  0.75099200  0.99796500  0.50203300  1
  O  O18  1  0.75099200  0.50203300  0.99796500  1
  O  O19  1  0.74747400  0.50198200  0.50198200  1
  O  O20  1  0.25062400  0.99964200  0.99964200  1
  O  O21  1  0.24897900  0.99965400  0.50039500  1
  O  O22  1  0.24897900  0.50039500  0.99965400  1
  O  O23  1  0.25240700  0.50041700  0.50041700  1
  O  O24  1  0.50039500  0.24897900  0.99965400  1
  O  O25  1  0.50041700  0.25240700  0.50041700  1
  O  O26  1  0.50203300  0.75099200  0.99796500  1
  O  O27  1  0.50198200  0.74747400  0.50198200  1
  O  O28  1  0.99964200  0.25062400  0.99964200  1
  O  O29  1  0.99965400  0.24897900  0.50039500  1
  O  O30  1  0.99794300  0.74941900  0.99794300  1
  O  O31  1  0.99796500  0.75099200  0.50203300  1
  O  O32  1  0.50203300  0.99796500  0.75099200  1
  O  O33  1  0.50039500  0.99965400  0.24897900  1
  O  O34  1  0.50198200  0.50198200  0.74747400  1
  O  O35  1  0.50041700  0.50041700  0.25240700  1
  O  O36  1  0.99794300  0.99794300  0.74941900  1
  O  O37  1  0.99964200  0.99964200  0.25062400  1
  O  O38  1  0.99796500  0.50203300  0.75099200  1
  O  O39  1  0.99965400  0.50039500  0.24897900  1
