# generated using pymatgen
data_K5Na3Nb6(WO10)2
_symmetry_space_group_name_H-M   'P 1'
_cell_length_a   11.58043008
_cell_length_b   11.74748414
_cell_length_c   17.74012973
_cell_angle_alpha   109.54237011
_cell_angle_beta   108.96010260
_cell_angle_gamma   90.23251090
_symmetry_Int_Tables_number   1
_chemical_formula_structural   K5Na3Nb6(WO10)2
_chemical_formula_sum   'K20 Na12 Nb24 W8 O80'
_cell_volume   2133.68537352
_cell_formula_units_Z   4
loop_
 _symmetry_equiv_pos_site_id
 _symmetry_equiv_pos_as_xyz
  1  'x, y, z'
loop_
 _atom_site_type_symbol
 _atom_site_label
 _atom_site_symmetry_multiplicity
 _atom_site_fract_x
 _atom_site_fract_y
 _atom_site_fract_z
 _atom_site_occupancy
  K  K0  1  0.30158800  0.06487000  0.11584100  1
  K  K1  1  0.30517200  0.56343300  0.10691400  1
  K  K2  1  0.79870300  0.06153600  0.10640200  1
  K  K3  1  0.81145400  0.56378800  0.11714800  1
  K  K4  1  0.81422900  0.57048200  0.61978100  1
  K  K5  1  0.20411100  0.93242500  0.39086100  1
  K  K6  1  0.19447200  0.93028700  0.88012700  1
  K  K7  1  0.69636600  0.43859800  0.38816700  1
  K  K8  1  0.68747100  0.42568300  0.88244600  1
  K  K9  1  0.69558800  0.93031100  0.38464900  1
  K  K10  1  0.69220300  0.91952400  0.87612300  1
  K  K11  1  0.05018800  0.29170900  0.10824500  1
  K  K12  1  0.06304700  0.79387200  0.11218900  1
  K  K13  1  0.55460400  0.30193200  0.11593000  1
  K  K14  1  0.56127500  0.79813500  0.11668100  1
  K  K15  1  0.43633800  0.19906500  0.38504100  1
  K  K16  1  0.45436300  0.71226600  0.39812100  1
  K  K17  1  0.44752500  0.70612100  0.88756600  1
  K  K18  1  0.94971000  0.69737200  0.38586800  1
  K  K19  1  0.94134700  0.69871600  0.87974300  1
  Na  Na20  1  0.29860600  0.07695300  0.60412500  1
  Na  Na21  1  0.30324000  0.56936200  0.60468200  1
  Na  Na22  1  0.80108100  0.06942700  0.59999100  1
  Na  Na23  1  0.20369600  0.43920000  0.40573500  1
  Na  Na24  1  0.19641600  0.42661300  0.89552000  1
  Na  Na25  1  0.04536500  0.27822200  0.60418200  1
  Na  Na26  1  0.05998200  0.79193000  0.60862800  1
  Na  Na27  1  0.55157400  0.28353600  0.59882300  1
  Na  Na28  1  0.55716000  0.79183200  0.60934600  1
  Na  Na29  1  0.43835900  0.21557300  0.89443900  1
  Na  Na30  1  0.95667200  0.22048500  0.40700600  1
  Na  Na31  1  0.94704600  0.21613600  0.89641100  1
  Nb  Nb32  1  0.00702900  0.00004200  0.50276100  1
  Nb  Nb33  1  0.00916700  0.50311400  0.50525700  1
  Nb  Nb34  1  0.50703600  0.50304100  0.50366800  1
  Nb  Nb35  1  0.25535600  0.25435800  0.50393700  1
  Nb  Nb36  1  0.25937800  0.75263500  0.50577800  1
  Nb  Nb37  1  0.74697200  0.24530600  0.99599300  1
  Nb  Nb38  1  0.75646600  0.24779100  0.49981300  1
  Nb  Nb39  1  0.75865300  0.75218300  0.50425500  1
  Nb  Nb40  1  0.09272100  0.08832900  0.25349200  1
  Nb  Nb41  1  0.08510600  0.08538000  0.74632600  1
  Nb  Nb42  1  0.14851900  0.58219500  0.25321800  1
  Nb  Nb43  1  0.13575300  0.56827400  0.74872600  1
  Nb  Nb44  1  0.61548700  0.09850600  0.24973600  1
  Nb  Nb45  1  0.58326200  0.08076600  0.74637800  1
  Nb  Nb46  1  0.60642600  0.59459400  0.25054800  1
  Nb  Nb47  1  0.59615900  0.56867000  0.74358100  1
  Nb  Nb48  1  0.34273800  0.42349200  0.25399400  1
  Nb  Nb49  1  0.33376300  0.42007000  0.74633200  1
  Nb  Nb50  1  0.36355700  0.88940300  0.25189000  1
  Nb  Nb51  1  0.37191200  0.92698300  0.74551700  1
  Nb  Nb52  1  0.87776100  0.40274600  0.25251700  1
  Nb  Nb53  1  0.85862500  0.39698500  0.74565600  1
  Nb  Nb54  1  0.89279500  0.93164900  0.25346500  1
  Nb  Nb55  1  0.87667600  0.93427900  0.74756100  1
  W  W56  1  0.99847000  0.99593200  0.99577600  1
  W  W57  1  0.00099000  0.49563700  0.99630600  1
  W  W58  1  0.49979400  0.99824600  0.99579800  1
  W  W59  1  0.50895600  0.00490400  0.50923000  1
  W  W60  1  0.49842300  0.49759800  0.99548200  1
  W  W61  1  0.24774600  0.24667200  0.99641600  1
  W  W62  1  0.25123600  0.74654500  0.99498200  1
  W  W63  1  0.75304200  0.74563300  0.99876500  1
  O  O64  1  0.12436000  0.12491200  0.49925300  1
  O  O65  1  0.11815100  0.11998800  0.99042800  1
  O  O66  1  0.13345500  0.62391200  0.50111300  1
  O  O67  1  0.11950700  0.61191200  0.98072000  1
  O  O68  1  0.63475700  0.13218300  0.50116300  1
  O  O69  1  0.62159100  0.12207300  0.98951000  1
  O  O70  1  0.63222300  0.62851300  0.50424300  1
  O  O71  1  0.62593600  0.61909600  0.99570800  1
  O  O72  1  0.12341500  0.37086500  0.99683000  1
  O  O73  1  0.13515500  0.38026100  0.51120900  1
  O  O74  1  0.12724900  0.87524400  0.00209900  1
  O  O75  1  0.13700400  0.88025300  0.51390100  1
  O  O76  1  0.62559700  0.36724500  0.99860300  1
  O  O77  1  0.63250500  0.38043200  0.51047100  1
  O  O78  1  0.62960300  0.87570000  0.00291900  1
  O  O79  1  0.64971600  0.88143200  0.52215900  1
  O  O80  1  0.37209000  0.13208300  0.50056000  1
  O  O81  1  0.37242900  0.12081600  0.98836800  1
  O  O82  1  0.38095300  0.62066400  0.50198400  1
  O  O83  1  0.36986500  0.61662500  0.98641100  1
  O  O84  1  0.87763100  0.12144200  0.49120100  1
  O  O85  1  0.86684000  0.11931800  0.98637400  1
  O  O86  1  0.88545200  0.62679500  0.50271300  1
  O  O87  1  0.87408800  0.61690800  0.99283900  1
  O  O88  1  0.37396800  0.37222800  0.99586200  1
  O  O89  1  0.38086600  0.38129700  0.50998500  1
  O  O90  1  0.37974300  0.87840200  0.00511600  1
  O  O91  1  0.38478400  0.87913200  0.52013000  1
  O  O92  1  0.87305000  0.36848300  0.00018900  1
  O  O93  1  0.88935400  0.37790100  0.51275800  1
  O  O94  1  0.87590500  0.87266500  0.99873100  1
  O  O95  1  0.88667900  0.87907600  0.50648900  1
  O  O96  1  0.05176900  0.07323400  0.13607600  1
  O  O97  1  0.06181700  0.09087000  0.63522600  1
  O  O98  1  0.08131400  0.56870200  0.13483200  1
  O  O99  1  0.09172500  0.59143100  0.64207000  1
  O  O100  1  0.56926700  0.08132600  0.13174900  1
  O  O101  1  0.56727900  0.10807800  0.64474900  1
  O  O102  1  0.56648400  0.56738600  0.13136400  1
  O  O103  1  0.57726700  0.59056000  0.63903000  1
  O  O104  1  0.43930600  0.42714800  0.36765300  1
  O  O105  1  0.42850200  0.42190600  0.85703400  1
  O  O106  1  0.44461500  0.92111300  0.37155200  1
  O  O107  1  0.43656300  0.91569000  0.85484100  1
  O  O108  1  0.94438300  0.41727300  0.37214400  1
  O  O109  1  0.92524600  0.40150100  0.86036300  1
  O  O110  1  0.95018700  0.91248700  0.36195300  1
  O  O111  1  0.93797200  0.91540600  0.85498600  1
  O  O112  1  0.30973900  0.31541100  0.13788800  1
  O  O113  1  0.31561700  0.30241700  0.63682200  1
  O  O114  1  0.31791800  0.80201900  0.13070500  1
  O  O115  1  0.33681400  0.79050300  0.64391700  1
  O  O116  1  0.81744100  0.29935400  0.12999800  1
  O  O117  1  0.83664200  0.28638800  0.63414000  1
  O  O118  1  0.83687800  0.81031100  0.14109900  1
  O  O119  1  0.85428900  0.80488500  0.64520000  1
  O  O120  1  0.17877100  0.20235800  0.36952500  1
  O  O121  1  0.17735600  0.19053600  0.85897000  1
  O  O122  1  0.20154400  0.69116800  0.37333700  1
  O  O123  1  0.19503800  0.69529100  0.85579300  1
  O  O124  1  0.69288600  0.20223300  0.37043500  1
  O  O125  1  0.67476500  0.18561100  0.86015000  1
  O  O126  1  0.68950100  0.68961300  0.37561600  1
  O  O127  1  0.67940200  0.67536300  0.85909900  1
  O  O128  1  0.46481200  0.03731900  0.25150700  1
  O  O129  1  0.41070300  0.09556200  0.74743800  1
  O  O130  1  0.44770800  0.56057700  0.25420500  1
  O  O131  1  0.42414300  0.56039500  0.73601200  1
  O  O132  1  0.92668700  0.10699500  0.26663400  1
  O  O133  1  0.91170700  0.10107200  0.74644400  1
  O  O134  1  0.98013700  0.52977500  0.25184900  1
  O  O135  1  0.96813500  0.52492200  0.74885900  1
  O  O136  1  0.17975800  0.41714900  0.26560500  1
  O  O137  1  0.16332400  0.39648900  0.74716200  1
  O  O138  1  0.22733900  0.98693400  0.25544900  1
  O  O139  1  0.19751600  0.95498400  0.73463900  1
  O  O140  1  0.73685000  0.48516500  0.25592000  1
  O  O141  1  0.68478400  0.42305900  0.73199400  1
  O  O142  1  0.72686300  0.97758900  0.25303200  1
  O  O143  1  0.70039600  0.95523700  0.73500800  1
