# generated using pymatgen
data_Ca2Sn3S8
_symmetry_space_group_name_H-M   'P 1'
_cell_length_a   7.91464234
_cell_length_b   7.91464234
_cell_length_c   7.91464211
_cell_angle_alpha   57.04768679
_cell_angle_beta   57.04768679
_cell_angle_gamma   57.04768493
_symmetry_Int_Tables_number   1
_chemical_formula_structural   Ca2Sn3S8
_chemical_formula_sum   'Ca2 Sn3 S8'
_cell_volume   326.71418971
_cell_formula_units_Z   1
loop_
 _symmetry_equiv_pos_site_id
 _symmetry_equiv_pos_as_xyz
  1  'x, y, z'
loop_
 _atom_site_type_symbol
 _atom_site_label
 _atom_site_symmetry_multiplicity
 _atom_site_fract_x
 _atom_site_fract_y
 _atom_site_fract_z
 _atom_site_occupancy
  Ca  Ca0  1  0.15680400  0.15680400  0.15680400  1
  Ca  Ca1  1  0.84319600  0.84319600  0.84319600  1
  Sn  Sn2  1  0.50000000  0.50000000  0.00000000  1
  Sn  Sn3  1  0.00000000  0.50000000  0.50000000  1
  Sn  Sn4  1  0.50000000  0.00000000  0.50000000  1
  S  S5  1  0.89869500  0.42735400  0.89869500  1
  S  S6  1  0.89869500  0.89869500  0.42735400  1
  S  S7  1  0.42735400  0.89869500  0.89869500  1
  S  S8  1  0.10130500  0.57264600  0.10130500  1
  S  S9  1  0.10130500  0.10130500  0.57264600  1
  S  S10  1  0.57264600  0.10130500  0.10130500  1
  S  S11  1  0.40670200  0.40670200  0.40670200  1
  S  S12  1  0.59329800  0.59329800  0.59329800  1
