# generated using pymatgen
data_La2Mn2O5
_symmetry_space_group_name_H-M   'P 1'
_cell_length_a   5.76917728
_cell_length_b   5.93765931
_cell_length_c   8.88987203
_cell_angle_alpha   109.48095319
_cell_angle_beta   71.06235755
_cell_angle_gamma   89.96787378
_symmetry_Int_Tables_number   1
_chemical_formula_structural   La2Mn2O5
_chemical_formula_sum   'La4 Mn4 O10'
_cell_volume   269.52459928
_cell_formula_units_Z   2
loop_
 _symmetry_equiv_pos_site_id
 _symmetry_equiv_pos_as_xyz
  1  'x, y, z'
loop_
 _atom_site_type_symbol
 _atom_site_label
 _atom_site_symmetry_multiplicity
 _atom_site_fract_x
 _atom_site_fract_y
 _atom_site_fract_z
 _atom_site_occupancy
  La  La0  1  0.36941300  0.12689400  0.22473000  1
  La  La1  1  0.59503400  0.87268000  0.77540000  1
  La  La2  1  0.87028700  0.59742100  0.22457700  1
  La  La3  1  0.09408100  0.40231100  0.77536500  1
  Mn  Mn4  1  0.21728500  0.79630700  0.50025100  1
  Mn  Mn5  1  0.00023400  0.99923600  0.99895000  1
  Mn  Mn6  1  0.49943200  0.50020300  0.00094700  1
  Mn  Mn7  1  0.71628100  0.20197900  0.49987200  1
  O  O8  1  0.35473500  0.13011100  0.50001400  1
  O  O9  1  0.85499400  0.86982500  0.49993600  1
  O  O10  1  0.26822900  0.23447600  0.94489100  1
  O  O11  1  0.21289200  0.76631300  0.05560800  1
  O  O12  1  0.76856300  0.21060400  0.94422200  1
  O  O13  1  0.71316800  0.78946300  0.05511100  1
  O  O14  1  0.93226800  0.24850600  0.28309100  1
  O  O15  1  0.21406300  0.75294500  0.71767300  1
  O  O16  1  0.43156500  0.53514100  0.28240600  1
  O  O17  1  0.71547200  0.46558600  0.71695700  1
