# generated using pymatgen
data_Sr5Ca3Mn6(FeO12)2
_symmetry_space_group_name_H-M   'P 1'
_cell_length_a   7.70588600
_cell_length_b   7.74638000
_cell_length_c   7.75183301
_cell_angle_alpha   89.99710263
_cell_angle_beta   90.00000000
_cell_angle_gamma   90.00000000
_symmetry_Int_Tables_number   1
_chemical_formula_structural   Sr5Ca3Mn6(FeO12)2
_chemical_formula_sum   'Sr5 Ca3 Mn6 Fe2 O24'
_cell_volume   462.72800600
_cell_formula_units_Z   1
loop_
 _symmetry_equiv_pos_site_id
 _symmetry_equiv_pos_as_xyz
  1  'x, y, z'
loop_
 _atom_site_type_symbol
 _atom_site_label
 _atom_site_symmetry_multiplicity
 _atom_site_fract_x
 _atom_site_fract_y
 _atom_site_fract_z
 _atom_site_occupancy
  Sr  Sr0  1  0.00000000  0.25044500  0.74958600  1
  Sr  Sr1  1  0.50000000  0.25038200  0.74963600  1
  Sr  Sr2  1  0.00000000  0.25030500  0.25042100  1
  Sr  Sr3  1  0.50000000  0.25046000  0.25039400  1
  Sr  Sr4  1  0.00000000  0.74971200  0.25046800  1
  Ca  Ca5  1  0.00000000  0.74929500  0.74926500  1
  Ca  Ca6  1  0.50000000  0.74934700  0.74904400  1
  Ca  Ca7  1  0.50000000  0.74930700  0.25093800  1
  Mn  Mn8  1  0.25054200  0.50128300  0.99939600  1
  Mn  Mn9  1  0.74945800  0.50128300  0.99939600  1
  Mn  Mn10  1  0.25051900  0.99816100  0.50040100  1
  Mn  Mn11  1  0.74948100  0.99816100  0.50040100  1
  Mn  Mn12  1  0.25049800  0.50140400  0.50046400  1
  Mn  Mn13  1  0.74950200  0.50140400  0.50046400  1
  Fe  Fe14  1  0.25056900  0.99782800  0.99927600  1
  Fe  Fe15  1  0.74943100  0.99782800  0.99927600  1
  O  O16  1  0.25056800  0.99455600  0.74637400  1
  O  O17  1  0.74943200  0.99455600  0.74637400  1
  O  O18  1  0.25025700  0.50622500  0.74966500  1
  O  O19  1  0.74974300  0.50622500  0.74966500  1
  O  O20  1  0.25249200  0.99645600  0.25359500  1
  O  O21  1  0.74750800  0.99645600  0.25359500  1
  O  O22  1  0.25294200  0.50360200  0.25040000  1
  O  O23  1  0.74705800  0.50360200  0.25040000  1
  O  O24  1  0.25052500  0.25355200  0.99949500  1
  O  O25  1  0.74947500  0.25355200  0.99949500  1
  O  O26  1  0.25234500  0.74638700  0.99758900  1
  O  O27  1  0.74765500  0.74638700  0.99758900  1
  O  O28  1  0.25024400  0.25044600  0.50030900  1
  O  O29  1  0.74975600  0.25044600  0.50030900  1
  O  O30  1  0.25289000  0.74971500  0.50292000  1
  O  O31  1  0.74711000  0.74971500  0.50292000  1
  O  O32  1  0.00000000  0.99659900  0.99764000  1
  O  O33  1  0.50000000  0.99489100  0.99942200  1
  O  O34  1  0.00000000  0.50371100  0.99716600  1
  O  O35  1  0.50000000  0.50589800  0.99979900  1
  O  O36  1  0.00000000  0.99676300  0.50274900  1
  O  O37  1  0.50000000  0.99417100  0.50052400  1
  O  O38  1  0.00000000  0.50335100  0.50298200  1
  O  O39  1  0.50000000  0.50613200  0.50019600  1
