# generated using pymatgen
data_CaSnS3
_symmetry_space_group_name_H-M   'P 1'
_cell_length_a   6.87389998
_cell_length_b   6.87389998
_cell_length_c   12.25258600
_cell_angle_alpha   90.00000000
_cell_angle_beta   90.00000000
_cell_angle_gamma   119.99999981
_symmetry_Int_Tables_number   1
_chemical_formula_structural   CaSnS3
_chemical_formula_sum   'Ca4 Sn4 S12'
_cell_volume   501.37746379
_cell_formula_units_Z   4
loop_
 _symmetry_equiv_pos_site_id
 _symmetry_equiv_pos_as_xyz
  1  'x, y, z'
loop_
 _atom_site_type_symbol
 _atom_site_label
 _atom_site_symmetry_multiplicity
 _atom_site_fract_x
 _atom_site_fract_y
 _atom_site_fract_z
 _atom_site_occupancy
  Ca  Ca0  1  0.00000000  0.00000000  0.50000000  1
  Ca  Ca1  1  0.00000000  0.00000000  0.00000000  1
  Ca  Ca2  1  0.33333300  0.66666700  0.25000000  1
  Ca  Ca3  1  0.66666700  0.33333300  0.75000000  1
  Sn  Sn4  1  0.33333300  0.66666700  0.87657700  1
  Sn  Sn5  1  0.66666700  0.33333300  0.12342300  1
  Sn  Sn6  1  0.66666700  0.33333300  0.37657700  1
  Sn  Sn7  1  0.33333300  0.66666700  0.62342300  1
  S  S8  1  0.50000000  0.50000000  0.50000000  1
  S  S9  1  0.50000000  0.00000000  0.50000000  1
  S  S10  1  0.00000000  0.50000000  0.50000000  1
  S  S11  1  0.50000000  0.50000000  0.00000000  1
  S  S12  1  0.50000000  0.00000000  0.00000000  1
  S  S13  1  0.00000000  0.50000000  0.00000000  1
  S  S14  1  0.83715300  0.16284700  0.25000000  1
  S  S15  1  0.83715300  0.67430500  0.25000000  1
  S  S16  1  0.32569500  0.16284700  0.25000000  1
  S  S17  1  0.16284700  0.83715300  0.75000000  1
  S  S18  1  0.16284700  0.32569500  0.75000000  1
  S  S19  1  0.67430500  0.83715300  0.75000000  1
