# generated using pymatgen
data_CsRbMg6
_symmetry_space_group_name_H-M   'P 1'
_cell_length_a   8.94807290
_cell_length_b   8.94807290
_cell_length_c   5.54926900
_cell_angle_alpha   90.00000000
_cell_angle_beta   90.00000000
_cell_angle_gamma   138.28837247
_symmetry_Int_Tables_number   1
_chemical_formula_structural   CsRbMg6
_chemical_formula_sum   'Cs1 Rb1 Mg6'
_cell_volume   295.64174943
_cell_formula_units_Z   1
loop_
 _symmetry_equiv_pos_site_id
 _symmetry_equiv_pos_as_xyz
  1  'x, y, z'
loop_
 _atom_site_type_symbol
 _atom_site_label
 _atom_site_symmetry_multiplicity
 _atom_site_fract_x
 _atom_site_fract_y
 _atom_site_fract_z
 _atom_site_occupancy
  Cs  Cs0  1  0.31456400  0.68543600  0.50000000  1
  Rb  Rb1  1  0.81568800  0.18431200  0.50000000  1
  Mg  Mg2  1  0.32339700  0.17444100  0.50000000  1
  Mg  Mg3  1  0.82555900  0.67660300  0.50000000  1
  Mg  Mg4  1  0.22059200  0.27217100  0.00000000  1
  Mg  Mg5  1  0.72782900  0.77940800  0.00000000  1
  Mg  Mg6  1  0.63846600  0.36153400  0.00000000  1
  Mg  Mg7  1  0.13390800  0.86609200  0.00000000  1
