# generated using pymatgen
data_CsMg6Mo
_symmetry_space_group_name_H-M   'P 1'
_cell_length_a   6.56260145
_cell_length_b   6.56260145
_cell_length_c   5.29962800
_cell_angle_alpha   90.00000000
_cell_angle_beta   90.00000000
_cell_angle_gamma   117.52902400
_symmetry_Int_Tables_number   1
_chemical_formula_structural   CsMg6Mo
_chemical_formula_sum   'Cs1 Mg6 Mo1'
_cell_volume   202.40059056
_cell_formula_units_Z   1
loop_
 _symmetry_equiv_pos_site_id
 _symmetry_equiv_pos_as_xyz
  1  'x, y, z'
loop_
 _atom_site_type_symbol
 _atom_site_label
 _atom_site_symmetry_multiplicity
 _atom_site_fract_x
 _atom_site_fract_y
 _atom_site_fract_z
 _atom_site_occupancy
  Cs  Cs0  1  0.35805300  0.64194700  0.50000000  1
  Mg  Mg1  1  0.88595600  0.69280500  0.50000000  1
  Mg  Mg2  1  0.30719500  0.11404400  0.50000000  1
  Mg  Mg3  1  0.82402700  0.17597300  0.50000000  1
  Mg  Mg4  1  0.69925400  0.86317300  0.00000000  1
  Mg  Mg5  1  0.13682700  0.30074600  0.00000000  1
  Mg  Mg6  1  0.65667400  0.34332600  0.00000000  1
  Mo  Mo7  1  0.13201400  0.86798500  0.00000000  1
