# generated using pymatgen
data_BaHfMg6
_symmetry_space_group_name_H-M   'P 1'
_cell_length_a   6.73594114
_cell_length_b   6.73594114
_cell_length_c   5.36839500
_cell_angle_alpha   90.00000000
_cell_angle_beta   90.00000000
_cell_angle_gamma   120.05598795
_symmetry_Int_Tables_number   1
_chemical_formula_structural   BaHfMg6
_chemical_formula_sum   'Ba1 Hf1 Mg6'
_cell_volume   210.82706819
_cell_formula_units_Z   1
loop_
 _symmetry_equiv_pos_site_id
 _symmetry_equiv_pos_as_xyz
  1  'x, y, z'
loop_
 _atom_site_type_symbol
 _atom_site_label
 _atom_site_symmetry_multiplicity
 _atom_site_fract_x
 _atom_site_fract_y
 _atom_site_fract_z
 _atom_site_occupancy
  Ba  Ba0  1  0.16651400  0.83348600  0.00000000  1
  Hf  Hf1  1  0.34566600  0.65433400  0.50000000  1
  Mg  Mg2  1  0.17984000  0.35073700  0.00000000  1
  Mg  Mg3  1  0.64926300  0.82016000  0.00000000  1
  Mg  Mg4  1  0.66607700  0.33392300  0.00000000  1
  Mg  Mg5  1  0.34096700  0.18400300  0.50000000  1
  Mg  Mg6  1  0.81599700  0.65903300  0.50000000  1
  Mg  Mg7  1  0.83567600  0.16432400  0.50000000  1
