# generated using pymatgen
data_CeSe2
_symmetry_space_group_name_H-M   'P 1'
_cell_length_a   19.43225299
_cell_length_b   23.92954198
_cell_length_c   23.92954440
_cell_angle_alpha   120.00017910
_cell_angle_beta   90.00156044
_cell_angle_gamma   89.99733768
_symmetry_Int_Tables_number   1
_chemical_formula_structural   CeSe2
_chemical_formula_sum   'Ce34 Se68'
_cell_volume   9636.55533414
_cell_formula_units_Z   34
loop_
 _symmetry_equiv_pos_site_id
 _symmetry_equiv_pos_as_xyz
  1  'x, y, z'
loop_
 _atom_site_type_symbol
 _atom_site_label
 _atom_site_symmetry_multiplicity
 _atom_site_fract_x
 _atom_site_fract_y
 _atom_site_fract_z
 _atom_site_occupancy
  Ce  Ce0  1  0.22498612  0.41762302  0.20880086  1
  Ce  Ce1  1  0.22498735  0.79117389  0.58235826  1
  Ce  Ce2  1  0.22499982  0.79118203  0.20881826  1
  Ce  Ce3  1  0.22499030  0.20881859  0.79119705  1
  Ce  Ce4  1  0.22499239  0.20881346  0.41764326  1
  Ce  Ce5  1  0.22500419  0.58236439  0.79118233  1
  Ce  Ce6  1  0.77499155  0.58240035  0.79119875  1
  Ce  Ce7  1  0.77498726  0.20881176  0.41761156  1
  Ce  Ce8  1  0.77498925  0.20880206  0.79119511  1
  Ce  Ce9  1  0.77499229  0.79120057  0.20880170  1
  Ce  Ce10  1  0.77499211  0.79120101  0.58238864  1
  Ce  Ce11  1  0.77498880  0.41760810  0.20880700  1
  Ce  Ce12  1  0.36391780  0.38747181  -0.00000330  1
  Ce  Ce13  1  0.36391060  0.61254904  0.61254684  1
  Ce  Ce14  1  0.36391358  0.00000205  0.38745797  1
  Ce  Ce15  1  0.36391692  0.61253050  0.99999865  1
  Ce  Ce16  1  0.36392289  0.38746422  0.38746915  1
  Ce  Ce17  1  0.36391849  -0.00000254  0.61253278  1
  Ce  Ce18  1  0.63609189  0.61252583  0.00000031  1
  Ce  Ce19  1  0.63609503  0.38746223  0.38747150  1
  Ce  Ce20  1  0.63609552  -0.00000930  0.61252702  1
  Ce  Ce21  1  0.63607774  0.38747145  -0.00000027  1
  Ce  Ce22  1  0.63608835  0.61252523  0.61252344  1
  Ce  Ce23  1  0.63609044  0.00000153  0.38747592  1
  Ce  Ce24  1  0.00001105  0.26194394  0.13097172  1
  Ce  Ce25  1  0.00000493  0.86902488  0.73803878  1
  Ce  Ce26  1  -0.00000710  0.86902587  0.13098242  1
  Ce  Ce27  1  0.00001245  0.13096932  0.86902789  1
  Ce  Ce28  1  -0.00000285  0.13098157  0.26195857  1
  Ce  Ce29  1  -0.00000499  0.73804582  0.86901754  1
  Ce  Ce30  1  0.13924217  0.33332716  0.66667662  1
  Ce  Ce31  1  0.13924026  0.66665686  0.33332913  1
  Ce  Ce32  1  0.86077763  0.66668392  0.33332890  1
  Ce  Ce33  1  0.86077642  0.33335203  0.66666775  1
  Se  Se34  1  0.30305963  0.10508315  0.39384782  1
  Se  Se35  1  0.30306354  0.28876106  0.89492380  1
  Se  Se36  1  0.30306325  0.60615398  0.71122710  1
  Se  Se37  1  0.30306434  0.71122965  0.60615326  1
  Se  Se38  1  0.30305947  0.39383836  0.10508182  1
  Se  Se39  1  0.30305969  0.89492106  0.28876792  1
  Se  Se40  1  0.30306365  0.89493012  0.60615897  1
  Se  Se41  1  0.30305506  0.71123951  0.10508260  1
  Se  Se42  1  0.30305959  0.39384011  0.28876540  1
  Se  Se43  1  0.30306221  0.28876909  0.39384128  1
  Se  Se44  1  0.30305601  0.60615716  0.89491887  1
  Se  Se45  1  0.30306304  0.10506984  0.71123042  1
  Se  Se46  1  0.69693784  0.89492308  0.60616282  1
  Se  Se47  1  0.69693758  0.71123810  0.10507709  1
  Se  Se48  1  0.69694688  0.39384503  0.28875598  1
  Se  Se49  1  0.69693904  0.28875917  0.39383688  1
  Se  Se50  1  0.69693550  0.60616087  0.89492495  1
  Se  Se51  1  0.69694425  0.10508519  0.71124024  1
  Se  Se52  1  0.69693562  0.10507511  0.39383829  1
  Se  Se53  1  0.69694875  0.28875344  0.89490702  1
  Se  Se54  1  0.69693171  0.60616366  0.71122764  1
  Se  Se55  1  0.69693264  0.71123454  0.60616264  1
  Se  Se56  1  0.69695110  0.39384727  0.10509662  1
  Se  Se57  1  0.69693453  0.89493058  0.28876811  1
  Se  Se58  1  0.81606821  0.54279825  0.27139877  1
  Se  Se59  1  0.81607631  0.72859697  0.45719418  1
  Se  Se60  1  0.81607245  0.72860297  0.27139767  1
  Se  Se61  1  0.81607028  0.27140201  0.72859882  1
  Se  Se62  1  0.81607608  0.27140227  0.54280551  1
  Se  Se63  1  0.81607475  0.45720149  0.72860043  1
  Se  Se64  1  0.18392380  0.45720554  0.72860745  1
  Se  Se65  1  0.18392595  0.27139864  0.54279771  1
  Se  Se66  1  0.18393564  0.27139057  0.72861054  1
  Se  Se67  1  0.18392554  0.72860042  0.27139012  1
  Se  Se68  1  0.18392631  0.72860118  0.45720325  1
  Se  Se69  1  0.18393968  0.54276942  0.27138363  1
  Se  Se70  1  0.11269678  0.33956181  0.16978136  1
  Se  Se71  1  0.11269802  0.83021967  0.66043780  1
  Se  Se72  1  0.11269026  0.83022496  0.16977666  1
  Se  Se73  1  0.11268939  0.16977822  0.83022133  1
  Se  Se74  1  0.11269683  0.16978138  0.33956158  1
  Se  Se75  1  0.11268417  0.66045262  0.83022549  1
  Se  Se76  1  0.88733131  0.66045711  0.83022798  1
  Se  Se77  1  0.88731343  0.16977981  0.33955587  1
  Se  Se78  1  0.88732438  0.16977796  0.83022315  1
  Se  Se79  1  0.88732407  0.83022702  0.16977479  1
  Se  Se80  1  0.88731007  0.83022294  0.66044179  1
  Se  Se81  1  0.88731832  0.33955899  0.16977909  1
  Se  Se82  1  0.49999182  0.36142718  -0.00000048  1
  Se  Se83  1  0.49998907  0.63858449  0.63858255  1
  Se  Se84  1  0.49999133  0.00000096  0.36141741  1
  Se  Se85  1  0.49999837  0.63857852  0.99999971  1
  Se  Se86  1  0.49999597  0.36142794  0.36142815  1
  Se  Se87  1  0.49999545  -0.00000028  0.63857133  1
  Se  Se88  1  -0.00000237  0.18720295  -0.00000255  1
  Se  Se89  1  0.00000057  0.81279514  0.81280624  1
  Se  Se90  1  0.00000058  -0.00000131  0.18719897  1
  Se  Se91  1  0.00000114  0.81280233  0.99999487  1
  Se  Se92  1  0.99999743  0.18719140  0.18719743  1
  Se  Se93  1  0.99999746  0.00000081  0.81280569  1
  Se  Se94  1  0.34561727  0.49999686  -0.00000001  1
  Se  Se95  1  0.34561676  0.49999679  0.49999499  1
  Se  Se96  1  0.34561717  0.00000207  0.50000923  1
  Se  Se97  1  0.65437178  0.50000263  -0.00000010  1
  Se  Se98  1  0.65437314  0.50000579  0.50000440  1
  Se  Se99  1  0.65437331  0.00000097  0.49999727  1
  Se  Se100  1  -0.00000508  0.33328795  0.66671542  1
  Se  Se101  1  -0.00000877  0.66657281  0.33328485  1
