# generated using pymatgen
data_CaSnS3
_symmetry_space_group_name_H-M   'P 1'
_cell_length_a   7.72449800
_cell_length_b   7.74726003
_cell_length_c   7.74726003
_cell_angle_alpha   120.00000022
_cell_angle_beta   90.00000000
_cell_angle_gamma   90.00000000
_symmetry_Int_Tables_number   1
_chemical_formula_structural   CaSnS3
_chemical_formula_sum   'Ca3 Sn3 S9'
_cell_volume   401.51073492
_cell_formula_units_Z   3
loop_
 _symmetry_equiv_pos_site_id
 _symmetry_equiv_pos_as_xyz
  1  'x, y, z'
loop_
 _atom_site_type_symbol
 _atom_site_label
 _atom_site_symmetry_multiplicity
 _atom_site_fract_x
 _atom_site_fract_y
 _atom_site_fract_z
 _atom_site_occupancy
  Ca  Ca0  1  0.50000000  0.33209900  0.00000000  1
  Ca  Ca1  1  0.50000000  0.66790100  0.66790100  1
  Ca  Ca2  1  0.50000000  0.00000000  0.33209900  1
  Sn  Sn3  1  0.00000000  0.66681700  0.00000000  1
  Sn  Sn4  1  0.00000000  0.33318300  0.33318300  1
  Sn  Sn5  1  0.00000000  0.00000000  0.66681700  1
  S  S6  1  0.32036000  0.66483500  0.00000000  1
  S  S7  1  0.32036000  0.33516500  0.33516500  1
  S  S8  1  0.32036000  0.00000000  0.66483500  1
  S  S9  1  0.67964000  0.66483500  0.00000000  1
  S  S10  1  0.67964000  0.33516500  0.33516500  1
  S  S11  1  0.67964000  0.00000000  0.66483500  1
  S  S12  1  0.00000000  0.33257500  0.00000000  1
  S  S13  1  0.00000000  0.66742500  0.66742500  1
  S  S14  1  0.00000000  0.00000000  0.33257500  1
