# generated using pymatgen
data_Sr7CaFe7CoO20
_symmetry_space_group_name_H-M   'P 1'
_cell_length_a   11.07395639
_cell_length_b   11.43169761
_cell_length_c   17.64736622
_cell_angle_alpha   108.83490992
_cell_angle_beta   108.33029244
_cell_angle_gamma   89.93528516
_symmetry_Int_Tables_number   1
_chemical_formula_structural   Sr7CaFe7CoO20
_chemical_formula_sum   'Sr28 Ca4 Fe28 Co4 O80'
_cell_volume   1994.56522954
_cell_formula_units_Z   4
loop_
 _symmetry_equiv_pos_site_id
 _symmetry_equiv_pos_as_xyz
  1  'x, y, z'
loop_
 _atom_site_type_symbol
 _atom_site_label
 _atom_site_symmetry_multiplicity
 _atom_site_fract_x
 _atom_site_fract_y
 _atom_site_fract_z
 _atom_site_occupancy
  Sr  Sr0  1  0.30559726  0.06419184  0.60932484  1
  Sr  Sr1  1  0.30605785  0.56358166  0.60951408  1
  Sr  Sr2  1  0.80690091  0.06410376  0.60961323  1
  Sr  Sr3  1  0.80788038  0.56527974  0.10845122  1
  Sr  Sr4  1  0.80673118  0.56379757  0.60944811  1
  Sr  Sr5  1  0.19585368  0.43434075  0.38897411  1
  Sr  Sr6  1  0.19502430  0.43896738  0.89290000  1
  Sr  Sr7  1  0.19653291  0.93561233  0.38780376  1
  Sr  Sr8  1  0.19724955  0.93663245  0.89324962  1
  Sr  Sr9  1  0.69583258  0.43576469  0.38959438  1
  Sr  Sr10  1  0.70317893  0.43972853  0.89333184  1
  Sr  Sr11  1  0.69477515  0.93545465  0.38962749  1
  Sr  Sr12  1  0.69963883  0.93455746  0.89360282  1
  Sr  Sr13  1  0.05591273  0.29335048  0.10998366  1
  Sr  Sr14  1  0.05663099  0.29616164  0.60943324  1
  Sr  Sr15  1  0.05652749  0.79616593  0.60917218  1
  Sr  Sr16  1  0.55769537  0.29112386  0.10953152  1
  Sr  Sr17  1  0.55505110  0.29576062  0.60891247  1
  Sr  Sr18  1  0.55875932  0.79656721  0.10916315  1
  Sr  Sr19  1  0.55549750  0.79599902  0.60908197  1
  Sr  Sr20  1  0.44563302  0.20206953  0.38652880  1
  Sr  Sr21  1  0.44774659  0.20432622  0.89252829  1
  Sr  Sr22  1  0.44551652  0.70318094  0.38708832  1
  Sr  Sr23  1  0.45208911  0.70852237  0.89384600  1
  Sr  Sr24  1  0.94465851  0.20227768  0.38780142  1
  Sr  Sr25  1  0.94972252  0.20677840  0.89301789  1
  Sr  Sr26  1  0.94514572  0.70386291  0.38876172  1
  Sr  Sr27  1  0.94672879  0.70633914  0.89402913  1
  Ca  Ca28  1  0.29646015  0.06558821  0.10549097  1
  Ca  Ca29  1  0.29705103  0.56724342  0.10530541  1
  Ca  Ca30  1  0.79770185  0.06457308  0.10525408  1
  Ca  Ca31  1  0.04850433  0.78669296  0.10590082  1
  Fe  Fe32  1  0.00313626  0.99953063  0.49817127  1
  Fe  Fe33  1  0.00341614  0.49955051  0.49913694  1
  Fe  Fe34  1  0.50353034  0.00044979  0.50002765  1
  Fe  Fe35  1  0.50606589  0.50248715  0.00295736  1
  Fe  Fe36  1  0.50389418  0.50039062  0.49991062  1
  Fe  Fe37  1  0.25665665  0.25182812  0.00479664  1
  Fe  Fe38  1  0.25258457  0.24852525  0.49778566  1
  Fe  Fe39  1  0.25641268  0.75406685  0.00645413  1
  Fe  Fe40  1  0.25332077  0.74959413  0.49892427  1
  Fe  Fe41  1  0.75611022  0.24844359  0.00143551  1
  Fe  Fe42  1  0.75313668  0.24963928  0.49941360  1
  Fe  Fe43  1  0.75376869  0.75016892  0.50058131  1
  Fe  Fe44  1  0.10460496  0.08579072  0.24642579  1
  Fe  Fe45  1  0.10859131  0.09183675  0.75153844  1
  Fe  Fe46  1  0.11055696  0.59248672  0.25046063  1
  Fe  Fe47  1  0.10889260  0.59236138  0.75177531  1
  Fe  Fe48  1  0.60508812  0.08903714  0.24878558  1
  Fe  Fe49  1  0.60890761  0.09128597  0.75127880  1
  Fe  Fe50  1  0.60348408  0.58929011  0.24658242  1
  Fe  Fe51  1  0.60828320  0.59050132  0.74970522  1
  Fe  Fe52  1  0.35671951  0.40835893  0.24647363  1
  Fe  Fe53  1  0.35890931  0.41017341  0.75147143  1
  Fe  Fe54  1  0.35035035  0.90723639  0.24430310  1
  Fe  Fe55  1  0.35774153  0.90892867  0.74856628  1
  Fe  Fe56  1  0.85721921  0.40680744  0.24857145  1
  Fe  Fe57  1  0.85766830  0.40902133  0.74839655  1
  Fe  Fe58  1  0.85840225  0.91294266  0.24853745  1
  Fe  Fe59  1  0.85774226  0.90875128  0.74944545  1
  Co  Co60  1  0.00807646  0.00223094  0.00746082  1
  Co  Co61  1  0.00877414  0.50305404  0.00602909  1
  Co  Co62  1  0.50666665  0.00242690  0.00474985  1
  Co  Co63  1  0.75932893  0.75569841  0.00617245  1
  O  O64  1  0.12429025  0.12251553  0.49181773  1
  O  O65  1  0.12569106  0.12143347  0.99417143  1
  O  O66  1  0.12331507  0.62131434  0.49049292  1
  O  O67  1  0.12540097  0.62209075  0.99672739  1
  O  O68  1  0.62245091  0.12155537  0.49121172  1
  O  O69  1  0.62551721  0.12133498  0.99326463  1
  O  O70  1  0.62294103  0.62206065  0.49079327  1
  O  O71  1  0.62497334  0.62152916  0.99264120  1
  O  O72  1  0.13565132  0.38649989  0.01413433  1
  O  O73  1  0.13221597  0.37691283  0.50711423  1
  O  O74  1  0.13472209  0.88133321  0.01565182  1
  O  O75  1  0.13172678  0.87792225  0.50710566  1
  O  O76  1  0.63396821  0.37581138  0.00907935  1
  O  O77  1  0.63097226  0.37777655  0.50729196  1
  O  O78  1  0.63309476  0.88740006  0.01245703  1
  O  O79  1  0.63032084  0.87767873  0.50632544  1
  O  O80  1  0.37395087  0.11958232  0.49148304  1
  O  O81  1  0.37683030  0.11821610  0.99466636  1
  O  O82  1  0.37351039  0.61861170  0.49017965  1
  O  O83  1  0.37384805  0.62068133  0.99395636  1
  O  O84  1  0.87344070  0.11911925  0.49076291  1
  O  O85  1  0.87690765  0.11765866  0.99508551  1
  O  O86  1  0.87337437  0.61940448  0.49053582  1
  O  O87  1  0.88420615  0.61444276  0.99478525  1
  O  O88  1  0.38247506  0.38374916  0.01280456  1
  O  O89  1  0.38084687  0.37848272  0.50533392  1
  O  O90  1  0.38323569  0.88647874  0.01368449  1
  O  O91  1  0.38218300  0.88046596  0.50673941  1
  O  O92  1  0.88728296  0.38283605  0.01049909  1
  O  O93  1  0.88166332  0.37971724  0.50685755  1
  O  O94  1  0.89173618  0.88904084  0.01827663  1
  O  O95  1  0.88110072  0.87969234  0.50621820  1
  O  O96  1  0.10247864  0.10580300  0.14661495  1
  O  O97  1  0.08108795  0.09480934  0.64025557  1
  O  O98  1  0.09426536  0.60905576  0.14680972  1
  O  O99  1  0.08136940  0.59472259  0.63993923  1
  O  O100  1  0.60238988  0.10283646  0.14717789  1
  O  O101  1  0.58158118  0.09411183  0.63969768  1
  O  O102  1  0.58729730  0.59632006  0.13947261  1
  O  O103  1  0.57868500  0.59259790  0.63744559  1
  O  O104  1  0.44225866  0.40633992  0.35761110  1
  O  O105  1  0.44171019  0.40419415  0.86082957  1
  O  O106  1  0.43618436  0.90779646  0.35655096  1
  O  O107  1  0.44215586  0.89688141  0.85342620  1
  O  O108  1  0.94065446  0.40408690  0.35965750  1
  O  O109  1  0.94252617  0.39702584  0.85349100  1
  O  O110  1  0.94363896  0.90968966  0.36015686  1
  O  O111  1  0.94269680  0.89658452  0.85456742  1
  O  O112  1  0.33233727  0.28505003  0.13969729  1
  O  O113  1  0.33176747  0.29616144  0.64004092  1
  O  O114  1  0.33529680  0.78474881  0.13954956  1
  O  O115  1  0.32910239  0.79497548  0.63648560  1
  O  O116  1  0.83237483  0.28789966  0.14010632  1
  O  O117  1  0.82976852  0.29486952  0.63673426  1
  O  O118  1  0.84217473  0.79316329  0.14429099  1
  O  O119  1  0.82859198  0.79548683  0.63669063  1
  O  O120  1  0.18927435  0.19846689  0.35957459  1
  O  O121  1  0.19225431  0.20545948  0.86240676  1
  O  O122  1  0.19219582  0.70593874  0.36194246  1
  O  O123  1  0.19215531  0.70491517  0.86246178  1
  O  O124  1  0.68565369  0.20322976  0.36098639  1
  O  O125  1  0.69432361  0.20463048  0.86180457  1
  O  O126  1  0.68572975  0.70340027  0.35801802  1
  O  O127  1  0.69531940  0.70481619  0.85690549  1
  O  O128  1  0.42525633  0.05718166  0.23953705  1
  O  O129  1  0.43530825  0.06258716  0.75008020  1
  O  O130  1  0.42616298  0.55892031  0.24017631  1
  O  O131  1  0.43548516  0.56162467  0.75101223  1
  O  O132  1  0.92671484  0.06391025  0.24167245  1
  O  O133  1  0.93523719  0.06156555  0.75041576  1
  O  O134  1  0.93705658  0.55687610  0.24883950  1
  O  O135  1  0.93557576  0.56219253  0.75051749  1
  O  O136  1  0.18634239  0.43987502  0.24956869  1
  O  O137  1  0.18527054  0.43985898  0.75050782  1
  O  O138  1  0.17373504  0.92801300  0.24120478  1
  O  O139  1  0.18495784  0.94007192  0.75058385  1
  O  O140  1  0.68509246  0.44030628  0.24940226  1
  O  O141  1  0.68430069  0.43817613  0.74932239  1
  O  O142  1  0.68529999  0.93839719  0.25062924  1
  O  O143  1  0.68473218  0.93953486  0.75039039  1
