# generated using pymatgen
data_RbMg6C
_symmetry_space_group_name_H-M   'P 1'
_cell_length_a   8.59454128
_cell_length_b   8.59454128
_cell_length_c   3.35875900
_cell_angle_alpha   90.00000000
_cell_angle_beta   90.00000000
_cell_angle_gamma   121.26551474
_symmetry_Int_Tables_number   1
_chemical_formula_structural   RbMg6C
_chemical_formula_sum   'Rb1 Mg6 C1'
_cell_volume   212.06754643
_cell_formula_units_Z   1
loop_
 _symmetry_equiv_pos_site_id
 _symmetry_equiv_pos_as_xyz
  1  'x, y, z'
loop_
 _atom_site_type_symbol
 _atom_site_label
 _atom_site_symmetry_multiplicity
 _atom_site_fract_x
 _atom_site_fract_y
 _atom_site_fract_z
 _atom_site_occupancy
  Rb  Rb0  1  0.79842500  0.20157500  0.50000000  1
  Mg  Mg1  1  0.25125100  0.13345400  0.50000000  1
  Mg  Mg2  1  0.86654600  0.74874900  0.50000000  1
  Mg  Mg3  1  0.25571300  0.43560500  0.00000000  1
  Mg  Mg4  1  0.56439500  0.74428700  0.00000000  1
  Mg  Mg5  1  0.57481600  0.42518400  0.00000000  1
  Mg  Mg6  1  0.21051000  0.78949000  0.00000000  1
  C  C7  1  0.47834900  0.52165100  0.50000000  1
