# generated using pymatgen
data_SrCa7Fe2(Co3O10)2
_symmetry_space_group_name_H-M   'P 1'
_cell_length_a   10.66062048
_cell_length_b   11.16152564
_cell_length_c   17.04766560
_cell_angle_alpha   108.91137168
_cell_angle_beta   108.01730203
_cell_angle_gamma   90.38863197
_symmetry_Int_Tables_number   1
_chemical_formula_structural   SrCa7Fe2(Co3O10)2
_chemical_formula_sum   'Sr4 Ca28 Fe8 Co24 O80'
_cell_volume   1811.92399305
_cell_formula_units_Z   4
loop_
 _symmetry_equiv_pos_site_id
 _symmetry_equiv_pos_as_xyz
  1  'x, y, z'
loop_
 _atom_site_type_symbol
 _atom_site_label
 _atom_site_symmetry_multiplicity
 _atom_site_fract_x
 _atom_site_fract_y
 _atom_site_fract_z
 _atom_site_occupancy
  Sr  Sr0  1  0.30281200  0.56122700  0.60730800  1
  Sr  Sr1  1  0.05471400  0.29724100  0.60953700  1
  Sr  Sr2  1  0.55571100  0.29358900  0.61040100  1
  Sr  Sr3  1  0.45052400  0.20082800  0.89080900  1
  Ca  Ca4  1  0.30441700  0.06940400  0.10858800  1
  Ca  Ca5  1  0.30196100  0.06578100  0.60507100  1
  Ca  Ca6  1  0.30637500  0.56790300  0.11160900  1
  Ca  Ca7  1  0.80566500  0.06445100  0.10854600  1
  Ca  Ca8  1  0.80179400  0.06555700  0.60641200  1
  Ca  Ca9  1  0.80868300  0.56589000  0.11057700  1
  Ca  Ca10  1  0.80910900  0.56708600  0.60600400  1
  Ca  Ca11  1  0.18917400  0.43319000  0.38769600  1
  Ca  Ca12  1  0.19703800  0.43455800  0.89691800  1
  Ca  Ca13  1  0.19301900  0.93062800  0.38932200  1
  Ca  Ca14  1  0.19589400  0.93689800  0.89471500  1
  Ca  Ca15  1  0.70165600  0.43454400  0.38998700  1
  Ca  Ca16  1  0.70165800  0.43144300  0.89776200  1
  Ca  Ca17  1  0.69642200  0.93003300  0.38876200  1
  Ca  Ca18  1  0.69692100  0.93711400  0.89491400  1
  Ca  Ca19  1  0.05619500  0.29353700  0.10871700  1
  Ca  Ca20  1  0.05207500  0.79354500  0.10882100  1
  Ca  Ca21  1  0.05445400  0.78714500  0.60461600  1
  Ca  Ca22  1  0.55826600  0.29193900  0.11013000  1
  Ca  Ca23  1  0.55614900  0.79241800  0.11130000  1
  Ca  Ca24  1  0.55556600  0.79383500  0.60809200  1
  Ca  Ca25  1  0.44303300  0.20764000  0.38815100  1
  Ca  Ca26  1  0.44814000  0.70564700  0.38870600  1
  Ca  Ca27  1  0.44648100  0.71446800  0.89607900  1
  Ca  Ca28  1  0.94170900  0.20846200  0.38929700  1
  Ca  Ca29  1  0.95002900  0.20952200  0.89472000  1
  Ca  Ca30  1  0.94713700  0.70362800  0.38951500  1
  Ca  Ca31  1  0.94511300  0.71499700  0.89536600  1
  Fe  Fe32  1  0.10383600  0.08852000  0.74985000  1
  Fe  Fe33  1  0.10527800  0.59763300  0.75297400  1
  Fe  Fe34  1  0.61173300  0.59705000  0.75410800  1
  Fe  Fe35  1  0.35932900  0.41255900  0.75534600  1
  Fe  Fe36  1  0.35466300  0.90922400  0.24877900  1
  Fe  Fe37  1  0.35613100  0.90701100  0.74815800  1
  Fe  Fe38  1  0.85746500  0.41067600  0.75334400  1
  Fe  Fe39  1  0.85477700  0.90807400  0.75075700  1
  Co  Co40  1  0.00573200  0.00129200  0.00099700  1
  Co  Co41  1  0.00381800  0.99788600  0.49806300  1
  Co  Co42  1  0.00686900  0.50080500  0.00128800  1
  Co  Co43  1  0.00156000  0.49816300  0.49414500  1
  Co  Co44  1  0.50716200  0.00002400  0.00335000  1
  Co  Co45  1  0.50238400  0.99365900  0.49288000  1
  Co  Co46  1  0.50799500  0.50057200  0.00177800  1
  Co  Co47  1  0.50477200  0.49910900  0.49592600  1
  Co  Co48  1  0.25702100  0.25193300  0.00227000  1
  Co  Co49  1  0.24792700  0.24546200  0.49166700  1
  Co  Co50  1  0.25651600  0.75210800  0.00303100  1
  Co  Co51  1  0.25474200  0.74844700  0.49776300  1
  Co  Co52  1  0.75949100  0.25013400  0.00412900  1
  Co  Co53  1  0.75276500  0.24759800  0.49583700  1
  Co  Co54  1  0.75586800  0.75054500  0.00117700  1
  Co  Co55  1  0.75800600  0.74948900  0.49990700  1
  Co  Co56  1  0.10431600  0.09260600  0.24786000  1
  Co  Co57  1  0.10957000  0.59452800  0.24954700  1
  Co  Co58  1  0.60894200  0.09423600  0.24989600  1
  Co  Co59  1  0.61079500  0.09193100  0.74961300  1
  Co  Co60  1  0.60890700  0.59378800  0.24966900  1
  Co  Co61  1  0.35776300  0.40666400  0.24951000  1
  Co  Co62  1  0.85796400  0.40616000  0.24955600  1
  Co  Co63  1  0.85723500  0.90501900  0.24984900  1
  O  O64  1  0.12467000  0.12113600  0.48367000  1
  O  O65  1  0.12361700  0.12179900  0.98851100  1
  O  O66  1  0.11775500  0.61523700  0.48008600  1
  O  O67  1  0.12699400  0.62811200  0.98948400  1
  O  O68  1  0.61653300  0.11334600  0.48528800  1
  O  O69  1  0.63012900  0.11920300  0.99356300  1
  O  O70  1  0.62825200  0.62615500  0.48682900  1
  O  O71  1  0.62347900  0.61743200  0.99203100  1
  O  O72  1  0.13947000  0.38515300  0.01586200  1
  O  O73  1  0.12616800  0.37622600  0.50400600  1
  O  O74  1  0.13727100  0.88466200  0.01771500  1
  O  O75  1  0.13419000  0.88009000  0.50872400  1
  O  O76  1  0.64246400  0.38173400  0.01917400  1
  O  O77  1  0.62831500  0.38280400  0.50525200  1
  O  O78  1  0.63335000  0.87772800  0.01473800  1
  O  O79  1  0.63719000  0.88163100  0.51437000  1
  O  O80  1  0.36799000  0.10967700  0.48046600  1
  O  O81  1  0.37496900  0.11645300  0.99388700  1
  O  O82  1  0.37931800  0.61242500  0.48551900  1
  O  O83  1  0.37197100  0.61673600  0.98500900  1
  O  O84  1  0.87025600  0.11202000  0.48447000  1
  O  O85  1  0.87443100  0.11691500  0.98677300  1
  O  O86  1  0.87437100  0.61505400  0.48222200  1
  O  O87  1  0.87463000  0.61703000  0.98907300  1
  O  O88  1  0.39053500  0.38980900  0.01454500  1
  O  O89  1  0.37670400  0.37090700  0.50339400  1
  O  O90  1  0.38322800  0.87916300  0.01477400  1
  O  O91  1  0.38981800  0.88385700  0.50781700  1
  O  O92  1  0.88729700  0.38149200  0.01386300  1
  O  O93  1  0.88083300  0.38787500  0.51016700  1
  O  O94  1  0.88746100  0.88553300  0.01661800  1
  O  O95  1  0.88180700  0.87600700  0.50992100  1
  O  O96  1  0.08594300  0.10354700  0.14157800  1
  O  O97  1  0.08760500  0.09371900  0.63865500  1
  O  O98  1  0.08665600  0.60408000  0.14183800  1
  O  O99  1  0.07935700  0.59862800  0.63807700  1
  O  O100  1  0.58792300  0.10264500  0.14301400  1
  O  O101  1  0.59196100  0.09497100  0.64223200  1
  O  O102  1  0.58692000  0.60385900  0.14221800  1
  O  O103  1  0.58876000  0.60016000  0.64036000  1
  O  O104  1  0.44599300  0.39778400  0.35696200  1
  O  O105  1  0.45670900  0.40190900  0.86381400  1
  O  O106  1  0.45033100  0.89089300  0.35653400  1
  O  O107  1  0.44822300  0.90112400  0.86000400  1
  O  O108  1  0.94023700  0.40120600  0.35998900  1
  O  O109  1  0.95210900  0.39665900  0.86153000  1
  O  O110  1  0.94341100  0.89570000  0.35718700  1
  O  O111  1  0.95064500  0.89855400  0.86079700  1
  O  O112  1  0.33708500  0.29128500  0.14217200  1
  O  O113  1  0.33112700  0.29136900  0.64286500  1
  O  O114  1  0.33893600  0.78498100  0.14009000  1
  O  O115  1  0.33677300  0.79082100  0.63664900  1
  O  O116  1  0.84136900  0.28791900  0.14411400  1
  O  O117  1  0.82813800  0.28804600  0.64174900  1
  O  O118  1  0.83603800  0.78858500  0.14266900  1
  O  O119  1  0.84067600  0.78687700  0.64029700  1
  O  O120  1  0.19203900  0.21052500  0.35449700  1
  O  O121  1  0.19299400  0.21250000  0.85961700  1
  O  O122  1  0.19753300  0.70964800  0.35708300  1
  O  O123  1  0.19785900  0.72003400  0.86106200  1
  O  O124  1  0.69467000  0.21048600  0.35699400  1
  O  O125  1  0.69373900  0.20738500  0.85767600  1
  O  O126  1  0.69552900  0.71005500  0.35725600  1
  O  O127  1  0.70338900  0.71909000  0.86287900  1
  O  O128  1  0.42385400  0.06903100  0.24917700  1
  O  O129  1  0.42297200  0.06299700  0.74202300  1
  O  O130  1  0.42609800  0.56801800  0.24983000  1
  O  O131  1  0.43205300  0.57363600  0.75786900  1
  O  O132  1  0.92364200  0.06754900  0.24975100  1
  O  O133  1  0.92111800  0.06983100  0.74987400  1
  O  O134  1  0.92726300  0.56687500  0.24970500  1
  O  O135  1  0.92287900  0.57220300  0.75167500  1
  O  O136  1  0.17518800  0.43254600  0.24912100  1
  O  O137  1  0.18043900  0.44205400  0.75954700  1
  O  O138  1  0.17317100  0.93100200  0.24930000  1
  O  O139  1  0.17355900  0.92849500  0.75029000  1
  O  O140  1  0.67591500  0.43212400  0.24886000  1
  O  O141  1  0.68022100  0.43886600  0.75991000  1
  O  O142  1  0.67475400  0.93246400  0.25014100  1
  O  O143  1  0.67350600  0.92680800  0.75117600  1
