# generated using pymatgen
data_K2Na2Mo(WO4)3
_symmetry_space_group_name_H-M   'P 1'
_cell_length_a   4.00339400
_cell_length_b   8.01477300
_cell_length_c   8.02473000
_cell_angle_alpha   90.00000000
_cell_angle_beta   90.00000000
_cell_angle_gamma   90.00000000
_symmetry_Int_Tables_number   1
_chemical_formula_structural   K2Na2Mo(WO4)3
_chemical_formula_sum   'K2 Na2 Mo1 W3 O12'
_cell_volume   257.48384717
_cell_formula_units_Z   1
loop_
 _symmetry_equiv_pos_site_id
 _symmetry_equiv_pos_as_xyz
  1  'x, y, z'
loop_
 _atom_site_type_symbol
 _atom_site_label
 _atom_site_symmetry_multiplicity
 _atom_site_fract_x
 _atom_site_fract_y
 _atom_site_fract_z
 _atom_site_occupancy
  K  K0  1  0.50000000  0.25042300  0.25169200  1
  K  K1  1  0.50000000  0.25042300  0.74830800  1
  Na  Na2  1  0.50000000  0.74986800  0.25181900  1
  Na  Na3  1  0.50000000  0.74986800  0.74818100  1
  Mo  Mo4  1  0.00000000  0.50165400  0.50000000  1
  W  W5  1  0.00000000  0.99848000  0.00000000  1
  W  W6  1  0.00000000  0.50167600  0.00000000  1
  W  W7  1  0.00000000  0.99866800  0.50000000  1
  O  O8  1  0.50000000  0.99726400  0.00000000  1
  O  O9  1  0.50000000  0.50285900  0.00000000  1
  O  O10  1  0.50000000  0.99678600  0.50000000  1
  O  O11  1  0.50000000  0.50302700  0.50000000  1
  O  O12  1  0.00000000  0.99712600  0.24074300  1
  O  O13  1  0.00000000  0.50309600  0.23977800  1
  O  O14  1  0.00000000  0.99712600  0.75925700  1
  O  O15  1  0.00000000  0.50309600  0.76022200  1
  O  O16  1  0.00000000  0.24926800  0.00000000  1
  O  O17  1  0.00000000  0.75074900  0.00000000  1
  O  O18  1  0.00000000  0.24013700  0.50000000  1
  O  O19  1  0.00000000  0.75840500  0.50000000  1
