# generated using pymatgen
data_CaSnS3
_symmetry_space_group_name_H-M   'P 1'
_cell_length_a   7.68758400
_cell_length_b   9.26123542
_cell_length_c   15.56159277
_cell_angle_alpha   98.72342962
_cell_angle_beta   90.00000000
_cell_angle_gamma   90.00000000
_symmetry_Int_Tables_number   1
_chemical_formula_structural   CaSnS3
_chemical_formula_sum   'Ca8 Sn8 S24'
_cell_volume   1095.11472738
_cell_formula_units_Z   8
loop_
 _symmetry_equiv_pos_site_id
 _symmetry_equiv_pos_as_xyz
  1  'x, y, z'
loop_
 _atom_site_type_symbol
 _atom_site_label
 _atom_site_symmetry_multiplicity
 _atom_site_fract_x
 _atom_site_fract_y
 _atom_site_fract_z
 _atom_site_occupancy
  Ca  Ca0  1  0.57642500  0.61078900  0.85168500  1
  Ca  Ca1  1  0.07642500  0.88921100  0.64831500  1
  Ca  Ca2  1  0.42357500  0.38921100  0.14831500  1
  Ca  Ca3  1  0.92357500  0.11078900  0.35168500  1
  Ca  Ca4  1  0.40090100  0.89451400  0.12819000  1
  Ca  Ca5  1  0.90090100  0.60548600  0.37181000  1
  Ca  Ca6  1  0.59909900  0.10548600  0.87181000  1
  Ca  Ca7  1  0.09909900  0.39451400  0.62819000  1
  Sn  Sn8  1  0.08906000  0.77520500  0.90034000  1
  Sn  Sn9  1  0.58906000  0.72479500  0.59966000  1
  Sn  Sn10  1  0.91094000  0.22479500  0.09966000  1
  Sn  Sn11  1  0.41094000  0.27520500  0.40034000  1
  Sn  Sn12  1  0.84794200  0.68695100  0.12871600  1
  Sn  Sn13  1  0.34794200  0.81304900  0.37128400  1
  Sn  Sn14  1  0.15205800  0.31304900  0.87128400  1
  Sn  Sn15  1  0.65205800  0.18695100  0.62871600  1
  S  S16  1  0.06953300  0.53239800  0.81164900  1
  S  S17  1  0.56953400  0.96760200  0.68835100  1
  S  S18  1  0.93046600  0.46760200  0.18835100  1
  S  S19  1  0.43046600  0.03239800  0.31164900  1
  S  S20  1  0.83874100  0.85616200  0.83133300  1
  S  S21  1  0.33874100  0.64383800  0.66866700  1
  S  S22  1  0.16125900  0.14383800  0.16866700  1
  S  S23  1  0.66125900  0.35616200  0.33133300  1
  S  S24  1  0.37925300  0.86741800  0.90456700  1
  S  S25  1  0.87925300  0.63258200  0.59543300  1
  S  S26  1  0.62074700  0.13258200  0.09543300  1
  S  S27  1  0.12074700  0.36741800  0.40456700  1
  S  S28  1  0.11175700  0.73080200  0.05029100  1
  S  S29  1  0.61175700  0.76919800  0.44970900  1
  S  S30  1  0.88824300  0.26919800  0.94970900  1
  S  S31  1  0.38824300  0.23080200  0.55029100  1
  S  S32  1  0.82284400  0.83283900  0.26719000  1
  S  S33  1  0.32284400  0.66716100  0.23281000  1
  S  S34  1  0.17715600  0.16716100  0.73281000  1
  S  S35  1  0.67715600  0.33283900  0.76719000  1
  S  S36  1  0.59546600  0.65091900  0.04251400  1
  S  S37  1  0.09546600  0.84908100  0.45748600  1
  S  S38  1  0.40453400  0.34908100  0.95748600  1
  S  S39  1  0.90453400  0.15091900  0.54251400  1
