# generated using pymatgen
data_La6Sm2V5Cr3O20
_symmetry_space_group_name_H-M   'P 1'
_cell_length_a   10.98720710
_cell_length_b   11.32671180
_cell_length_c   17.87628312
_cell_angle_alpha   108.32319716
_cell_angle_beta   107.88112501
_cell_angle_gamma   89.78725461
_symmetry_Int_Tables_number   1
_chemical_formula_structural   La6Sm2V5Cr3O20
_chemical_formula_sum   'La24 Sm8 V20 Cr12 O80'
_cell_volume   1999.24094410
_cell_formula_units_Z   4
loop_
 _symmetry_equiv_pos_site_id
 _symmetry_equiv_pos_as_xyz
  1  'x, y, z'
loop_
 _atom_site_type_symbol
 _atom_site_label
 _atom_site_symmetry_multiplicity
 _atom_site_fract_x
 _atom_site_fract_y
 _atom_site_fract_z
 _atom_site_occupancy
  La  La0  1  0.31005051  0.06220388  0.62022036  1
  La  La1  1  0.31169421  0.55884711  0.62395261  1
  La  La2  1  0.80839968  0.05960588  0.61761109  1
  La  La3  1  0.81222940  0.56101982  0.62213007  1
  La  La4  1  0.19551753  0.43565737  0.38394912  1
  La  La5  1  0.18531707  0.44170841  0.87589937  1
  La  La6  1  0.19368544  0.94050869  0.37929585  1
  La  La7  1  0.69509367  0.43653961  0.38078174  1
  La  La8  1  0.69359719  0.93885607  0.37822139  1
  La  La9  1  0.69085864  0.94060266  0.87846924  1
  La  La10  1  0.06210194  0.31165066  0.12213518  1
  La  La11  1  0.06902957  0.30971028  0.61797778  1
  La  La12  1  0.06454443  0.81505770  0.62415979  1
  La  La13  1  0.56345205  0.31170828  0.12105964  1
  La  La14  1  0.56006866  0.31392404  0.62463259  1
  La  La15  1  0.56227964  0.81207981  0.12088852  1
  La  La16  1  0.56122937  0.81406965  0.62486194  1
  La  La17  1  0.44995819  0.19259937  0.38630070  1
  La  La18  1  0.42831496  0.18365195  0.87651017  1
  La  La19  1  0.44893778  0.69379680  0.38615278  1
  La  La20  1  0.43607463  0.68374888  0.87661209  1
  La  La21  1  0.92625410  0.18274812  0.37460317  1
  La  La22  1  0.94486575  0.18629222  0.87920240  1
  La  La23  1  0.93254504  0.68543301  0.37461438  1
  Sm  Sm24  1  0.30149878  0.05949459  0.10843566  1
  Sm  Sm25  1  0.30370800  0.55710707  0.11002576  1
  Sm  Sm26  1  0.80088386  0.05971025  0.11797086  1
  Sm  Sm27  1  0.80412424  0.55900015  0.12000248  1
  Sm  Sm28  1  0.18894555  0.93774045  0.87949455  1
  Sm  Sm29  1  0.69021296  0.43975781  0.88132403  1
  Sm  Sm30  1  0.05816057  0.80780844  0.11876117  1
  Sm  Sm31  1  0.93736097  0.69295042  0.88206518  1
  V  V32  1  0.00144115  0.99647481  0.49695197  1
  V  V33  1  0.25370644  0.25027069  0.00206356  1
  V  V34  1  0.25079541  0.24880486  0.49609073  1
  V  V35  1  0.75333443  0.25047942  0.50346662  1
  V  V36  1  0.10761226  0.11581068  0.24743128  1
  V  V37  1  0.11688692  0.13236629  0.74969585  1
  V  V38  1  0.11074605  0.61865033  0.24992246  1
  V  V39  1  0.11615062  0.63442136  0.75174946  1
  V  V40  1  0.60699359  0.13403337  0.24648972  1
  V  V41  1  0.61541344  0.13155807  0.75227408  1
  V  V42  1  0.61115089  0.63432231  0.24836125  1
  V  V43  1  0.62310908  0.62953322  0.75250699  1
  V  V44  1  0.37980607  0.38943376  0.25192081  1
  V  V45  1  0.36940761  0.36796309  0.75272297  1
  V  V46  1  0.37423981  0.88637384  0.24761567  1
  V  V47  1  0.36604934  0.86753642  0.75043554  1
  V  V48  1  0.86429642  0.36775587  0.24871178  1
  V  V49  1  0.87390559  0.37613088  0.75385133  1
  V  V50  1  0.86274934  0.86769272  0.24510138  1
  V  V51  1  0.87052353  0.87139985  0.75114313  1
  Cr  Cr52  1  0.00352992  0.99850275  0.00161073  1
  Cr  Cr53  1  0.00212770  0.50275764  0.00188008  1
  Cr  Cr54  1  0.00187466  0.50300681  0.50028966  1
  Cr  Cr55  1  0.50315139  0.99677658  0.99857488  1
  Cr  Cr56  1  0.50186736  0.99666943  0.49995408  1
  Cr  Cr57  1  0.50612239  0.50040068  0.00077224  1
  Cr  Cr58  1  0.50377329  0.50260039  0.50277160  1
  Cr  Cr59  1  0.25222459  0.75059658  0.00150323  1
  Cr  Cr60  1  0.25107573  0.74810969  0.49823456  1
  Cr  Cr61  1  0.75350051  0.25121403  0.99972781  1
  Cr  Cr62  1  0.75546574  0.74908598  0.00000320  1
  Cr  Cr63  1  0.75334396  0.74847179  0.50062941  1
  O  O64  1  0.10562557  0.10724897  0.46698440  1
  O  O65  1  0.11470581  0.10027007  0.97100199  1
  O  O66  1  0.11025866  0.61337631  0.46937906  1
  O  O67  1  0.11063724  0.61644990  0.97385917  1
  O  O68  1  0.61425297  0.10297385  0.47447601  1
  O  O69  1  0.61144030  0.11387645  0.97129520  1
  O  O70  1  0.61798182  0.61122532  0.47620671  1
  O  O71  1  0.61553765  0.61076770  0.97004510  1
  O  O72  1  0.13842246  0.39405954  0.02954906  1
  O  O73  1  0.13995846  0.39586374  0.52473149  1
  O  O74  1  0.13825648  0.88331132  0.02794170  1
  O  O75  1  0.14016514  0.88549535  0.52168742  1
  O  O76  1  0.64406774  0.38927950  0.02714639  1
  O  O77  1  0.63750013  0.39213592  0.53088561  1
  O  O78  1  0.64365684  0.88635516  0.02689496  1
  O  O79  1  0.63624519  0.88027902  0.52357915  1
  O  O80  1  0.36672904  0.10508033  0.47645530  1
  O  O81  1  0.35952368  0.09704635  0.97235627  1
  O  O82  1  0.36512930  0.61259664  0.47526163  1
  O  O83  1  0.36372138  0.61022976  0.97810874  1
  O  O84  1  0.86405093  0.10509815  0.47665645  1
  O  O85  1  0.86689655  0.11231965  0.97694547  1
  O  O86  1  0.86336907  0.61239470  0.47302673  1
  O  O87  1  0.86259171  0.60873514  0.96989820  1
  O  O88  1  0.39613595  0.39848715  0.03254484  1
  O  O89  1  0.39217008  0.39532932  0.52817434  1
  O  O90  1  0.39005112  0.89007745  0.02871407  1
  O  O91  1  0.38947154  0.88511011  0.52533565  1
  O  O92  1  0.88848160  0.39653291  0.03005764  1
  O  O93  1  0.89302287  0.39651476  0.52978499  1
  O  O94  1  0.89280960  0.89292007  0.03285357  1
  O  O95  1  0.88958236  0.88577923  0.52540177  1
  O  O96  1  0.08642024  0.10353063  0.12451075  1
  O  O97  1  0.07072566  0.10195219  0.62278346  1
  O  O98  1  0.07928057  0.60796417  0.12565596  1
  O  O99  1  0.06527430  0.60841745  0.62375160  1
  O  O100  1  0.57705082  0.10123561  0.12002355  1
  O  O101  1  0.57091168  0.10119895  0.62367261  1
  O  O102  1  0.58412640  0.60545328  0.12259606  1
  O  O103  1  0.56745065  0.60720066  0.62548238  1
  O  O104  1  0.44305855  0.39893444  0.37734204  1
  O  O105  1  0.45356511  0.39479545  0.87948095  1
  O  O106  1  0.43439683  0.89563886  0.37238266  1
  O  O107  1  0.44783612  0.89106478  0.87710894  1
  O  O108  1  0.93787422  0.39388919  0.37724459  1
  O  O109  1  0.94558651  0.39491299  0.87600218  1
  O  O110  1  0.93330419  0.89128817  0.37143577  1
  O  O111  1  0.94619056  0.89302324  0.87858928  1
  O  O112  1  0.31889679  0.27004909  0.13139144  1
  O  O113  1  0.31054299  0.27191760  0.62528374  1
  O  O114  1  0.31394292  0.76695347  0.12489905  1
  O  O115  1  0.31047919  0.76833677  0.62202701  1
  O  O116  1  0.81549093  0.26383158  0.12170992  1
  O  O117  1  0.81530492  0.27896834  0.63526983  1
  O  O118  1  0.82675237  0.76034024  0.12070396  1
  O  O119  1  0.81678069  0.76971272  0.62350938  1
  O  O120  1  0.21189045  0.21853546  0.36526421  1
  O  O121  1  0.19439839  0.23520370  0.87512646  1
  O  O122  1  0.20208765  0.72648311  0.37207975  1
  O  O123  1  0.19997468  0.73432178  0.87934371  1
  O  O124  1  0.69155702  0.22454034  0.37408619  1
  O  O125  1  0.70674593  0.23573899  0.87764547  1
  O  O126  1  0.69064667  0.72874178  0.37690857  1
  O  O127  1  0.70979226  0.73358476  0.87818388  1
  O  O128  1  0.41915857  0.06522674  0.24179330  1
  O  O129  1  0.44572438  0.03938711  0.74918195  1
  O  O130  1  0.42148722  0.56877980  0.24358304  1
  O  O131  1  0.45331861  0.53846764  0.75152469  1
  O  O132  1  0.93081649  0.04092545  0.24052853  1
  O  O133  1  0.94308699  0.04521297  0.74738904  1
  O  O134  1  0.93628386  0.53774820  0.24169048  1
  O  O135  1  0.95117932  0.54552930  0.76069506  1
  O  O136  1  0.19431951  0.44799282  0.25281878  1
  O  O137  1  0.19958649  0.46228012  0.74916670  1
  O  O138  1  0.18603079  0.94004077  0.24421779  1
  O  O139  1  0.19890972  0.96138615  0.75763126  1
  O  O140  1  0.69133297  0.46032590  0.25072594  1
  O  O141  1  0.70357485  0.45658298  0.75706761  1
  O  O142  1  0.68987411  0.96019984  0.24847927  1
  O  O143  1  0.69916100  0.96014101  0.75199241  1
