# generated using pymatgen
data_CaSnS3
_symmetry_space_group_name_H-M   'P 1'
_cell_length_a   5.36415800
_cell_length_b   6.70065700
_cell_length_c   14.31541100
_cell_angle_alpha   90.00000000
_cell_angle_beta   90.00000000
_cell_angle_gamma   90.00000000
_symmetry_Int_Tables_number   1
_chemical_formula_structural   CaSnS3
_chemical_formula_sum   'Ca4 Sn4 S12'
_cell_volume   514.54429825
_cell_formula_units_Z   4
loop_
 _symmetry_equiv_pos_site_id
 _symmetry_equiv_pos_as_xyz
  1  'x, y, z'
loop_
 _atom_site_type_symbol
 _atom_site_label
 _atom_site_symmetry_multiplicity
 _atom_site_fract_x
 _atom_site_fract_y
 _atom_site_fract_z
 _atom_site_occupancy
  Ca  Ca0  1  0.22342600  0.34162700  0.87604400  1
  Ca  Ca1  1  0.27657400  0.65837300  0.37604400  1
  Ca  Ca2  1  0.72342600  0.15837300  0.12395600  1
  Ca  Ca3  1  0.77657400  0.84162700  0.62395600  1
  Sn  Sn4  1  0.71255400  0.82497100  0.90664800  1
  Sn  Sn5  1  0.78744600  0.17502900  0.40664800  1
  Sn  Sn6  1  0.21255400  0.67502900  0.09335200  1
  Sn  Sn7  1  0.28744600  0.32497200  0.59335200  1
  S  S8  1  0.23818200  0.77291500  0.92613500  1
  S  S9  1  0.26181800  0.22708500  0.42613500  1
  S  S10  1  0.73818200  0.72708500  0.07386500  1
  S  S11  1  0.76181800  0.27291500  0.57386500  1
  S  S12  1  0.75142900  0.58859800  0.78440200  1
  S  S13  1  0.74857100  0.41140200  0.28440200  1
  S  S14  1  0.25142900  0.91140200  0.21559800  1
  S  S15  1  0.24857100  0.08859800  0.71559800  1
  S  S16  1  0.73019700  0.17908400  0.91660800  1
  S  S17  1  0.76980300  0.82091600  0.41660800  1
  S  S18  1  0.23019700  0.32091600  0.08339200  1
  S  S19  1  0.26980300  0.67908400  0.58339200  1
