# generated using pymatgen
data_LuWClO4
_symmetry_space_group_name_H-M   'P 1'
_cell_length_a   5.98628500
_cell_length_b   6.53533383
_cell_length_c   6.95966374
_cell_angle_alpha   73.44326240
_cell_angle_beta   77.16681132
_cell_angle_gamma   70.70704930
_symmetry_Int_Tables_number   1
_chemical_formula_structural   LuWClO4
_chemical_formula_sum   'Lu2 W2 Cl2 O8'
_cell_volume   243.85618936
_cell_formula_units_Z   2
loop_
 _symmetry_equiv_pos_site_id
 _symmetry_equiv_pos_as_xyz
  1  'x, y, z'
loop_
 _atom_site_type_symbol
 _atom_site_label
 _atom_site_symmetry_multiplicity
 _atom_site_fract_x
 _atom_site_fract_y
 _atom_site_fract_z
 _atom_site_occupancy
  Lu  Lu0  1  0.24136400  0.20198700  0.86746900  1
  Lu  Lu1  1  0.75863600  0.79801300  0.13253100  1
  W  W2  1  0.37811100  0.35617000  0.26515900  1
  W  W3  1  0.62188900  0.64383000  0.73484100  1
  Cl  Cl4  1  0.00409700  0.02722900  0.22417500  1
  Cl  Cl5  1  0.99590300  0.97277100  0.77582500  1
  O  O6  1  0.34777500  0.25562300  0.53503500  1
  O  O7  1  0.65222500  0.74437700  0.46496500  1
  O  O8  1  0.42329600  0.46937700  0.80873600  1
  O  O9  1  0.57670400  0.53062300  0.19126400  1
  O  O10  1  0.91143900  0.47981200  0.80730100  1
  O  O11  1  0.08856100  0.52018800  0.19269900  1
  O  O12  1  0.47735600  0.12436200  0.13225100  1
  O  O13  1  0.52264400  0.87563800  0.86774900  1
