# generated using pymatgen
data_CaSn2S5
_symmetry_space_group_name_H-M   'P 1'
_cell_length_a   6.55107300
_cell_length_b   9.86285900
_cell_length_c   15.17449200
_cell_angle_alpha   90.00000000
_cell_angle_beta   90.00000000
_cell_angle_gamma   90.00000000
_symmetry_Int_Tables_number   1
_chemical_formula_structural   CaSn2S5
_chemical_formula_sum   'Ca4 Sn8 S20'
_cell_volume   980.45897054
_cell_formula_units_Z   4
loop_
 _symmetry_equiv_pos_site_id
 _symmetry_equiv_pos_as_xyz
  1  'x, y, z'
loop_
 _atom_site_type_symbol
 _atom_site_label
 _atom_site_symmetry_multiplicity
 _atom_site_fract_x
 _atom_site_fract_y
 _atom_site_fract_z
 _atom_site_occupancy
  Ca  Ca0  1  0.37098400  0.75000000  0.03046600  1
  Ca  Ca1  1  0.12901600  0.75000000  0.53046600  1
  Ca  Ca2  1  0.62901600  0.25000000  0.96953400  1
  Ca  Ca3  1  0.87098400  0.25000000  0.46953400  1
  Sn  Sn4  1  0.36237800  0.53935800  0.32753500  1
  Sn  Sn5  1  0.13762200  0.96064200  0.82753500  1
  Sn  Sn6  1  0.63762200  0.03935800  0.67246500  1
  Sn  Sn7  1  0.86237800  0.46064200  0.17246500  1
  Sn  Sn8  1  0.63762200  0.46064200  0.67246500  1
  Sn  Sn9  1  0.86237800  0.03935800  0.17246500  1
  Sn  Sn10  1  0.36237800  0.96064200  0.32753500  1
  Sn  Sn11  1  0.13762200  0.53935800  0.82753500  1
  S  S12  1  0.47485800  0.75000000  0.39920500  1
  S  S13  1  0.02514200  0.75000000  0.89920500  1
  S  S14  1  0.52514200  0.25000000  0.60079500  1
  S  S15  1  0.97485800  0.25000000  0.10079500  1
  S  S16  1  0.17525900  0.46113800  0.44894700  1
  S  S17  1  0.32474100  0.03886200  0.94894700  1
  S  S18  1  0.82474100  0.96113800  0.55105300  1
  S  S19  1  0.67525900  0.53886200  0.05105300  1
  S  S20  1  0.82474100  0.53886200  0.55105300  1
  S  S21  1  0.67525900  0.96113800  0.05105300  1
  S  S22  1  0.17525900  0.03886200  0.44894700  1
  S  S23  1  0.32474100  0.46113800  0.94894700  1
  S  S24  1  0.19772200  0.57592900  0.18598900  1
  S  S25  1  0.30227800  0.92407100  0.68598900  1
  S  S26  1  0.80227800  0.07592900  0.81401100  1
  S  S27  1  0.69772200  0.42407100  0.31401100  1
  S  S28  1  0.80227800  0.42407100  0.81401100  1
  S  S29  1  0.69772200  0.07592900  0.31401100  1
  S  S30  1  0.19772200  0.92407100  0.18598900  1
  S  S31  1  0.30227800  0.57592900  0.68598900  1
