# generated using pymatgen
data_CaSn3S7
_symmetry_space_group_name_H-M   'P 1'
_cell_length_a   6.81769500
_cell_length_b   13.42190300
_cell_length_c   13.44960200
_cell_angle_alpha   90.00000000
_cell_angle_beta   90.00000000
_cell_angle_gamma   90.00000000
_symmetry_Int_Tables_number   1
_chemical_formula_structural   CaSn3S7
_chemical_formula_sum   'Ca4 Sn12 S28'
_cell_volume   1230.72521153
_cell_formula_units_Z   4
loop_
 _symmetry_equiv_pos_site_id
 _symmetry_equiv_pos_as_xyz
  1  'x, y, z'
loop_
 _atom_site_type_symbol
 _atom_site_label
 _atom_site_symmetry_multiplicity
 _atom_site_fract_x
 _atom_site_fract_y
 _atom_site_fract_z
 _atom_site_occupancy
  Ca  Ca0  1  0.18114600  0.55739900  0.25000000  1
  Ca  Ca1  1  0.31885400  0.05739900  0.25000000  1
  Ca  Ca2  1  0.81885400  0.44260100  0.75000000  1
  Ca  Ca3  1  0.68114600  0.94260100  0.75000000  1
  Sn  Sn4  1  0.69936100  0.79346600  0.25000000  1
  Sn  Sn5  1  0.80063900  0.29346600  0.25000000  1
  Sn  Sn6  1  0.30063900  0.20653400  0.75000000  1
  Sn  Sn7  1  0.19936100  0.70653400  0.75000000  1
  Sn  Sn8  1  0.71805200  0.68381800  0.52281700  1
  Sn  Sn9  1  0.78194800  0.18381800  0.97718300  1
  Sn  Sn10  1  0.28194800  0.31618200  0.02281700  1
  Sn  Sn11  1  0.21805200  0.81618200  0.47718300  1
  Sn  Sn12  1  0.28194800  0.31618200  0.47718300  1
  Sn  Sn13  1  0.21805200  0.81618200  0.02281700  1
  Sn  Sn14  1  0.71805200  0.68381800  0.97718300  1
  Sn  Sn15  1  0.78194800  0.18381800  0.52281700  1
  S  S16  1  0.69111800  0.96606900  0.25000000  1
  S  S17  1  0.80888200  0.46606900  0.25000000  1
  S  S18  1  0.30888200  0.03393100  0.75000000  1
  S  S19  1  0.19111800  0.53393100  0.75000000  1
  S  S20  1  0.72584200  0.51615600  0.56562300  1
  S  S21  1  0.77415800  0.01615600  0.93437700  1
  S  S22  1  0.27415800  0.48384400  0.06562300  1
  S  S23  1  0.22584200  0.98384400  0.43437700  1
  S  S24  1  0.27415800  0.48384400  0.43437700  1
  S  S25  1  0.22584200  0.98384400  0.06562300  1
  S  S26  1  0.72584200  0.51615600  0.93437700  1
  S  S27  1  0.77415800  0.01615600  0.56562300  1
  S  S28  1  0.46416900  0.70609400  0.37805700  1
  S  S29  1  0.03583100  0.20609400  0.12194300  1
  S  S30  1  0.53583100  0.29390600  0.87805700  1
  S  S31  1  0.96416900  0.79390600  0.62194300  1
  S  S32  1  0.53583100  0.29390600  0.62194300  1
  S  S33  1  0.96416900  0.79390600  0.87805700  1
  S  S34  1  0.46416900  0.70609400  0.12194300  1
  S  S35  1  0.03583100  0.20609400  0.37805700  1
  S  S36  1  0.95881700  0.71464900  0.37629800  1
  S  S37  1  0.54118300  0.21464900  0.12370200  1
  S  S38  1  0.04118300  0.28535100  0.87629800  1
  S  S39  1  0.45881700  0.78535100  0.62370200  1
  S  S40  1  0.04118300  0.28535100  0.62370200  1
  S  S41  1  0.45881700  0.78535100  0.87629800  1
  S  S42  1  0.95881700  0.71464900  0.12370200  1
  S  S43  1  0.54118300  0.21464900  0.37629800  1
