# generated using pymatgen
data_Yb3B3O7
_symmetry_space_group_name_H-M   'P 1'
_cell_length_a   3.88412318
_cell_length_b   3.88412395
_cell_length_c   28.71576800
_cell_angle_alpha   90.00000000
_cell_angle_beta   90.00000000
_cell_angle_gamma   125.78014735
_symmetry_Int_Tables_number   1
_chemical_formula_structural   Yb3B3O7
_chemical_formula_sum   'Yb6 B6 O14'
_cell_volume   351.45524565
_cell_formula_units_Z   2
loop_
 _symmetry_equiv_pos_site_id
 _symmetry_equiv_pos_as_xyz
  1  'x, y, z'
loop_
 _atom_site_type_symbol
 _atom_site_label
 _atom_site_symmetry_multiplicity
 _atom_site_fract_x
 _atom_site_fract_y
 _atom_site_fract_z
 _atom_site_occupancy
  Yb  Yb0  1  0.00290900  0.99709100  0.99124200  1
  Yb  Yb1  1  0.98168600  0.01831400  0.18079100  1
  Yb  Yb2  1  0.98168600  0.01831400  0.31920900  1
  Yb  Yb3  1  0.00217400  0.99782600  0.65266500  1
  Yb  Yb4  1  0.00217400  0.99782600  0.84733500  1
  Yb  Yb5  1  0.00290900  0.99709100  0.50875800  1
  B  B6  1  0.32097500  0.67902500  0.08899800  1
  B  B7  1  0.32097500  0.67902500  0.41100200  1
  B  B8  1  0.32459900  0.67540100  0.75000000  1
  B  B9  1  0.74592500  0.25407500  0.25000000  1
  B  B10  1  0.63654400  0.36345600  0.91927500  1
  B  B11  1  0.63654400  0.36345600  0.58072500  1
  O  O12  1  0.31635600  0.68364400  0.45486300  1
  O  O13  1  0.32859500  0.67140500  0.13365300  1
  O  O14  1  0.32544400  0.67455600  0.79417200  1
  O  O15  1  0.31635600  0.68364400  0.04513700  1
  O  O16  1  0.32859500  0.67140500  0.36634700  1
  O  O17  1  0.32544400  0.67455600  0.70582800  1
  O  O18  1  0.02572100  0.97427900  0.58068700  1
  O  O19  1  0.02572100  0.97427900  0.91931300  1
  O  O20  1  0.68350600  0.31649400  0.62748600  1
  O  O21  1  0.65719600  0.34280400  0.29276900  1
  O  O22  1  0.65719600  0.34280400  0.20723100  1
  O  O23  1  0.68363300  0.31636700  0.96609400  1
  O  O24  1  0.68363300  0.31636700  0.53390600  1
  O  O25  1  0.68350600  0.31649400  0.87251400  1
