# generated using pymatgen
data_Li9Mn2Co5O16
_symmetry_space_group_name_H-M   'P 1'
_cell_length_a   2.96217861
_cell_length_b   2.96217861
_cell_length_c   38.92477549
_cell_angle_alpha   88.53484191
_cell_angle_beta   88.53484191
_cell_angle_gamma   58.06402536
_symmetry_Int_Tables_number   1
_chemical_formula_structural   Li9Mn2Co5O16
_chemical_formula_sum   'Li9 Mn2 Co5 O16'
_cell_volume   289.72513701
_cell_formula_units_Z   1
loop_
 _symmetry_equiv_pos_site_id
 _symmetry_equiv_pos_as_xyz
  1  'x, y, z'
loop_
 _atom_site_type_symbol
 _atom_site_label
 _atom_site_symmetry_multiplicity
 _atom_site_fract_x
 _atom_site_fract_y
 _atom_site_fract_z
 _atom_site_occupancy
  Li  Li0  1  0.69899500  0.69899500  0.93270600  1
  Li  Li1  1  0.05380800  0.05380800  0.81343100  1
  Li  Li2  1  0.43978200  0.43978200  0.68744400  1
  Li  Li3  1  0.80465400  0.80465400  0.56470400  1
  Li  Li4  1  0.19203100  0.19203100  0.43521600  1
  Li  Li5  1  0.56371300  0.56371300  0.31207100  1
  Li  Li6  1  0.93607600  0.93607600  0.18803000  1
  Li  Li7  1  0.30907100  0.30907100  0.06548700  1
  Li  Li8  1  0.37435200  0.37435200  0.87543700  1
  Mn  Mn9  1  0.00279300  0.00279300  0.00089900  1
  Mn  Mn10  1  0.49811700  0.49811700  0.49984400  1
  Co  Co11  1  0.75064800  0.75064800  0.74930200  1
  Co  Co12  1  0.12375000  0.12375000  0.62542100  1
  Co  Co13  1  0.87677100  0.87677100  0.37431800  1
  Co  Co14  1  0.25046300  0.25046300  0.24991700  1
  Co  Co15  1  0.62354400  0.62354400  0.12576900  1
  O  O16  1  0.36115800  0.36115800  0.97386400  1
  O  O17  1  0.71636000  0.71636000  0.84271600  1
  O  O18  1  0.10010300  0.10010300  0.72062600  1
  O  O19  1  0.46682100  0.46682100  0.59595300  1
  O  O20  1  0.86688300  0.86688300  0.47094000  1
  O  O21  1  0.21885000  0.21885000  0.34572300  1
  O  O22  1  0.59363000  0.59363000  0.22107000  1
  O  O23  1  0.96842900  0.96842900  0.09611100  1
  O  O24  1  0.03388300  0.03388300  0.90759800  1
  O  O25  1  0.40091000  0.40091000  0.77659000  1
  O  O26  1  0.78256100  0.78256100  0.65392500  1
  O  O27  1  0.12936800  0.12936800  0.52857400  1
  O  O28  1  0.53305600  0.53305600  0.40372000  1
  O  O29  1  0.90722800  0.90722800  0.27875400  1
  O  O30  1  0.28121600  0.28121600  0.15426100  1
  O  O31  1  0.64097500  0.64097500  0.02958000  1
