# generated using pymatgen
data_YbAgSe2
_symmetry_space_group_name_H-M   'P 1'
_cell_length_a   5.77399800
_cell_length_b   6.24761700
_cell_length_c   10.11520900
_cell_angle_alpha   90.00000000
_cell_angle_beta   90.00000000
_cell_angle_gamma   90.00000000
_symmetry_Int_Tables_number   1
_chemical_formula_structural   YbAgSe2
_chemical_formula_sum   'Yb4 Ag4 Se8'
_cell_volume   364.89329876
_cell_formula_units_Z   4
loop_
 _symmetry_equiv_pos_site_id
 _symmetry_equiv_pos_as_xyz
  1  'x, y, z'
loop_
 _atom_site_type_symbol
 _atom_site_label
 _atom_site_symmetry_multiplicity
 _atom_site_fract_x
 _atom_site_fract_y
 _atom_site_fract_z
 _atom_site_occupancy
  Yb  Yb0  1  0.28940700  0.26224700  0.14062400  1
  Yb  Yb1  1  0.21059300  0.73775300  0.64062400  1
  Yb  Yb2  1  0.78940700  0.23775300  0.85937600  1
  Yb  Yb3  1  0.71059300  0.76224700  0.35937600  1
  Ag  Ag4  1  0.16004200  0.75780700  0.13162600  1
  Ag  Ag5  1  0.33995800  0.24219300  0.63162600  1
  Ag  Ag6  1  0.66004200  0.74219300  0.86837400  1
  Ag  Ag7  1  0.83995800  0.25780700  0.36837400  1
  Se  Se8  1  0.26227200  0.42637700  0.86902400  1
  Se  Se9  1  0.24306700  0.94457500  0.89791000  1
  Se  Se10  1  0.25693300  0.05542500  0.39791000  1
  Se  Se11  1  0.23772800  0.57362300  0.36902400  1
  Se  Se12  1  0.76227200  0.07362300  0.13097600  1
  Se  Se13  1  0.74306700  0.55542500  0.10209000  1
  Se  Se14  1  0.75693300  0.44457500  0.60209000  1
  Se  Se15  1  0.73772800  0.92637700  0.63097600  1
