# generated using pymatgen
data_V16Bi3O32
_symmetry_space_group_name_H-M   'P 1'
_cell_length_a   12.32920223
_cell_length_b   12.88130155
_cell_length_c   10.44930275
_cell_angle_alpha   52.14920927
_cell_angle_beta   42.72518367
_cell_angle_gamma   33.06153854
_symmetry_Int_Tables_number   1
_chemical_formula_structural   V16Bi3O32
_chemical_formula_sum   'V16 Bi3 O32'
_cell_volume   614.24299673
_cell_formula_units_Z   1
loop_
 _symmetry_equiv_pos_site_id
 _symmetry_equiv_pos_as_xyz
  1  'x, y, z'
loop_
 _atom_site_type_symbol
 _atom_site_label
 _atom_site_symmetry_multiplicity
 _atom_site_fract_x
 _atom_site_fract_y
 _atom_site_fract_z
 _atom_site_occupancy
  V  V0  1  0.01482100  0.18825200  0.51763000  1
  V  V1  1  0.08634400  0.48224700  0.18351000  1
  V  V2  1  0.25712400  0.19005500  0.52596100  1
  V  V3  1  0.33996900  0.47855800  0.18453100  1
  V  V4  1  0.51292400  0.18622600  0.52143600  1
  V  V5  1  0.15952300  0.51785500  0.81917700  1
  V  V6  1  0.59125300  0.47815000  0.18331000  1
  V  V7  1  0.23822700  0.81017500  0.48332800  1
  V  V8  1  0.76546100  0.18569900  0.51248900  1
  V  V9  1  0.40564100  0.52470100  0.81164900  1
  V  V10  1  0.84012900  0.47908500  0.18057400  1
  V  V11  1  0.48875100  0.81456200  0.47758500  1
  V  V12  1  0.65348700  0.52337900  0.81750200  1
  V  V13  1  0.73768900  0.81179900  0.47921300  1
  V  V14  1  0.91014700  0.51920400  0.81742700  1
  V  V15  1  0.98597800  0.81116100  0.48052700  1
  Bi  Bi16  1  0.27705200  0.98362500  0.01775100  1
  Bi  Bi17  1  0.73883800  0.01474200  0.97940900  1
  Bi  Bi18  1  0.99373600  0.00771900  0.00259300  1
  O  O19  1  0.16127100  0.36256300  0.03752800  1
  O  O20  1  0.17549600  0.04509800  0.65806500  1
  O  O21  1  0.12532900  0.29513800  0.38745000  1
  O  O22  1  0.01165800  0.62803500  0.29696900  1
  O  O23  1  0.42597700  0.34491600  0.03493600  1
  O  O24  1  0.43545300  0.03959400  0.64940700  1
  O  O25  1  0.38207600  0.28775900  0.38377000  1
  O  O26  1  0.24067500  0.36993600  0.70222300  1
  O  O27  1  0.26491000  0.62492400  0.29699900  1
  O  O28  1  0.67630800  0.33895400  0.04158400  1
  O  O29  1  0.11609800  0.70221800  0.62492600  1
  O  O30  1  0.08348200  0.95185400  0.33379400  1
  O  O31  1  0.69873200  0.03370400  0.63080200  1
  O  O32  1  0.63365200  0.28782200  0.37848600  1
  O  O33  1  0.07741900  0.66057800  0.95139600  1
  O  O34  1  0.47004300  0.38520300  0.70802200  1
  O  O35  1  0.53204900  0.61514500  0.29247400  1
  O  O36  1  0.92731100  0.33755500  0.04535200  1
  O  O37  1  0.36979600  0.70444700  0.62999200  1
  O  O38  1  0.29894100  0.96172200  0.37282500  1
  O  O39  1  0.91748500  0.04707600  0.66184100  1
  O  O40  1  0.89127900  0.29694500  0.36972300  1
  O  O41  1  0.32846900  0.65333100  0.95499800  1
  O  O42  1  0.72674300  0.37345300  0.70472900  1
  O  O43  1  0.75504000  0.63269300  0.29853100  1
  O  O44  1  0.61423000  0.71234100  0.61772200  1
  O  O45  1  0.55763400  0.96203000  0.35554500  1
  O  O46  1  0.56784700  0.66437400  0.96027000  1
  O  O47  1  0.97976900  0.37328500  0.70744300  1
  O  O48  1  0.87080100  0.70617000  0.61398800  1
  O  O49  1  0.81969200  0.95615600  0.34300600  1
  O  O50  1  0.84111900  0.63778600  0.95960200  1
