# generated using pymatgen
data_YbV8O16
_symmetry_space_group_name_H-M   'P 1'
_cell_length_a   3.72973200
_cell_length_b   9.44851259
_cell_length_c   8.54943195
_cell_angle_alpha   84.53412502
_cell_angle_beta   90.00000000
_cell_angle_gamma   90.00000000
_symmetry_Int_Tables_number   1
_chemical_formula_structural   YbV8O16
_chemical_formula_sum   'Yb1 V8 O16'
_cell_volume   299.91565749
_cell_formula_units_Z   1
loop_
 _symmetry_equiv_pos_site_id
 _symmetry_equiv_pos_as_xyz
  1  'x, y, z'
loop_
 _atom_site_type_symbol
 _atom_site_label
 _atom_site_symmetry_multiplicity
 _atom_site_fract_x
 _atom_site_fract_y
 _atom_site_fract_z
 _atom_site_occupancy
  Yb  Yb0  1  0.75000000  0.72886900  0.74165600  1
  V  V1  1  0.25000000  0.21155200  0.09367100  1
  V  V2  1  0.25000000  0.04417300  0.69829000  1
  V  V3  1  0.25000000  0.65724200  0.44869700  1
  V  V4  1  0.25000000  0.42502200  0.73887600  1
  V  V5  1  0.75000000  0.48623200  0.06710400  1
  V  V6  1  0.75000000  0.33906200  0.47868000  1
  V  V7  1  0.75000000  0.96078300  0.42230300  1
  V  V8  1  0.75000000  0.99458600  0.01309200  1
  O  O9  1  0.25000000  0.03932700  0.97421300  1
  O  O10  1  0.25000000  0.23780200  0.73370800  1
  O  O11  1  0.25000000  0.67212400  0.25795300  1
  O  O12  1  0.25000000  0.90452000  0.52359600  1
  O  O13  1  0.25000000  0.15542400  0.28641900  1
  O  O14  1  0.25000000  0.45704300  0.48674700  1
  O  O15  1  0.25000000  0.62520100  0.70718300  1
  O  O16  1  0.25000000  0.41718100  0.99146800  1
  O  O17  1  0.75000000  0.95473300  0.79419400  1
  O  O18  1  0.75000000  0.12888800  0.54010600  1
  O  O19  1  0.75000000  0.19800000  0.03238300  1
  O  O20  1  0.75000000  0.40541700  0.26287800  1
  O  O21  1  0.75000000  0.42898600  0.68936200  1
  O  O22  1  0.75000000  0.71013600  0.47285400  1
  O  O23  1  0.75000000  0.65803900  0.99656700  1
  O  O24  1  0.75000000  0.91888900  0.20559100  1
