# generated using pymatgen
data_YCuTe2
_symmetry_space_group_name_H-M   'P 1'
_cell_length_a   4.35815880
_cell_length_b   4.35824883
_cell_length_c   6.90056900
_cell_angle_alpha   90.00026496
_cell_angle_beta   89.99772293
_cell_angle_gamma   120.00209206
_symmetry_Int_Tables_number   1
_chemical_formula_structural   YCuTe2
_chemical_formula_sum   'Y1 Cu1 Te2'
_cell_volume   113.50668791
_cell_formula_units_Z   1
loop_
 _symmetry_equiv_pos_site_id
 _symmetry_equiv_pos_as_xyz
  1  'x, y, z'
loop_
 _atom_site_type_symbol
 _atom_site_label
 _atom_site_symmetry_multiplicity
 _atom_site_fract_x
 _atom_site_fract_y
 _atom_site_fract_z
 _atom_site_occupancy
  Y  Y0  1  0.00001700  0.00001200  0.99056100  1
  Cu  Cu1  1  0.33334100  0.66666100  0.36532600  1
  Te  Te2  1  0.33338700  0.66669800  0.74513900  1
  Te  Te3  1  0.66665500  0.33332900  0.26497400  1
