# generated using pymatgen
data_Yb2TiO5
_symmetry_space_group_name_H-M   'P 1'
_cell_length_a   7.40521759
_cell_length_b   7.40521759
_cell_length_c   18.07763683
_cell_angle_alpha   86.47847236
_cell_angle_beta   86.47847236
_cell_angle_gamma   59.17108193
_symmetry_Int_Tables_number   1
_chemical_formula_structural   Yb2TiO5
_chemical_formula_sum   'Yb16 Ti8 O40'
_cell_volume   849.12846137
_cell_formula_units_Z   8
loop_
 _symmetry_equiv_pos_site_id
 _symmetry_equiv_pos_as_xyz
  1  'x, y, z'
loop_
 _atom_site_type_symbol
 _atom_site_label
 _atom_site_symmetry_multiplicity
 _atom_site_fract_x
 _atom_site_fract_y
 _atom_site_fract_z
 _atom_site_occupancy
  Yb  Yb0  1  0.98333800  0.98333800  0.00179800  1
  Yb  Yb1  1  0.14161400  0.14161400  0.16966400  1
  Yb  Yb2  1  0.99438900  0.48316200  0.98920700  1
  Yb  Yb3  1  0.35769900  0.35769900  0.34024600  1
  Yb  Yb4  1  0.65892900  0.14462600  0.16646900  1
  Yb  Yb5  1  0.14462600  0.65892900  0.16646900  1
  Yb  Yb6  1  0.52476600  0.52476600  0.50439200  1
  Yb  Yb7  1  0.31778700  0.87808800  0.34039800  1
  Yb  Yb8  1  0.03777100  0.51571300  0.50441100  1
  Yb  Yb9  1  0.48316200  0.99438900  0.98920700  1
  Yb  Yb10  1  0.51571300  0.03777100  0.50441100  1
  Yb  Yb11  1  0.15782800  0.68628500  0.67381000  1
  Yb  Yb12  1  0.68628500  0.15782800  0.67381000  1
  Yb  Yb13  1  0.30669200  0.82196400  0.83892400  1
  Yb  Yb14  1  0.87808800  0.31778700  0.34039800  1
  Yb  Yb15  1  0.82196400  0.30669200  0.83892400  1
  Ti  Ti16  1  0.49007800  0.49007800  0.97764100  1
  Ti  Ti17  1  0.69886200  0.69886200  0.65576400  1
  Ti  Ti18  1  0.66684500  0.66684500  0.16831400  1
  Ti  Ti19  1  0.84701000  0.84701000  0.82077100  1
  Ti  Ti20  1  0.77571000  0.77571000  0.32658700  1
  Ti  Ti21  1  0.04819400  0.04819400  0.53916600  1
  Ti  Ti22  1  0.20239100  0.20239100  0.66795100  1
  Ti  Ti23  1  0.32410500  0.32410500  0.81601400  1
  O  O24  1  0.29864000  0.29864000  0.23005200  1
  O  O25  1  0.60052800  0.20901400  0.03050200  1
  O  O26  1  0.78199400  0.38666900  0.19668400  1
  O  O27  1  0.20901400  0.60052800  0.03050200  1
  O  O28  1  0.04511100  0.44927900  0.11201800  1
  O  O29  1  0.62859400  0.62859400  0.32611300  1
  O  O30  1  0.98508600  0.54267600  0.37637400  1
  O  O31  1  0.68497800  0.68497800  0.55508600  1
  O  O32  1  0.38666900  0.78199400  0.19668400  1
  O  O33  1  0.69775500  0.69775500  0.06572100  1
  O  O34  1  0.44927900  0.04511100  0.11201800  1
  O  O35  1  0.16220500  0.71627200  0.29485200  1
  O  O36  1  0.14991800  0.74199300  0.54845000  1
  O  O37  1  0.79275400  0.79275400  0.21916200  1
  O  O38  1  0.54267600  0.98508600  0.37637400  1
  O  O39  1  0.96244300  0.96244300  0.87634900  1
  O  O40  1  0.04561100  0.04561100  0.65244800  1
  O  O41  1  0.27846700  0.87814300  0.46463100  1
  O  O42  1  0.47298800  0.67804400  0.71363900  1
  O  O43  1  0.71627200  0.16220500  0.29485200  1
  O  O44  1  0.99015000  0.99015000  0.12192400  1
  O  O45  1  0.74199300  0.14991800  0.54845000  1
  O  O46  1  0.95453800  0.95453800  0.32219600  1
  O  O47  1  0.62249700  0.82587100  0.87511800  1
  O  O48  1  0.49245500  0.00083400  0.64016100  1
  O  O49  1  0.87814300  0.27846700  0.46463100  1
  O  O50  1  0.17035500  0.17035500  0.77410100  1
  O  O51  1  0.19135800  0.19135800  0.55298700  1
  O  O52  1  0.67804400  0.47298800  0.71363900  1
  O  O53  1  0.24605200  0.24605200  0.90665700  1
  O  O54  1  0.62446200  0.14685200  0.80074700  1
  O  O55  1  0.00083400  0.49245500  0.64016100  1
  O  O56  1  0.82587100  0.62249700  0.87511800  1
  O  O57  1  0.37436600  0.37436600  0.45596600  1
  O  O58  1  0.34549200  0.34549200  0.70119800  1
  O  O59  1  0.79444800  0.34530300  0.96893600  1
  O  O60  1  0.14685200  0.62446200  0.80074700  1
  O  O61  1  0.46888600  0.46888600  0.88035500  1
  O  O62  1  0.34530300  0.79444800  0.96893600  1
  O  O63  1  0.81973800  0.81973800  0.71737600  1
