# generated using pymatgen
data_Zr2PbO6
_symmetry_space_group_name_H-M   'P 1'
_cell_length_a   6.03660600
_cell_length_b   8.46977000
_cell_length_c   11.22557400
_cell_angle_alpha   90.00000000
_cell_angle_beta   90.00000000
_cell_angle_gamma   90.00000000
_symmetry_Int_Tables_number   1
_chemical_formula_structural   Zr2PbO6
_chemical_formula_sum   'Zr8 Pb4 O24'
_cell_volume   573.94860575
_cell_formula_units_Z   4
loop_
 _symmetry_equiv_pos_site_id
 _symmetry_equiv_pos_as_xyz
  1  'x, y, z'
loop_
 _atom_site_type_symbol
 _atom_site_label
 _atom_site_symmetry_multiplicity
 _atom_site_fract_x
 _atom_site_fract_y
 _atom_site_fract_z
 _atom_site_occupancy
  Zr  Zr0  1  0.23312400  0.26775800  0.12568900  1
  Zr  Zr1  1  0.23312400  0.73224200  0.12568900  1
  Zr  Zr2  1  0.26486900  0.77589800  0.61920500  1
  Zr  Zr3  1  0.26486900  0.22410200  0.61920500  1
  Zr  Zr4  1  0.73312400  0.26775800  0.37431100  1
  Zr  Zr5  1  0.73312400  0.73224200  0.37431100  1
  Zr  Zr6  1  0.76486900  0.22410200  0.88079500  1
  Zr  Zr7  1  0.76486900  0.77589800  0.88079500  1
  Pb  Pb8  1  0.12789900  0.00000000  0.36324800  1
  Pb  Pb9  1  0.37595100  0.50000000  0.86823300  1
  Pb  Pb10  1  0.62789900  0.00000000  0.13675200  1
  Pb  Pb11  1  0.87595100  0.50000000  0.63176700  1
  O  O12  1  0.02401300  0.26617400  0.26112700  1
  O  O13  1  0.02401300  0.73382600  0.26112700  1
  O  O14  1  0.21979500  0.50000000  0.59508000  1
  O  O15  1  0.26232000  0.00000000  0.66827100  1
  O  O16  1  0.26401400  0.00000000  0.18656900  1
  O  O17  1  0.26217600  0.50000000  0.05247700  1
  O  O18  1  0.44928100  0.29383300  0.77315700  1
  O  O19  1  0.44928100  0.70616700  0.77315700  1
  O  O20  1  0.50917600  0.20896100  0.50008800  1
  O  O21  1  0.51345900  0.17654100  0.01243200  1
  O  O22  1  0.50917600  0.79103900  0.50008800  1
  O  O23  1  0.51345900  0.82345900  0.01243200  1
  O  O24  1  0.52401300  0.26617400  0.23887300  1
  O  O25  1  0.52401300  0.73382600  0.23887300  1
  O  O26  1  0.71979500  0.50000000  0.90492000  1
  O  O27  1  0.76232000  0.00000000  0.83172900  1
  O  O28  1  0.76401400  0.00000000  0.31343100  1
  O  O29  1  0.76217600  0.50000000  0.44752300  1
  O  O30  1  0.94928100  0.29383300  0.72684300  1
  O  O31  1  0.94928100  0.70616700  0.72684300  1
  O  O32  1  0.01345900  0.17654100  0.48756800  1
  O  O33  1  0.00917600  0.20896100  0.99991200  1
  O  O34  1  0.00917600  0.79103900  0.99991200  1
  O  O35  1  0.01345900  0.82345900  0.48756800  1
