# generated using pymatgen
data_Zr4FeBiPb4O15
_symmetry_space_group_name_H-M   'P 1'
_cell_length_a   15.52270810
_cell_length_b   15.52270810
_cell_length_c   5.94281112
_cell_angle_alpha   79.24113679
_cell_angle_beta   79.24113679
_cell_angle_gamma   141.60979425
_symmetry_Int_Tables_number   1
_chemical_formula_structural   Zr4FeBiPb4O15
_chemical_formula_sum   'Zr8 Fe2 Bi2 Pb8 O30'
_cell_volume   732.02419669
_cell_formula_units_Z   2
loop_
 _symmetry_equiv_pos_site_id
 _symmetry_equiv_pos_as_xyz
  1  'x, y, z'
loop_
 _atom_site_type_symbol
 _atom_site_label
 _atom_site_symmetry_multiplicity
 _atom_site_fract_x
 _atom_site_fract_y
 _atom_site_fract_z
 _atom_site_occupancy
  Zr  Zr0  1  0.37493600  0.47648100  0.67081400  1
  Zr  Zr1  1  0.27398500  0.57441400  0.16537900  1
  Zr  Zr2  1  0.97733600  0.87515800  0.67139800  1
  Zr  Zr3  1  0.87515800  0.97733600  0.17139800  1
  Zr  Zr4  1  0.57441400  0.27398500  0.66537900  1
  Zr  Zr5  1  0.47648100  0.37493600  0.17081400  1
  Zr  Zr6  1  0.07541300  0.77362700  0.16609900  1
  Zr  Zr7  1  0.77362700  0.07541300  0.66609900  1
  Fe  Fe8  1  0.17401700  0.67473500  0.68412500  1
  Fe  Fe9  1  0.67473500  0.17401700  0.18412500  1
  Bi  Bi10  1  0.38991000  0.88821400  0.04082500  1
  Bi  Bi11  1  0.88821400  0.38991000  0.54082500  1
  Pb  Pb12  1  0.00005100  0.31096700  0.98275100  1
  Pb  Pb13  1  0.60608100  0.70530700  0.98428700  1
  Pb  Pb14  1  0.49586800  0.80513200  0.48077000  1
  Pb  Pb15  1  0.20416400  0.10456600  0.98619800  1
  Pb  Pb16  1  0.10456600  0.20416400  0.48619800  1
  Pb  Pb17  1  0.80513200  0.49586800  0.98077000  1
  Pb  Pb18  1  0.70530700  0.60608100  0.48428700  1
  Pb  Pb19  1  0.31096700  0.00005100  0.48275100  1
  O  O20  1  0.36567200  0.57492700  0.37755100  1
  O  O21  1  0.80958400  0.02590400  0.38128600  1
  O  O22  1  0.37366100  0.56909400  0.87865300  1
  O  O23  1  0.96662700  0.97260000  0.37678200  1
  O  O24  1  0.04174400  0.32538300  0.38136600  1
  O  O25  1  0.41113300  0.42587000  0.37619800  1
  O  O26  1  0.82284500  0.01121600  0.87878800  1
  O  O27  1  0.97260000  0.96662700  0.87678200  1
  O  O28  1  0.56909400  0.37366100  0.37865300  1
  O  O29  1  0.12371300  0.24407700  0.87690000  1
  O  O30  1  0.64436300  0.72326000  0.37706200  1
  O  O31  1  0.01121600  0.82284500  0.37878800  1
  O  O32  1  0.42587000  0.41113300  0.87619800  1
  O  O33  1  0.57492700  0.36567200  0.87755100  1
  O  O34  1  0.17815000  0.77976900  0.36736400  1
  O  O35  1  0.72326000  0.64436300  0.87706200  1
  O  O36  1  0.24407700  0.12371300  0.37690000  1
  O  O37  1  0.61341900  0.22564100  0.36547700  1
  O  O38  1  0.02590400  0.80958400  0.88128600  1
  O  O39  1  0.17934800  0.76854900  0.87107500  1
  O  O40  1  0.76854900  0.17934800  0.37107500  1
  O  O41  1  0.32538300  0.04174400  0.88136600  1
  O  O42  1  0.84869500  0.51843700  0.38694000  1
  O  O43  1  0.21459200  0.63483600  0.36569600  1
  O  O44  1  0.63483600  0.21459200  0.86569600  1
  O  O45  1  0.77976900  0.17815000  0.86736400  1
  O  O46  1  0.92994500  0.45158300  0.85371300  1
  O  O47  1  0.45158300  0.92994500  0.35371300  1
  O  O48  1  0.22564100  0.61341900  0.86547700  1
  O  O49  1  0.51843700  0.84869500  0.88694000  1
