# generated using pymatgen
data_Zr2Pb2O5
_symmetry_space_group_name_H-M   'P 1'
_cell_length_a   6.28950600
_cell_length_b   8.08168886
_cell_length_c   12.33060439
_cell_angle_alpha   90.35603528
_cell_angle_beta   90.00000000
_cell_angle_gamma   90.00000000
_symmetry_Int_Tables_number   1
_chemical_formula_structural   Zr2Pb2O5
_chemical_formula_sum   'Zr8 Pb8 O20'
_cell_volume   626.75043132
_cell_formula_units_Z   4
loop_
 _symmetry_equiv_pos_site_id
 _symmetry_equiv_pos_as_xyz
  1  'x, y, z'
loop_
 _atom_site_type_symbol
 _atom_site_label
 _atom_site_symmetry_multiplicity
 _atom_site_fract_x
 _atom_site_fract_y
 _atom_site_fract_z
 _atom_site_occupancy
  Zr  Zr0  1  0.19964700  0.24883700  0.10614200  1
  Zr  Zr1  1  0.29693600  0.75093300  0.10612100  1
  Zr  Zr2  1  0.20324200  0.75089200  0.60635800  1
  Zr  Zr3  1  0.30017400  0.24885600  0.60630400  1
  Zr  Zr4  1  0.79693600  0.24906700  0.39387900  1
  Zr  Zr5  1  0.69964700  0.75116300  0.39385800  1
  Zr  Zr6  1  0.70324200  0.24910800  0.89364200  1
  Zr  Zr7  1  0.80017400  0.75114400  0.89369600  1
  Pb  Pb8  1  0.18586600  0.94983500  0.34304100  1
  Pb  Pb9  1  0.20359400  0.53790200  0.33334800  1
  Pb  Pb10  1  0.31413000  0.94990600  0.84301700  1
  Pb  Pb11  1  0.29664900  0.53799400  0.83334400  1
  Pb  Pb12  1  0.68586600  0.05016500  0.15695900  1
  Pb  Pb13  1  0.70359400  0.46209800  0.16665200  1
  Pb  Pb14  1  0.81413000  0.05009400  0.65698300  1
  Pb  Pb15  1  0.79664900  0.46200600  0.66665600  1
  O  O16  1  0.94741900  0.23600400  0.00794900  1
  O  O17  1  0.02638000  0.23260600  0.50272700  1
  O  O18  1  0.05288300  0.76404100  0.99229000  1
  O  O19  1  0.97315800  0.76748300  0.49713000  1
  O  O20  1  0.02203800  0.26549500  0.24973800  1
  O  O21  1  0.21968800  0.49697600  0.63065800  1
  O  O22  1  0.21962000  0.00394700  0.64875700  1
  O  O23  1  0.28035900  0.00395800  0.14875800  1
  O  O24  1  0.28028400  0.49697400  0.13069300  1
  O  O25  1  0.47793400  0.26548000  0.74972800  1
  O  O26  1  0.55288300  0.23595900  0.50771000  1
  O  O27  1  0.47315800  0.23251700  0.00287000  1
  O  O28  1  0.44741900  0.76399600  0.49205100  1
  O  O29  1  0.52638000  0.76739400  0.99727300  1
  O  O30  1  0.52203800  0.73450500  0.25026200  1
  O  O31  1  0.71968800  0.50302400  0.86934200  1
  O  O32  1  0.71962000  0.99605300  0.85124300  1
  O  O33  1  0.78035900  0.99604200  0.35124200  1
  O  O34  1  0.78028400  0.50302600  0.36930700  1
  O  O35  1  0.97793400  0.73452000  0.75027200  1
