# generated using pymatgen
data_VF4
_symmetry_space_group_name_H-M   'P 1'
_cell_length_a   6.17608500
_cell_length_b   4.93471300
_cell_length_c   10.39217928
_cell_angle_alpha   65.86856701
_cell_angle_beta   90.00000000
_cell_angle_gamma   90.00000000
_symmetry_Int_Tables_number   1
_chemical_formula_structural   VF4
_chemical_formula_sum   'V4 F16'
_cell_volume   289.04604395
_cell_formula_units_Z   4
loop_
 _symmetry_equiv_pos_site_id
 _symmetry_equiv_pos_as_xyz
  1  'x, y, z'
loop_
 _atom_site_type_symbol
 _atom_site_label
 _atom_site_symmetry_multiplicity
 _atom_site_fract_x
 _atom_site_fract_y
 _atom_site_fract_z
 _atom_site_occupancy
  V  V0  1  0.32724400  0.00235500  0.24942400  1
  V  V1  1  0.82724400  0.99764500  0.25057600  1
  V  V2  1  0.17275600  0.00235500  0.74942400  1
  V  V3  1  0.67275600  0.99764500  0.75057600  1
  F  F4  1  0.16670200  0.83009400  0.62978900  1
  F  F5  1  0.58613000  0.24100900  0.14509500  1
  F  F6  1  0.06969600  0.23525500  0.14229700  1
  F  F7  1  0.67522700  0.77618000  0.65252000  1
  F  F8  1  0.17522700  0.22382000  0.84748000  1
  F  F9  1  0.56969600  0.76474500  0.35770300  1
  F  F10  1  0.08613000  0.75899100  0.35490500  1
  F  F11  1  0.66670200  0.16990600  0.87021100  1
  F  F12  1  0.33329800  0.83009400  0.12978900  1
  F  F13  1  0.91387000  0.24100900  0.64509500  1
  F  F14  1  0.43030400  0.23525500  0.64229700  1
  F  F15  1  0.82477300  0.77618000  0.15252000  1
  F  F16  1  0.32477300  0.22382000  0.34748000  1
  F  F17  1  0.93030400  0.76474500  0.85770300  1
  F  F18  1  0.41387000  0.75899100  0.85490500  1
  F  F19  1  0.83329800  0.16990600  0.37021100  1
