# generated using pymatgen
data_V4Bi23O44
_symmetry_space_group_name_H-M   'P 1'
_cell_length_a   11.76839497
_cell_length_b   11.99111950
_cell_length_c   11.86515838
_cell_angle_alpha   92.30846007
_cell_angle_beta   119.77818014
_cell_angle_gamma   118.57758553
_symmetry_Int_Tables_number   1
_chemical_formula_structural   V4Bi23O44
_chemical_formula_sum   'V4 Bi23 O44'
_cell_volume   1188.40804190
_cell_formula_units_Z   1
loop_
 _symmetry_equiv_pos_site_id
 _symmetry_equiv_pos_as_xyz
  1  'x, y, z'
loop_
 _atom_site_type_symbol
 _atom_site_label
 _atom_site_symmetry_multiplicity
 _atom_site_fract_x
 _atom_site_fract_y
 _atom_site_fract_z
 _atom_site_occupancy
  V  V0  1  0.48964800  0.36266200  0.84888600  1
  V  V1  1  0.49525800  0.66905200  0.17463800  1
  V  V2  1  0.23637500  0.97941800  0.25181700  1
  V  V3  1  0.82009200  0.01636100  0.80823900  1
  Bi  Bi4  1  0.13592300  0.65271500  0.82219300  1
  Bi  Bi5  1  0.17876900  0.35059600  0.82266900  1
  Bi  Bi6  1  0.20219200  0.69399100  0.51548800  1
  Bi  Bi7  1  0.14400300  0.32072700  0.48659600  1
  Bi  Bi8  1  0.16609500  0.66711200  0.17633900  1
  Bi  Bi9  1  0.15621900  0.00247600  0.83106300  1
  Bi  Bi10  1  0.47838100  0.65308700  0.82128900  1
  Bi  Bi11  1  0.16700400  0.33213200  0.14572600  1
  Bi  Bi12  1  0.17460300  0.99656600  0.50429900  1
  Bi  Bi13  1  0.51363500  0.01636900  0.15449500  1
  Bi  Bi14  1  0.51348800  0.66846100  0.52486400  1
  Bi  Bi15  1  0.49662000  0.35278400  0.49973000  1
  Bi  Bi16  1  0.51360700  0.00709400  0.83535400  1
  Bi  Bi17  1  0.85654900  0.02174000  0.50317200  1
  Bi  Bi18  1  0.84268700  0.69593400  0.85103300  1
  Bi  Bi19  1  0.51658400  0.00589900  0.49821900  1
  Bi  Bi20  1  0.51880200  0.33940600  0.14769100  1
  Bi  Bi21  1  0.85220500  0.01539300  0.15127800  1
  Bi  Bi22  1  0.83774000  0.34307300  0.83046000  1
  Bi  Bi23  1  0.84544800  0.66068900  0.49543000  1
  Bi  Bi24  1  0.81282600  0.33707900  0.50372000  1
  Bi  Bi25  1  0.82447600  0.63162000  0.16350700  1
  Bi  Bi26  1  0.85717900  0.33523800  0.17881300  1
  O  O27  1  0.99488300  0.77569200  0.75846700  1
  O  O28  1  0.08743100  0.99640600  0.62533900  1
  O  O29  1  0.01248600  0.77999000  0.42955100  1
  O  O30  1  0.36696700  0.99185200  0.91265300  1
  O  O31  1  0.99031300  0.57112100  0.23407100  1
  O  O32  1  0.35196400  0.94459100  0.59703600  1
  O  O33  1  0.99156200  0.39249500  0.40031800  1
  O  O34  1  0.27663000  0.56732000  0.83409700  1
  O  O35  1  0.37717900  0.79082300  0.75921400  1
  O  O36  1  0.34816900  0.42088700  0.75268200  1
  O  O37  1  0.34348400  0.74775400  0.41638900  1
  O  O38  1  0.08182300  0.45687200  0.12257000  1
  O  O39  1  0.34909400  0.58836800  0.58805800  1
  O  O40  1  0.33750300  0.26362100  0.89622000  1
  O  O41  1  0.36410300  0.43912200  0.37972400  1
  O  O42  1  0.71534000  0.81518700  0.74862900  1
  O  O43  1  0.66795500  0.55567300  0.90454400  1
  O  O44  1  0.36251100  0.71406000  0.14282300  1
  O  O45  1  0.45477900  0.24642300  0.72495600  1
  O  O46  1  0.23193900  0.12196200  0.10747200  1
  O  O47  1  0.37823200  0.48845500  0.11006300  1
  O  O48  1  0.25806300  0.15134300  0.24489900  1
  O  O49  1  0.64261800  0.55998900  0.64029500  1
  O  O50  1  0.60941500  0.81319500  0.11709000  1
  O  O51  1  0.27821000  0.02221000  0.11311400  1
  O  O52  1  0.61044500  0.69069200  0.09452800  1
  O  O53  1  0.63135100  0.72734100  0.35102400  1
  O  O54  1  0.65295400  0.41871300  0.43917100  1
  O  O55  1  0.96824100  0.58220100  0.91100100  1
  O  O56  1  0.65573100  0.24107800  0.59085000  1
  O  O57  1  0.74645600  0.53272200  0.28945100  1
  O  O58  1  0.73976300  0.00141100  0.91626200  1
  O  O59  1  0.64064700  0.23516400  0.22310700  1
  O  O60  1  0.64279700  0.39334900  0.04508800  1
  O  O61  1  0.99828900  0.58577000  0.59092600  1
  O  O62  1  0.65806100  0.06267500  0.39848900  1
  O  O63  1  0.97653900  0.42383400  0.74933100  1
  O  O64  1  0.94438400  0.22768600  0.89074600  1
  O  O65  1  0.05107300  0.83783600  0.19550800  1
  O  O66  1  0.92691400  0.04785400  0.72429100  1
  O  O67  1  0.69154600  0.06896500  0.11677300  1
  O  O68  1  0.01191500  0.24801300  0.58748200  1
  O  O69  1  0.97592600  0.08070300  0.38624800  1
  O  O70  1  0.01110500  0.23940800  0.21894400  1
