# generated using pymatgen
data_Y10Ta4O25
_symmetry_space_group_name_H-M   'P 1'
_cell_length_a   3.75793900
_cell_length_b   6.51939749
_cell_length_c   45.33280610
_cell_angle_alpha   109.53748061
_cell_angle_beta   90.00000000
_cell_angle_gamma   90.00000000
_symmetry_Int_Tables_number   1
_chemical_formula_structural   Y10Ta4O25
_chemical_formula_sum   'Y20 Ta8 O50'
_cell_volume   1046.68411367
_cell_formula_units_Z   2
loop_
 _symmetry_equiv_pos_site_id
 _symmetry_equiv_pos_as_xyz
  1  'x, y, z'
loop_
 _atom_site_type_symbol
 _atom_site_label
 _atom_site_symmetry_multiplicity
 _atom_site_fract_x
 _atom_site_fract_y
 _atom_site_fract_z
 _atom_site_occupancy
  Y  Y0  1  0.00000000  0.51664700  0.42847600  1
  Y  Y1  1  0.00000000  0.00141900  0.49770200  1
  Y  Y2  1  0.00000000  0.51806300  0.57147100  1
  Y  Y3  1  0.00000000  0.01207700  0.78984700  1
  Y  Y4  1  0.50000000  0.49191700  0.50136200  1
  Y  Y5  1  0.50000000  0.49197500  0.21562700  1
  Y  Y6  1  0.50000000  0.49205800  0.35848900  1
  Y  Y7  1  0.50000000  0.49072500  0.07258600  1
  Y  Y8  1  0.50000000  0.50358800  0.78600300  1
  Y  Y9  1  0.50000000  0.48710300  0.92782500  1
  Y  Y10  1  0.50000000  0.49053600  0.64413300  1
  Y  Y11  1  0.00000000  0.99885900  0.06806900  1
  Y  Y12  1  0.00000000  0.50966900  0.99858100  1
  Y  Y13  1  0.00000000  0.00129600  0.35475100  1
  Y  Y14  1  0.00000000  0.00133200  0.21184600  1
  Y  Y15  1  0.00000000  0.51658300  0.28562000  1
  Y  Y16  1  0.00000000  0.51605700  0.14268500  1
  Y  Y17  1  0.00000000  0.00376300  0.64169600  1
  Y  Y18  1  0.00000000  0.99311200  0.92233800  1
  Y  Y19  1  0.00000000  0.52854000  0.71470300  1
  Ta  Ta20  1  0.00000000  0.46957600  0.85747800  1
  Ta  Ta21  1  0.50000000  0.98956800  0.99887000  1
  Ta  Ta22  1  0.50000000  0.99483100  0.14342800  1
  Ta  Ta23  1  0.50000000  0.99489100  0.28647300  1
  Ta  Ta24  1  0.50000000  0.99493800  0.42935000  1
  Ta  Ta25  1  0.50000000  0.00464900  0.71710800  1
  Ta  Ta26  1  0.50000000  0.99517000  0.57237100  1
  Ta  Ta27  1  0.50000000  0.96777000  0.85641500  1
  O  O28  1  0.00000000  0.35970700  0.09080300  1
  O  O29  1  0.00000000  0.36180200  0.23390800  1
  O  O30  1  0.00000000  0.36174600  0.37677500  1
  O  O31  1  0.00000000  0.36194000  0.51971600  1
  O  O32  1  0.00000000  0.36525700  0.66282600  1
  O  O33  1  0.00000000  0.40148400  0.81085600  1
  O  O34  1  0.00000000  0.35823900  0.94634500  1
  O  O35  1  0.00000000  0.86968100  0.86766600  1
  O  O36  1  0.50000000  0.30779100  0.15091400  1
  O  O37  1  0.50000000  0.30147400  0.00619300  1
  O  O38  1  0.50000000  0.30767100  0.43662100  1
  O  O39  1  0.50000000  0.30763100  0.29374700  1
  O  O40  1  0.50000000  0.09144600  0.04760400  1
  O  O41  1  0.50000000  0.09555700  0.19168300  1
  O  O42  1  0.50000000  0.09586600  0.33463600  1
  O  O43  1  0.50000000  0.65816400  0.27222200  1
  O  O44  1  0.50000000  0.65754100  0.12914500  1
  O  O45  1  0.50000000  0.09581000  0.47752100  1
  O  O46  1  0.50000000  0.09423700  0.62068600  1
  O  O47  1  0.50000000  0.31761600  0.72462700  1
  O  O48  1  0.50000000  0.30854400  0.57992700  1
  O  O49  1  0.50000000  0.65818500  0.41507300  1
  O  O50  1  0.50000000  0.10727200  0.76659500  1
  O  O51  1  0.50000000  0.36135500  0.86929100  1
  O  O52  1  0.50000000  0.66491300  0.70133000  1
  O  O53  1  0.50000000  0.65800900  0.55794300  1
  O  O54  1  0.50000000  0.10645700  0.90358200  1
  O  O55  1  0.50000000  0.64396900  0.84802200  1
  O  O56  1  0.50000000  0.65516000  0.98580900  1
  O  O57  1  0.50000000  0.94187900  0.09841000  1
  O  O58  1  0.50000000  0.94168100  0.24148100  1
  O  O59  1  0.50000000  0.94176500  0.38435500  1
  O  O60  1  0.50000000  0.94261700  0.52737700  1
  O  O61  1  0.50000000  0.95396200  0.67202700  1
  O  O62  1  0.50000000  0.88585200  0.81059500  1
  O  O63  1  0.50000000  0.92934800  0.95310000  1
  O  O64  1  0.00000000  0.62918400  0.05182100  1
  O  O65  1  0.00000000  0.94027100  0.00687300  1
  O  O66  1  0.00000000  0.63272600  0.33841300  1
  O  O67  1  0.00000000  0.63268900  0.19550600  1
  O  O68  1  0.00000000  0.94010000  0.29419900  1
  O  O69  1  0.00000000  0.93992300  0.15125200  1
  O  O70  1  0.00000000  0.63546900  0.62441500  1
  O  O71  1  0.00000000  0.63279900  0.48129600  1
  O  O72  1  0.00000000  0.94043000  0.57982300  1
  O  O73  1  0.00000000  0.94009500  0.43705400  1
  O  O74  1  0.00000000  0.14398700  0.84475300  1
  O  O75  1  0.00000000  0.61609900  0.90515700  1
  O  O76  1  0.00000000  0.63722600  0.76696000  1
  O  O77  1  0.00000000  0.94865900  0.72376300  1
