# generated using pymatgen
data_Th4P5O23
_symmetry_space_group_name_H-M   'P 1'
_cell_length_a   6.76431253
_cell_length_b   7.10688171
_cell_length_c   11.08138714
_cell_angle_alpha   90.69764922
_cell_angle_beta   105.66099918
_cell_angle_gamma   89.47840632
_symmetry_Int_Tables_number   1
_chemical_formula_structural   Th4P5O23
_chemical_formula_sum   'Th4 P5 O23'
_cell_volume   512.89326307
_cell_formula_units_Z   1
loop_
 _symmetry_equiv_pos_site_id
 _symmetry_equiv_pos_as_xyz
  1  'x, y, z'
loop_
 _atom_site_type_symbol
 _atom_site_label
 _atom_site_symmetry_multiplicity
 _atom_site_fract_x
 _atom_site_fract_y
 _atom_site_fract_z
 _atom_site_occupancy
  Th  Th0  1  0.98878400  0.75080800  0.71113200  1
  Th  Th1  1  0.28238900  0.75099500  0.28715600  1
  Th  Th2  1  0.68797500  0.26199800  0.71771700  1
  Th  Th3  1  0.00137400  0.26253000  0.27376600  1
  P  P4  1  0.11762800  0.24287100  0.63145200  1
  P  P5  1  0.48930400  0.75996400  0.63856000  1
  P  P6  1  0.50542700  0.24985200  0.35806700  1
  P  P7  1  0.85481300  0.75463000  0.36558700  1
  P  P8  1  0.89833400  0.63529400  0.99327200  1
  O  O9  1  0.04820200  0.71328200  0.92110000  1
  O  O10  1  0.01058000  0.08593700  0.69071400  1
  O  O11  1  0.01598400  0.42865800  0.66396900  1
  O  O12  1  0.07735500  0.21887400  0.48986900  1
  O  O13  1  0.32381800  0.75240000  0.70805400  1
  O  O14  1  0.34695000  0.23773700  0.69587900  1
  O  O15  1  0.35139900  0.08153000  0.31825800  1
  O  O16  1  0.36079200  0.42778700  0.32557800  1
  O  O17  1  0.39091800  0.77406100  0.49669900  1
  O  O18  1  0.66401900  0.33095900  0.91494000  1
  O  O19  1  0.60463900  0.24610900  0.49899200  1
  O  O20  1  0.63114100  0.58233700  0.66299100  1
  O  O21  1  0.64097900  0.92507800  0.68773400  1
  O  O22  1  0.62926300  0.74389000  0.28971100  1
  O  O23  1  0.66144800  0.24636000  0.28063700  1
  O  O24  1  0.86087200  0.42297400  0.91774700  1
  O  O25  1  0.70309600  0.73671000  0.98147400  1
  O  O26  1  0.87070400  0.79514800  0.50412700  1
  O  O27  1  0.97839400  0.57001600  0.35952900  1
  O  O28  1  0.97446700  0.90951000  0.31525800  1
  O  O29  1  0.03104500  0.58337600  0.12754500  1
  O  O30  1  0.99512700  0.05285600  0.10222700  1
  O  O31  1  0.10598000  0.20076800  0.08246000  1
