# generated using pymatgen
data_Sr(BS2)2
_symmetry_space_group_name_H-M   'P 1'
_cell_length_a   8.96964065
_cell_length_b   8.96964065
_cell_length_c   8.96964048
_cell_angle_alpha   58.05695961
_cell_angle_beta   58.05695961
_cell_angle_gamma   58.05695908
_symmetry_Int_Tables_number   1
_chemical_formula_structural   Sr(BS2)2
_chemical_formula_sum   'Sr3 B6 S12'
_cell_volume   487.54501342
_cell_formula_units_Z   3
loop_
 _symmetry_equiv_pos_site_id
 _symmetry_equiv_pos_as_xyz
  1  'x, y, z'
loop_
 _atom_site_type_symbol
 _atom_site_label
 _atom_site_symmetry_multiplicity
 _atom_site_fract_x
 _atom_site_fract_y
 _atom_site_fract_z
 _atom_site_occupancy
  Sr  Sr0  1  0.19089400  0.19089400  0.19089400  1
  Sr  Sr1  1  0.80910600  0.80910600  0.80910600  1
  Sr  Sr2  1  0.00000000  0.00000000  0.00000000  1
  B  B3  1  0.63434000  0.23596700  0.38664500  1
  B  B4  1  0.23596700  0.38664500  0.63434000  1
  B  B5  1  0.38664500  0.63434000  0.23596700  1
  B  B6  1  0.61335500  0.36566000  0.76403300  1
  B  B7  1  0.36566000  0.76403300  0.61335500  1
  B  B8  1  0.76403300  0.61335500  0.36566000  1
  S  S9  1  0.14389900  0.95217700  0.62615200  1
  S  S10  1  0.04782300  0.37384800  0.85610100  1
  S  S11  1  0.37384800  0.85610100  0.04782300  1
  S  S12  1  0.38875500  0.55028700  0.81487400  1
  S  S13  1  0.81487400  0.38875500  0.55028700  1
  S  S14  1  0.55028700  0.81487400  0.38875500  1
  S  S15  1  0.61124500  0.44971300  0.18512600  1
  S  S16  1  0.18512600  0.61124500  0.44971300  1
  S  S17  1  0.44971300  0.18512600  0.61124500  1
  S  S18  1  0.62615200  0.14389900  0.95217700  1
  S  S19  1  0.85610100  0.04782300  0.37384800  1
  S  S20  1  0.95217700  0.62615200  0.14389900  1
