# generated using pymatgen
data_V16Ag7O40
_symmetry_space_group_name_H-M   'P 1'
_cell_length_a   3.67242387
_cell_length_b   12.52799395
_cell_length_c   18.46534846
_cell_angle_alpha   81.46009970
_cell_angle_beta   91.53977251
_cell_angle_gamma   106.30707888
_symmetry_Int_Tables_number   1
_chemical_formula_structural   V16Ag7O40
_chemical_formula_sum   'V16 Ag7 O40'
_cell_volume   806.23983925
_cell_formula_units_Z   1
loop_
 _symmetry_equiv_pos_site_id
 _symmetry_equiv_pos_as_xyz
  1  'x, y, z'
loop_
 _atom_site_type_symbol
 _atom_site_label
 _atom_site_symmetry_multiplicity
 _atom_site_fract_x
 _atom_site_fract_y
 _atom_site_fract_z
 _atom_site_occupancy
  V  V0  1  0.26303500  0.75299300  0.08328000  1
  V  V1  1  0.23972700  0.74350700  0.58263200  1
  V  V2  1  0.40798100  0.94966300  0.42574200  1
  V  V3  1  0.44905500  0.95415800  0.92035400  1
  V  V4  1  0.26214300  0.25694000  0.08395100  1
  V  V5  1  0.26120600  0.24673800  0.57965500  1
  V  V6  1  0.44308800  0.45382700  0.41643200  1
  V  V7  1  0.43461200  0.45292800  0.91759200  1
  V  V8  1  0.57003700  0.55213200  0.08010800  1
  V  V9  1  0.54600500  0.53841600  0.57617000  1
  V  V10  1  0.71869200  0.74638100  0.42041100  1
  V  V11  1  0.74514200  0.74603200  0.91643200  1
  V  V12  1  0.57195200  0.04690200  0.07724800  1
  V  V13  1  0.56216700  0.03920500  0.58188400  1
  V  V14  1  0.74467500  0.24351100  0.42138600  1
  V  V15  1  0.74497800  0.24761400  0.91050200  1
  Ag  Ag16  1  0.06332200  0.59685000  0.26585400  1
  Ag  Ag17  1  0.08225300  0.61437400  0.77874500  1
  Ag  Ag18  1  0.15342300  0.14231600  0.28684800  1
  Ag  Ag19  1  0.10463200  0.11357600  0.77556900  1
  Ag  Ag20  1  0.87993300  0.91181300  0.24563500  1
  Ag  Ag21  1  0.94463100  0.88088400  0.72131800  1
  Ag  Ag22  1  0.90492600  0.37617800  0.70801300  1
  O  O23  1  0.10191900  0.58878700  0.06644900  1
  O  O24  1  0.08342800  0.57944700  0.57046700  1
  O  O25  1  0.24707300  0.77323400  0.44803300  1
  O  O26  1  0.27856600  0.77733100  0.93996800  1
  O  O27  1  0.26979100  0.75131100  0.17396400  1
  O  O28  1  0.23992200  0.74589500  0.67467600  1
  O  O29  1  0.40882400  0.90650100  0.55302300  1
  O  O30  1  0.42326500  0.91386900  0.04790000  1
  O  O31  1  0.47104100  0.99522800  0.82922900  1
  O  O32  1  0.41318800  0.98469500  0.33357500  1
  O  O33  1  0.11530700  0.09292800  0.06833100  1
  O  O34  1  0.10092100  0.08081600  0.57441000  1
  O  O35  1  0.27732800  0.27469600  0.44384600  1
  O  O36  1  0.27405700  0.27648000  0.93712900  1
  O  O37  1  0.25183300  0.24627700  0.17295400  1
  O  O38  1  0.26860600  0.25046600  0.67187500  1
  O  O39  1  0.41661500  0.40765100  0.05368700  1
  O  O40  1  0.41517200  0.40751800  0.54404400  1
  O  O41  1  0.47445600  0.49893300  0.32575200  1
  O  O42  1  0.45675300  0.49480500  0.82678800  1
  O  O43  1  0.56527700  0.53480000  0.16968100  1
  O  O44  1  0.51871500  0.49591800  0.66792600  1
  O  O45  1  0.56976200  0.58350200  0.45120200  1
  O  O46  1  0.57405800  0.58251700  0.95201100  1
  O  O47  1  0.72352300  0.75300300  0.32852600  1
  O  O48  1  0.73992800  0.74170700  0.82479500  1
  O  O49  1  0.73263300  0.72473900  0.05571700  1
  O  O50  1  0.70917500  0.71513200  0.55775700  1
  O  O51  1  0.87265300  0.90967000  0.43533100  1
  O  O52  1  0.90817000  0.91205900  0.92717400  1
  O  O53  1  0.56477200  0.01225200  0.16851600  1
  O  O54  1  0.55086500  0.00347500  0.67437200  1
  O  O55  1  0.56407900  0.08058100  0.45766100  1
  O  O56  1  0.59631200  0.08788200  0.95204600  1
  O  O57  1  0.74550300  0.23041600  0.33163100  1
  O  O58  1  0.74261100  0.24317700  0.81938100  1
  O  O59  1  0.73080800  0.21791700  0.55563700  1
  O  O60  1  0.73826300  0.22884300  0.06225200  1
  O  O61  1  0.90415000  0.41164800  0.42256000  1
  O  O62  1  0.89686500  0.41075500  0.92621300  1
