# generated using pymatgen
data_Y7Ta3O18
_symmetry_space_group_name_H-M   'P 1'
_cell_length_a   6.43531500
_cell_length_b   6.44868407
_cell_length_c   18.82412586
_cell_angle_alpha   90.23896221
_cell_angle_beta   89.92618620
_cell_angle_gamma   109.68207194
_symmetry_Int_Tables_number   1
_chemical_formula_structural   Y7Ta3O18
_chemical_formula_sum   'Y14 Ta6 O36'
_cell_volume   735.54173089
_cell_formula_units_Z   2
loop_
 _symmetry_equiv_pos_site_id
 _symmetry_equiv_pos_as_xyz
  1  'x, y, z'
loop_
 _atom_site_type_symbol
 _atom_site_label
 _atom_site_symmetry_multiplicity
 _atom_site_fract_x
 _atom_site_fract_y
 _atom_site_fract_z
 _atom_site_occupancy
  Y  Y0  1  0.00173500  0.47084400  0.29951700  1
  Y  Y1  1  0.49937400  0.50271400  0.19844600  1
  Y  Y2  1  0.99844400  0.53699900  0.10009500  1
  Y  Y3  1  0.46357100  0.00166000  0.10041200  1
  Y  Y4  1  0.50000000  0.50000000  0.00000000  1
  Y  Y5  1  0.00155600  0.46300100  0.89990500  1
  Y  Y6  1  0.53642900  0.99834000  0.89958800  1
  Y  Y7  1  0.50062600  0.49728600  0.80155400  1
  Y  Y8  1  0.99826500  0.52915600  0.70048300  1
  Y  Y9  1  0.46859600  0.00182700  0.69937500  1
  Y  Y10  1  0.49886200  0.50303100  0.60589000  1
  Y  Y11  1  0.50000000  0.00000000  0.50000000  1
  Y  Y12  1  0.50113800  0.49696900  0.39411000  1
  Y  Y13  1  0.53140400  0.99817300  0.30062500  1
  Ta  Ta14  1  0.99940300  0.00233400  0.20399400  1
  Ta  Ta15  1  0.00000000  0.00000000  0.00000000  1
  Ta  Ta16  1  0.00059700  0.99766600  0.79600600  1
  Ta  Ta17  1  0.00323800  0.99773700  0.58874300  1
  Ta  Ta18  1  0.00000000  0.50000000  0.50000000  1
  Ta  Ta19  1  0.99676200  0.00226300  0.41125700  1
  O  O20  1  0.63695100  0.36281200  0.30108900  1
  O  O21  1  0.32240600  0.07461800  0.21356200  1
  O  O22  1  0.06734800  0.32165500  0.18823700  1
  O  O23  1  0.92093000  0.67736200  0.21224200  1
  O  O24  1  0.67748300  0.93461500  0.18981100  1
  O  O25  1  0.62737500  0.37139200  0.09925600  1
  O  O26  1  0.36230000  0.63869200  0.10076300  1
  O  O27  1  0.06437000  0.93759800  0.10123200  1
  O  O28  1  0.32294800  0.07203600  0.98711700  1
  O  O29  1  0.07280400  0.32314100  0.01256500  1
  O  O30  1  0.92719600  0.67685900  0.98743500  1
  O  O31  1  0.67705200  0.92796400  0.01288300  1
  O  O32  1  0.93563000  0.06240200  0.89876800  1
  O  O33  1  0.63770000  0.36130800  0.89923700  1
  O  O34  1  0.37262500  0.62860800  0.90074400  1
  O  O35  1  0.32251700  0.06538500  0.81018900  1
  O  O36  1  0.07907000  0.32263800  0.78775800  1
  O  O37  1  0.93265200  0.67834500  0.81176300  1
  O  O38  1  0.67759400  0.92538200  0.78643800  1
  O  O39  1  0.62979100  0.36952800  0.70468000  1
  O  O40  1  0.36304900  0.63718800  0.69891100  1
  O  O41  1  0.05506900  0.93854000  0.69396700  1
  O  O42  1  0.34668600  0.11455100  0.59453800  1
  O  O43  1  0.06292100  0.32314500  0.60593700  1
  O  O44  1  0.90868600  0.63929700  0.59259000  1
  O  O45  1  0.67828700  0.91009700  0.60564400  1
  O  O46  1  0.90670300  0.13251200  0.49990700  1
  O  O47  1  0.67008700  0.38833800  0.49152300  1
  O  O48  1  0.32991300  0.61166200  0.50847700  1
  O  O49  1  0.09329700  0.86748800  0.50009300  1
  O  O50  1  0.32171300  0.08990300  0.39435600  1
  O  O51  1  0.09131400  0.36070300  0.40741000  1
  O  O52  1  0.93707900  0.67685500  0.39406300  1
  O  O53  1  0.65331400  0.88544900  0.40546200  1
  O  O54  1  0.94493100  0.06146000  0.30603300  1
  O  O55  1  0.37020900  0.63047200  0.29532000  1
