# generated using pymatgen
data_Te16Rh9
_symmetry_space_group_name_H-M   'P 1'
_cell_length_a   15.99483331
_cell_length_b   11.95646171
_cell_length_c   8.83471422
_cell_angle_alpha   42.12243849
_cell_angle_beta   47.36104570
_cell_angle_gamma   33.15066203
_symmetry_Int_Tables_number   1
_chemical_formula_structural   Te16Rh9
_chemical_formula_sum   'Te16 Rh9'
_cell_volume   612.32578329
_cell_formula_units_Z   1
loop_
 _symmetry_equiv_pos_site_id
 _symmetry_equiv_pos_as_xyz
  1  'x, y, z'
loop_
 _atom_site_type_symbol
 _atom_site_label
 _atom_site_symmetry_multiplicity
 _atom_site_fract_x
 _atom_site_fract_y
 _atom_site_fract_z
 _atom_site_occupancy
  Te  Te0  1  0.04177000  0.20601200  0.54591400  1
  Te  Te1  1  0.04871700  0.69959700  0.04187600  1
  Te  Te2  1  0.29276000  0.19679400  0.55172200  1
  Te  Te3  1  0.20729900  0.29666300  0.95493000  1
  Te  Te4  1  0.29270100  0.70333700  0.04507000  1
  Te  Te5  1  0.20724000  0.80320600  0.44827800  1
  Te  Te6  1  0.54166200  0.20861600  0.54662700  1
  Te  Te7  1  0.45128300  0.30040300  0.95812400  1
  Te  Te8  1  0.54610000  0.70156500  0.03966500  1
  Te  Te9  1  0.45823000  0.79398800  0.45408600  1
  Te  Te10  1  0.79813700  0.20738100  0.53012700  1
  Te  Te11  1  0.70251300  0.29589800  0.96839400  1
  Te  Te12  1  0.79748700  0.70410200  0.03160600  1
  Te  Te13  1  0.70186300  0.79261900  0.46987300  1
  Te  Te14  1  0.95390000  0.29843500  0.96033500  1
  Te  Te15  1  0.95833800  0.79138400  0.45337300  1
  Rh  Rh16  1  0.24955300  0.24594300  0.25418800  1
  Rh  Rh17  1  0.00663200  0.74998200  0.73558600  1
  Rh  Rh18  1  0.49336800  0.25001800  0.26441400  1
  Rh  Rh19  1  0.75000000  0.00000000  0.00000000  1
  Rh  Rh20  1  0.25044700  0.75405700  0.74581200  1
  Rh  Rh21  1  0.75158000  0.24180500  0.25832400  1
  Rh  Rh22  1  0.49902800  0.74360300  0.75157600  1
  Rh  Rh23  1  0.00097200  0.25639700  0.24842400  1
  Rh  Rh24  1  0.74842000  0.75819500  0.74167600  1
