# generated using pymatgen
data_V17Pb3O32
_symmetry_space_group_name_H-M   'P 1'
_cell_length_a   3.42726982
_cell_length_b   12.11865051
_cell_length_c   18.09614225
_cell_angle_alpha   64.83412962
_cell_angle_beta   73.28497773
_cell_angle_gamma   73.63290736
_symmetry_Int_Tables_number   1
_chemical_formula_structural   V17Pb3O32
_chemical_formula_sum   'V17 Pb3 O32'
_cell_volume   640.39611818
_cell_formula_units_Z   1
loop_
 _symmetry_equiv_pos_site_id
 _symmetry_equiv_pos_as_xyz
  1  'x, y, z'
loop_
 _atom_site_type_symbol
 _atom_site_label
 _atom_site_symmetry_multiplicity
 _atom_site_fract_x
 _atom_site_fract_y
 _atom_site_fract_z
 _atom_site_occupancy
  V  V0  1  0.11610200  0.44004900  0.30201300  1
  V  V1  1  0.33525500  0.09809300  0.38245400  1
  V  V2  1  0.14965300  0.23090400  0.75311000  1
  V  V3  1  0.13622900  0.96156400  0.27683400  1
  V  V4  1  0.67931600  0.14232300  0.12813200  1
  V  V5  1  0.34902600  0.54230100  0.41190200  1
  V  V6  1  0.11044100  0.71232900  0.79047000  1
  V  V7  1  0.67061600  0.62016700  0.14788100  1
  V  V8  1  0.36652600  0.35743000  0.85594400  1
  V  V9  1  0.90215100  0.27763100  0.22109000  1
  V  V10  1  0.69604700  0.50823000  0.57860700  1
  V  V11  1  0.33477500  0.86726500  0.87050800  1
  V  V12  1  0.91040700  0.03140800  0.71302600  1
  V  V13  1  0.88455600  0.75911900  0.24512500  1
  V  V14  1  0.68979300  0.87624500  0.62982200  1
  V  V15  1  0.89470100  0.54959300  0.71197800  1
  V  V16  1  0.02579300  0.80498000  0.44410800  1
  Pb  Pb17  1  0.52372200  0.49016400  0.99771000  1
  Pb  Pb18  1  0.50494000  0.96068000  0.02973200  1
  Pb  Pb19  1  0.46198000  0.24463800  0.53998000  1
  O  O20  1  0.21407200  0.36177500  0.95585800  1
  O  O21  1  0.11314400  0.13225500  0.17869200  1
  O  O22  1  0.17514500  0.12713600  0.47061700  1
  O  O23  1  0.18130100  0.87470000  0.96911900  1
  O  O24  1  0.09923900  0.61449300  0.19888300  1
  O  O25  1  0.30202400  0.26428100  0.29549700  1
  O  O26  1  0.50348200  0.30626400  0.13622400  1
  O  O27  1  0.11093400  0.62825200  0.49495900  1
  O  O28  1  0.13724800  0.42573400  0.64279600  1
  O  O29  1  0.29153600  0.03902700  0.78591200  1
  O  O30  1  0.24645100  0.78165400  0.32018600  1
  O  O31  1  0.52043000  0.03862700  0.63562600  1
  O  O32  1  0.48444500  0.78596800  0.16183100  1
  O  O33  1  0.11710900  0.87292300  0.68038400  1
  O  O34  1  0.28732700  0.53575500  0.79017400  1
  O  O35  1  0.53702900  0.40001300  0.37918300  1
  O  O36  1  0.44810600  0.61102900  0.63249400  1
  O  O37  1  0.72886100  0.44785400  0.22300300  1
  O  O38  1  0.92031000  0.09275000  0.32991400  1
  O  O39  1  0.55269900  0.21153500  0.82924900  1
  O  O40  1  0.50748800  0.90752300  0.39193200  1
  O  O41  1  0.78665000  0.21333500  0.67542600  1
  O  O42  1  0.73608100  0.95935900  0.21186400  1
  O  O43  1  0.90016600  0.59407400  0.34228100  1
  O  O44  1  0.79857000  0.44655300  0.49707400  1
  O  O45  1  0.50309700  0.69645000  0.87150400  1
  O  O46  1  0.71453300  0.71454000  0.72041100  1
  O  O47  1  0.93402400  0.37343500  0.80056300  1
  O  O48  1  0.83364400  0.12517000  0.03501200  1
  O  O49  1  0.83907300  0.86713900  0.53257500  1
  O  O50  1  0.90648000  0.86875900  0.82207600  1
  O  O51  1  0.82087000  0.61387100  0.05095700  1
