# generated using pymatgen
data_V2Bi8O17
_symmetry_space_group_name_H-M   'P 1'
_cell_length_a   4.09775330
_cell_length_b   4.09775330
_cell_length_c   31.59444865
_cell_angle_alpha   85.67748366
_cell_angle_beta   85.67748366
_cell_angle_gamma   54.50958326
_symmetry_Int_Tables_number   1
_chemical_formula_structural   V2Bi8O17
_chemical_formula_sum   'V2 Bi8 O17'
_cell_volume   430.40142172
_cell_formula_units_Z   1
loop_
 _symmetry_equiv_pos_site_id
 _symmetry_equiv_pos_as_xyz
  1  'x, y, z'
loop_
 _atom_site_type_symbol
 _atom_site_label
 _atom_site_symmetry_multiplicity
 _atom_site_fract_x
 _atom_site_fract_y
 _atom_site_fract_z
 _atom_site_occupancy
  V  V0  1  0.72494800  0.72494800  0.60994000  1
  V  V1  1  0.49040900  0.49040900  0.78764300  1
  Bi  Bi2  1  0.99672500  0.99672500  0.98067500  1
  Bi  Bi3  1  0.34970500  0.34970500  0.09347700  1
  Bi  Bi4  1  0.59609600  0.59609600  0.19621300  1
  Bi  Bi5  1  0.84747200  0.84747200  0.30542900  1
  Bi  Bi6  1  0.19168200  0.19168200  0.41251900  1
  Bi  Bi7  1  0.53238800  0.53238800  0.52319100  1
  Bi  Bi8  1  0.08832600  0.08832600  0.69832500  1
  Bi  Bi9  1  0.68777000  0.68777000  0.87521600  1
  O  O10  1  0.61268300  0.61268300  0.12304800  1
  O  O11  1  0.95271200  0.95271200  0.05565900  1
  O  O12  1  0.27179500  0.27179500  0.19050700  1
  O  O13  1  0.23317300  0.23317300  0.33887200  1
  O  O14  1  0.59993100  0.59993100  0.27098800  1
  O  O15  1  0.86557600  0.86557600  0.40757000  1
  O  O16  1  0.81439100  0.81439100  0.55290000  1
  O  O17  1  0.16493200  0.16493200  0.48805800  1
  O  O18  1  0.18387200  0.18387200  0.62050100  1
  O  O19  1  0.49990300  0.49990300  0.59672400  1
  O  O20  1  0.43175000  0.43175000  0.72918900  1
  O  O21  1  0.78324100  0.78324100  0.66758200  1
  O  O22  1  0.71172000  0.71172000  0.80157200  1
  O  O23  1  0.02758800  0.02758800  0.77493200  1
  O  O24  1  0.03310600  0.03310600  0.90576700  1
  O  O25  1  0.39511400  0.39511400  0.84326000  1
  O  O26  1  0.67179500  0.67179500  0.97784400  1
