# generated using pymatgen
data_Tl9SbTe6
_symmetry_space_group_name_H-M   'P 1'
_cell_length_a   8.96558651
_cell_length_b   8.96594003
_cell_length_c   92.65320216
_cell_angle_alpha   118.87387414
_cell_angle_beta   118.87328069
_cell_angle_gamma   90.00385717
_symmetry_Int_Tables_number   1
_chemical_formula_structural   Tl9SbTe6
_chemical_formula_sum   'Tl90 Sb10 Te60'
_cell_volume   5440.67894043
_cell_formula_units_Z   10
loop_
 _symmetry_equiv_pos_site_id
 _symmetry_equiv_pos_as_xyz
  1  'x, y, z'
loop_
 _atom_site_type_symbol
 _atom_site_label
 _atom_site_symmetry_multiplicity
 _atom_site_fract_x
 _atom_site_fract_y
 _atom_site_fract_z
 _atom_site_occupancy
  Tl  Tl0  1  0.00714217  0.51311035  0.93150849  1
  Tl  Tl1  1  0.19677058  0.99177678  0.96839739  1
  Tl  Tl2  1  0.48737260  0.69236914  0.96842943  1
  Tl  Tl3  1  0.30787091  0.80191580  0.93149301  1
  Tl  Tl4  1  0.00948148  0.51132575  0.83141593  1
  Tl  Tl5  1  0.19901514  0.99235416  0.86864287  1
  Tl  Tl6  1  0.69243433  0.19685880  0.96842433  1
  Tl  Tl7  1  0.51301210  0.30790646  0.93149645  1
  Tl  Tl8  1  0.50223886  0.50223400  0.90043648  1
  Tl  Tl9  1  0.48750203  0.69419666  0.86865468  1
  Tl  Tl10  1  0.30465301  0.80283592  0.83140950  1
  Tl  Tl11  1  0.80200516  0.00709207  0.93150788  1
  Tl  Tl12  1  0.99181490  0.48718787  0.96840533  1
  Tl  Tl13  1  0.00841718  0.51218262  0.73146989  1
  Tl  Tl14  1  0.19678414  0.99083007  0.76850056  1
  Tl  Tl15  1  0.69421189  0.19906243  0.86865460  1
  Tl  Tl16  1  0.51124358  0.30467505  0.83141390  1
  Tl  Tl17  1  0.49845504  0.49844478  0.79968842  1
  Tl  Tl18  1  0.48833016  0.69422050  0.76850537  1
  Tl  Tl19  1  0.30615500  0.80250647  0.73145837  1
  Tl  Tl20  1  0.80283015  0.00947160  0.83141587  1
  Tl  Tl21  1  0.99229301  0.48737807  0.86864172  1
  Tl  Tl22  1  0.00890194  0.51183842  0.63145423  1
  Tl  Tl23  1  0.19767188  0.99146762  0.66856950  1
  Tl  Tl24  1  0.69423560  0.19677200  0.76850776  1
  Tl  Tl25  1  0.51206806  0.30618544  0.73145936  1
  Tl  Tl26  1  0.50072982  0.50073056  0.70015568  1
  Tl  Tl27  1  0.48809890  0.69422661  0.66856947  1
  Tl  Tl28  1  0.30551970  0.80266648  0.63143526  1
  Tl  Tl29  1  0.80253765  0.00838487  0.73146929  1
  Tl  Tl30  1  0.99080042  0.48823804  0.76850095  1
  Tl  Tl31  1  0.00884436  0.51195327  0.53147438  1
  Tl  Tl32  1  0.19729097  0.99129644  0.56853406  1
  Tl  Tl33  1  0.69426826  0.19769496  0.66857712  1
  Tl  Tl34  1  0.51169070  0.30557088  0.63144075  1
  Tl  Tl35  1  0.49955308  0.49955723  0.59991733  1
  Tl  Tl36  1  0.48815615  0.69409654  0.56853726  1
  Tl  Tl37  1  0.30584250  0.80269026  0.53145381  1
  Tl  Tl38  1  0.80268336  0.00879162  0.63144749  1
  Tl  Tl39  1  0.99136480  0.48803648  0.66856655  1
  Tl  Tl40  1  0.00863523  0.51196351  0.43143345  1
  Tl  Tl41  1  0.19731669  0.99120834  0.46855252  1
  Tl  Tl42  1  0.69415751  0.19730974  0.56854618  1
  Tl  Tl43  1  0.51184385  0.30590346  0.53146274  1
  Tl  Tl44  1  0.50044690  0.50044282  0.50008267  1
  Tl  Tl45  1  0.48830920  0.69442904  0.46855924  1
  Tl  Tl46  1  0.30573170  0.80230508  0.43142288  1
  Tl  Tl47  1  0.80270903  0.00870353  0.53146594  1
  Tl  Tl48  1  0.99115566  0.48804673  0.56852562  1
  Tl  Tl49  1  0.00919954  0.51176193  0.33149905  1
  Tl  Tl50  1  0.19746228  0.99161511  0.36853071  1
  Tl  Tl51  1  0.69448033  0.19733351  0.46856474  1
  Tl  Tl52  1  0.51190105  0.30577336  0.43143052  1
  Tl  Tl53  1  0.49927013  0.49926937  0.39984431  1
  Tl  Tl54  1  0.48793199  0.69381450  0.36854064  1
  Tl  Tl55  1  0.30576446  0.80322800  0.33149224  1
  Tl  Tl56  1  0.80232820  0.00853239  0.43143050  1
  Tl  Tl57  1  0.99109815  0.48816167  0.46854578  1
  Tl  Tl58  1  0.00770699  0.51262199  0.23135828  1
  Tl  Tl59  1  0.19716996  0.99052842  0.26858414  1
  Tl  Tl60  1  0.69384504  0.19749348  0.36854162  1
  Tl  Tl61  1  0.51166989  0.30577952  0.33149463  1
  Tl  Tl62  1  0.50154503  0.50155522  0.30031159  1
  Tl  Tl63  1  0.48875634  0.69532490  0.26858610  1
  Tl  Tl64  1  0.30578803  0.80093756  0.23134539  1
  Tl  Tl65  1  0.80321579  0.00916995  0.33149944  1
  Tl  Tl66  1  0.99158286  0.48781748  0.36853011  1
  Tl  Tl67  1  0.00818507  0.51281208  0.13159467  1
  Tl  Tl68  1  0.19799487  0.99290787  0.16849212  1
  Tl  Tl69  1  0.69534702  0.19716411  0.26859050  1
  Tl  Tl70  1  0.51249801  0.30580340  0.23134532  1
  Tl  Tl71  1  0.00346850  0.00348386  0.10069108  1
  Tl  Tl72  1  0.49776110  0.49776614  0.19956352  1
  Tl  Tl73  1  0.48698782  0.69209355  0.16850354  1
  Tl  Tl74  1  0.30756567  0.80314123  0.13157567  1
  Tl  Tl75  1  0.80098488  0.00764586  0.23135714  1
  Tl  Tl76  1  0.99051841  0.48867420  0.26858406  1
  Tl  Tl77  1  0.00781070  0.51354675  0.03131359  1
  Tl  Tl78  1  0.20027504  0.99212540  0.06867412  1
  Tl  Tl79  1  0.69212903  0.19808429  0.16850699  1
  Tl  Tl80  1  0.51262737  0.30763086  0.13157057  1
  Tl  Tl81  1  0.99653152  0.99651616  0.99930893  1
  Tl  Tl82  1  0.48670550  0.69485441  0.06871757  1
  Tl  Tl83  1  0.30512917  0.79958362  0.03129062  1
  Tl  Tl84  1  0.80322939  0.00822322  0.13160260  1
  Tl  Tl85  1  0.99285785  0.48688975  0.16849152  1
  Tl  Tl86  1  0.69487080  0.20041640  0.06870939  1
  Tl  Tl87  1  0.51329458  0.30514562  0.03128244  1
  Tl  Tl88  1  0.79972498  0.00787462  0.03132589  1
  Tl  Tl89  1  0.99218931  0.48645336  0.06868641  1
  Sb  Sb90  1  0.99561325  0.99562307  0.89910755  1
  Sb  Sb91  1  0.50855097  0.50859006  0.00172661  1
  Sb  Sb92  1  0.00229122  0.00228786  0.80045367  1
  Sb  Sb93  1  0.99876504  0.99878162  0.69975151  1
  Sb  Sb94  1  0.00070012  0.00070146  0.60013873  1
  Sb  Sb95  1  0.00123492  0.00121840  0.40024848  1
  Sb  Sb96  1  0.99770880  0.99771217  0.29954633  1
  Sb  Sb97  1  0.99929987  0.99929850  0.49986127  1
  Sb  Sb98  1  0.00438681  0.00437697  0.20089245  1
  Sb  Sb99  1  0.49144906  0.49140998  0.09827340  1
  Te  Te100  1  0.24639369  0.24628711  0.94928535  1
  Te  Te101  1  0.14856810  0.31885850  0.89990515  1
  Te  Te102  1  0.31883081  0.85059895  0.89991190  1
  Te  Te103  1  0.23069344  0.23059938  0.84611598  1
  Te  Te104  1  0.75229227  0.75234168  0.95044294  1
  Te  Te105  1  0.14920021  0.32017302  0.80004289  1
  Te  Te106  1  0.68010694  0.14850847  0.89988404  1
  Te  Te107  1  0.32030155  0.85128391  0.80005524  1
  Te  Te108  1  0.85053288  0.68023389  0.89989870  1
  Te  Te109  1  0.23633062  0.23615575  0.74723121  1
  Te  Te110  1  0.77034150  0.77040758  0.85408293  1
  Te  Te111  1  0.14866569  0.31946145  0.69998521  1
  Te  Te112  1  0.68009301  0.14915469  0.80002613  1
  Te  Te113  1  0.31957396  0.85113116  0.69999707  1
  Te  Te114  1  0.85124976  0.68023512  0.80003775  1
  Te  Te115  1  0.23339581  0.23323083  0.64664887  1
  Te  Te116  1  0.76307796  0.76328331  0.75265460  1
  Te  Te117  1  0.14889424  0.31982977  0.60001084  1
  Te  Te118  1  0.68028676  0.14864820  0.69996975  1
  Te  Te119  1  0.31982663  0.85118234  0.60001138  1
  Te  Te120  1  0.85102061  0.68032339  0.69997676  1
  Te  Te121  1  0.23515694  0.23506870  0.54701488  1
  Te  Te122  1  0.76687079  0.76699799  0.65339238  1
  Te  Te123  1  0.14886152  0.31975077  0.49999549  1
  Te  Te124  1  0.68029385  0.14890631  0.60000769  1
  Te  Te125  1  0.31970614  0.85109359  0.49999231  1
  Te  Te126  1  0.85113855  0.68024916  0.60000452  1
  Te  Te127  1  0.23312933  0.23300203  0.44660762  1
  Te  Te128  1  0.76484321  0.76493145  0.55298514  1
  Te  Te129  1  0.14897941  0.31967657  0.40002324  1
  Te  Te130  1  0.68017337  0.14881772  0.49998863  1
  Te  Te131  1  0.31971335  0.85135182  0.40003026  1
  Te  Te132  1  0.85110586  0.68017027  0.49998917  1
  Te  Te133  1  0.23692197  0.23671663  0.34734540  1
  Te  Te134  1  0.76660408  0.76676910  0.45335112  1
  Te  Te135  1  0.14875035  0.31976491  0.29996226  1
  Te  Te136  1  0.68042600  0.14886892  0.40000294  1
  Te  Te137  1  0.31990702  0.85084518  0.29997386  1
  Te  Te138  1  0.85133415  0.68053861  0.40001478  1
  Te  Te139  1  0.22965864  0.22959246  0.24591709  1
  Te  Te140  1  0.76366937  0.76384422  0.35276879  1
  Te  Te141  1  0.14946717  0.31976606  0.20010129  1
  Te  Te142  1  0.67969833  0.14871615  0.29994475  1
  Te  Te143  1  0.31989319  0.85149155  0.20011597  1
  Te  Te144  1  0.85079978  0.67982698  0.29995711  1
  Te  Te145  1  0.24770776  0.24765831  0.14955707  1
  Te  Te146  1  0.76930661  0.76940060  0.25388401  1
  Te  Te147  1  0.17861910  0.34908053  0.09968628  1
  Te  Te148  1  0.68116899  0.14940102  0.20008810  1
  Te  Te149  1  0.34947693  0.81851295  0.09974915  1
  Te  Te150  1  0.85143176  0.68114146  0.20009485  1
  Te  Te151  1  0.27369743  0.27363160  0.05475248  1
  Te  Te152  1  0.75360611  0.75371277  0.15071462  1
  Te  Te153  1  0.18128229  0.35179334  0.00022160  1
  Te  Te154  1  0.64797538  0.17875259  0.09972014  1
  Te  Te155  1  0.35202465  0.82124731  0.00027986  1
  Te  Te156  1  0.81871772  0.64820659  0.09977839  1
  Te  Te157  1  0.72630249  0.72636834  0.04524751  1
  Te  Te158  1  0.65052304  0.18148715  0.00025085  1
  Te  Te159  1  0.82138085  0.65091922  0.00031370  1
