# generated using pymatgen
data_V3Ni(PO4)4
_symmetry_space_group_name_H-M   'P 1'
_cell_length_a   5.86787200
_cell_length_b   4.85479900
_cell_length_c   10.01896986
_cell_angle_alpha   89.66734535
_cell_angle_beta   90.00000000
_cell_angle_gamma   90.00000000
_symmetry_Int_Tables_number   1
_chemical_formula_structural   V3Ni(PO4)4
_chemical_formula_sum   'V3 Ni1 P4 O16'
_cell_volume   285.40898164
_cell_formula_units_Z   1
loop_
 _symmetry_equiv_pos_site_id
 _symmetry_equiv_pos_as_xyz
  1  'x, y, z'
loop_
 _atom_site_type_symbol
 _atom_site_label
 _atom_site_symmetry_multiplicity
 _atom_site_fract_x
 _atom_site_fract_y
 _atom_site_fract_z
 _atom_site_occupancy
  V  V0  1  0.00000000  0.48366100  0.77176700  1
  V  V1  1  0.50000000  0.54066000  0.22283900  1
  V  V2  1  0.50000000  0.97866800  0.72946700  1
  Ni  Ni3  1  0.00000000  0.04154300  0.27566000  1
  P  P4  1  0.50000000  0.09927400  0.39937900  1
  P  P5  1  0.50000000  0.41218100  0.90675700  1
  P  P6  1  0.00000000  0.56321700  0.09595300  1
  P  P7  1  0.00000000  0.91765800  0.59442600  1
  O  O8  1  0.50000000  0.14991500  0.54911200  1
  O  O9  1  0.30041500  0.25376100  0.32477100  1
  O  O10  1  0.69958500  0.25376100  0.32477100  1
  O  O11  1  0.00000000  0.22530700  0.62282000  1
  O  O12  1  0.00000000  0.25450300  0.10998400  1
  O  O13  1  0.29586700  0.26485400  0.83308200  1
  O  O14  1  0.70413300  0.26485400  0.83308200  1
  O  O15  1  0.50000000  0.33552600  0.05643500  1
  O  O16  1  0.00000000  0.65672500  0.95117900  1
  O  O17  1  0.79025700  0.70464500  0.17307100  1
  O  O18  1  0.20974300  0.70464500  0.17307100  1
  O  O19  1  0.50000000  0.72241700  0.88524200  1
  O  O20  1  0.50000000  0.78672200  0.37438400  1
  O  O21  1  0.79579300  0.76867900  0.67223800  1
  O  O22  1  0.20420700  0.76867900  0.67223800  1
  O  O23  1  0.00000000  0.84814600  0.44827000  1
