# generated using pymatgen
data_Te2As2SI6(OF6)2
_symmetry_space_group_name_H-M   'P 1'
_cell_length_a   14.30521100
_cell_length_b   14.43874349
_cell_length_c   14.61288198
_cell_angle_alpha   85.13097640
_cell_angle_beta   89.39973707
_cell_angle_gamma   83.90550993
_symmetry_Int_Tables_number   1
_chemical_formula_structural   Te2As2SI6(OF6)2
_chemical_formula_sum   'Te8 As8 S4 I24 O8 F48'
_cell_volume   2990.38761157
_cell_formula_units_Z   4
loop_
 _symmetry_equiv_pos_site_id
 _symmetry_equiv_pos_as_xyz
  1  'x, y, z'
loop_
 _atom_site_type_symbol
 _atom_site_label
 _atom_site_symmetry_multiplicity
 _atom_site_fract_x
 _atom_site_fract_y
 _atom_site_fract_z
 _atom_site_occupancy
  Te  Te0  1  0.66061700  0.29719500  0.19679500  1
  Te  Te1  1  0.58621500  0.20818000  0.77871300  1
  Te  Te2  1  0.07610500  0.22092300  0.61755400  1
  Te  Te3  1  0.06551600  0.24806900  0.40909300  1
  Te  Te4  1  0.84049400  0.80935700  0.36002900  1
  Te  Te5  1  0.89145300  0.70894600  0.52959500  1
  Te  Te6  1  0.44248100  0.68409500  0.13184200  1
  Te  Te7  1  0.43072200  0.75805800  0.93347800  1
  As  As8  1  0.49445500  0.03405300  0.99651400  1
  As  As9  1  0.34696700  0.29386500  0.47835400  1
  As  As10  1  0.84313500  0.14530900  0.01224800  1
  As  As11  1  0.06889900  0.52039300  0.39003200  1
  As  As12  1  0.35685400  0.48099700  0.00223500  1
  As  As13  1  0.16128300  0.76216000  0.91308000  1
  As  As14  1  0.62534400  0.66769500  0.53317700  1
  As  As15  1  0.93540800  0.96892500  0.55202000  1
  S  S16  1  0.30616000  0.10377300  0.12997600  1
  S  S17  1  0.73800800  0.30424800  0.48767800  1
  S  S18  1  0.27582200  0.79845600  0.49845500  1
  S  S19  1  0.76462000  0.66444200  0.94070000  1
  I  I20  1  0.15899400  0.04023300  0.16731200  1
  I  I21  1  0.11220600  0.11640600  0.80653600  1
  I  I22  1  0.74281700  0.13023700  0.69713200  1
  I  I23  1  0.70550300  0.17299100  0.39046100  1
  I  I24  1  0.40768400  0.09853900  0.26132500  1
  I  I25  1  0.34375000  0.16951100  0.69694300  1
  I  I26  1  0.92238400  0.35617200  0.74840100  1
  I  I27  1  0.87028800  0.41731800  0.15406200  1
  I  I28  1  0.16545700  0.38408700  0.19677800  1
  I  I29  1  0.17768000  0.38171000  0.91512800  1
  I  I30  1  0.56009000  0.43772300  0.27541800  1
  I  I31  1  0.57615700  0.38008000  0.68837300  1
  I  I32  1  0.40566400  0.62844600  0.31989000  1
  I  I33  1  0.29084700  0.63139800  0.67780900  1
  I  I34  1  0.81541200  0.61903800  0.09838800  1
  I  I35  1  0.86129100  0.58360200  0.83086000  1
  I  I36  1  0.05552500  0.65460700  0.77271500  1
  I  I37  1  0.06912500  0.69295600  0.18009100  1
  I  I38  1  0.60327900  0.90926400  0.32463400  1
  I  I39  1  0.59109400  0.91690000  0.63597400  1
  I  I40  1  0.22960200  0.88784300  0.35469800  1
  I  I41  1  0.30374300  0.91284500  0.60124200  1
  I  I42  1  0.91760400  0.95766400  0.16552400  1
  I  I43  1  0.98112000  0.99141400  0.89291300  1
  O  O44  1  0.20269200  0.20742700  0.71474500  1
  O  O45  1  0.74380000  0.39187200  0.42928100  1
  O  O46  1  0.11521100  0.62626000  0.28800300  1
  O  O47  1  0.18750600  0.70589000  0.74065400  1
  O  O48  1  0.69776000  0.80341500  0.35312800  1
  O  O49  1  0.63550700  0.79290900  0.64736800  1
  O  O50  1  0.86183100  0.06449200  0.92197600  1
  O  O51  1  0.82821700  0.06946800  0.11313700  1
  F  F52  1  0.63469200  0.90699900  0.19237800  1
  F  F53  1  0.58961100  0.93801700  0.76649300  1
  F  F54  1  0.45738600  0.22655400  0.47457900  1
  F  F55  1  0.95919800  0.16608600  0.60090200  1
  F  F56  1  0.01476500  0.13122000  0.40244200  1
  F  F57  1  0.51303200  0.14345100  0.67414700  1
  F  F58  1  0.19151600  0.17250200  0.40200600  1
  F  F59  1  0.13651300  0.10252400  0.58541800  1
  F  F60  1  0.46104100  0.15666500  0.98955600  1
  F  F61  1  0.91413200  0.28683200  0.20958500  1
  F  F62  1  0.90515000  0.22445900  0.80269500  1
  F  F63  1  0.59644300  0.04908800  0.92815400  1
  F  F64  1  0.07669800  0.41877200  0.48185300  1
  F  F65  1  0.35920900  0.35039200  0.36736700  1
  F  F66  1  0.38540500  0.38480800  0.53712400  1
  F  F67  1  0.93396700  0.29713400  0.43441500  1
  F  F68  1  0.63933700  0.35444000  0.07146800  1
  F  F69  1  0.66479300  0.24914700  0.87408200  1
  F  F70  1  0.15440400  0.32600100  0.07623600  1
  F  F71  1  0.38292200  0.37529800  0.07143200  1
  F  F72  1  0.43288800  0.44841200  0.91316100  1
  F  F73  1  0.96368900  0.16171500  0.02551700  1
  F  F74  1  0.17248500  0.44887600  0.34051600  1
  F  F75  1  0.19681600  0.42179400  0.78514100  1
  F  F76  1  0.93559300  0.50114300  0.70112400  1
  F  F77  1  0.84461600  0.68549200  0.30909700  1
  F  F78  1  0.06658200  0.78890100  0.99181600  1
  F  F79  1  0.44918000  0.53772700  0.06524800  1
  F  F80  1  0.53412500  0.67074300  0.90458900  1
  F  F81  1  0.11410800  0.60055300  0.09086100  1
  F  F82  1  0.31241400  0.66946200  0.11591600  1
  F  F83  1  0.35021100  0.65204400  0.91272100  1
  F  F84  1  0.13374200  0.58112700  0.46144500  1
  F  F85  1  0.63444400  0.58549500  0.44828300  1
  F  F86  1  0.66259900  0.58315400  0.62467200  1
  F  F87  1  0.91123200  0.58821400  0.47681900  1
  F  F88  1  0.24268600  0.82604600  0.97144200  1
  F  F89  1  0.00503900  0.81742400  0.24693700  1
  F  F90  1  0.12419300  0.86622700  0.84033400  1
  F  F91  1  0.52847000  0.83555800  0.97691300  1
  F  F92  1  0.80860800  0.92475300  0.43224600  1
  F  F93  1  0.87946100  0.86833800  0.60109500  1
  F  F94  1  0.57188300  0.91126900  0.46472600  1
  F  F95  1  0.01882900  0.95486100  0.64103200  1
  F  F96  1  0.00746500  0.90567700  0.47539800  1
  F  F97  1  0.50322200  0.65997500  0.55328200  1
  F  F98  1  0.41301800  0.81240100  0.15759200  1
  F  F99  1  0.42059800  0.01537500  0.90528300  1
