# generated using pymatgen
data_Ti2FeO5
_symmetry_space_group_name_H-M   'P 1'
_cell_length_a   3.76673487
_cell_length_b   10.64412567
_cell_length_c   20.57093183
_cell_angle_alpha   91.18094624
_cell_angle_beta   89.98868537
_cell_angle_gamma   110.68995891
_symmetry_Int_Tables_number   1
_chemical_formula_structural   Ti2FeO5
_chemical_formula_sum   'Ti16 Fe8 O40'
_cell_volume   771.38440618
_cell_formula_units_Z   8
loop_
 _symmetry_equiv_pos_site_id
 _symmetry_equiv_pos_as_xyz
  1  'x, y, z'
loop_
 _atom_site_type_symbol
 _atom_site_label
 _atom_site_symmetry_multiplicity
 _atom_site_fract_x
 _atom_site_fract_y
 _atom_site_fract_z
 _atom_site_occupancy
  Ti  Ti0  1  0.13628600  0.63325900  0.22270600  1
  Ti  Ti1  1  0.12863000  0.63147900  0.71679100  1
  Ti  Ti2  1  0.13213200  0.63211600  0.53277900  1
  Ti  Ti3  1  0.13614400  0.64067700  0.03572000  1
  Ti  Ti4  1  0.13181700  0.13316700  0.71613900  1
  Ti  Ti5  1  0.13885700  0.13697400  0.03082500  1
  Ti  Ti6  1  0.12192400  0.12636700  0.53469700  1
  Ti  Ti7  1  0.18453300  0.18561200  0.37352500  1
  Ti  Ti8  1  0.86385600  0.85932300  0.46428000  1
  Ti  Ti9  1  0.86786800  0.86788400  0.96722100  1
  Ti  Ti10  1  0.86371400  0.86674100  0.27729400  1
  Ti  Ti11  1  0.87137100  0.86852100  0.78320900  1
  Ti  Ti12  1  0.81546700  0.31438800  0.12647500  1
  Ti  Ti13  1  0.87807600  0.37363300  0.96530300  1
  Ti  Ti14  1  0.86114300  0.36302600  0.46917500  1
  Ti  Ti15  1  0.86818300  0.36683300  0.78386100  1
  Fe  Fe16  1  0.18911100  0.68970300  0.37509300  1
  Fe  Fe17  1  0.19674600  0.69416100  0.87564400  1
  Fe  Fe18  1  0.13862200  0.13885100  0.21874500  1
  Fe  Fe19  1  0.19228100  0.19356300  0.87479600  1
  Fe  Fe20  1  0.81088900  0.81029700  0.12490700  1
  Fe  Fe21  1  0.80325400  0.80583900  0.62435600  1
  Fe  Fe22  1  0.80771900  0.30643700  0.62520400  1
  Fe  Fe23  1  0.86137800  0.36114900  0.28125500  1
  O  O24  1  0.03722900  0.53647100  0.44314800  1
  O  O25  1  0.06074800  0.55533100  0.30205400  1
  O  O26  1  0.06085400  0.54626200  0.94280300  1
  O  O27  1  0.05619600  0.54734200  0.80497300  1
  O  O28  1  0.21298700  0.71224200  0.12107300  1
  O  O29  1  0.20115000  0.70229500  0.62400000  1
  O  O30  1  0.31186100  0.81043600  0.47324700  1
  O  O31  1  0.31509600  0.81698100  0.28055600  1
  O  O32  1  0.31878500  0.81906100  0.97191700  1
  O  O33  1  0.31588800  0.81508600  0.78015500  1
  O  O34  1  0.03101500  0.03697500  0.31767700  1
  O  O35  1  0.05604400  0.04281200  0.44543600  1
  O  O36  1  0.05733000  0.04635600  0.80575500  1
  O  O37  1  0.05199000  0.04892100  0.94523600  1
  O  O38  1  0.26079300  0.26062000  0.11276300  1
  O  O39  1  0.20640600  0.20470700  0.62674200  1
  O  O40  1  0.29500600  0.29328700  0.29957500  1
  O  O41  1  0.31552800  0.31565100  0.77874400  1
  O  O42  1  0.30838900  0.30953900  0.46459200  1
  O  O43  1  0.31763700  0.31620000  0.96874300  1
  O  O44  1  0.68490400  0.68301900  0.21944400  1
  O  O45  1  0.68411200  0.68491400  0.71984500  1
  O  O46  1  0.68813900  0.68956400  0.02675300  1
  O  O47  1  0.68121500  0.68093900  0.52808300  1
  O  O48  1  0.78701300  0.78775800  0.37892700  1
  O  O49  1  0.79885000  0.79770500  0.87600000  1
  O  O50  1  0.96277100  0.96352900  0.05685200  1
  O  O51  1  0.93925200  0.94466900  0.19794600  1
  O  O52  1  0.93914600  0.95373800  0.55719700  1
  O  O53  1  0.94380400  0.95265800  0.69502700  1
  O  O54  1  0.70499400  0.20671300  0.20042500  1
  O  O55  1  0.68447200  0.18434900  0.72125600  1
  O  O56  1  0.69161100  0.19046100  0.03540800  1
  O  O57  1  0.68236300  0.18380000  0.53125700  1
  O  O58  1  0.73920700  0.23938000  0.38723700  1
  O  O59  1  0.79359400  0.29529300  0.87325800  1
  O  O60  1  0.94395600  0.45718800  0.05456400  1
  O  O61  1  0.96898500  0.46302500  0.18232300  1
  O  O62  1  0.94267000  0.45364400  0.69424500  1
  O  O63  1  0.94801000  0.45107900  0.55476400  1
