# generated using pymatgen
data_Ti2CdO6
_symmetry_space_group_name_H-M   'P 1'
_cell_length_a   5.73441018
_cell_length_b   6.16479320
_cell_length_c   7.06144818
_cell_angle_alpha   87.95825248
_cell_angle_beta   85.05862463
_cell_angle_gamma   89.41739900
_symmetry_Int_Tables_number   1
_chemical_formula_structural   Ti2CdO6
_chemical_formula_sum   'Ti4 Cd2 O12'
_cell_volume   248.54044463
_cell_formula_units_Z   2
loop_
 _symmetry_equiv_pos_site_id
 _symmetry_equiv_pos_as_xyz
  1  'x, y, z'
loop_
 _atom_site_type_symbol
 _atom_site_label
 _atom_site_symmetry_multiplicity
 _atom_site_fract_x
 _atom_site_fract_y
 _atom_site_fract_z
 _atom_site_occupancy
  Ti  Ti0  1  0.94299900  0.90723200  0.00218000  1
  Ti  Ti1  1  0.01106300  0.05694400  0.48291400  1
  Ti  Ti2  1  0.58058200  0.53553900  0.48369400  1
  Ti  Ti3  1  0.43930100  0.57328000  0.00752300  1
  Cd  Cd4  1  0.02457600  0.52730200  0.73788700  1
  Cd  Cd5  1  0.50245700  0.04061100  0.26765200  1
  O  O6  1  0.11118100  0.63771700  0.01908700  1
  O  O7  1  0.28007000  0.17298900  0.51156100  1
  O  O8  1  0.42368700  0.51143400  0.26779200  1
  O  O9  1  0.40686200  0.56926900  0.71510800  1
  O  O10  1  0.62921100  0.81021400  0.02130500  1
  O  O11  1  0.73404200  0.78758400  0.44827600  1
  O  O12  1  0.79301900  0.30687700  0.60661100  1
  O  O13  1  0.63870500  0.32595700  0.93343900  1
  O  O14  1  0.82145400  0.30395200  0.38609600  1
  O  O15  1  0.79426500  0.21408200  0.05853600  1
  O  O16  1  0.10387200  0.99189100  0.21722400  1
  O  O17  1  0.00065500  0.91912400  0.74111600  1
