# generated using pymatgen
data_Yb7Bi17O36
_symmetry_space_group_name_H-M   'P 1'
_cell_length_a   5.62818300
_cell_length_b   11.18640538
_cell_length_c   16.65703315
_cell_angle_alpha   93.02767329
_cell_angle_beta   90.10776008
_cell_angle_gamma   92.68113131
_symmetry_Int_Tables_number   1
_chemical_formula_structural   Yb7Bi17O36
_chemical_formula_sum   'Yb7 Bi17 O36'
_cell_volume   1046.09222870
_cell_formula_units_Z   1
loop_
 _symmetry_equiv_pos_site_id
 _symmetry_equiv_pos_as_xyz
  1  'x, y, z'
loop_
 _atom_site_type_symbol
 _atom_site_label
 _atom_site_symmetry_multiplicity
 _atom_site_fract_x
 _atom_site_fract_y
 _atom_site_fract_z
 _atom_site_occupancy
  Yb  Yb0  1  0.98691500  0.00884100  0.01075400  1
  Yb  Yb1  1  0.98712800  0.51705200  0.00538100  1
  Yb  Yb2  1  0.95868900  0.00562100  0.32358600  1
  Yb  Yb3  1  0.96197100  0.52320700  0.66238100  1
  Yb  Yb4  1  0.52034100  0.52648200  0.49737400  1
  Yb  Yb5  1  0.91704300  0.52566200  0.33403500  1
  Yb  Yb6  1  0.95831000  0.99156300  0.65373800  1
  Bi  Bi7  1  0.97620900  0.25970600  0.83940100  1
  Bi  Bi8  1  0.92127300  0.27919200  0.49721300  1
  Bi  Bi9  1  0.93457200  0.25674900  0.15161500  1
  Bi  Bi10  1  0.48385900  0.72106700  0.65825400  1
  Bi  Bi11  1  0.42007800  0.71512300  0.33347400  1
  Bi  Bi12  1  0.48425400  0.74388500  0.01562200  1
  Bi  Bi13  1  0.44353500  0.53126900  0.83559400  1
  Bi  Bi14  1  0.44056200  0.99938500  0.52664900  1
  Bi  Bi15  1  0.52354600  0.99449100  0.17160100  1
  Bi  Bi16  1  0.52183300  0.24670800  0.98717500  1
  Bi  Bi17  1  0.59487300  0.25481900  0.67242400  1
  Bi  Bi18  1  0.56396600  0.24891300  0.32441300  1
  Bi  Bi19  1  0.60271500  0.99251800  0.84144300  1
  Bi  Bi20  1  0.49164200  0.51435900  0.16257200  1
  Bi  Bi21  1  0.96784800  0.75946800  0.49230000  1
  Bi  Bi22  1  0.93990500  0.73190500  0.83631800  1
  Bi  Bi23  1  0.94505900  0.76056600  0.16914800  1
  O  O24  1  0.26248200  0.91492700  0.09245800  1
  O  O25  1  0.30122700  0.10368300  0.94010300  1
  O  O26  1  0.24141400  0.35521500  0.01731300  1
  O  O27  1  0.27270400  0.06786000  0.24840600  1
  O  O28  1  0.18802700  0.62575100  0.43401100  1
  O  O29  1  0.28077800  0.54272200  0.27682100  1
  O  O30  1  0.24849800  0.63333300  0.09872200  1
  O  O31  1  0.33053500  0.07895000  0.63903400  1
  O  O32  1  0.21168500  0.84803800  0.57960000  1
  O  O33  1  0.21918800  0.63465200  0.92243900  1
  O  O34  1  0.21617000  0.65319800  0.75717800  1
  O  O35  1  0.31510300  0.56253500  0.60730300  1
  O  O36  1  0.75642200  0.88715000  0.09457200  1
  O  O37  1  0.74551900  0.63830500  0.08243700  1
  O  O38  1  0.75233900  0.36555600  0.06684300  1
  O  O39  1  0.66516100  0.13161000  0.08548600  1
  O  O40  1  0.79727000  0.87934900  0.92178600  1
  O  O41  1  0.82419600  0.87445400  0.75628500  1
  O  O42  1  0.72914900  0.89015100  0.55241900  1
  O  O43  1  0.68113200  0.88203700  0.25453900  1
  O  O44  1  0.10530600  0.87704200  0.40885700  1
  O  O45  1  0.69862100  0.66455100  0.41191700  1
  O  O46  1  0.71102700  0.61701500  0.91548900  1
  O  O47  1  0.70272000  0.61550100  0.75173100  1
  O  O48  1  0.79120400  0.64601200  0.57503900  1
  O  O49  1  0.72147000  0.63340400  0.24299100  1
  O  O50  1  0.67341500  0.35292100  0.89169900  1
  O  O51  1  0.91898500  0.35187600  0.72937100  1
  O  O52  1  0.70122600  0.38379500  0.57634000  1
  O  O53  1  0.72602900  0.38803800  0.41296400  1
  O  O54  1  0.77206500  0.36832900  0.24386200  1
  O  O55  1  0.78947100  0.12922900  0.92441900  1
  O  O56  1  0.78307800  0.12369400  0.75977100  1
  O  O57  1  0.77681600  0.14482900  0.58171600  1
  O  O58  1  0.77797900  0.14650100  0.40513300  1
  O  O59  1  0.76546200  0.12923800  0.23838400  1
