# generated using pymatgen
data_NdTeCl
_symmetry_space_group_name_H-M   'P 1'
_cell_length_a   4.48051700
_cell_length_b   4.48051700
_cell_length_c   8.24558900
_cell_angle_alpha   90.00000000
_cell_angle_beta   90.00000000
_cell_angle_gamma   90.00000000
_symmetry_Int_Tables_number   1
_chemical_formula_structural   NdTeCl
_chemical_formula_sum   'Nd2 Te2 Cl2'
_cell_volume   165.53046788
_cell_formula_units_Z   2
loop_
 _symmetry_equiv_pos_site_id
 _symmetry_equiv_pos_as_xyz
  1  'x, y, z'
loop_
 _atom_site_type_symbol
 _atom_site_label
 _atom_site_symmetry_multiplicity
 _atom_site_fract_x
 _atom_site_fract_y
 _atom_site_fract_z
 _atom_site_occupancy
  Nd  Nd0  1  0.00000000  0.50000000  0.76097500  1
  Nd  Nd1  1  0.50000000  0.00000000  0.23902500  1
  Te  Te2  1  0.00000000  0.50000000  0.36578700  1
  Te  Te3  1  0.50000000  0.00000000  0.63421300  1
  Cl  Cl4  1  0.00000000  0.00000000  0.00000000  1
  Cl  Cl5  1  0.50000000  0.50000000  0.00000000  1
