# generated using pymatgen
data_V4(OF3)3
_symmetry_space_group_name_H-M   'P 1'
_cell_length_a   5.36112213
_cell_length_b   5.36112213
_cell_length_c   8.90023941
_cell_angle_alpha   76.04894020
_cell_angle_beta   76.04894020
_cell_angle_gamma   58.79018707
_symmetry_Int_Tables_number   1
_chemical_formula_structural   V4(OF3)3
_chemical_formula_sum   'V4 O3 F9'
_cell_volume   210.24241202
_cell_formula_units_Z   1
loop_
 _symmetry_equiv_pos_site_id
 _symmetry_equiv_pos_as_xyz
  1  'x, y, z'
loop_
 _atom_site_type_symbol
 _atom_site_label
 _atom_site_symmetry_multiplicity
 _atom_site_fract_x
 _atom_site_fract_y
 _atom_site_fract_z
 _atom_site_occupancy
  V  V0  1  0.74955000  0.49015600  0.62051900  1
  V  V1  1  0.50984400  0.25045000  0.37948100  1
  V  V2  1  0.25096600  0.01876600  0.13420100  1
  V  V3  1  0.98123400  0.74903400  0.86579900  1
  O  O4  1  0.79258600  0.71344200  0.75253700  1
  O  O5  1  0.71022300  0.28977700  0.50000000  1
  O  O6  1  0.28655800  0.20741400  0.24746300  1
  F  F7  1  0.31936700  0.67618500  0.29683000  1
  F  F8  1  0.32381500  0.68063300  0.70317000  1
  F  F9  1  0.82714300  0.17304100  0.80444600  1
  F  F10  1  0.82695900  0.17285700  0.19555400  1
  F  F11  1  0.17475500  0.32281100  0.55148900  1
  F  F12  1  0.17870000  0.32381000  0.94909900  1
  F  F13  1  0.21491800  0.78508200  0.00000000  1
  F  F14  1  0.67619000  0.82130000  0.05090100  1
  F  F15  1  0.67718900  0.82524500  0.44851100  1
