# generated using pymatgen
data_TiAl2O5
_symmetry_space_group_name_H-M   'P 1'
_cell_length_a   3.65988495
_cell_length_b   5.10566651
_cell_length_c   9.62725000
_cell_angle_alpha   90.00000000
_cell_angle_beta   90.00000000
_cell_angle_gamma   111.06422776
_symmetry_Int_Tables_number   1
_chemical_formula_structural   TiAl2O5
_chemical_formula_sum   'Ti2 Al4 O10'
_cell_volume   167.87524993
_cell_formula_units_Z   2
loop_
 _symmetry_equiv_pos_site_id
 _symmetry_equiv_pos_as_xyz
  1  'x, y, z'
loop_
 _atom_site_type_symbol
 _atom_site_label
 _atom_site_symmetry_multiplicity
 _atom_site_fract_x
 _atom_site_fract_y
 _atom_site_fract_z
 _atom_site_occupancy
  Ti  Ti0  1  0.12890500  0.25478000  0.06211600  1
  Ti  Ti1  1  0.87109500  0.74522000  0.56211600  1
  Al  Al2  1  0.14144600  0.28415700  0.43139500  1
  Al  Al3  1  0.18800500  0.37936300  0.75464800  1
  Al  Al4  1  0.81199500  0.62063700  0.25464800  1
  Al  Al5  1  0.85855400  0.71584300  0.93139500  1
  O  O6  1  0.05613100  0.11676400  0.61243700  1
  O  O7  1  0.04406200  0.08807400  0.88051300  1
  O  O8  1  0.24724700  0.49232300  0.25446400  1
  O  O9  1  0.31544300  0.63338700  0.57909500  1
  O  O10  1  0.30810000  0.61561300  0.92533200  1
  O  O11  1  0.68455700  0.36661300  0.07909500  1
  O  O12  1  0.69190000  0.38438700  0.42533200  1
  O  O13  1  0.75275300  0.50767700  0.75446400  1
  O  O14  1  0.94386900  0.88323600  0.11243700  1
  O  O15  1  0.95593800  0.91192600  0.38051300  1
