# generated using pymatgen
data_V2GaO5
_symmetry_space_group_name_H-M   'P 1'
_cell_length_a   5.08017043
_cell_length_b   8.03307920
_cell_length_c   9.54840031
_cell_angle_alpha   124.14165116
_cell_angle_beta   104.78881003
_cell_angle_gamma   90.65930825
_symmetry_Int_Tables_number   1
_chemical_formula_structural   V2GaO5
_chemical_formula_sum   'V6 Ga3 O15'
_cell_volume   305.93592019
_cell_formula_units_Z   3
loop_
 _symmetry_equiv_pos_site_id
 _symmetry_equiv_pos_as_xyz
  1  'x, y, z'
loop_
 _atom_site_type_symbol
 _atom_site_label
 _atom_site_symmetry_multiplicity
 _atom_site_fract_x
 _atom_site_fract_y
 _atom_site_fract_z
 _atom_site_occupancy
  V  V0  1  0.00558400  0.00612900  0.00491100  1
  V  V1  1  0.17844500  0.38992600  0.38703700  1
  V  V2  1  0.16449500  0.68367500  0.04316400  1
  V  V3  1  0.58037600  0.95266100  0.69413200  1
  V  V4  1  0.62936400  0.04672300  0.29867100  1
  V  V5  1  0.80268300  0.58325900  0.61916200  1
  Ga  Ga6  1  0.16638800  0.24607700  0.66082100  1
  Ga  Ga7  1  0.90488100  0.34501800  0.00542100  1
  Ga  Ga8  1  0.79782700  0.72735100  0.33636200  1
  O  O9  1  0.92049000  0.01100700  0.47347300  1
  O  O10  1  0.94371400  0.12504500  0.24451600  1
  O  O11  1  0.18190800  0.31516200  0.15914200  1
  O  O12  1  0.11631300  0.38407300  0.88444200  1
  O  O13  1  0.11183800  0.43203500  0.60012900  1
  O  O14  1  0.44801800  0.67505800  0.55594100  1
  O  O15  1  0.45028300  0.79325700  0.27105300  1
  O  O16  1  0.34229300  0.91886500  0.06726900  1
  O  O17  1  0.65998000  0.11806700  0.94343700  1
  O  O18  1  0.50275300  0.15734300  0.67781800  1
  O  O19  1  0.54549500  0.32133700  0.45157700  1
  O  O20  1  0.89022900  0.56145200  0.41177300  1
  O  O21  1  0.85593300  0.61124800  0.11601100  1
  O  O22  1  0.85617500  0.68655800  0.84999900  1
  O  O23  1  0.94453700  0.90867400  0.74373800  1
