# generated using pymatgen
data_V2Bi4O11
_symmetry_space_group_name_H-M   'P 1'
_cell_length_a   6.00229471
_cell_length_b   5.67116000
_cell_length_c   15.90399265
_cell_angle_alpha   90.00000000
_cell_angle_beta   109.32855934
_cell_angle_gamma   90.00000000
_symmetry_Int_Tables_number   1
_chemical_formula_structural   V2Bi4O11
_chemical_formula_sum   'V4 Bi8 O22'
_cell_volume   510.85767561
_cell_formula_units_Z   2
loop_
 _symmetry_equiv_pos_site_id
 _symmetry_equiv_pos_as_xyz
  1  'x, y, z'
loop_
 _atom_site_type_symbol
 _atom_site_label
 _atom_site_symmetry_multiplicity
 _atom_site_fract_x
 _atom_site_fract_y
 _atom_site_fract_z
 _atom_site_occupancy
  V  V0  1  0.08007300  0.98822700  0.49241100  1
  V  V1  1  0.00092700  0.99749600  0.00727400  1
  V  V2  1  0.50092700  0.50250400  0.50727400  1
  V  V3  1  0.58007300  0.51177300  0.99241100  1
  Bi  Bi4  1  0.12888200  0.49558300  0.64709800  1
  Bi  Bi5  1  0.30382100  0.99379300  0.82429700  1
  Bi  Bi6  1  0.20412400  0.48097300  0.16138300  1
  Bi  Bi7  1  0.27887800  0.98019000  0.31073800  1
  Bi  Bi8  1  0.70412400  0.01902700  0.66138300  1
  Bi  Bi9  1  0.77887800  0.51981000  0.81073800  1
  Bi  Bi10  1  0.62888200  0.00441700  0.14709800  1
  Bi  Bi11  1  0.80382100  0.50620700  0.32429700  1
  O  O12  1  0.03644500  0.23578100  0.74031900  1
  O  O13  1  0.02457000  0.75808900  0.74284600  1
  O  O14  1  0.45964600  0.28876200  0.03933000  1
  O  O15  1  0.03476000  0.23836100  0.23131400  1
  O  O16  1  0.03367300  0.71089000  0.23971600  1
  O  O17  1  0.46425600  0.49992300  0.87676600  1
  O  O18  1  0.35062600  0.24116500  0.51243100  1
  O  O19  1  0.35508500  0.77142500  0.51392000  1
  O  O20  1  0.53476000  0.26163900  0.73131400  1
  O  O21  1  0.53367300  0.78911000  0.73971600  1
  O  O22  1  0.22764500  0.00323900  0.11017900  1
  O  O23  1  0.85062600  0.25883500  0.01243100  1
  O  O24  1  0.53869700  0.49909300  0.40376300  1
  O  O25  1  0.72764500  0.49676100  0.61017900  1
  O  O26  1  0.44149100  0.74349000  0.02361400  1
  O  O27  1  0.53644500  0.26421900  0.24031900  1
  O  O28  1  0.52457000  0.74191100  0.24284600  1
  O  O29  1  0.03869700  0.00090700  0.90376300  1
  O  O30  1  0.95964600  0.21123800  0.53933000  1
  O  O31  1  0.94149100  0.75651000  0.52361400  1
  O  O32  1  0.96425600  0.00007700  0.37676600  1
  O  O33  1  0.85508500  0.72857500  0.01392000  1
