# generated using pymatgen
data_YBO3
_symmetry_space_group_name_H-M   'P 1'
_cell_length_a   4.52037900
_cell_length_b   7.90144494
_cell_length_c   8.47554000
_cell_angle_alpha   90.00000000
_cell_angle_beta   90.00000000
_cell_angle_gamma   124.89646246
_symmetry_Int_Tables_number   1
_chemical_formula_structural   YBO3
_chemical_formula_sum   'Y4 B4 O12'
_cell_volume   248.29143123
_cell_formula_units_Z   4
loop_
 _symmetry_equiv_pos_site_id
 _symmetry_equiv_pos_as_xyz
  1  'x, y, z'
loop_
 _atom_site_type_symbol
 _atom_site_label
 _atom_site_symmetry_multiplicity
 _atom_site_fract_x
 _atom_site_fract_y
 _atom_site_fract_z
 _atom_site_occupancy
  Y  Y0  1  0.00000000  0.50000000  0.00000000  1
  Y  Y1  1  0.00000000  0.50000000  0.50000000  1
  Y  Y2  1  0.00000000  0.00000000  0.00000000  1
  Y  Y3  1  0.00000000  0.00000000  0.50000000  1
  B  B4  1  0.33013100  0.86681500  0.25000000  1
  B  B5  1  0.40349800  0.36681500  0.25000000  1
  B  B6  1  0.59650200  0.63318500  0.75000000  1
  B  B7  1  0.66986900  0.13318500  0.75000000  1
  O  O8  1  0.41978700  0.82233500  0.10603900  1
  O  O9  1  0.41978700  0.82233500  0.39396100  1
  O  O10  1  0.22975200  0.54300600  0.75000000  1
  O  O11  1  0.85626000  0.04300600  0.75000000  1
  O  O12  1  0.22488400  0.32233500  0.10603900  1
  O  O13  1  0.77511600  0.67766500  0.89396100  1
  O  O14  1  0.77511600  0.67766500  0.60603900  1
  O  O15  1  0.22488400  0.32233500  0.39396100  1
  O  O16  1  0.14374000  0.95699400  0.25000000  1
  O  O17  1  0.77024800  0.45699400  0.25000000  1
  O  O18  1  0.58021300  0.17766500  0.89396100  1
  O  O19  1  0.58021300  0.17766500  0.60603900  1
