# generated using pymatgen
data_NaMnPCO7
_symmetry_space_group_name_H-M   'P 1'
_cell_length_a   8.17167373
_cell_length_b   8.17167373
_cell_length_c   10.27441394
_cell_angle_alpha   72.29860060
_cell_angle_beta   72.29860060
_cell_angle_gamma   100.43450390
_symmetry_Int_Tables_number   1
_chemical_formula_structural   NaMnPCO7
_chemical_formula_sum   'Na4 Mn4 P4 C4 O28'
_cell_volume   593.69729987
_cell_formula_units_Z   4
loop_
 _symmetry_equiv_pos_site_id
 _symmetry_equiv_pos_as_xyz
  1  'x, y, z'
loop_
 _atom_site_type_symbol
 _atom_site_label
 _atom_site_symmetry_multiplicity
 _atom_site_fract_x
 _atom_site_fract_y
 _atom_site_fract_z
 _atom_site_occupancy
  Na  Na0  1  0.26933400  0.98119700  0.75356100  1
  Na  Na1  1  0.98119700  0.26933400  0.75356100  1
  Na  Na2  1  0.50996200  0.75778200  0.23410200  1
  Na  Na3  1  0.75778200  0.50996200  0.23410200  1
  Mn  Mn4  1  0.93572600  0.93572600  0.65125700  1
  Mn  Mn5  1  0.44111300  0.44111300  0.66647000  1
  Mn  Mn6  1  0.56192900  0.06128900  0.34282700  1
  Mn  Mn7  1  0.06128900  0.56192900  0.34282700  1
  P  P8  1  0.20122900  0.69857300  0.56888800  1
  P  P9  1  0.69857300  0.20122900  0.56888800  1
  P  P10  1  0.30549800  0.30549800  0.43020200  1
  P  P11  1  0.79654100  0.79654100  0.43269800  1
  C  C12  1  0.78156900  0.78156900  0.91727200  1
  C  C13  1  0.27220200  0.27220200  0.93276100  1
  C  C14  1  0.71929000  0.22067000  0.07698600  1
  C  C15  1  0.22067000  0.71929000  0.07698600  1
  O  O16  1  0.30634400  0.79774200  0.94289900  1
  O  O17  1  0.79774200  0.30634400  0.94289900  1
  O  O18  1  0.41477800  0.41477800  0.87085300  1
  O  O19  1  0.92528600  0.92528600  0.85241300  1
  O  O20  1  0.73577600  0.73577600  0.81869000  1
  O  O21  1  0.23087700  0.23087700  0.82672000  1
  O  O22  1  0.26855300  0.57657600  0.67530600  1
  O  O23  1  0.09497300  0.78885000  0.66457100  1
  O  O24  1  0.78885000  0.09497300  0.66457100  1
  O  O25  1  0.57657600  0.26855300  0.67530600  1
  O  O26  1  0.15768700  0.15768700  0.57429600  1
  O  O27  1  0.57559100  0.07396800  0.52681800  1
  O  O28  1  0.07396800  0.57559100  0.52681800  1
  O  O29  1  0.65154300  0.65154300  0.57581800  1
  O  O30  1  0.35320900  0.84081400  0.42685600  1
  O  O31  1  0.43195700  0.43195700  0.47090500  1
  O  O32  1  0.92265100  0.92265100  0.47212900  1
  O  O33  1  0.84081400  0.35320900  0.42685600  1
  O  O34  1  0.22693600  0.42168000  0.33020400  1
  O  O35  1  0.42168000  0.22693600  0.33020400  1
  O  O36  1  0.71397200  0.90577600  0.33043800  1
  O  O37  1  0.90577600  0.71397200  0.33043800  1
  O  O38  1  0.76439100  0.26314300  0.17890900  1
  O  O39  1  0.26314300  0.76439100  0.17890900  1
  O  O40  1  0.57860900  0.07510200  0.14161400  1
  O  O41  1  0.07510200  0.57860900  0.14161400  1
  O  O42  1  0.70151600  0.70151600  0.05360800  1
  O  O43  1  0.18779000  0.18779000  0.06595700  1
