# generated using pymatgen
data_Ti3MnNi2(PO4)6
_symmetry_space_group_name_H-M   'P 1'
_cell_length_a   8.51507515
_cell_length_b   8.51507515
_cell_length_c   8.51507518
_cell_angle_alpha   61.17009290
_cell_angle_beta   61.17009290
_cell_angle_gamma   61.17009443
_symmetry_Int_Tables_number   1
_chemical_formula_structural   Ti3MnNi2(PO4)6
_chemical_formula_sum   'Ti3 Mn1 Ni2 P6 O24'
_cell_volume   448.05947324
_cell_formula_units_Z   1
loop_
 _symmetry_equiv_pos_site_id
 _symmetry_equiv_pos_as_xyz
  1  'x, y, z'
loop_
 _atom_site_type_symbol
 _atom_site_label
 _atom_site_symmetry_multiplicity
 _atom_site_fract_x
 _atom_site_fract_y
 _atom_site_fract_z
 _atom_site_occupancy
  Ti  Ti0  1  0.14331500  0.14331500  0.14331500  1
  Ti  Ti1  1  0.35429600  0.35429600  0.35429600  1
  Ti  Ti2  1  0.64612800  0.64612800  0.64612800  1
  Mn  Mn3  1  0.85569500  0.85569500  0.85569500  1
  Ni  Ni4  1  0.99785100  0.99785100  0.99785100  1
  Ni  Ni5  1  0.49861600  0.49861600  0.49861600  1
  P  P6  1  0.54280300  0.25507900  0.95312000  1
  P  P7  1  0.95312000  0.54280400  0.25507900  1
  P  P8  1  0.25507900  0.95312000  0.54280300  1
  P  P9  1  0.75309700  0.05018200  0.44965700  1
  P  P10  1  0.05018200  0.44965700  0.75309700  1
  P  P11  1  0.44965700  0.75309700  0.05018200  1
  O  O12  1  0.33765600  0.10925800  0.47916100  1
  O  O13  1  0.47916100  0.33765600  0.10925800  1
  O  O14  1  0.90933300  0.05973800  0.25005200  1
  O  O15  1  0.10925800  0.47916100  0.33765600  1
  O  O16  1  0.81970600  0.02262600  0.59662200  1
  O  O17  1  0.58911900  0.24563600  0.42677600  1
  O  O18  1  0.05973800  0.25005200  0.90933300  1
  O  O19  1  0.24563600  0.42677600  0.58911900  1
  O  O20  1  0.38022200  0.18580100  0.00186000  1
  O  O21  1  0.42677600  0.58911900  0.24563600  1
  O  O22  1  0.73608400  0.10336800  0.95131700  1
  O  O23  1  0.00186000  0.38022200  0.18580100  1
  O  O24  1  0.02262600  0.59662200  0.81970600  1
  O  O25  1  0.25005200  0.90933300  0.05973800  1
  O  O26  1  0.55105700  0.41526600  0.75673500  1
  O  O27  1  0.59662200  0.81970600  0.02262600  1
  O  O28  1  0.75673500  0.55105700  0.41526600  1
  O  O29  1  0.95131700  0.73608400  0.10336800  1
  O  O30  1  0.41526600  0.75673500  0.55105700  1
  O  O31  1  0.18580100  0.00186000  0.38022200  1
  O  O32  1  0.88138400  0.50344600  0.68793600  1
  O  O33  1  0.10336800  0.95131700  0.73608400  1
  O  O34  1  0.50344600  0.68793600  0.88138400  1
  O  O35  1  0.68793600  0.88138400  0.50344600  1
