# generated using pymatgen
data_V6O7F5
_symmetry_space_group_name_H-M   'P 1'
_cell_length_a   4.73536700
_cell_length_b   5.64068334
_cell_length_c   7.75890002
_cell_angle_alpha   85.33201565
_cell_angle_beta   87.26085664
_cell_angle_gamma   86.31387683
_symmetry_Int_Tables_number   1
_chemical_formula_structural   V6O7F5
_chemical_formula_sum   'V6 O7 F5'
_cell_volume   205.94217034
_cell_formula_units_Z   1
loop_
 _symmetry_equiv_pos_site_id
 _symmetry_equiv_pos_as_xyz
  1  'x, y, z'
loop_
 _atom_site_type_symbol
 _atom_site_label
 _atom_site_symmetry_multiplicity
 _atom_site_fract_x
 _atom_site_fract_y
 _atom_site_fract_z
 _atom_site_occupancy
  V  V0  1  0.49587100  0.83088200  0.66505400  1
  V  V1  1  0.53765700  0.52546700  0.01260200  1
  V  V2  1  0.49870600  0.16469000  0.33248800  1
  V  V3  1  0.00311100  0.33264900  0.67032400  1
  V  V4  1  0.98997200  0.66433300  0.32554400  1
  V  V5  1  0.99349200  0.99342300  0.99977800  1
  O  O6  1  0.79615600  0.70294600  0.09843200  1
  O  O7  1  0.69720100  0.20690700  0.09779900  1
  O  O8  1  0.69406600  0.53092300  0.77040300  1
  O  O9  1  0.69869800  0.86460400  0.43334100  1
  O  O10  1  0.29759500  0.13356300  0.56646300  1
  O  O11  1  0.30456900  0.46665200  0.22924000  1
  O  O12  1  0.30233900  0.79399300  0.90077300  1
  F  F13  1  0.80262700  0.36614300  0.43634300  1
  F  F14  1  0.80342900  0.03253800  0.76614500  1
  F  F15  1  0.19368800  0.96469900  0.23128300  1
  F  F16  1  0.19844700  0.29490300  0.90148300  1
  F  F17  1  0.19237500  0.63068600  0.56250500  1
