# generated using pymatgen
data_V3Co(PO4)6
_symmetry_space_group_name_H-M   'P 1'
_cell_length_a   8.68438948
_cell_length_b   8.68438948
_cell_length_c   8.68438943
_cell_angle_alpha   58.31913441
_cell_angle_beta   58.31913441
_cell_angle_gamma   58.31914078
_symmetry_Int_Tables_number   1
_chemical_formula_structural   V3Co(PO4)6
_chemical_formula_sum   'V3 Co1 P6 O24'
_cell_volume   445.30410577
_cell_formula_units_Z   1
loop_
 _symmetry_equiv_pos_site_id
 _symmetry_equiv_pos_as_xyz
  1  'x, y, z'
loop_
 _atom_site_type_symbol
 _atom_site_label
 _atom_site_symmetry_multiplicity
 _atom_site_fract_x
 _atom_site_fract_y
 _atom_site_fract_z
 _atom_site_occupancy
  V  V0  1  0.85992000  0.85992000  0.85992000  1
  V  V1  1  0.64154700  0.64154700  0.64154700  1
  V  V2  1  0.36090300  0.36090300  0.36090300  1
  Co  Co3  1  0.14319200  0.14319200  0.14319200  1
  P  P4  1  0.24927300  0.52756700  0.96995500  1
  P  P5  1  0.96995500  0.24927300  0.52756700  1
  P  P6  1  0.52756800  0.96995500  0.24927300  1
  P  P7  1  0.46305000  0.03352200  0.75668900  1
  P  P8  1  0.03352200  0.75668900  0.46305000  1
  P  P9  1  0.75668900  0.46305000  0.03352200  1
  O  O10  1  0.71516800  0.50067400  0.86159400  1
  O  O11  1  0.50067400  0.86159400  0.71516800  1
  O  O12  1  0.07294100  0.71516800  0.93932000  1
  O  O13  1  0.86159400  0.71516800  0.50067400  1
  O  O14  1  0.42417600  0.56830700  0.78428300  1
  O  O15  1  0.22891600  0.35793000  0.98444200  1
  O  O16  1  0.93932000  0.07294100  0.71516800  1
  O  O17  1  0.78428300  0.42417600  0.56830700  1
  O  O18  1  0.56830700  0.78428300  0.42417600  1
  O  O19  1  0.64349200  0.00569800  0.77625500  1
  O  O20  1  0.28058100  0.05703900  0.92731300  1
  O  O21  1  0.00569800  0.77625500  0.64349200  1
  O  O22  1  0.98444200  0.22891600  0.35793000  1
  O  O23  1  0.71516800  0.93932000  0.07294100  1
  O  O24  1  0.35793000  0.98444200  0.22891600  1
  O  O25  1  0.44238100  0.21431900  0.57093900  1
  O  O26  1  0.21431900  0.57093900  0.44238100  1
  O  O27  1  0.05703900  0.92731300  0.28058100  1
  O  O28  1  0.77625500  0.64349200  0.00569800  1
  O  O29  1  0.57093900  0.44238100  0.21431900  1
  O  O30  1  0.14328500  0.27598600  0.50417300  1
  O  O31  1  0.92731300  0.28058100  0.05703900  1
  O  O32  1  0.50417300  0.14328500  0.27598600  1
  O  O33  1  0.27598600  0.50417300  0.14328500  1
