# generated using pymatgen
data_Rb2ZrO3
_symmetry_space_group_name_H-M   'P 1'
_cell_length_a   5.98984300
_cell_length_b   7.41289100
_cell_length_c   11.04659100
_cell_angle_alpha   90.00000000
_cell_angle_beta   90.00000000
_cell_angle_gamma   90.00000000
_symmetry_Int_Tables_number   1
_chemical_formula_structural   Rb2ZrO3
_chemical_formula_sum   'Rb8 Zr4 O12'
_cell_volume   490.49132199
_cell_formula_units_Z   4
loop_
 _symmetry_equiv_pos_site_id
 _symmetry_equiv_pos_as_xyz
  1  'x, y, z'
loop_
 _atom_site_type_symbol
 _atom_site_label
 _atom_site_symmetry_multiplicity
 _atom_site_fract_x
 _atom_site_fract_y
 _atom_site_fract_z
 _atom_site_occupancy
  Rb  Rb0  1  0.23751000  0.61041100  0.08632500  1
  Rb  Rb1  1  0.23751000  0.61041100  0.41367500  1
  Rb  Rb2  1  0.26249000  0.11041100  0.58632500  1
  Rb  Rb3  1  0.26249000  0.11041100  0.91367500  1
  Rb  Rb4  1  0.73751000  0.88958900  0.08632500  1
  Rb  Rb5  1  0.73751000  0.88958900  0.41367500  1
  Rb  Rb6  1  0.76249000  0.38958900  0.58632500  1
  Rb  Rb7  1  0.76249000  0.38958900  0.91367500  1
  Zr  Zr8  1  0.22551300  0.66331300  0.75000000  1
  Zr  Zr9  1  0.27448700  0.16331300  0.25000000  1
  Zr  Zr10  1  0.72551300  0.83668700  0.75000000  1
  Zr  Zr11  1  0.77448700  0.33668700  0.25000000  1
  O  O12  1  0.01518000  0.23531200  0.12707300  1
  O  O13  1  0.01518000  0.23531200  0.37292700  1
  O  O14  1  0.17997400  0.40463200  0.75000000  1
  O  O15  1  0.32002600  0.90463200  0.25000000  1
  O  O16  1  0.48482000  0.73531200  0.87292700  1
  O  O17  1  0.48482000  0.73531200  0.62707300  1
  O  O18  1  0.51518000  0.26468800  0.12707300  1
  O  O19  1  0.51518000  0.26468800  0.37292700  1
  O  O20  1  0.67997400  0.09536800  0.75000000  1
  O  O21  1  0.82002600  0.59536800  0.25000000  1
  O  O22  1  0.98482000  0.76468800  0.62707300  1
  O  O23  1  0.98482000  0.76468800  0.87292700  1
