# generated using pymatgen
data_V2OF8
_symmetry_space_group_name_H-M   'P 1'
_cell_length_a   5.38234700
_cell_length_b   9.10916500
_cell_length_c   14.97065286
_cell_angle_alpha   75.50820702
_cell_angle_beta   90.00000000
_cell_angle_gamma   90.00000000
_symmetry_Int_Tables_number   1
_chemical_formula_structural   V2OF8
_chemical_formula_sum   'V8 O4 F32'
_cell_volume   710.63840880
_cell_formula_units_Z   4
loop_
 _symmetry_equiv_pos_site_id
 _symmetry_equiv_pos_as_xyz
  1  'x, y, z'
loop_
 _atom_site_type_symbol
 _atom_site_label
 _atom_site_symmetry_multiplicity
 _atom_site_fract_x
 _atom_site_fract_y
 _atom_site_fract_z
 _atom_site_occupancy
  V  V0  1  0.80657500  0.90297300  0.87502200  1
  V  V1  1  0.19342500  0.90297300  0.37502200  1
  V  V2  1  0.05967900  0.54456700  0.83889800  1
  V  V3  1  0.05967900  0.45543300  0.66110200  1
  V  V4  1  0.94032100  0.54456700  0.33889800  1
  V  V5  1  0.94032100  0.45543300  0.16110200  1
  V  V6  1  0.80657500  0.09702700  0.62497800  1
  V  V7  1  0.19342500  0.09702700  0.12497800  1
  O  O8  1  0.94102700  0.70246900  0.85729700  1
  O  O9  1  0.05897300  0.70246900  0.35729700  1
  O  O10  1  0.94102700  0.29753100  0.64270300  1
  O  O11  1  0.05897300  0.29753100  0.14270300  1
  F  F12  1  0.95173100  0.00000000  0.75000000  1
  F  F13  1  0.11072000  0.92237700  0.91543000  1
  F  F14  1  0.68309200  0.80453000  0.98062700  1
  F  F15  1  0.55567900  0.86080900  0.80926400  1
  F  F16  1  0.70270600  0.91919500  0.61750900  1
  F  F17  1  0.04826900  0.00000000  0.25000000  1
  F  F18  1  0.88928000  0.92237700  0.41543000  1
  F  F19  1  0.31690800  0.80453000  0.48062700  1
  F  F20  1  0.44432100  0.86080900  0.30926400  1
  F  F21  1  0.29729400  0.91919500  0.11750900  1
  F  F22  1  0.19236400  0.63569900  0.72014900  1
  F  F23  1  0.34965600  0.53239900  0.89334000  1
  F  F24  1  0.90694000  0.59677300  0.57714400  1
  F  F25  1  0.80900000  0.50000000  0.75000000  1
  F  F26  1  0.80763600  0.63569900  0.22014900  1
  F  F27  1  0.90694000  0.40322700  0.92285600  1
  F  F28  1  0.65034400  0.53239900  0.39334000  1
  F  F29  1  0.34965600  0.46760100  0.60666000  1
  F  F30  1  0.09306000  0.59677300  0.07714400  1
  F  F31  1  0.19236400  0.36430100  0.77985100  1
  F  F32  1  0.19100000  0.50000000  0.25000000  1
  F  F33  1  0.09306000  0.40322700  0.42285600  1
  F  F34  1  0.65034400  0.46760100  0.10666000  1
  F  F35  1  0.80763600  0.36430100  0.27985100  1
  F  F36  1  0.70270600  0.08080500  0.88249100  1
  F  F37  1  0.55567900  0.13919100  0.69073600  1
  F  F38  1  0.68309200  0.19547000  0.51937300  1
  F  F39  1  0.11072000  0.07762300  0.58457000  1
  F  F40  1  0.29729400  0.08080500  0.38249100  1
  F  F41  1  0.44432100  0.13919100  0.19073600  1
  F  F42  1  0.31690800  0.19547000  0.01937300  1
  F  F43  1  0.88928000  0.07762300  0.08457000  1
