# generated using pymatgen
data_Sr2Ti6N2O11
_symmetry_space_group_name_H-M   'P 1'
_cell_length_a   7.92334221
_cell_length_b   7.92334221
_cell_length_c   9.30001486
_cell_angle_alpha   81.09532498
_cell_angle_beta   81.09532498
_cell_angle_gamma   27.89579459
_symmetry_Int_Tables_number   1
_chemical_formula_structural   Sr2Ti6N2O11
_chemical_formula_sum   'Sr2 Ti6 N2 O11'
_cell_volume   269.66567294
_cell_formula_units_Z   1
loop_
 _symmetry_equiv_pos_site_id
 _symmetry_equiv_pos_as_xyz
  1  'x, y, z'
loop_
 _atom_site_type_symbol
 _atom_site_label
 _atom_site_symmetry_multiplicity
 _atom_site_fract_x
 _atom_site_fract_y
 _atom_site_fract_z
 _atom_site_occupancy
  Sr  Sr0  1  0.55106300  0.55106300  0.24176900  1
  Sr  Sr1  1  0.45241100  0.45241100  0.76691500  1
  Ti  Ti2  1  0.11823300  0.11823300  0.90447100  1
  Ti  Ti3  1  0.16793000  0.16793000  0.56100300  1
  Ti  Ti4  1  0.23616300  0.23616300  0.22793000  1
  Ti  Ti5  1  0.77426500  0.77426500  0.76447600  1
  Ti  Ti6  1  0.83507500  0.83507500  0.44163000  1
  Ti  Ti7  1  0.88708100  0.88708100  0.11222500  1
  N  N8  1  0.87485800  0.87485800  0.61778000  1
  N  N9  1  0.93261900  0.93261900  0.28595200  1
  O  O10  1  0.07034600  0.07034600  0.70384700  1
  O  O11  1  0.12729200  0.12729200  0.38388000  1
  O  O12  1  0.15822200  0.15822200  0.09594800  1
  O  O13  1  0.63453700  0.63453700  0.88957800  1
  O  O14  1  0.69984300  0.69984300  0.56975800  1
  O  O15  1  0.75595700  0.75595700  0.23780500  1
  O  O16  1  0.23675800  0.23675800  0.75820400  1
  O  O17  1  0.29411200  0.29411200  0.42412900  1
  O  O18  1  0.35529700  0.35529700  0.11387300  1
  O  O19  1  0.83785200  0.83785200  0.90843300  1
  O  O20  1  0.00008500  0.00008500  0.99039400  1
