# generated using pymatgen
data_TiCuGe
_symmetry_space_group_name_H-M   'P 1'
_cell_length_a   3.75229100
_cell_length_b   5.11743400
_cell_length_c   9.11269800
_cell_angle_alpha   90.00000000
_cell_angle_beta   90.00000000
_cell_angle_gamma   90.00000000
_symmetry_Int_Tables_number   1
_chemical_formula_structural   TiCuGe
_chemical_formula_sum   'Ti4 Cu4 Ge4'
_cell_volume   174.98295231
_cell_formula_units_Z   4
loop_
 _symmetry_equiv_pos_site_id
 _symmetry_equiv_pos_as_xyz
  1  'x, y, z'
loop_
 _atom_site_type_symbol
 _atom_site_label
 _atom_site_symmetry_multiplicity
 _atom_site_fract_x
 _atom_site_fract_y
 _atom_site_fract_z
 _atom_site_occupancy
  Ti  Ti0  1  0.25000000  0.24070400  0.05137500  1
  Ti  Ti1  1  0.75000000  0.25929600  0.55137500  1
  Ti  Ti2  1  0.25000000  0.74070400  0.44862500  1
  Ti  Ti3  1  0.75000000  0.75929600  0.94862500  1
  Cu  Cu4  1  0.25000000  0.00909000  0.75317200  1
  Cu  Cu5  1  0.75000000  0.49091000  0.25317200  1
  Cu  Cu6  1  0.25000000  0.50909000  0.74682800  1
  Cu  Cu7  1  0.75000000  0.99091000  0.24682800  1
  Ge  Ge8  1  0.75000000  0.26344600  0.85883800  1
  Ge  Ge9  1  0.25000000  0.23655400  0.35883800  1
  Ge  Ge10  1  0.75000000  0.76344600  0.64116200  1
  Ge  Ge11  1  0.25000000  0.73655400  0.14116200  1
