# generated using pymatgen
data_Na(MoSe)3
_symmetry_space_group_name_H-M   'P 1'
_cell_length_a   8.87795786
_cell_length_b   8.87795786
_cell_length_c   4.52226100
_cell_angle_alpha   90.00000000
_cell_angle_beta   90.00000000
_cell_angle_gamma   119.99999896
_symmetry_Int_Tables_number   1
_chemical_formula_structural   Na(MoSe)3
_chemical_formula_sum   'Na2 Mo6 Se6'
_cell_volume   308.68279121
_cell_formula_units_Z   2
loop_
 _symmetry_equiv_pos_site_id
 _symmetry_equiv_pos_as_xyz
  1  'x, y, z'
loop_
 _atom_site_type_symbol
 _atom_site_label
 _atom_site_symmetry_multiplicity
 _atom_site_fract_x
 _atom_site_fract_y
 _atom_site_fract_z
 _atom_site_occupancy
  Na  Na0  1  0.66666700  0.33333300  0.75000000  1
  Na  Na1  1  0.33333300  0.66666700  0.25000000  1
  Mo  Mo2  1  0.97447500  0.81531800  0.75000000  1
  Mo  Mo3  1  0.84084400  0.02552500  0.75000000  1
  Mo  Mo4  1  0.18468200  0.15915600  0.75000000  1
  Mo  Mo5  1  0.02552500  0.18468200  0.25000000  1
  Mo  Mo6  1  0.15915600  0.97447500  0.25000000  1
  Mo  Mo7  1  0.81531800  0.84084400  0.25000000  1
  Se  Se8  1  0.31623800  0.95043300  0.75000000  1
  Se  Se9  1  0.63419500  0.68376200  0.75000000  1
  Se  Se10  1  0.04956700  0.36580500  0.75000000  1
  Se  Se11  1  0.68376200  0.04956700  0.25000000  1
  Se  Se12  1  0.36580500  0.31623800  0.25000000  1
  Se  Se13  1  0.95043300  0.63419500  0.25000000  1
