# generated using pymatgen
data_NbTlO3
_symmetry_space_group_name_H-M   'P 1'
_cell_length_a   7.65279686
_cell_length_b   7.65279686
_cell_length_c   13.25495398
_cell_angle_alpha   73.18030220
_cell_angle_beta   73.18030220
_cell_angle_gamma   59.97440459
_symmetry_Int_Tables_number   1
_chemical_formula_structural   NbTlO3
_chemical_formula_sum   'Nb8 Tl8 O24'
_cell_volume   633.48856320
_cell_formula_units_Z   8
loop_
 _symmetry_equiv_pos_site_id
 _symmetry_equiv_pos_as_xyz
  1  'x, y, z'
loop_
 _atom_site_type_symbol
 _atom_site_label
 _atom_site_symmetry_multiplicity
 _atom_site_fract_x
 _atom_site_fract_y
 _atom_site_fract_z
 _atom_site_occupancy
  Nb  Nb0  1  0.00067300  0.00033900  0.99954900  1
  Nb  Nb1  1  0.00125800  0.50080500  0.99934200  1
  Nb  Nb2  1  0.50055400  0.50023700  0.99956800  1
  Nb  Nb3  1  0.25080200  0.75052100  0.74896600  1
  Nb  Nb4  1  0.50023700  0.50055400  0.49956800  1
  Nb  Nb5  1  0.50080500  0.00125800  0.49934200  1
  Nb  Nb6  1  0.00033900  0.00067300  0.49954900  1
  Nb  Nb7  1  0.75052100  0.25080200  0.24896600  1
  Tl  Tl8  1  0.72692600  0.78110800  0.75738700  1
  Tl  Tl9  1  0.72701000  0.23487100  0.75763600  1
  Tl  Tl10  1  0.21498100  0.26930500  0.74644500  1
  Tl  Tl11  1  0.99066700  0.49410000  0.51903000  1
  Tl  Tl12  1  0.23487100  0.72701000  0.25763600  1
  Tl  Tl13  1  0.78110800  0.72692600  0.25738700  1
  Tl  Tl14  1  0.49410000  0.99066700  0.01903000  1
  Tl  Tl15  1  0.26930500  0.21498100  0.24644500  1
  O  O16  1  0.71884100  0.59199100  0.97044800  1
  O  O17  1  0.09314800  0.96593100  0.84461500  1
  O  O18  1  0.03727900  0.90451500  0.65419800  1
  O  O19  1  0.09477900  0.21862500  0.96819400  1
  O  O20  1  0.40370100  0.90738400  0.65539400  1
  O  O21  1  0.71879000  0.21890200  0.97029600  1
  O  O22  1  0.21862500  0.09477900  0.46819400  1
  O  O23  1  0.47009800  0.59347300  0.84330200  1
  O  O24  1  0.09274400  0.59643900  0.84448600  1
  O  O25  1  0.77966000  0.27982100  0.53115100  1
  O  O26  1  0.41196600  0.27950000  0.52927300  1
  O  O27  1  0.40398400  0.53312800  0.65558000  1
  O  O28  1  0.59347300  0.47009800  0.34330200  1
  O  O29  1  0.59199100  0.71884100  0.47044800  1
  O  O30  1  0.90738400  0.40370100  0.15539400  1
  O  O31  1  0.53312800  0.40398400  0.15558000  1
  O  O32  1  0.21890200  0.71879000  0.47029600  1
  O  O33  1  0.77972600  0.90923500  0.53135800  1
  O  O34  1  0.27982100  0.77966000  0.03115100  1
  O  O35  1  0.96593100  0.09314800  0.34461500  1
  O  O36  1  0.59643900  0.09274400  0.34448600  1
  O  O37  1  0.90923500  0.77972600  0.03135800  1
  O  O38  1  0.90451500  0.03727900  0.15419800  1
  O  O39  1  0.27950000  0.41196600  0.02927300  1
