# generated using pymatgen
data_TiV3Cu2(PO4)6
_symmetry_space_group_name_H-M   'P 1'
_cell_length_a   8.63560408
_cell_length_b   8.63560408
_cell_length_c   8.63560423
_cell_angle_alpha   59.96624980
_cell_angle_beta   59.96624980
_cell_angle_gamma   59.96624684
_symmetry_Int_Tables_number   1
_chemical_formula_structural   TiV3Cu2(PO4)6
_chemical_formula_sum   'Ti1 V3 Cu2 P6 O24'
_cell_volume   455.02016937
_cell_formula_units_Z   1
loop_
 _symmetry_equiv_pos_site_id
 _symmetry_equiv_pos_as_xyz
  1  'x, y, z'
loop_
 _atom_site_type_symbol
 _atom_site_label
 _atom_site_symmetry_multiplicity
 _atom_site_fract_x
 _atom_site_fract_y
 _atom_site_fract_z
 _atom_site_occupancy
  Ti  Ti0  1  0.85759700  0.85759700  0.85759700  1
  V  V1  1  0.35751000  0.35751000  0.35751000  1
  V  V2  1  0.14269200  0.14269200  0.14269200  1
  V  V3  1  0.64258100  0.64258100  0.64258100  1
  Cu  Cu4  1  0.99906300  0.99906300  0.99906300  1
  Cu  Cu5  1  0.50007800  0.50007800  0.50007800  1
  P  P6  1  0.74996900  0.04008100  0.45903800  1
  P  P7  1  0.04008100  0.45903800  0.74996900  1
  P  P8  1  0.45903800  0.74996900  0.04008100  1
  P  P9  1  0.53854900  0.25170800  0.96056600  1
  P  P10  1  0.96056600  0.53854900  0.25170800  1
  P  P11  1  0.25170800  0.96056600  0.53854900  1
  O  O12  1  0.87696600  0.49487100  0.69717400  1
  O  O13  1  0.49487100  0.69717400  0.87696600  1
  O  O14  1  0.69717400  0.87696600  0.49487100  1
  O  O15  1  0.91767500  0.05907600  0.26879300  1
  O  O16  1  0.80262400  0.99994100  0.62520200  1
  O  O17  1  0.58285200  0.23144300  0.44168700  1
  O  O18  1  0.05907600  0.26879300  0.91767500  1
  O  O19  1  0.23144300  0.44168700  0.58285200  1
  O  O20  1  0.37644500  0.19787500  0.99561300  1
  O  O21  1  0.44168700  0.58285200  0.23144300  1
  O  O22  1  0.72941200  0.08425400  0.94180400  1
  O  O23  1  0.99561300  0.37644500  0.19787500  1
  O  O24  1  0.99994100  0.62520200  0.80262400  1
  O  O25  1  0.26879300  0.91767500  0.05907600  1
  O  O26  1  0.55751300  0.41888200  0.76886000  1
  O  O27  1  0.62520200  0.80262400  0.99994100  1
  O  O28  1  0.76886000  0.55751300  0.41888200  1
  O  O29  1  0.94180400  0.72941200  0.08425400  1
  O  O30  1  0.41888200  0.76886000  0.55751300  1
  O  O31  1  0.19787500  0.99561300  0.37644500  1
  O  O32  1  0.08425400  0.94180400  0.72941200  1
  O  O33  1  0.30515200  0.12319700  0.50325700  1
  O  O34  1  0.50325700  0.30515200  0.12319700  1
  O  O35  1  0.12319700  0.50325700  0.30515200  1
