# generated using pymatgen
data_TiMn2O6
_symmetry_space_group_name_H-M   'P 1'
_cell_length_a   5.10283955
_cell_length_b   5.10284047
_cell_length_c   9.70014200
_cell_angle_alpha   90.00009121
_cell_angle_beta   89.99991376
_cell_angle_gamma   120.07860329
_symmetry_Int_Tables_number   1
_chemical_formula_structural   TiMn2O6
_chemical_formula_sum   'Ti2 Mn4 O12'
_cell_volume   218.56876390
_cell_formula_units_Z   2
loop_
 _symmetry_equiv_pos_site_id
 _symmetry_equiv_pos_as_xyz
  1  'x, y, z'
loop_
 _atom_site_type_symbol
 _atom_site_label
 _atom_site_symmetry_multiplicity
 _atom_site_fract_x
 _atom_site_fract_y
 _atom_site_fract_z
 _atom_site_occupancy
  Ti  Ti0  1  0.00000000  0.99999700  0.00000300  1
  Ti  Ti1  1  0.49999900  0.50000200  0.50000100  1
  Mn  Mn2  1  0.16673200  0.83326700  0.50000100  1
  Mn  Mn3  1  0.33326800  0.66673100  0.99999600  1
  Mn  Mn4  1  0.66673300  0.33326500  0.00000000  1
  Mn  Mn5  1  0.83326700  0.16673600  0.50000100  1
  O  O6  1  0.99997000  0.66089200  0.09931200  1
  O  O7  1  0.00003200  0.33910300  0.90068500  1
  O  O8  1  0.16089300  0.49996800  0.40068500  1
  O  O9  1  0.50003200  0.83911000  0.59931600  1
  O  O10  1  0.16047700  0.16048000  0.59970500  1
  O  O11  1  0.33952200  0.33952300  0.09970200  1
  O  O12  1  0.66047900  0.66047400  0.90029500  1
  O  O13  1  0.33910900  0.00003500  0.90068600  1
  O  O14  1  0.83952200  0.83952500  0.40029700  1
  O  O15  1  0.49996700  0.16089500  0.40068500  1
  O  O16  1  0.83910700  0.50003600  0.59931700  1
  O  O17  1  0.66089100  0.99996200  0.09931200  1
