# generated using pymatgen
data_SnP4O11
_symmetry_space_group_name_H-M   'P 1'
_cell_length_a   23.19693300
_cell_length_b   5.95622100
_cell_length_c   7.94188913
_cell_angle_alpha   72.52469728
_cell_angle_beta   90.00000000
_cell_angle_gamma   90.00000000
_symmetry_Int_Tables_number   1
_chemical_formula_structural   SnP4O11
_chemical_formula_sum   'Sn4 P16 O44'
_cell_volume   1046.65529145
_cell_formula_units_Z   4
loop_
 _symmetry_equiv_pos_site_id
 _symmetry_equiv_pos_as_xyz
  1  'x, y, z'
loop_
 _atom_site_type_symbol
 _atom_site_label
 _atom_site_symmetry_multiplicity
 _atom_site_fract_x
 _atom_site_fract_y
 _atom_site_fract_z
 _atom_site_occupancy
  Sn  Sn0  1  0.88681700  0.99384300  0.87441900  1
  Sn  Sn1  1  0.61318300  0.99384300  0.37441900  1
  Sn  Sn2  1  0.38681700  0.00615700  0.62558100  1
  Sn  Sn3  1  0.11318300  0.00615700  0.12558100  1
  P  P4  1  0.57331600  0.67233200  0.83513800  1
  P  P5  1  0.20077200  0.59515000  0.95729100  1
  P  P6  1  0.17940000  0.65376400  0.56400300  1
  P  P7  1  0.96984500  0.58942900  0.70215300  1
  P  P8  1  0.92668400  0.67233200  0.33513800  1
  P  P9  1  0.29922800  0.59515000  0.45729100  1
  P  P10  1  0.46984500  0.41057100  0.79784700  1
  P  P11  1  0.67940000  0.34623600  0.93599700  1
  P  P12  1  0.32060000  0.65376400  0.06400300  1
  P  P13  1  0.53015500  0.58942900  0.20215300  1
  P  P14  1  0.70077200  0.40485000  0.54270900  1
  P  P15  1  0.07331600  0.32766800  0.66486200  1
  P  P16  1  0.03015500  0.41057100  0.29784700  1
  P  P17  1  0.82060000  0.34623600  0.43599700  1
  P  P18  1  0.79922800  0.40485000  0.04270900  1
  P  P19  1  0.42668400  0.32766800  0.16486200  1
  O  O20  1  0.34283200  0.87185300  0.93775200  1
  O  O21  1  0.57534500  0.88259900  0.67875100  1
  O  O22  1  0.54731900  0.74066600  0.99673700  1
  O  O23  1  0.96534800  0.75786100  0.80658800  1
  O  O24  1  0.83128500  0.63069100  0.98996000  1
  O  O25  1  0.15716800  0.87185300  0.43775200  1
  O  O26  1  0.19952800  0.69852800  0.74044000  1
  O  O27  1  0.31140300  0.79824300  0.52532500  1
  O  O28  1  0.44069000  0.64337600  0.75631000  1
  O  O29  1  0.26938200  0.52888100  0.99445900  1
  O  O30  1  0.63620400  0.56618000  0.88813300  1
  O  O31  1  0.92465500  0.88259900  0.17875100  1
  O  O32  1  0.95268100  0.74066600  0.49673700  1
  O  O33  1  0.53465200  0.75786100  0.30658800  1
  O  O34  1  0.03975100  0.55240300  0.67990900  1
  O  O35  1  0.66871500  0.63069100  0.48996000  1
  O  O36  1  0.30047200  0.69852800  0.24044100  1
  O  O37  1  0.18859700  0.79824300  0.02532500  1
  O  O38  1  0.53975100  0.44759700  0.82009100  1
  O  O39  1  0.05931000  0.64337600  0.25631000  1
  O  O40  1  0.23061800  0.52888100  0.49445900  1
  O  O41  1  0.86379600  0.56618000  0.38813300  1
  O  O42  1  0.13620400  0.43382000  0.61186700  1
  O  O43  1  0.76938200  0.47111900  0.50554100  1
  O  O44  1  0.94069000  0.35662400  0.74369000  1
  O  O45  1  0.46024900  0.55240300  0.17990900  1
  O  O46  1  0.81140300  0.20175700  0.97467500  1
  O  O47  1  0.69952800  0.30147200  0.75956000  1
  O  O48  1  0.33128500  0.36930900  0.51004000  1
  O  O49  1  0.96024900  0.44759700  0.32009100  1
  O  O50  1  0.46534800  0.24213900  0.69341200  1
  O  O51  1  0.04731900  0.25933400  0.50326300  1
  O  O52  1  0.07534500  0.11740100  0.82124900  1
  O  O53  1  0.36379600  0.43382000  0.11186700  1
  O  O54  1  0.73061800  0.47111900  0.00554100  1
  O  O55  1  0.55931000  0.35662400  0.24369000  1
  O  O56  1  0.68859700  0.20175700  0.47467500  1
  O  O57  1  0.80047200  0.30147200  0.25956000  1
  O  O58  1  0.84283200  0.12814700  0.56224800  1
  O  O59  1  0.16871500  0.36930900  0.01004000  1
  O  O60  1  0.03465200  0.24213900  0.19341200  1
  O  O61  1  0.45268100  0.25933400  0.00326300  1
  O  O62  1  0.42465500  0.11740100  0.32124900  1
  O  O63  1  0.65716800  0.12814700  0.06224800  1
