# generated using pymatgen
data_V3(PO4)4
_symmetry_space_group_name_H-M   'P 1'
_cell_length_a   10.07210175
_cell_length_b   10.07210175
_cell_length_c   10.91905190
_cell_angle_alpha   87.98361888
_cell_angle_beta   87.98361888
_cell_angle_gamma   37.17562510
_symmetry_Int_Tables_number   1
_chemical_formula_structural   V3(PO4)4
_chemical_formula_sum   'V6 P8 O32'
_cell_volume   668.88227854
_cell_formula_units_Z   2
loop_
 _symmetry_equiv_pos_site_id
 _symmetry_equiv_pos_as_xyz
  1  'x, y, z'
loop_
 _atom_site_type_symbol
 _atom_site_label
 _atom_site_symmetry_multiplicity
 _atom_site_fract_x
 _atom_site_fract_y
 _atom_site_fract_z
 _atom_site_occupancy
  V  V0  1  0.00000000  0.50000000  0.50000000  1
  V  V1  1  0.66784100  0.63369300  0.25181000  1
  V  V2  1  0.33215900  0.36630700  0.74819000  1
  V  V3  1  0.36630700  0.33215900  0.24819000  1
  V  V4  1  0.63369300  0.66784100  0.75181000  1
  V  V5  1  0.50000000  0.00000000  0.00000000  1
  P  P6  1  0.42172100  0.74531500  0.01180900  1
  P  P7  1  0.78427600  0.81297200  0.74754000  1
  P  P8  1  0.18702800  0.21572400  0.75246000  1
  P  P9  1  0.21572400  0.18702800  0.25246000  1
  P  P10  1  0.74531500  0.42172100  0.51180900  1
  P  P11  1  0.81297200  0.78427600  0.24754000  1
  P  P12  1  0.57827900  0.25468500  0.98819100  1
  P  P13  1  0.25468500  0.57827900  0.48819100  1
  O  O14  1  0.30499500  0.21273400  0.14308600  1
  O  O15  1  0.94825300  0.36345800  0.50809900  1
  O  O16  1  0.33376600  0.98020500  0.73059100  1
  O  O17  1  0.59406500  0.60277400  0.61343700  1
  O  O18  1  0.76563500  0.72213700  0.64137500  1
  O  O19  1  0.36345800  0.94825300  0.00809900  1
  O  O20  1  0.05096500  0.63532300  0.22796200  1
  O  O21  1  0.63532300  0.05096500  0.72796200  1
  O  O22  1  0.63654200  0.05174700  0.99190100  1
  O  O23  1  0.23932700  0.79637500  0.02642900  1
  O  O24  1  0.36467700  0.94903500  0.27203800  1
  O  O25  1  0.94903500  0.36467700  0.77203800  1
  O  O26  1  0.63312900  0.55273700  0.38516900  1
  O  O27  1  0.23436500  0.27786300  0.35862500  1
  O  O28  1  0.36687100  0.44726300  0.61483100  1
  O  O29  1  0.72213700  0.76563500  0.14137500  1
  O  O30  1  0.66623400  0.01979500  0.26940900  1
  O  O31  1  0.44726300  0.36687100  0.11483100  1
  O  O32  1  0.76067300  0.20362500  0.97357100  1
  O  O33  1  0.20362500  0.76067300  0.47357100  1
  O  O34  1  0.27786300  0.23436500  0.85862500  1
  O  O35  1  0.40593500  0.39722600  0.38656300  1
  O  O36  1  0.01979500  0.66623400  0.76940900  1
  O  O37  1  0.39722600  0.40593500  0.88656300  1
  O  O38  1  0.78726600  0.69500500  0.35691400  1
  O  O39  1  0.55273700  0.63312900  0.88516900  1
  O  O40  1  0.21273400  0.30499500  0.64308600  1
  O  O41  1  0.98020500  0.33376600  0.23059100  1
  O  O42  1  0.79637500  0.23932700  0.52642900  1
  O  O43  1  0.05174700  0.63654200  0.49190100  1
  O  O44  1  0.69500500  0.78726600  0.85691400  1
  O  O45  1  0.60277400  0.59406500  0.11343700  1
