# generated using pymatgen
data_Li2MnP2O7
_symmetry_space_group_name_H-M   'P 1'
_cell_length_a   7.36964535
_cell_length_b   8.38557880
_cell_length_c   10.45898205
_cell_angle_alpha   94.17407005
_cell_angle_beta   98.61051932
_cell_angle_gamma   65.62844118
_symmetry_Int_Tables_number   1
_chemical_formula_structural   Li2MnP2O7
_chemical_formula_sum   'Li8 Mn4 P8 O28'
_cell_volume   582.07523966
_cell_formula_units_Z   4
loop_
 _symmetry_equiv_pos_site_id
 _symmetry_equiv_pos_as_xyz
  1  'x, y, z'
loop_
 _atom_site_type_symbol
 _atom_site_label
 _atom_site_symmetry_multiplicity
 _atom_site_fract_x
 _atom_site_fract_y
 _atom_site_fract_z
 _atom_site_occupancy
  Li  Li0  1  0.82395100  0.56579300  0.15028100  1
  Li  Li1  1  0.82422100  0.56580300  0.65026500  1
  Li  Li2  1  0.17575100  0.43416900  0.34976200  1
  Li  Li3  1  0.17605700  0.43422400  0.84969400  1
  Li  Li4  1  0.86858100  0.99222000  0.14978700  1
  Li  Li5  1  0.86880900  0.99216300  0.64984700  1
  Li  Li6  1  0.13117600  0.00785000  0.35014300  1
  Li  Li7  1  0.13140900  0.00773400  0.85019600  1
  Mn  Mn8  1  0.27760800  0.72018600  0.58786900  1
  Mn  Mn9  1  0.72197900  0.27976700  0.41189800  1
  Mn  Mn10  1  0.27798700  0.72014100  0.08811600  1
  Mn  Mn11  1  0.72237900  0.27976500  0.91216100  1
  P  P12  1  0.86523600  0.82313000  0.38794100  1
  P  P13  1  0.86522300  0.82316300  0.88798100  1
  P  P14  1  0.13477400  0.17684800  0.11202900  1
  P  P15  1  0.13475100  0.17688200  0.61203300  1
  P  P16  1  0.54896100  0.70147500  0.36797700  1
  P  P17  1  0.54902400  0.70144500  0.86802900  1
  P  P18  1  0.45095300  0.29856000  0.13195100  1
  P  P19  1  0.45108300  0.29853400  0.63204900  1
  O  O20  1  0.66136900  0.21198500  0.08873400  1
  O  O21  1  0.66147700  0.21194600  0.58880000  1
  O  O22  1  0.33849800  0.78809500  0.41112500  1
  O  O23  1  0.33867300  0.78800300  0.91133000  1
  O  O24  1  0.68953600  0.54647600  0.45424600  1
  O  O25  1  0.68978100  0.54650000  0.95432700  1
  O  O26  1  0.31023500  0.45351700  0.04570300  1
  O  O27  1  0.31046000  0.45354800  0.54575500  1
  O  O28  1  0.96033600  0.79665600  0.03036600  1
  O  O29  1  0.96029900  0.79653800  0.53033800  1
  O  O30  1  0.03962800  0.20346500  0.46964200  1
  O  O31  1  0.03980000  0.20333100  0.96962400  1
  O  O32  1  0.36754500  0.14542500  0.10872600  1
  O  O33  1  0.36751200  0.14547300  0.60868600  1
  O  O34  1  0.63249000  0.85454900  0.39132400  1
  O  O35  1  0.63246000  0.85460600  0.89128200  1
  O  O36  1  0.14743300  0.00421900  0.16480000  1
  O  O37  1  0.14749000  0.00419800  0.66476300  1
  O  O38  1  0.85249700  0.99582200  0.33521600  1
  O  O39  1  0.85258600  0.99577700  0.83521100  1
  O  O40  1  0.03883600  0.33261200  0.19960900  1
  O  O41  1  0.03884400  0.33254700  0.69971500  1
  O  O42  1  0.96116400  0.66744000  0.30028900  1
  O  O43  1  0.96111200  0.66742100  0.80036900  1
  O  O44  1  0.45679400  0.34282400  0.27732300  1
  O  O45  1  0.45689600  0.34262300  0.77743200  1
  O  O46  1  0.54322300  0.65732400  0.22258800  1
  O  O47  1  0.54311900  0.65722500  0.72266200  1
