# generated using pymatgen
data_Sr2Cr2O7
_symmetry_space_group_name_H-M   'P 1'
_cell_length_a   7.12553000
_cell_length_b   7.21263303
_cell_length_c   13.08053469
_cell_angle_alpha   82.31711482
_cell_angle_beta   87.57129250
_cell_angle_gamma   88.86223673
_symmetry_Int_Tables_number   1
_chemical_formula_structural   Sr2Cr2O7
_chemical_formula_sum   'Sr8 Cr8 O28'
_cell_volume   665.55724402
_cell_formula_units_Z   4
loop_
 _symmetry_equiv_pos_site_id
 _symmetry_equiv_pos_as_xyz
  1  'x, y, z'
loop_
 _atom_site_type_symbol
 _atom_site_label
 _atom_site_symmetry_multiplicity
 _atom_site_fract_x
 _atom_site_fract_y
 _atom_site_fract_z
 _atom_site_occupancy
  Sr  Sr0  1  0.07638500  0.84583400  0.15588100  1
  Sr  Sr1  1  0.23460700  0.22465600  0.35114000  1
  Sr  Sr2  1  0.33128300  0.76362100  0.85970000  1
  Sr  Sr3  1  0.37335400  0.37582800  0.63754800  1
  Sr  Sr4  1  0.62664600  0.62417200  0.36245200  1
  Sr  Sr5  1  0.66871700  0.23637900  0.14030000  1
  Sr  Sr6  1  0.76539300  0.77534400  0.64886000  1
  Sr  Sr7  1  0.92361500  0.15416600  0.84411900  1
  Cr  Cr8  1  0.15499900  0.31266500  0.08875000  1
  Cr  Cr9  1  0.16436700  0.69516900  0.40830000  1
  Cr  Cr10  1  0.23035800  0.89651700  0.60832200  1
  Cr  Cr11  1  0.43213000  0.28266700  0.89404200  1
  Cr  Cr12  1  0.56787000  0.71733300  0.10595800  1
  Cr  Cr13  1  0.76964200  0.10348300  0.39167800  1
  Cr  Cr14  1  0.83563300  0.30483100  0.59170000  1
  Cr  Cr15  1  0.84500100  0.68733500  0.91125000  1
  O  O16  1  0.01488700  0.37415200  0.65551900  1
  O  O17  1  0.06512000  0.47827300  0.15417600  1
  O  O18  1  0.00565500  0.83058800  0.95154100  1
  O  O19  1  0.08274000  0.78536100  0.52627800  1
  O  O20  1  0.07587900  0.91670300  0.71160800  1
  O  O21  1  0.30664900  0.17039000  0.16601800  1
  O  O22  1  0.30205200  0.85306100  0.33657400  1
  O  O23  1  0.30076400  0.10195800  0.54358300  1
  O  O24  1  0.31008500  0.50340600  0.44548200  1
  O  O25  1  0.29120700  0.14477400  0.83451300  1
  O  O26  1  0.29582100  0.41919300  0.97792200  1
  O  O27  1  0.37753900  0.81354500  0.04639700  1
  O  O28  1  0.40311400  0.74700500  0.65567700  1
  O  O29  1  0.50288200  0.53660200  0.19896300  1
  O  O30  1  0.49711800  0.46339800  0.80103700  1
  O  O31  1  0.59688600  0.25299500  0.34432300  1
  O  O32  1  0.62246100  0.18645500  0.95360300  1
  O  O33  1  0.70417900  0.58080700  0.02207800  1
  O  O34  1  0.70879300  0.85522600  0.16548700  1
  O  O35  1  0.68991500  0.49659400  0.55451800  1
  O  O36  1  0.69923600  0.89804200  0.45641700  1
  O  O37  1  0.69794800  0.14693900  0.66342600  1
  O  O38  1  0.69335100  0.82961000  0.83398200  1
  O  O39  1  0.92412100  0.08329700  0.28839200  1
  O  O40  1  0.91726000  0.21463900  0.47372200  1
  O  O41  1  0.99434500  0.16941200  0.04845900  1
  O  O42  1  0.93488000  0.52172700  0.84582400  1
  O  O43  1  0.98511300  0.62584800  0.34448100  1
