# generated using pymatgen
data_VCo(PO4)2
_symmetry_space_group_name_H-M   'P 1'
_cell_length_a   8.53781501
_cell_length_b   8.53781501
_cell_length_c   8.53781484
_cell_angle_alpha   60.65851119
_cell_angle_beta   60.65851119
_cell_angle_gamma   60.65851277
_symmetry_Int_Tables_number   1
_chemical_formula_structural   VCo(PO4)2
_chemical_formula_sum   'V3 Co3 P6 O24'
_cell_volume   446.61598496
_cell_formula_units_Z   3
loop_
 _symmetry_equiv_pos_site_id
 _symmetry_equiv_pos_as_xyz
  1  'x, y, z'
loop_
 _atom_site_type_symbol
 _atom_site_label
 _atom_site_symmetry_multiplicity
 _atom_site_fract_x
 _atom_site_fract_y
 _atom_site_fract_z
 _atom_site_occupancy
  V  V0  1  0.64410300  0.64410300  0.64410300  1
  V  V1  1  0.85742300  0.85742300  0.85742300  1
  V  V2  1  0.35598800  0.35598800  0.35598800  1
  Co  Co3  1  0.00307500  0.00307500  0.00307500  1
  Co  Co4  1  0.14395100  0.14395100  0.14395100  1
  Co  Co5  1  0.50032000  0.50032000  0.50032000  1
  P  P6  1  0.95791700  0.24834200  0.54259400  1
  P  P7  1  0.54259400  0.95791700  0.24834200  1
  P  P8  1  0.24834200  0.54259400  0.95791700  1
  P  P9  1  0.75041800  0.45727700  0.04095100  1
  P  P10  1  0.45727700  0.04095100  0.75041800  1
  P  P11  1  0.04095100  0.75041800  0.45727700  1
  O  O12  1  0.50507700  0.12017500  0.30853900  1
  O  O13  1  0.30853900  0.50507700  0.12017500  1
  O  O14  1  0.12017500  0.30853900  0.50507700  1
  O  O15  1  0.94142400  0.08669200  0.74027300  1
  O  O16  1  0.98768200  0.19105200  0.38601600  1
  O  O17  1  0.76298600  0.41413100  0.56431500  1
  O  O18  1  0.74027300  0.94142400  0.08669200  1
  O  O19  1  0.56431500  0.76298600  0.41413100  1
  O  O20  1  0.81042000  0.61842400  0.00350800  1
  O  O21  1  0.41413100  0.56431500  0.76298600  1
  O  O22  1  0.90970900  0.26336900  0.05269700  1
  O  O23  1  0.61842400  0.00350800  0.81042000  1
  O  O24  1  0.38601600  0.98768200  0.19105200  1
  O  O25  1  0.08669200  0.74027300  0.94142400  1
  O  O26  1  0.58440200  0.44468100  0.23535000  1
  O  O27  1  0.19105200  0.38601600  0.98768200  1
  O  O28  1  0.44468100  0.23535000  0.58440200  1
  O  O29  1  0.26336900  0.05269700  0.90970900  1
  O  O30  1  0.23535000  0.58440200  0.44468100  1
  O  O31  1  0.00350800  0.81042000  0.61842400  1
  O  O32  1  0.05269700  0.90970900  0.26336900  1
  O  O33  1  0.88206200  0.68229800  0.50235800  1
  O  O34  1  0.68229800  0.50235800  0.88206200  1
  O  O35  1  0.50235800  0.88206200  0.68229800  1
