# generated using pymatgen
data_MgSO9
_symmetry_space_group_name_H-M   'P 1'
_cell_length_a   5.36282878
_cell_length_b   5.36282878
_cell_length_c   5.36282775
_cell_angle_alpha   94.41532708
_cell_angle_beta   94.41532708
_cell_angle_gamma   94.41532832
_symmetry_Int_Tables_number   1
_chemical_formula_structural   MgSO9
_chemical_formula_sum   'Mg1 S1 O9'
_cell_volume   152.78621203
_cell_formula_units_Z   1
loop_
 _symmetry_equiv_pos_site_id
 _symmetry_equiv_pos_as_xyz
  1  'x, y, z'
loop_
 _atom_site_type_symbol
 _atom_site_label
 _atom_site_symmetry_multiplicity
 _atom_site_fract_x
 _atom_site_fract_y
 _atom_site_fract_z
 _atom_site_occupancy
  Mg  Mg0  1  0.01155300  0.01155300  0.01155300  1
  S  S1  1  0.52797100  0.52797100  0.52797100  1
  O  O2  1  0.38389300  0.46316400  0.72816100  1
  O  O3  1  0.46316400  0.72816100  0.38389300  1
  O  O4  1  0.72816100  0.38389300  0.46316400  1
  O  O5  1  0.42035200  0.07688800  0.03944200  1
  O  O6  1  0.07688800  0.03944200  0.42035200  1
  O  O7  1  0.03944200  0.42035200  0.07688800  1
  O  O8  1  0.60236600  0.96285400  0.94990600  1
  O  O9  1  0.96285400  0.94990600  0.60236600  1
  O  O10  1  0.94990600  0.60236600  0.96285400  1
