# generated using pymatgen
data_EuMg2
_symmetry_space_group_name_H-M   'P 1'
_cell_length_a   6.24464234
_cell_length_b   6.24464234
_cell_length_c   10.42245100
_cell_angle_alpha   90.00000000
_cell_angle_beta   90.00000000
_cell_angle_gamma   120.00000358
_symmetry_Int_Tables_number   1
_chemical_formula_structural   EuMg2
_chemical_formula_sum   'Eu4 Mg8'
_cell_volume   351.97807880
_cell_formula_units_Z   4
loop_
 _symmetry_equiv_pos_site_id
 _symmetry_equiv_pos_as_xyz
  1  'x, y, z'
loop_
 _atom_site_type_symbol
 _atom_site_label
 _atom_site_symmetry_multiplicity
 _atom_site_fract_x
 _atom_site_fract_y
 _atom_site_fract_z
 _atom_site_occupancy
  Eu  Eu0  1  0.33333300  0.66666700  0.43907200  1
  Eu  Eu1  1  0.66666700  0.33333300  0.56092800  1
  Eu  Eu2  1  0.66666700  0.33333300  0.93907200  1
  Eu  Eu3  1  0.33333300  0.66666700  0.06092800  1
  Mg  Mg4  1  0.00000000  0.00000000  0.50000000  1
  Mg  Mg5  1  0.00000000  0.00000000  0.00000000  1
  Mg  Mg6  1  0.83177900  0.16822100  0.25000000  1
  Mg  Mg7  1  0.83177900  0.66355800  0.25000000  1
  Mg  Mg8  1  0.33644200  0.16822100  0.25000000  1
  Mg  Mg9  1  0.16822100  0.83177900  0.75000000  1
  Mg  Mg10  1  0.16822100  0.33644200  0.75000000  1
  Mg  Mg11  1  0.66355800  0.83177900  0.75000000  1
