# generated using pymatgen
data_FeP4O13
_symmetry_space_group_name_H-M   'P 1'
_cell_length_a   5.32489500
_cell_length_b   8.13322569
_cell_length_c   13.77324368
_cell_angle_alpha   81.53322166
_cell_angle_beta   83.76190981
_cell_angle_gamma   81.44810120
_symmetry_Int_Tables_number   1
_chemical_formula_structural   FeP4O13
_chemical_formula_sum   'Fe2 P8 O26'
_cell_volume   581.13856507
_cell_formula_units_Z   2
loop_
 _symmetry_equiv_pos_site_id
 _symmetry_equiv_pos_as_xyz
  1  'x, y, z'
loop_
 _atom_site_type_symbol
 _atom_site_label
 _atom_site_symmetry_multiplicity
 _atom_site_fract_x
 _atom_site_fract_y
 _atom_site_fract_z
 _atom_site_occupancy
  Fe  Fe0  1  0.56628700  0.94610600  0.74125800  1
  Fe  Fe1  1  0.43371300  0.05389400  0.25874200  1
  P  P2  1  0.99979200  0.10117100  0.84614700  1
  P  P3  1  0.29191700  0.67330200  0.30079500  1
  P  P4  1  0.87567600  0.21060000  0.35747600  1
  P  P5  1  0.00020800  0.89882900  0.15385300  1
  P  P6  1  0.64572700  0.41873100  0.18495400  1
  P  P7  1  0.12432400  0.78940000  0.64252400  1
  P  P8  1  0.70808300  0.32669800  0.69920500  1
  P  P9  1  0.35427300  0.58126900  0.81504600  1
  O  O10  1  0.76759900  0.46237200  0.61783600  1
  O  O11  1  0.59153000  0.17990400  0.67706500  1
  O  O12  1  0.40847000  0.82009600  0.32293500  1
  O  O13  1  0.28588300  0.92500300  0.65574100  1
  O  O14  1  0.15445400  0.63733600  0.73301300  1
  O  O15  1  0.28250800  0.03896300  0.83589900  1
  O  O16  1  0.09658000  0.83248000  0.05573500  1
  O  O17  1  0.84103200  0.85116500  0.64585300  1
  O  O18  1  0.24855100  0.72749400  0.54643200  1
  O  O19  1  0.23240100  0.53762800  0.38216400  1
  O  O20  1  0.71411700  0.07499700  0.34425900  1
  O  O21  1  0.15896800  0.14883500  0.35414700  1
  O  O22  1  0.83159700  0.96867000  0.83487900  1
  O  O23  1  0.51684500  0.41485600  0.78260000  1
  O  O24  1  0.16840300  0.03133000  0.16512100  1
  O  O25  1  0.90342000  0.16752000  0.94426500  1
  O  O26  1  0.71749200  0.96103700  0.16410100  1
  O  O27  1  0.47478700  0.28486000  0.18819200  1
  O  O28  1  0.95585000  0.25742800  0.75826800  1
  O  O29  1  0.52521300  0.71514000  0.81180800  1
  O  O30  1  0.48315500  0.58514400  0.21740000  1
  O  O31  1  0.84554600  0.36266400  0.26698700  1
  O  O32  1  0.21639000  0.52512300  0.91289500  1
  O  O33  1  0.04415000  0.74257200  0.24173200  1
  O  O34  1  0.75144900  0.27250600  0.45356800  1
  O  O35  1  0.78361000  0.47487700  0.08710500  1
