data_image0
_chemical_formula_structural       Ni3O18U6
_chemical_formula_sum              "Ni3 O18 U6"
_cell_length_a       8.60502
_cell_length_b       8.6071
_cell_length_c       5.13967
_cell_angle_alpha    89.9526
_cell_angle_beta     90
_cell_angle_gamma    119.992

_space_group_name_H-M_alt    "P 1"
_space_group_IT_number       1

loop_
  _space_group_symop_operation_xyz
  'x, y, z'

loop_
  _atom_site_type_symbol
  _atom_site_label
  _atom_site_symmetry_multiplicity
  _atom_site_fract_x
  _atom_site_fract_y
  _atom_site_fract_z
  _atom_site_occupancy
  Ni  Ni1       1.0  0.33200  0.66400  0.45200  1.0000
  Ni  Ni2       1.0  0.66800  0.33600  0.54800  1.0000
  Ni  Ni3       1.0  0.99800  0.00000  0.00000  1.0000
  O   O1        1.0  0.25600  0.80000  0.20600  1.0000
  O   O2        1.0  0.20400  0.45300  0.21100  1.0000
  O   O3        1.0  0.54600  0.75200  0.21300  1.0000
  O   O4        1.0  0.45500  0.20000  0.79400  1.0000
  O   O5        1.0  0.75100  0.54700  0.78900  1.0000
  O   O6        1.0  0.79400  0.24800  0.78700  1.0000
  O   O7        1.0  0.45600  0.57900  0.69800  1.0000
  O   O8        1.0  0.42100  0.87500  0.69200  1.0000
  O   O9        1.0  0.12200  0.54200  0.69700  1.0000
  O   O10       1.0  0.87700  0.42100  0.30200  1.0000
  O   O11       1.0  0.54600  0.12500  0.30800  1.0000
  O   O12       1.0  0.58000  0.45800  0.30300  1.0000
  O   O13       1.0  0.06570  0.85400  0.76000  1.0000
  O   O14       1.0  0.14900  0.21200  0.75800  1.0000
  O   O15       1.0  0.78700  0.93500  0.76000  1.0000
  O   O16       1.0  0.21200  0.14600  0.24000  1.0000
  O   O17       1.0  0.93800  0.78800  0.24200  1.0000
  O   O18       1.0  0.85200  0.06530  0.24000  1.0000
  U   U1        1.0  0.60900  0.00000  0.00000  1.0000
  U   U2        1.0  0.00098  0.61700  0.00034  1.0000
  U   U3        1.0  0.38400  0.38300  0.00000  1.0000
  U   U4        1.0  0.28600  0.00000  0.50000  1.0000
  U   U5        1.0  0.99800  0.28400  0.49900  1.0000
  U   U6        1.0  0.71400  0.71600  0.50100  1.0000
