# generated using pymatgen
data_Fe3(PO4)4
_symmetry_space_group_name_H-M   'P 1'
_cell_length_a   13.43536890
_cell_length_b   7.83940863
_cell_length_c   8.94117215
_cell_angle_alpha   91.11779090
_cell_angle_beta   85.69808275
_cell_angle_gamma   91.05369104
_symmetry_Int_Tables_number   1
_chemical_formula_structural   Fe3(PO4)4
_chemical_formula_sum   'Fe9 P12 O48'
_cell_volume   938.76482617
_cell_formula_units_Z   3
loop_
 _symmetry_equiv_pos_site_id
 _symmetry_equiv_pos_as_xyz
  1  'x, y, z'
loop_
 _atom_site_type_symbol
 _atom_site_label
 _atom_site_symmetry_multiplicity
 _atom_site_fract_x
 _atom_site_fract_y
 _atom_site_fract_z
 _atom_site_occupancy
  Fe  Fe0  1  0.16792400  0.13284000  0.42070800  1
  Fe  Fe1  1  0.83807600  0.02912600  0.17051000  1
  Fe  Fe2  1  0.83049700  0.63416100  0.08169200  1
  Fe  Fe3  1  0.17280500  0.00344900  0.83853000  1
  Fe  Fe4  1  0.83008100  0.49365000  0.65890800  1
  Fe  Fe5  1  0.16003700  0.53100500  0.32494500  1
  Fe  Fe6  1  0.49911200  0.86619600  0.91311700  1
  Fe  Fe7  1  0.49754400  0.99454400  0.49307500  1
  Fe  Fe8  1  0.50660300  0.46739100  0.00789500  1
  P  P9  1  0.61077600  0.79313800  0.19260500  1
  P  P10  1  0.38771300  0.19496100  0.80187000  1
  P  P11  1  0.05719700  0.31354600  0.64013000  1
  P  P12  1  0.27928100  0.70010800  0.02274000  1
  P  P13  1  0.28024200  0.80402200  0.53075900  1
  P  P14  1  0.05810700  0.20317900  0.13853700  1
  P  P15  1  0.94296600  0.70532500  0.36227200  1
  P  P16  1  0.94164300  0.81408500  0.85804400  1
  P  P17  1  0.72155800  0.19160900  0.47476100  1
  P  P18  1  0.72238300  0.29629700  0.96678800  1
  P  P19  1  0.60951900  0.68658300  0.69276100  1
  P  P20  1  0.38748600  0.29966500  0.30903200  1
  O  O21  1  0.27135000  0.29465400  0.34303900  1
  O  O22  1  0.43451100  0.42205000  0.42461000  1
  O  O23  1  0.72865500  0.79455400  0.16137700  1
  O  O24  1  0.41783700  0.14391400  0.63735500  1
  O  O25  1  0.05530700  0.81893000  0.82262200  1
  O  O26  1  0.39571900  0.70431300  0.98909800  1
  O  O27  1  0.91089700  0.85880600  0.02708500  1
  O  O28  1  0.75056000  0.35595000  0.80621300  1
  O  O29  1  0.55925000  0.86552100  0.68905200  1
  O  O30  1  0.43619500  0.12724000  0.33180000  1
  O  O31  1  0.08573000  0.13925400  0.97732600  1
  O  O32  1  0.60820100  0.17650300  0.51774600  1
  O  O33  1  0.43053800  0.37356400  0.83806800  1
  O  O34  1  0.94299600  0.31690500  0.67088400  1
  O  O35  1  0.74491500  0.13364500  0.31177400  1
  O  O36  1  0.39518900  0.80804900  0.50510200  1
  O  O37  1  0.24884000  0.85292100  0.69532700  1
  O  O38  1  0.10126300  0.38459500  0.16508300  1
  O  O39  1  0.09873500  0.07867300  0.25136700  1
  O  O40  1  0.76798800  0.36941300  0.49703900  1
  O  O41  1  0.94266300  0.20368400  0.16317700  1
  O  O42  1  0.57689600  0.63892600  0.85888300  1
  O  O43  1  0.75664000  0.06081900  0.59108000  1
  O  O44  1  0.09083700  0.36057000  0.47426500  1
  O  O45  1  0.23103900  0.57620400  0.91017100  1
  O  O46  1  0.90247800  0.57872800  0.24497700  1
  O  O47  1  0.08576900  0.44080100  0.76312400  1
  O  O48  1  0.60679200  0.29142300  0.99160200  1
  O  O49  1  0.56694400  0.61299600  0.16554200  1
  O  O50  1  0.91411200  0.64115600  0.52193800  1
  O  O51  1  0.10677100  0.13384000  0.64427000  1
  O  O52  1  0.58551900  0.85798000  0.35336800  1
  O  O53  1  0.57179500  0.91911400  0.07987400  1
  O  O54  1  0.25844800  0.63459000  0.18210800  1
  O  O55  1  0.76165700  0.42883700  0.07952500  1
  O  O56  1  0.23264000  0.87443200  0.00133800  1
  O  O57  1  0.88834200  0.63380900  0.85054800  1
  O  O58  1  0.05903200  0.70535500  0.34081800  1
  O  O59  1  0.91038400  0.94163000  0.74323800  1
  O  O60  1  0.57978200  0.55952700  0.57025900  1
  O  O61  1  0.27272500  0.19158200  0.82755300  1
  O  O62  1  0.42921200  0.06614000  0.90849900  1
  O  O63  1  0.90221700  0.88509000  0.33806000  1
  O  O64  1  0.76698800  0.12203000  0.99815000  1
  O  O65  1  0.23798400  0.62542800  0.49219000  1
  O  O66  1  0.72360100  0.68560500  0.66209600  1
  O  O67  1  0.23908800  0.93385300  0.42477500  1
  O  O68  1  0.40765900  0.36415500  0.14955200  1
