# generated using pymatgen
data_NaV13O18
_symmetry_space_group_name_H-M   'P 1'
_cell_length_a   8.00532648
_cell_length_b   8.00532648
_cell_length_c   8.00532623
_cell_angle_alpha   110.66448239
_cell_angle_beta   110.66448239
_cell_angle_gamma   110.66448581
_symmetry_Int_Tables_number   1
_chemical_formula_structural   NaV13O18
_chemical_formula_sum   'Na1 V13 O18'
_cell_volume   376.46970899
_cell_formula_units_Z   1
loop_
 _symmetry_equiv_pos_site_id
 _symmetry_equiv_pos_as_xyz
  1  'x, y, z'
loop_
 _atom_site_type_symbol
 _atom_site_label
 _atom_site_symmetry_multiplicity
 _atom_site_fract_x
 _atom_site_fract_y
 _atom_site_fract_z
 _atom_site_occupancy
  Na  Na0  1  0.00000000  0.00000000  0.00000000  1
  V  V1  1  0.88233500  0.07162400  0.56687100  1
  V  V2  1  0.92837600  0.43312900  0.11766500  1
  V  V3  1  0.76778100  0.34395700  0.40048500  1
  V  V4  1  0.59951500  0.23221900  0.65604300  1
  V  V5  1  0.43312900  0.11766500  0.92837600  1
  V  V6  1  0.65604300  0.59951500  0.23221900  1
  V  V7  1  0.50000000  0.50000000  0.50000000  1
  V  V8  1  0.34395700  0.40048500  0.76778100  1
  V  V9  1  0.56687100  0.88233500  0.07162400  1
  V  V10  1  0.40048500  0.76778100  0.34395700  1
  V  V11  1  0.23221900  0.65604300  0.59951500  1
  V  V12  1  0.07162400  0.56687100  0.88233500  1
  V  V13  1  0.11766500  0.92837600  0.43312900  1
  O  O14  1  0.88008000  0.26641700  0.82460200  1
  O  O15  1  0.73358300  0.17539800  0.11992000  1
  O  O16  1  0.60038300  0.05152300  0.38400000  1
  O  O17  1  0.94847700  0.61600000  0.39961700  1
  O  O18  1  0.77109300  0.49146100  0.66478700  1
  O  O19  1  0.61600000  0.39961700  0.94847700  1
  O  O20  1  0.50853900  0.33521300  0.22890700  1
  O  O21  1  0.33521300  0.22890700  0.50853900  1
  O  O22  1  0.17539800  0.11992000  0.73358300  1
  O  O23  1  0.82460200  0.88008000  0.26641700  1
  O  O24  1  0.66478700  0.77109300  0.49146100  1
  O  O25  1  0.49146100  0.66478700  0.77109300  1
  O  O26  1  0.38400000  0.60038300  0.05152300  1
  O  O27  1  0.22890700  0.50853900  0.33521300  1
  O  O28  1  0.05152300  0.38400000  0.60038300  1
  O  O29  1  0.39961700  0.94847700  0.61600000  1
  O  O30  1  0.26641700  0.82460200  0.88008000  1
  O  O31  1  0.11992000  0.73358300  0.17539800  1
