# generated using pymatgen
data_NaFe11O17
_symmetry_space_group_name_H-M   'P 1'
_cell_length_a   6.03295550
_cell_length_b   6.04828572
_cell_length_c   24.09568696
_cell_angle_alpha   89.72565107
_cell_angle_beta   90.10980197
_cell_angle_gamma   119.86123068
_symmetry_Int_Tables_number   1
_chemical_formula_structural   NaFe11O17
_chemical_formula_sum   'Na2 Fe22 O34'
_cell_volume   762.48782614
_cell_formula_units_Z   2
loop_
 _symmetry_equiv_pos_site_id
 _symmetry_equiv_pos_as_xyz
  1  'x, y, z'
loop_
 _atom_site_type_symbol
 _atom_site_label
 _atom_site_symmetry_multiplicity
 _atom_site_fract_x
 _atom_site_fract_y
 _atom_site_fract_z
 _atom_site_occupancy
  Na  Na0  1  0.33288100  0.66644400  0.74861400  1
  Na  Na1  1  0.66344900  0.33239500  0.24946100  1
  Fe  Fe2  1  0.16727900  0.83205800  0.60651500  1
  Fe  Fe3  1  0.16757700  0.83190700  0.89393300  1
  Fe  Fe4  1  0.33349500  0.66911400  0.17398800  1
  Fe  Fe5  1  0.33338600  0.66480600  0.02553900  1
  Fe  Fe6  1  0.99763400  0.99685600  0.00014600  1
  Fe  Fe7  1  0.99970500  0.99978500  0.50002000  1
  Fe  Fe8  1  0.33410100  0.66812700  0.32515100  1
  Fe  Fe9  1  0.33281400  0.66569100  0.47469200  1
  Fe  Fe10  1  0.16728500  0.33482700  0.60644100  1
  Fe  Fe11  1  0.16783500  0.33517200  0.89395800  1
  Fe  Fe12  1  0.34009700  0.17456300  0.10324100  1
  Fe  Fe13  1  0.33548300  0.16778000  0.39350400  1
  Fe  Fe14  1  0.66431700  0.83204700  0.60648400  1
  Fe  Fe15  1  0.66450400  0.83166900  0.89384000  1
  Fe  Fe16  1  0.83266700  0.66497600  0.39362600  1
  Fe  Fe17  1  0.83494400  0.66725600  0.10708400  1
  Fe  Fe18  1  0.66636800  0.33210200  0.67473200  1
  Fe  Fe19  1  0.66701500  0.33344300  0.82584900  1
  Fe  Fe20  1  0.66660500  0.33385400  0.52529700  1
  Fe  Fe21  1  0.66482700  0.33281400  0.97507300  1
  Fe  Fe22  1  0.83257300  0.16793200  0.39351900  1
  Fe  Fe23  1  0.83182400  0.16589700  0.10712600  1
  O  O24  1  0.14921500  0.83213000  0.04927500  1
  O  O25  1  0.98784400  0.49439400  0.35238800  1
  O  O26  1  0.01338100  0.50614300  0.64798200  1
  O  O27  1  0.98584100  0.49033300  0.14776400  1
  O  O28  1  0.15670200  0.84301200  0.44927800  1
  O  O29  1  0.01351600  0.50740300  0.85266700  1
  O  O30  1  0.15669800  0.31345800  0.44925100  1
  O  O31  1  0.33329700  0.66739200  0.24961800  1
  O  O32  1  0.01446900  0.00588500  0.14163500  1
  O  O33  1  0.00012800  0.00039600  0.35705800  1
  O  O34  1  0.99956200  0.99935700  0.64303400  1
  O  O35  1  0.00020900  0.00091900  0.85752200  1
  O  O36  1  0.33310200  0.66661200  0.55525000  1
  O  O37  1  0.33323300  0.66564500  0.94507600  1
  O  O38  1  0.15951000  0.31076600  0.05147800  1
  O  O39  1  0.31362900  0.15682900  0.55089400  1
  O  O40  1  0.31277700  0.15635600  0.94947000  1
  O  O41  1  0.51417700  0.50511200  0.14815700  1
  O  O42  1  0.50699800  0.49400300  0.35226200  1
  O  O43  1  0.49293700  0.50602600  0.64790600  1
  O  O44  1  0.49397100  0.50689300  0.85262100  1
  O  O45  1  0.68629700  0.84434400  0.05121500  1
  O  O46  1  0.68592100  0.84284800  0.44926700  1
  O  O47  1  0.50101900  0.01452400  0.14648900  1
  O  O48  1  0.50703900  0.01396200  0.35200300  1
  O  O49  1  0.49300900  0.98609800  0.64805400  1
  O  O50  1  0.66645900  0.33298300  0.44484800  1
  O  O51  1  0.49340500  0.98708600  0.85264800  1
  O  O52  1  0.66769500  0.33363800  0.75029800  1
  O  O53  1  0.66057000  0.32886900  0.05580300  1
  O  O54  1  0.84068100  0.68499400  0.94935300  1
  O  O55  1  0.84285900  0.68600700  0.55091200  1
  O  O56  1  0.84235700  0.15743500  0.94981200  1
  O  O57  1  0.84292500  0.15682700  0.55087800  1
