# generated using pymatgen
data_Co2(PO3)5
_symmetry_space_group_name_H-M   'P 1'
_cell_length_a   8.48690300
_cell_length_b   5.29682400
_cell_length_c   13.51356406
_cell_angle_alpha   71.57566602
_cell_angle_beta   90.00000000
_cell_angle_gamma   90.00000000
_symmetry_Int_Tables_number   1
_chemical_formula_structural   Co2(PO3)5
_chemical_formula_sum   'Co4 P10 O30'
_cell_volume   576.34529479
_cell_formula_units_Z   2
loop_
 _symmetry_equiv_pos_site_id
 _symmetry_equiv_pos_as_xyz
  1  'x, y, z'
loop_
 _atom_site_type_symbol
 _atom_site_label
 _atom_site_symmetry_multiplicity
 _atom_site_fract_x
 _atom_site_fract_y
 _atom_site_fract_z
 _atom_site_occupancy
  Co  Co0  1  0.27975800  0.09882300  0.03771000  1
  Co  Co1  1  0.71215500  0.90349200  0.96499100  1
  Co  Co2  1  0.28784500  0.90349200  0.46499100  1
  Co  Co3  1  0.72024200  0.09882300  0.53771000  1
  P  P4  1  0.50387900  0.46191300  0.14483000  1
  P  P5  1  0.82480700  0.31807100  0.10014400  1
  P  P6  1  0.82392400  0.68509300  0.39988500  1
  P  P7  1  0.49612100  0.46191300  0.64483000  1
  P  P8  1  0.17607600  0.68509300  0.89988500  1
  P  P9  1  0.49432000  0.52550700  0.85904800  1
  P  P10  1  0.50568000  0.52550700  0.35904800  1
  P  P11  1  0.92982900  0.00237200  0.75009300  1
  P  P12  1  0.17519300  0.31807100  0.60014400  1
  P  P13  1  0.07017100  0.00237200  0.25009300  1
  O  O14  1  0.52321100  0.73987000  0.06989700  1
  O  O15  1  0.33177000  0.30725700  0.67123600  1
  O  O16  1  0.67080600  0.68038000  0.32875300  1
  O  O17  1  0.47061100  0.25023400  0.93626200  1
  O  O18  1  0.61638500  0.27822700  0.62331500  1
  O  O19  1  0.15805600  0.08812300  0.33047600  1
  O  O20  1  0.85515200  0.60073400  0.03476600  1
  O  O21  1  0.95205000  0.75970100  0.30948200  1
  O  O22  1  0.95045900  0.24212400  0.19340800  1
  O  O23  1  0.66823000  0.30725700  0.17123600  1
  O  O24  1  0.04954100  0.24212400  0.69340800  1
  O  O25  1  0.85634400  0.40730800  0.47018300  1
  O  O26  1  0.19687300  0.89866200  0.95060100  1
  O  O27  1  0.54917500  0.48502600  0.75346200  1
  O  O28  1  0.38361500  0.27822700  0.12331500  1
  O  O29  1  0.47678900  0.73987000  0.56989700  1
  O  O30  1  0.15234600  0.91279600  0.16794300  1
  O  O31  1  0.38685800  0.70886800  0.37987700  1
  O  O32  1  0.14484800  0.60073400  0.53476600  1
  O  O33  1  0.84194400  0.08812300  0.83047600  1
  O  O34  1  0.80312700  0.89866200  0.45060100  1
  O  O35  1  0.45082500  0.48502600  0.25346200  1
  O  O36  1  0.61314200  0.70886800  0.87987700  1
  O  O37  1  0.14365600  0.40730800  0.97018300  1
  O  O38  1  0.04795000  0.75970100  0.80948200  1
  O  O39  1  0.52938900  0.25023400  0.43626200  1
  O  O40  1  0.80975200  0.10862400  0.04801500  1
  O  O41  1  0.84765400  0.91279600  0.66794300  1
  O  O42  1  0.32919400  0.68038000  0.82875300  1
  O  O43  1  0.19024800  0.10862400  0.54801500  1
