# generated using pymatgen
data_Sn2(SO4)3
_symmetry_space_group_name_H-M   'P 1'
_cell_length_a   8.72120400
_cell_length_b   8.84881300
_cell_length_c   26.21943400
_cell_angle_alpha   90.00000000
_cell_angle_beta   90.00000000
_cell_angle_gamma   90.00000000
_symmetry_Int_Tables_number   1
_chemical_formula_structural   Sn2(SO4)3
_chemical_formula_sum   'Sn16 S24 O96'
_cell_volume   2023.41411381
_cell_formula_units_Z   8
loop_
 _symmetry_equiv_pos_site_id
 _symmetry_equiv_pos_as_xyz
  1  'x, y, z'
loop_
 _atom_site_type_symbol
 _atom_site_label
 _atom_site_symmetry_multiplicity
 _atom_site_fract_x
 _atom_site_fract_y
 _atom_site_fract_z
 _atom_site_occupancy
  Sn  Sn0  1  0.61981200  0.02792700  0.06406300  1
  Sn  Sn1  1  0.88018800  0.02792700  0.56406300  1
  Sn  Sn2  1  0.21286600  0.99561800  0.18027900  1
  Sn  Sn3  1  0.28713400  0.99561800  0.68027900  1
  Sn  Sn4  1  0.71286600  0.50438200  0.18027900  1
  Sn  Sn5  1  0.78713400  0.50438200  0.68027900  1
  Sn  Sn6  1  0.38018800  0.47207300  0.56406300  1
  Sn  Sn7  1  0.11981200  0.47207300  0.06406300  1
  Sn  Sn8  1  0.61981200  0.52792700  0.43593700  1
  Sn  Sn9  1  0.88018800  0.52792700  0.93593700  1
  Sn  Sn10  1  0.28713400  0.49561800  0.81972100  1
  Sn  Sn11  1  0.21286600  0.49561800  0.31972100  1
  Sn  Sn12  1  0.71286600  0.00438200  0.31972100  1
  Sn  Sn13  1  0.78713400  0.00438200  0.81972100  1
  Sn  Sn14  1  0.11981200  0.97207300  0.43593700  1
  Sn  Sn15  1  0.38018800  0.97207300  0.93593700  1
  S  S16  1  0.07487300  0.85425300  0.29482300  1
  S  S17  1  0.42512700  0.85425300  0.79482300  1
  S  S18  1  0.72498700  0.89555800  0.44059700  1
  S  S19  1  0.77501300  0.89555800  0.94059700  1
  S  S20  1  0.91729900  0.80352400  0.12863500  1
  S  S21  1  0.58270100  0.80352400  0.62863500  1
  S  S22  1  0.41729900  0.69647600  0.12863500  1
  S  S23  1  0.08270100  0.69647600  0.62863500  1
  S  S24  1  0.22498700  0.60444200  0.44059700  1
  S  S25  1  0.27501300  0.60444200  0.94059700  1
  S  S26  1  0.57487300  0.64574700  0.29482300  1
  S  S27  1  0.92512700  0.64574700  0.79482300  1
  S  S28  1  0.42512700  0.35425300  0.70517700  1
  S  S29  1  0.07487300  0.35425300  0.20517700  1
  S  S30  1  0.72498700  0.39555800  0.05940300  1
  S  S31  1  0.77501300  0.39555800  0.55940300  1
  S  S32  1  0.91729900  0.30352400  0.37136500  1
  S  S33  1  0.58270100  0.30352400  0.87136500  1
  S  S34  1  0.41729900  0.19647600  0.37136500  1
  S  S35  1  0.08270100  0.19647600  0.87136500  1
  S  S36  1  0.22498700  0.10444200  0.05940300  1
  S  S37  1  0.27501300  0.10444200  0.55940300  1
  S  S38  1  0.57487300  0.14574700  0.20517700  1
  S  S39  1  0.92512700  0.14574700  0.70517700  1
  O  O40  1  0.56304400  0.92389900  0.43815200  1
  O  O41  1  0.93695600  0.92389900  0.93815200  1
  O  O42  1  0.91309700  0.90231500  0.28284800  1
  O  O43  1  0.58690300  0.90231500  0.78284800  1
  O  O44  1  0.81442100  0.00339200  0.47227800  1
  O  O45  1  0.68557900  0.00339200  0.97227800  1
  O  O46  1  0.13241700  0.91397600  0.34243500  1
  O  O47  1  0.36758300  0.91397600  0.84243500  1
  O  O48  1  0.81817900  0.88238200  0.09267500  1
  O  O49  1  0.68182100  0.88238200  0.59267500  1
  O  O50  1  0.17887600  0.90664600  0.25257800  1
  O  O51  1  0.32112400  0.90664600  0.75257800  1
  O  O52  1  0.99364300  0.92080100  0.16295300  1
  O  O53  1  0.50635700  0.92080100  0.66295300  1
  O  O54  1  0.79762100  0.91298900  0.38464700  1
  O  O55  1  0.70237900  0.91298900  0.88464700  1
  O  O56  1  0.57620100  0.81622000  0.29373800  1
  O  O57  1  0.92379900  0.81622000  0.79373800  1
  O  O58  1  0.32255800  0.78732000  0.16702300  1
  O  O59  1  0.17744200  0.78732000  0.66702300  1
  O  O60  1  0.27015800  0.76020400  0.45475900  1
  O  O61  1  0.22984200  0.76020400  0.95475900  1
  O  O62  1  0.96901000  0.78849900  0.60323500  1
  O  O63  1  0.53099000  0.78849900  0.10323500  1
  O  O64  1  0.46901000  0.71150100  0.60323500  1
  O  O65  1  0.03099000  0.71150100  0.10323500  1
  O  O66  1  0.72984200  0.73979600  0.95475900  1
  O  O67  1  0.77015800  0.73979600  0.45475900  1
  O  O68  1  0.82255800  0.71268000  0.16702300  1
  O  O69  1  0.67744200  0.71268000  0.66702300  1
  O  O70  1  0.07620100  0.68378000  0.29373800  1
  O  O71  1  0.42379900  0.68378000  0.79373800  1
  O  O72  1  0.29762100  0.58701100  0.38464700  1
  O  O73  1  0.20237900  0.58701100  0.88464700  1
  O  O74  1  0.00635700  0.57919900  0.66295300  1
  O  O75  1  0.49364300  0.57919900  0.16295300  1
  O  O76  1  0.67887600  0.59335400  0.25257800  1
  O  O77  1  0.82112400  0.59335400  0.75257800  1
  O  O78  1  0.31817900  0.61761800  0.09267500  1
  O  O79  1  0.18182100  0.61761800  0.59267500  1
  O  O80  1  0.86758300  0.58602400  0.84243500  1
  O  O81  1  0.63241700  0.58602400  0.34243500  1
  O  O82  1  0.18557900  0.49660800  0.97227800  1
  O  O83  1  0.31442100  0.49660800  0.47227800  1
  O  O84  1  0.41309700  0.59768500  0.28284800  1
  O  O85  1  0.08690300  0.59768500  0.78284800  1
  O  O86  1  0.43695600  0.57610100  0.93815200  1
  O  O87  1  0.06304400  0.57610100  0.43815200  1
  O  O88  1  0.56304400  0.42389900  0.06184800  1
  O  O89  1  0.93695600  0.42389900  0.56184800  1
  O  O90  1  0.91309700  0.40231500  0.21715200  1
  O  O91  1  0.58690300  0.40231500  0.71715200  1
  O  O92  1  0.81442100  0.50339200  0.02772200  1
  O  O93  1  0.68557900  0.50339200  0.52772200  1
  O  O94  1  0.36758300  0.41397600  0.65756500  1
  O  O95  1  0.13241700  0.41397600  0.15756500  1
  O  O96  1  0.81817900  0.38238200  0.40732500  1
  O  O97  1  0.68182100  0.38238200  0.90732500  1
  O  O98  1  0.17887600  0.40664600  0.24742200  1
  O  O99  1  0.32112400  0.40664600  0.74742200  1
  O  O100  1  0.99364300  0.42080100  0.33704700  1
  O  O101  1  0.50635700  0.42080100  0.83704700  1
  O  O102  1  0.79762100  0.41298900  0.11535300  1
  O  O103  1  0.70237900  0.41298900  0.61535300  1
  O  O104  1  0.57620100  0.31622000  0.20626200  1
  O  O105  1  0.92379900  0.31622000  0.70626200  1
  O  O106  1  0.32255800  0.28732000  0.33297700  1
  O  O107  1  0.17744200  0.28732000  0.83297700  1
  O  O108  1  0.27015800  0.26020400  0.04524100  1
  O  O109  1  0.22984200  0.26020400  0.54524100  1
  O  O110  1  0.53099000  0.28849900  0.39676500  1
  O  O111  1  0.96901000  0.28849900  0.89676500  1
  O  O112  1  0.03099000  0.21150100  0.39676500  1
  O  O113  1  0.46901000  0.21150100  0.89676500  1
  O  O114  1  0.77015800  0.23979600  0.04524100  1
  O  O115  1  0.72984200  0.23979600  0.54524100  1
  O  O116  1  0.82255800  0.21268000  0.33297700  1
  O  O117  1  0.67744200  0.21268000  0.83297700  1
  O  O118  1  0.42379900  0.18378000  0.70626200  1
  O  O119  1  0.07620100  0.18378000  0.20626200  1
  O  O120  1  0.29762100  0.08701100  0.11535300  1
  O  O121  1  0.20237900  0.08701100  0.61535300  1
  O  O122  1  0.49364300  0.07919900  0.33704700  1
  O  O123  1  0.00635700  0.07919900  0.83704700  1
  O  O124  1  0.67887600  0.09335400  0.24742200  1
  O  O125  1  0.82112400  0.09335400  0.74742200  1
  O  O126  1  0.31817900  0.11761800  0.40732500  1
  O  O127  1  0.18182100  0.11761800  0.90732500  1
  O  O128  1  0.63241700  0.08602400  0.15756500  1
  O  O129  1  0.86758300  0.08602400  0.65756500  1
  O  O130  1  0.31442100  0.99660800  0.02772200  1
  O  O131  1  0.18557900  0.99660800  0.52772200  1
  O  O132  1  0.41309700  0.09768500  0.21715200  1
  O  O133  1  0.08690300  0.09768500  0.71715200  1
  O  O134  1  0.43695600  0.07610100  0.56184800  1
  O  O135  1  0.06304400  0.07610100  0.06184800  1
