# generated using pymatgen
data_NaV2O5
_symmetry_space_group_name_H-M   'P 1'
_cell_length_a   3.71284400
_cell_length_b   6.52949700
_cell_length_c   11.32932000
_cell_angle_alpha   90.00000000
_cell_angle_beta   90.00000000
_cell_angle_gamma   90.00000000
_symmetry_Int_Tables_number   1
_chemical_formula_structural   NaV2O5
_chemical_formula_sum   'Na2 V4 O10'
_cell_volume   274.65674735
_cell_formula_units_Z   2
loop_
 _symmetry_equiv_pos_site_id
 _symmetry_equiv_pos_as_xyz
  1  'x, y, z'
loop_
 _atom_site_type_symbol
 _atom_site_label
 _atom_site_symmetry_multiplicity
 _atom_site_fract_x
 _atom_site_fract_y
 _atom_site_fract_z
 _atom_site_occupancy
  Na  Na0  1  0.50000000  0.40696200  0.00000000  1
  Na  Na1  1  0.00000000  0.59303800  0.50000000  1
  V  V2  1  0.00000000  0.07996300  0.15122000  1
  V  V3  1  0.50000000  0.92003700  0.34878000  1
  V  V4  1  0.50000000  0.92003700  0.65122000  1
  V  V5  1  0.00000000  0.07996300  0.84878000  1
  O  O6  1  0.00000000  0.98469600  0.00000000  1
  O  O7  1  0.00000000  0.33354700  0.13427900  1
  O  O8  1  0.50000000  0.00829500  0.18113300  1
  O  O9  1  0.00000000  0.99170500  0.31886700  1
  O  O10  1  0.50000000  0.66645300  0.36572100  1
  O  O11  1  0.50000000  0.01530400  0.50000000  1
  O  O12  1  0.50000000  0.66645300  0.63427900  1
  O  O13  1  0.00000000  0.99170500  0.68113300  1
  O  O14  1  0.50000000  0.00829500  0.81886700  1
  O  O15  1  0.00000000  0.33354700  0.86572100  1
