# generated using pymatgen
data_Cr(PO3)5
_symmetry_space_group_name_H-M   'P 1'
_cell_length_a   12.20207178
_cell_length_b   10.45257200
_cell_length_c   5.03268467
_cell_angle_alpha   90.00000000
_cell_angle_beta   91.80736504
_cell_angle_gamma   90.00000000
_symmetry_Int_Tables_number   1
_chemical_formula_structural   Cr(PO3)5
_chemical_formula_sum   'Cr2 P10 O30'
_cell_volume   641.56454297
_cell_formula_units_Z   2
loop_
 _symmetry_equiv_pos_site_id
 _symmetry_equiv_pos_as_xyz
  1  'x, y, z'
loop_
 _atom_site_type_symbol
 _atom_site_label
 _atom_site_symmetry_multiplicity
 _atom_site_fract_x
 _atom_site_fract_y
 _atom_site_fract_z
 _atom_site_occupancy
  Cr  Cr0  1  0.99712200  0.00175200  0.00381100  1
  Cr  Cr1  1  0.49712200  0.99824800  0.50381200  1
  P  P2  1  0.74708000  0.98832900  0.75471400  1
  P  P3  1  0.84852100  0.55787900  0.43628100  1
  P  P4  1  0.08052900  0.16667300  0.51684000  1
  P  P5  1  0.15201000  0.44302100  0.56640600  1
  P  P6  1  0.24708000  0.01167100  0.25471500  1
  P  P7  1  0.34852200  0.44212100  0.93628200  1
  P  P8  1  0.41499500  0.16457700  0.99159000  1
  P  P9  1  0.58052900  0.83332700  0.01683900  1
  P  P10  1  0.65201000  0.55697900  0.06640600  1
  P  P11  1  0.91499500  0.83542300  0.49159000  1
  O  O12  1  0.69203800  0.47973000  0.80782100  1
  O  O13  1  0.99860300  0.88706000  0.68865100  1
  O  O14  1  0.99655400  0.11655100  0.31882800  1
  O  O15  1  0.05577800  0.15427600  0.80594200  1
  O  O16  1  0.07823700  0.52700700  0.70840900  1
  O  O17  1  0.10441100  0.31309900  0.44410800  1
  O  O18  1  0.19203800  0.52027000  0.30782100  1
  O  O19  1  0.15294200  0.94276400  0.11878400  1
  O  O20  1  0.19977800  0.10661600  0.47546800  1
  O  O21  1  0.25027200  0.38575400  0.75080000  1
  O  O22  1  0.29471000  0.10882200  0.03823400  1
  O  O23  1  0.34089100  0.94076200  0.38738900  1
  O  O24  1  0.30838300  0.52082500  0.19275100  1
  O  O25  1  0.39470900  0.31208700  0.06119600  1
  O  O26  1  0.43826800  0.15016800  0.70208800  1
  O  O27  1  0.42341300  0.52478900  0.79455800  1
  O  O28  1  0.49655400  0.88344900  0.81882700  1
  O  O29  1  0.49860300  0.11294000  0.18865300  1
  O  O30  1  0.55577800  0.84572400  0.30594300  1
  O  O31  1  0.93826700  0.84983200  0.20208900  1
  O  O32  1  0.60441200  0.68690100  0.94410900  1
  O  O33  1  0.92341200  0.47521100  0.29455700  1
  O  O34  1  0.65294200  0.05723600  0.61878400  1
  O  O35  1  0.69977800  0.89338400  0.97546800  1
  O  O36  1  0.75027200  0.61424600  0.25080100  1
  O  O37  1  0.79470900  0.89117800  0.53823500  1
  O  O38  1  0.84089100  0.05923800  0.88738800  1
  O  O39  1  0.80838300  0.47917500  0.69275100  1
  O  O40  1  0.89470900  0.68791300  0.56119600  1
  O  O41  1  0.57823700  0.47299200  0.20840800  1
