# generated using pymatgen
data_Yb16S29
_symmetry_space_group_name_H-M   'P 1'
_cell_length_a   11.19279787
_cell_length_b   11.19279787
_cell_length_c   11.19279787
_cell_angle_alpha   122.72738979
_cell_angle_beta   122.72738979
_cell_angle_gamma   85.33756444
_symmetry_Int_Tables_number   1
_chemical_formula_structural   Yb16S29
_chemical_formula_sum   'Yb16 S29'
_cell_volume   947.22218493
_cell_formula_units_Z   1
loop_
 _symmetry_equiv_pos_site_id
 _symmetry_equiv_pos_as_xyz
  1  'x, y, z'
loop_
 _atom_site_type_symbol
 _atom_site_label
 _atom_site_symmetry_multiplicity
 _atom_site_fract_x
 _atom_site_fract_y
 _atom_site_fract_z
 _atom_site_occupancy
  Yb  Yb0  1  0.98065900  0.98065900  0.25139700  1
  Yb  Yb1  1  0.01478600  0.77047000  0.49907500  1
  Yb  Yb2  1  0.23072300  0.23072300  0.74513300  1
  Yb  Yb3  1  0.48428900  0.98521400  0.75568400  1
  Yb  Yb4  1  0.27073800  0.01934100  0.00000000  1
  Yb  Yb5  1  0.51441000  0.76927700  0.00000000  1
  Yb  Yb6  1  0.48559000  0.48559000  0.25486700  1
  Yb  Yb7  1  0.72860600  0.22953000  0.24431600  1
  Yb  Yb8  1  0.51571100  0.27139400  0.50092500  1
  Yb  Yb9  1  0.77047000  0.01478600  0.49907500  1
  Yb  Yb10  1  0.72926200  0.72926200  0.74860300  1
  Yb  Yb11  1  0.98521400  0.48428900  0.75568400  1
  Yb  Yb12  1  0.76927700  0.51441000  0.00000000  1
  Yb  Yb13  1  0.01934100  0.27073800  0.00000000  1
  Yb  Yb14  1  0.22953000  0.72860600  0.24431600  1
  Yb  Yb15  1  0.27139400  0.51571100  0.50092500  1
  S  S16  1  0.25941000  0.25941000  0.51821900  1
  S  S17  1  0.50000000  0.24496400  0.74496400  1
  S  S18  1  0.74059000  0.25880900  0.00000000  1
  S  S19  1  0.80203000  0.80203000  0.24239900  1
  S  S20  1  0.75503600  0.50000000  0.25503600  1
  S  S21  1  0.00000000  0.23175300  0.23175300  1
  S  S22  1  0.74119100  0.74119100  0.48178100  1
  S  S23  1  0.19758900  0.94004300  0.49920700  1
  S  S24  1  0.06098000  0.06098000  0.75248700  1
  S  S25  1  0.00000000  0.76824700  0.76824700  1
  S  S26  1  0.30161800  0.80241100  0.74245400  1
  S  S27  1  0.24496400  0.50000000  0.74496400  1
  S  S28  1  0.00000000  0.00000000  0.00000000  1
  S  S29  1  0.44037000  0.19797000  0.00000000  1
  S  S30  1  0.25880900  0.74059000  0.00000000  1
  S  S31  1  0.69150700  0.93902000  0.00000000  1
  S  S32  1  0.30849300  0.30849300  0.24751300  1
  S  S33  1  0.23175300  0.00000000  0.23175300  1
  S  S34  1  0.55916400  0.05995700  0.25754600  1
  S  S35  1  0.50000000  0.75503600  0.25503600  1
  S  S36  1  0.69838200  0.44083600  0.50079300  1
  S  S37  1  0.94004300  0.19758900  0.49920700  1
  S  S38  1  0.55963000  0.55963000  0.75760100  1
  S  S39  1  0.80241100  0.30161800  0.74245400  1
  S  S40  1  0.76824700  0.00000000  0.76824700  1
  S  S41  1  0.93902000  0.69150700  0.00000000  1
  S  S42  1  0.19797000  0.44037000  0.00000000  1
  S  S43  1  0.05995700  0.55916400  0.25754600  1
  S  S44  1  0.44083600  0.69838200  0.50079300  1
