# generated using pymatgen
data_YAgSe2
_symmetry_space_group_name_H-M   'P 1'
_cell_length_a   7.35836738
_cell_length_b   7.35836738
_cell_length_c   7.35836738
_cell_angle_alpha   134.30305203
_cell_angle_beta   134.30305203
_cell_angle_gamma   66.61504954
_symmetry_Int_Tables_number   1
_chemical_formula_structural   YAgSe2
_chemical_formula_sum   'Y2 Ag2 Se4'
_cell_volume   200.81564361
_cell_formula_units_Z   2
loop_
 _symmetry_equiv_pos_site_id
 _symmetry_equiv_pos_as_xyz
  1  'x, y, z'
loop_
 _atom_site_type_symbol
 _atom_site_label
 _atom_site_symmetry_multiplicity
 _atom_site_fract_x
 _atom_site_fract_y
 _atom_site_fract_z
 _atom_site_occupancy
  Y  Y0  1  0.00000000  0.00000000  0.00000000  1
  Y  Y1  1  0.75000000  0.25000000  0.50000000  1
  Ag  Ag2  1  0.50000000  0.50000000  0.00000000  1
  Ag  Ag3  1  0.25000000  0.75000000  0.50000000  1
  Se  Se4  1  0.76602400  0.76602400  0.00000000  1
  Se  Se5  1  0.23397600  0.23397600  0.00000000  1
  Se  Se6  1  0.98397600  0.48397600  0.50000000  1
  Se  Se7  1  0.51602400  0.01602400  0.50000000  1
