# generated using pymatgen
data_NaCu3O2
_symmetry_space_group_name_H-M   'P 1'
_cell_length_a   5.55213400
_cell_length_b   6.27997302
_cell_length_c   5.95756900
_cell_angle_alpha   61.68420870
_cell_angle_beta   90.00000000
_cell_angle_gamma   63.76519736
_symmetry_Int_Tables_number   1
_chemical_formula_structural   NaCu3O2
_chemical_formula_sum   'Na2 Cu6 O4'
_cell_volume   158.14355169
_cell_formula_units_Z   2
loop_
 _symmetry_equiv_pos_site_id
 _symmetry_equiv_pos_as_xyz
  1  'x, y, z'
loop_
 _atom_site_type_symbol
 _atom_site_label
 _atom_site_symmetry_multiplicity
 _atom_site_fract_x
 _atom_site_fract_y
 _atom_site_fract_z
 _atom_site_occupancy
  Na  Na0  1  0.75000000  0.00000000  0.50000000  1
  Na  Na1  1  0.25000000  0.00000000  0.50000000  1
  Cu  Cu2  1  0.00000000  0.00000000  0.00000000  1
  Cu  Cu3  1  0.50000000  0.00000000  0.00000000  1
  Cu  Cu4  1  0.50000000  0.50000000  0.00000000  1
  Cu  Cu5  1  0.00000000  0.50000000  0.00000000  1
  Cu  Cu6  1  0.00000000  0.50000000  0.50000000  1
  Cu  Cu7  1  0.50000000  0.50000000  0.50000000  1
  O  O8  1  0.38103000  0.23794000  0.13613000  1
  O  O9  1  0.88103000  0.23794000  0.62593000  1
  O  O10  1  0.11897000  0.76206000  0.37407000  1
  O  O11  1  0.61897000  0.76206000  0.86387000  1
