# generated using pymatgen
data_NaMnPCO7
_symmetry_space_group_name_H-M   'P 1'
_cell_length_a   9.01970171
_cell_length_b   8.17963492
_cell_length_c   8.20810111
_cell_angle_alpha   99.86134083
_cell_angle_beta   89.93270792
_cell_angle_gamma   87.62465129
_symmetry_Int_Tables_number   1
_chemical_formula_structural   NaMnPCO7
_chemical_formula_sum   'Na4 Mn4 P4 C4 O28'
_cell_volume   596.09516754
_cell_formula_units_Z   4
loop_
 _symmetry_equiv_pos_site_id
 _symmetry_equiv_pos_as_xyz
  1  'x, y, z'
loop_
 _atom_site_type_symbol
 _atom_site_label
 _atom_site_symmetry_multiplicity
 _atom_site_fract_x
 _atom_site_fract_y
 _atom_site_fract_z
 _atom_site_occupancy
  Na  Na0  1  0.76608700  0.37268900  0.37906800  1
  Na  Na1  1  0.76656100  0.62465300  0.12517800  1
  Na  Na2  1  0.23799900  0.10611400  0.12827700  1
  Na  Na3  1  0.24055000  0.61135900  0.63431800  1
  Mn  Mn4  1  0.65608100  0.48300200  0.73399600  1
  Mn  Mn5  1  0.65638600  0.98418600  0.23432400  1
  Mn  Mn6  1  0.34414500  0.52386300  0.26090700  1
  Mn  Mn7  1  0.34254800  0.02223300  0.75891500  1
  P  P8  1  0.56940500  0.26963200  0.01956200  1
  P  P9  1  0.56686600  0.76355700  0.51240100  1
  P  P10  1  0.43157600  0.23701500  0.48243900  1
  P  P11  1  0.43203100  0.73810700  0.98080700  1
  C  C12  1  0.92416900  0.00308900  0.26687400  1
  C  C13  1  0.92386600  0.50718600  0.76058200  1
  C  C14  1  0.07967800  0.48881100  0.23830900  1
  C  C15  1  0.07156600  0.99282500  0.74086200  1
  O  O16  1  0.94344300  0.46924100  0.22927400  1
  O  O17  1  0.93648800  0.97606400  0.73106700  1
  O  O18  1  0.85811100  0.39636500  0.65168300  1
  O  O19  1  0.85860300  0.89301700  0.15701000  1
  O  O20  1  0.82251600  0.09593300  0.36207500  1
  O  O21  1  0.82233500  0.60311200  0.85301100  1
  O  O22  1  0.67570600  0.14682000  0.09301800  1
  O  O23  1  0.66985000  0.62670600  0.57039300  1
  O  O24  1  0.66833900  0.34007500  0.89608900  1
  O  O25  1  0.66396700  0.81806700  0.37620700  1
  O  O26  1  0.53056000  0.41800800  0.16679000  1
  O  O27  1  0.57470300  0.31268000  0.55863600  1
  O  O28  1  0.57475400  0.81065900  0.06082800  1
  O  O29  1  0.52300600  0.90598400  0.65392900  1
  O  O30  1  0.47289200  0.09605200  0.33368000  1
  O  O31  1  0.42844700  0.19077100  0.94612600  1
  O  O32  1  0.42221100  0.68592800  0.43829900  1
  O  O33  1  0.47311100  0.59819300  0.83104000  1
  O  O34  1  0.33148200  0.17546100  0.60951300  1
  O  O35  1  0.32916300  0.37068300  0.41844800  1
  O  O36  1  0.33122400  0.67248200  0.10618800  1
  O  O37  1  0.33010100  0.87224200  0.91926500  1
  O  O38  1  0.18023300  0.39689100  0.14271500  1
  O  O39  1  0.17064800  0.89781000  0.64365700  1
  O  O40  1  0.13826400  0.10531100  0.84733600  1
  O  O41  1  0.14241100  0.60376500  0.34456000  1
  O  O42  1  0.05902200  0.02034700  0.27878100  1
  O  O43  1  0.05889300  0.52091400  0.77566600  1
