# generated using pymatgen
data_SnPbO3
_symmetry_space_group_name_H-M   'P 1'
_cell_length_a   5.83809600
_cell_length_b   8.18661500
_cell_length_c   11.82027700
_cell_angle_alpha   90.00000000
_cell_angle_beta   90.00000000
_cell_angle_gamma   90.00000000
_symmetry_Int_Tables_number   1
_chemical_formula_structural   SnPbO3
_chemical_formula_sum   'Sn8 Pb8 O24'
_cell_volume   564.94120645
_cell_formula_units_Z   8
loop_
 _symmetry_equiv_pos_site_id
 _symmetry_equiv_pos_as_xyz
  1  'x, y, z'
loop_
 _atom_site_type_symbol
 _atom_site_label
 _atom_site_symmetry_multiplicity
 _atom_site_fract_x
 _atom_site_fract_y
 _atom_site_fract_z
 _atom_site_occupancy
  Sn  Sn0  1  0.24912700  0.24994800  0.12511300  1
  Sn  Sn1  1  0.24912700  0.75005200  0.12511300  1
  Sn  Sn2  1  0.25087300  0.75005200  0.62511300  1
  Sn  Sn3  1  0.25087300  0.24994800  0.62511300  1
  Sn  Sn4  1  0.74912700  0.75005200  0.37488700  1
  Sn  Sn5  1  0.74912700  0.24994800  0.37488700  1
  Sn  Sn6  1  0.75087300  0.24994800  0.87488700  1
  Sn  Sn7  1  0.75087300  0.75005200  0.87488700  1
  Pb  Pb8  1  0.23134000  0.50000000  0.37200400  1
  Pb  Pb9  1  0.22662600  0.00000000  0.37897100  1
  Pb  Pb10  1  0.27337400  0.00000000  0.87897100  1
  Pb  Pb11  1  0.26866000  0.50000000  0.87200400  1
  Pb  Pb12  1  0.73134000  0.50000000  0.12799600  1
  Pb  Pb13  1  0.72662600  0.00000000  0.12102900  1
  Pb  Pb14  1  0.77337400  0.00000000  0.62102900  1
  Pb  Pb15  1  0.76866000  0.50000000  0.62799600  1
  O  O16  1  0.00000000  0.21556900  0.00000000  1
  O  O17  1  0.00000000  0.78443100  0.00000000  1
  O  O18  1  0.00000000  0.20237700  0.50000000  1
  O  O19  1  0.00000000  0.79762300  0.50000000  1
  O  O20  1  0.02988300  0.28790700  0.26100200  1
  O  O21  1  0.02988300  0.71209300  0.26100200  1
  O  O22  1  0.20624600  0.50000000  0.59040900  1
  O  O23  1  0.22618700  0.00000000  0.66123800  1
  O  O24  1  0.27381300  0.00000000  0.16123800  1
  O  O25  1  0.29375400  0.50000000  0.09040900  1
  O  O26  1  0.47011700  0.28790700  0.76100200  1
  O  O27  1  0.47011700  0.71209300  0.76100200  1
  O  O28  1  0.50000000  0.20237700  0.00000000  1
  O  O29  1  0.50000000  0.79762300  0.00000000  1
  O  O30  1  0.50000000  0.78443100  0.50000000  1
  O  O31  1  0.50000000  0.21556900  0.50000000  1
  O  O32  1  0.52988300  0.71209300  0.23899800  1
  O  O33  1  0.52988300  0.28790700  0.23899800  1
  O  O34  1  0.70624600  0.50000000  0.90959100  1
  O  O35  1  0.72618700  0.00000000  0.83876200  1
  O  O36  1  0.77381300  0.00000000  0.33876200  1
  O  O37  1  0.79375400  0.50000000  0.40959100  1
  O  O38  1  0.97011700  0.28790700  0.73899800  1
  O  O39  1  0.97011700  0.71209300  0.73899800  1
