# generated using pymatgen
data_PRuSe
_symmetry_space_group_name_H-M   'P 1'
_cell_length_a   5.98080600
_cell_length_b   5.96711900
_cell_length_c   6.05615758
_cell_angle_alpha   67.91671867
_cell_angle_beta   90.00000000
_cell_angle_gamma   90.00000000
_symmetry_Int_Tables_number   1
_chemical_formula_structural   PRuSe
_chemical_formula_sum   'P4 Ru4 Se4'
_cell_volume   200.27736159
_cell_formula_units_Z   4
loop_
 _symmetry_equiv_pos_site_id
 _symmetry_equiv_pos_as_xyz
  1  'x, y, z'
loop_
 _atom_site_type_symbol
 _atom_site_label
 _atom_site_symmetry_multiplicity
 _atom_site_fract_x
 _atom_site_fract_y
 _atom_site_fract_z
 _atom_site_occupancy
  P  P0  1  0.12871200  0.85613300  0.88126500  1
  P  P1  1  0.62871200  0.14386700  0.61873500  1
  P  P2  1  0.87128800  0.14386700  0.11873500  1
  P  P3  1  0.37128800  0.85613300  0.38126500  1
  Ru  Ru4  1  0.48908400  0.73595900  0.79028900  1
  Ru  Ru5  1  0.98908400  0.26404100  0.70971100  1
  Ru  Ru6  1  0.51091600  0.26404100  0.20971100  1
  Ru  Ru7  1  0.01091600  0.73595900  0.29028900  1
  Se  Se8  1  0.87543100  0.66609300  0.69262600  1
  Se  Se9  1  0.37543100  0.33390700  0.80737400  1
  Se  Se10  1  0.12456900  0.33390700  0.30737400  1
  Se  Se11  1  0.62456900  0.66609300  0.19262600  1
