# generated using pymatgen
data_BaMgF4
_symmetry_space_group_name_H-M   'P 1'
_cell_length_a   7.51977952
_cell_length_b   7.51977952
_cell_length_c   5.84129600
_cell_angle_alpha   90.00000000
_cell_angle_beta   90.00000000
_cell_angle_gamma   147.48000751
_symmetry_Int_Tables_number   1
_chemical_formula_structural   BaMgF4
_chemical_formula_sum   'Ba2 Mg2 F8'
_cell_volume   177.57169158
_cell_formula_units_Z   2
loop_
 _symmetry_equiv_pos_site_id
 _symmetry_equiv_pos_as_xyz
  1  'x, y, z'
loop_
 _atom_site_type_symbol
 _atom_site_label
 _atom_site_symmetry_multiplicity
 _atom_site_fract_x
 _atom_site_fract_y
 _atom_site_fract_z
 _atom_site_occupancy
  Ba  Ba0  1  0.14201000  0.85799000  0.25000000  1
  Ba  Ba1  1  0.85799000  0.14201000  0.75000000  1
  Mg  Mg2  1  0.59184600  0.40815400  0.75000000  1
  Mg  Mg3  1  0.40815400  0.59184600  0.25000000  1
  F  F4  1  0.68692900  0.31307100  0.50980800  1
  F  F5  1  0.31307100  0.68692900  0.49019200  1
  F  F6  1  0.68692900  0.31307100  0.99019200  1
  F  F7  1  0.31307100  0.68692900  0.00980800  1
  F  F8  1  0.50000000  0.50000000  0.50000000  1
  F  F9  1  0.50000000  0.50000000  0.00000000  1
  F  F10  1  0.08200100  0.91799900  0.75000000  1
  F  F11  1  0.91799900  0.08200100  0.25000000  1
