# generated using pymatgen
data_U(NO4)2
_symmetry_space_group_name_H-M   'P 1'
_cell_length_a   4.85367783
_cell_length_b   6.98934734
_cell_length_c   7.19012963
_cell_angle_alpha   103.13003453
_cell_angle_beta   64.86995488
_cell_angle_gamma   95.62727057
_symmetry_Int_Tables_number   1
_chemical_formula_structural   U(NO4)2
_chemical_formula_sum   'U1 N2 O8'
_cell_volume   215.05695088
_cell_formula_units_Z   1
loop_
 _symmetry_equiv_pos_site_id
 _symmetry_equiv_pos_as_xyz
  1  'x, y, z'
loop_
 _atom_site_type_symbol
 _atom_site_label
 _atom_site_symmetry_multiplicity
 _atom_site_fract_x
 _atom_site_fract_y
 _atom_site_fract_z
 _atom_site_occupancy
  U  U0  1  0.50000000  0.50000000  0.50000000  1
  N  N1  1  0.81435500  0.30718400  0.62049600  1
  N  N2  1  0.18564500  0.69281600  0.37950400  1
  O  O3  1  0.88879900  0.70834900  0.50827800  1
  O  O4  1  0.11120100  0.29165100  0.49172200  1
  O  O5  1  0.72711000  0.24562800  0.77989000  1
  O  O6  1  0.27289000  0.75437200  0.22011000  1
  O  O7  1  0.73966900  0.39781100  0.23261900  1
  O  O8  1  0.26033100  0.60218900  0.76738100  1
  O  O9  1  0.88454100  0.96221200  0.05753200  1
  O  O10  1  0.11545900  0.03778800  0.94246800  1
