# generated using pymatgen
data_LaAs2
_symmetry_space_group_name_H-M   'P 1'
_cell_length_a   6.98826900
_cell_length_b   4.23862100
_cell_length_c   10.78141976
_cell_angle_alpha   73.08898228
_cell_angle_beta   90.00000000
_cell_angle_gamma   90.00000000
_symmetry_Int_Tables_number   1
_chemical_formula_structural   LaAs2
_chemical_formula_sum   'La4 As8'
_cell_volume   305.54283570
_cell_formula_units_Z   4
loop_
 _symmetry_equiv_pos_site_id
 _symmetry_equiv_pos_as_xyz
  1  'x, y, z'
loop_
 _atom_site_type_symbol
 _atom_site_label
 _atom_site_symmetry_multiplicity
 _atom_site_fract_x
 _atom_site_fract_y
 _atom_site_fract_z
 _atom_site_occupancy
  La  La0  1  0.31467200  0.08855400  0.13893200  1
  La  La1  1  0.81467200  0.91144600  0.36106800  1
  La  La2  1  0.68532800  0.91144600  0.86106800  1
  La  La3  1  0.18532800  0.08855400  0.63893200  1
  As  As4  1  0.64742100  0.53686300  0.17102100  1
  As  As5  1  0.14742100  0.46313700  0.32897900  1
  As  As6  1  0.35257900  0.46313700  0.82897900  1
  As  As7  1  0.85257900  0.53686300  0.67102100  1
  As  As8  1  0.37698500  0.72258100  0.44965900  1
  As  As9  1  0.87698500  0.27741900  0.05034100  1
  As  As10  1  0.62301500  0.27741900  0.55034100  1
  As  As11  1  0.12301500  0.72258100  0.94965900  1
