# generated using pymatgen
data_ZnN6
_symmetry_space_group_name_H-M   'P 1'
_cell_length_a   6.38949932
_cell_length_b   5.60852718
_cell_length_c   7.03302649
_cell_angle_alpha   90.56222605
_cell_angle_beta   110.02150368
_cell_angle_gamma   115.37755363
_symmetry_Int_Tables_number   1
_chemical_formula_structural   ZnN6
_chemical_formula_sum   'Zn2 N12'
_cell_volume   210.28142895
_cell_formula_units_Z   2
loop_
 _symmetry_equiv_pos_site_id
 _symmetry_equiv_pos_as_xyz
  1  'x, y, z'
loop_
 _atom_site_type_symbol
 _atom_site_label
 _atom_site_symmetry_multiplicity
 _atom_site_fract_x
 _atom_site_fract_y
 _atom_site_fract_z
 _atom_site_occupancy
  Zn  Zn0  1  0.71225500  0.02570000  0.56705800  1
  Zn  Zn1  1  0.27658900  0.31648500  0.43202200  1
  N  N2  1  0.45768300  0.10915500  0.36205100  1
  N  N3  1  0.54327000  0.64723400  0.63897200  1
  N  N4  1  0.39688200  0.04648300  0.17633100  1
  N  N5  1  0.60318600  0.65070200  0.82479400  1
  N  N6  1  0.33500200  0.99091800  0.00096300  1
  N  N7  1  0.66489100  0.66174600  0.00022900  1
  N  N8  1  0.99842500  0.02466300  0.49902600  1
  N  N9  1  0.00882600  0.81080100  0.50089800  1
  N  N10  1  0.01985600  0.61141200  0.50249800  1
  N  N11  1  0.82816400  0.25548500  0.83604600  1
  N  N12  1  0.16099500  0.42197400  0.16049900  1
  N  N13  1  0.99397400  0.32910100  0.99861300  1
