data_image0
_chemical_formula_structural       Co3O18U6
_chemical_formula_sum              "Co3 O18 U6"
_cell_length_a       8.94282
_cell_length_b       8.9346
_cell_length_c       5.13781
_cell_angle_alpha    90.0377
_cell_angle_beta     90.043
_cell_angle_gamma    120.095

_space_group_name_H-M_alt    "P 1"
_space_group_IT_number       1

loop_
  _space_group_symop_operation_xyz
  'x, y, z'

loop_
  _atom_site_type_symbol
  _atom_site_label
  _atom_site_symmetry_multiplicity
  _atom_site_fract_x
  _atom_site_fract_y
  _atom_site_fract_z
  _atom_site_occupancy
  Co  Co1       1.0  0.99800  0.99900  0.00000  1.0000
  Co  Co2       1.0  0.33300  0.66600  0.48800  1.0000
  Co  Co3       1.0  0.66600  0.33300  0.51300  1.0000
  O   O1        1.0  0.22700  0.77700  0.25500  1.0000
  O   O2        1.0  0.22200  0.45100  0.24700  1.0000
  O   O3        1.0  0.55200  0.77300  0.25000  1.0000
  O   O4        1.0  0.45100  0.22200  0.75300  1.0000
  O   O5        1.0  0.77200  0.55100  0.75000  1.0000
  O   O6        1.0  0.77700  0.22700  0.74500  1.0000
  O   O7        1.0  0.46000  0.57600  0.72100  1.0000
  O   O8        1.0  0.42200  0.88400  0.72300  1.0000
  O   O9        1.0  0.11700  0.53800  0.72600  1.0000
  O   O10       1.0  0.88400  0.42300  0.27700  1.0000
  O   O11       1.0  0.53800  0.11700  0.27500  1.0000
  O   O12       1.0  0.57700  0.46100  0.27800  1.0000
  O   O13       1.0  0.08510  0.86700  0.76800  1.0000
  O   O14       1.0  0.13400  0.21500  0.76600  1.0000
  O   O15       1.0  0.78200  0.91600  0.76700  1.0000
  O   O16       1.0  0.21600  0.13400  0.23500  1.0000
  O   O17       1.0  0.91700  0.78400  0.23200  1.0000
  O   O18       1.0  0.86700  0.08590  0.23200  1.0000
  U   U1        1.0  0.63200  0.00032  1.00000  1.0000
  U   U2        1.0  0.00020  0.63300  0.00045  1.0000
  U   U3        1.0  0.36700  0.36700  0.00004  1.0000
  U   U4        1.0  0.29900  0.00146  0.50100  1.0000
  U   U5        1.0  0.00186  0.29900  0.50000  1.0000
  U   U6        1.0  0.70300  0.70200  0.50000  1.0000
