# generated using pymatgen
data_Rb4V2O9
_symmetry_space_group_name_H-M   'P 1'
_cell_length_a   6.52484600
_cell_length_b   7.01683338
_cell_length_c   7.38196776
_cell_angle_alpha   108.90960627
_cell_angle_beta   100.68059321
_cell_angle_gamma   95.87986294
_symmetry_Int_Tables_number   1
_chemical_formula_structural   Rb4V2O9
_chemical_formula_sum   'Rb4 V2 O9'
_cell_volume   309.35732316
_cell_formula_units_Z   1
loop_
 _symmetry_equiv_pos_site_id
 _symmetry_equiv_pos_as_xyz
  1  'x, y, z'
loop_
 _atom_site_type_symbol
 _atom_site_label
 _atom_site_symmetry_multiplicity
 _atom_site_fract_x
 _atom_site_fract_y
 _atom_site_fract_z
 _atom_site_occupancy
  Rb  Rb0  1  0.69532100  0.57562000  0.85989700  1
  Rb  Rb1  1  0.30467900  0.42438000  0.14010300  1
  Rb  Rb2  1  0.24629600  0.89209800  0.65457300  1
  Rb  Rb3  1  0.75370400  0.10790200  0.34542700  1
  V  V4  1  0.81207900  0.08490300  0.83599300  1
  V  V5  1  0.18792100  0.91509700  0.16400700  1
  O  O6  1  0.00000000  0.00000000  0.00000000  1
  O  O7  1  0.62928200  0.19768800  0.95018100  1
  O  O8  1  0.37071800  0.80231200  0.04981900  1
  O  O9  1  0.95216100  0.25525300  0.76353500  1
  O  O10  1  0.04783900  0.74474700  0.23646500  1
  O  O11  1  0.67932100  0.87215400  0.63133300  1
  O  O12  1  0.32067900  0.12784600  0.36866700  1
  O  O13  1  0.25311300  0.39439600  0.58597500  1
  O  O14  1  0.74688700  0.60560400  0.41402500  1
