# generated using pymatgen
data_VInO4
_symmetry_space_group_name_H-M   'P 1'
_cell_length_a   4.79535000
_cell_length_b   5.71957500
_cell_length_c   5.02907955
_cell_angle_alpha   90.00000000
_cell_angle_beta   92.60713846
_cell_angle_gamma   90.00000000
_symmetry_Int_Tables_number   1
_chemical_formula_structural   VInO4
_chemical_formula_sum   'V2 In2 O8'
_cell_volume   137.79162077
_cell_formula_units_Z   2
loop_
 _symmetry_equiv_pos_site_id
 _symmetry_equiv_pos_as_xyz
  1  'x, y, z'
loop_
 _atom_site_type_symbol
 _atom_site_label
 _atom_site_symmetry_multiplicity
 _atom_site_fract_x
 _atom_site_fract_y
 _atom_site_fract_z
 _atom_site_occupancy
  V  V0  1  0.00000000  0.82540700  0.25000000  1
  V  V1  1  0.00000000  0.17459300  0.75000000  1
  In  In2  1  0.50000000  0.30280900  0.25000000  1
  In  In3  1  0.50000000  0.69719100  0.75000000  1
  O  O4  1  0.21011100  0.09555800  0.45299600  1
  O  O5  1  0.78988900  0.09555800  0.04700400  1
  O  O6  1  0.78988900  0.90444200  0.54700400  1
  O  O7  1  0.21011100  0.90444200  0.95299600  1
  O  O8  1  0.24971700  0.62454300  0.38804300  1
  O  O9  1  0.75028300  0.62454300  0.11195700  1
  O  O10  1  0.75028300  0.37545700  0.61195700  1
  O  O11  1  0.24971700  0.37545700  0.88804300  1
