# generated using pymatgen
data_TmFe2
_symmetry_space_group_name_H-M   'P 1'
_cell_length_a   5.09285300
_cell_length_b   5.09285318
_cell_length_c   8.27425600
_cell_angle_alpha   90.00000000
_cell_angle_beta   90.00000000
_cell_angle_gamma   120.00000530
_symmetry_Int_Tables_number   1
_chemical_formula_structural   TmFe2
_chemical_formula_sum   'Tm4 Fe8'
_cell_volume   185.85825683
_cell_formula_units_Z   4
loop_
 _symmetry_equiv_pos_site_id
 _symmetry_equiv_pos_as_xyz
  1  'x, y, z'
loop_
 _atom_site_type_symbol
 _atom_site_label
 _atom_site_symmetry_multiplicity
 _atom_site_fract_x
 _atom_site_fract_y
 _atom_site_fract_z
 _atom_site_occupancy
  Tm  Tm0  1  0.33333300  0.66666700  0.43779900  1
  Tm  Tm1  1  0.66666700  0.33333300  0.56220100  1
  Tm  Tm2  1  0.66666700  0.33333300  0.93779900  1
  Tm  Tm3  1  0.33333300  0.66666700  0.06220100  1
  Fe  Fe4  1  0.00000000  0.00000000  0.50000000  1
  Fe  Fe5  1  0.00000000  0.00000000  0.00000000  1
  Fe  Fe6  1  0.83391000  0.16609000  0.25000000  1
  Fe  Fe7  1  0.83391000  0.66782100  0.25000000  1
  Fe  Fe8  1  0.33217900  0.16609000  0.25000000  1
  Fe  Fe9  1  0.16609000  0.83391000  0.75000000  1
  Fe  Fe10  1  0.16609000  0.33217900  0.75000000  1
  Fe  Fe11  1  0.66782100  0.83391000  0.75000000  1
