# generated using pymatgen
data_K2Cr2NiO10
_symmetry_space_group_name_H-M   'P 1'
_cell_length_a   5.51520430
_cell_length_b   6.59939075
_cell_length_c   7.53371992
_cell_angle_alpha   110.91845854
_cell_angle_beta   94.13199505
_cell_angle_gamma   106.54728759
_symmetry_Int_Tables_number   1
_chemical_formula_structural   K2Cr2NiO10
_chemical_formula_sum   'K2 Cr2 Ni1 O10'
_cell_volume   240.85767555
_cell_formula_units_Z   1
loop_
 _symmetry_equiv_pos_site_id
 _symmetry_equiv_pos_as_xyz
  1  'x, y, z'
loop_
 _atom_site_type_symbol
 _atom_site_label
 _atom_site_symmetry_multiplicity
 _atom_site_fract_x
 _atom_site_fract_y
 _atom_site_fract_z
 _atom_site_occupancy
  K  K0  1  0.29146100  0.67911900  0.26359100  1
  K  K1  1  0.70853900  0.32088100  0.73640900  1
  Cr  Cr2  1  0.36143600  0.70428800  0.77548100  1
  Cr  Cr3  1  0.63856400  0.29571200  0.22451900  1
  Ni  Ni4  1  0.00000000  0.00000000  0.00000000  1
  O  O5  1  0.13486400  0.73653300  0.91805700  1
  O  O6  1  0.86513600  0.26346700  0.08194300  1
  O  O7  1  0.64394200  0.75748800  0.91964400  1
  O  O8  1  0.35605800  0.24251200  0.08035600  1
  O  O9  1  0.39316600  0.87438700  0.65938200  1
  O  O10  1  0.60683400  0.12561300  0.34061800  1
  O  O11  1  0.26726200  0.43615000  0.62275100  1
  O  O12  1  0.73273800  0.56385000  0.37724900  1
  O  O13  1  0.96909000  0.99419800  0.76601600  1
  O  O14  1  0.03091000  0.00580200  0.23398400  1
