# generated using pymatgen
data_CuClO
_symmetry_space_group_name_H-M   'P 1'
_cell_length_a   6.24636900
_cell_length_b   6.26722900
_cell_length_c   5.38969627
_cell_angle_alpha   90.00000000
_cell_angle_beta   114.13304132
_cell_angle_gamma   90.00000000
_symmetry_Int_Tables_number   1
_chemical_formula_structural   CuClO
_chemical_formula_sum   'Cu4 Cl4 O4'
_cell_volume   192.55165959
_cell_formula_units_Z   4
loop_
 _symmetry_equiv_pos_site_id
 _symmetry_equiv_pos_as_xyz
  1  'x, y, z'
loop_
 _atom_site_type_symbol
 _atom_site_label
 _atom_site_symmetry_multiplicity
 _atom_site_fract_x
 _atom_site_fract_y
 _atom_site_fract_z
 _atom_site_occupancy
  Cu  Cu0  1  0.96900400  0.38302200  0.21770500  1
  Cu  Cu1  1  0.03099600  0.88302200  0.28229500  1
  Cu  Cu2  1  0.03099600  0.61697800  0.78229500  1
  Cu  Cu3  1  0.96900400  0.11697800  0.71770500  1
  Cl  Cl4  1  0.68550100  0.07887100  0.85725100  1
  Cl  Cl5  1  0.31449900  0.57887100  0.64274900  1
  Cl  Cl6  1  0.31449900  0.92112900  0.14274900  1
  Cl  Cl7  1  0.68550100  0.42112900  0.35725100  1
  O  O8  1  0.10852400  0.14845100  0.45796200  1
  O  O9  1  0.89147600  0.64845100  0.04203800  1
  O  O10  1  0.89147600  0.85154900  0.54203800  1
  O  O11  1  0.10852400  0.35154900  0.95796200  1
