# generated using pymatgen
data_Ba2In
_symmetry_space_group_name_H-M   'P 1'
_cell_length_a   6.00528700
_cell_length_b   8.22091800
_cell_length_c   11.11425900
_cell_angle_alpha   90.00000000
_cell_angle_beta   90.00000000
_cell_angle_gamma   90.00000000
_symmetry_Int_Tables_number   1
_chemical_formula_structural   Ba2In
_chemical_formula_sum   'Ba8 In4'
_cell_volume   548.69954130
_cell_formula_units_Z   4
loop_
 _symmetry_equiv_pos_site_id
 _symmetry_equiv_pos_as_xyz
  1  'x, y, z'
loop_
 _atom_site_type_symbol
 _atom_site_label
 _atom_site_symmetry_multiplicity
 _atom_site_fract_x
 _atom_site_fract_y
 _atom_site_fract_z
 _atom_site_occupancy
  Ba  Ba0  1  0.25000000  0.02308800  0.69386700  1
  Ba  Ba1  1  0.25000000  0.52308800  0.80613300  1
  Ba  Ba2  1  0.75000000  0.97691200  0.30613300  1
  Ba  Ba3  1  0.75000000  0.47691200  0.19386700  1
  Ba  Ba4  1  0.25000000  0.67284300  0.42620400  1
  Ba  Ba5  1  0.25000000  0.17284300  0.07379600  1
  Ba  Ba6  1  0.75000000  0.32715700  0.57379600  1
  Ba  Ba7  1  0.75000000  0.82715700  0.92620400  1
  In  In8  1  0.25000000  0.23105900  0.39546800  1
  In  In9  1  0.25000000  0.73105900  0.10453200  1
  In  In10  1  0.75000000  0.76894100  0.60453200  1
  In  In11  1  0.75000000  0.26894100  0.89546800  1
