# generated using pymatgen
data_UBr4(NO2)2
_symmetry_space_group_name_H-M   'P 1'
_cell_length_a   6.75197828
_cell_length_b   6.80693760
_cell_length_c   13.22869891
_cell_angle_alpha   119.09353970
_cell_angle_beta   68.13361142
_cell_angle_gamma   135.99907712
_symmetry_Int_Tables_number   1
_chemical_formula_structural   UBr4(NO2)2
_chemical_formula_sum   'U1 Br4 N2 O4'
_cell_volume   368.80823871
_cell_formula_units_Z   1
loop_
 _symmetry_equiv_pos_site_id
 _symmetry_equiv_pos_as_xyz
  1  'x, y, z'
loop_
 _atom_site_type_symbol
 _atom_site_label
 _atom_site_symmetry_multiplicity
 _atom_site_fract_x
 _atom_site_fract_y
 _atom_site_fract_z
 _atom_site_occupancy
  U  U0  1  0.00000000  0.00000000  0.00000000  1
  Br  Br1  1  0.79142800  0.73129000  0.60093000  1
  Br  Br2  1  0.20857200  0.26871000  0.39907000  1
  Br  Br3  1  0.67801100  0.58207200  0.13991200  1
  Br  Br4  1  0.32198900  0.41792800  0.86008800  1
  N  N5  1  0.11855600  0.82409500  0.59302200  1
  N  N6  1  0.88144400  0.17590500  0.40697800  1
  O  O7  1  0.78277300  0.09810800  0.06116800  1
  O  O8  1  0.21722700  0.90189200  0.93883200  1
  O  O9  1  0.32143500  0.41690900  0.12721400  1
  O  O10  1  0.67856500  0.58309100  0.87278600  1
