# generated using pymatgen
data_SnH5CI3N2
_symmetry_space_group_name_H-M   'P 1'
_cell_length_a   6.31823022
_cell_length_b   6.31823022
_cell_length_c   6.55492700
_cell_angle_alpha   90.00000000
_cell_angle_beta   90.00000000
_cell_angle_gamma   92.58753466
_symmetry_Int_Tables_number   1
_chemical_formula_structural   SnH5CI3N2
_chemical_formula_sum   'Sn1 H5 C1 I3 N2'
_cell_volume   261.40610543
_cell_formula_units_Z   1
loop_
 _symmetry_equiv_pos_site_id
 _symmetry_equiv_pos_as_xyz
  1  'x, y, z'
loop_
 _atom_site_type_symbol
 _atom_site_label
 _atom_site_symmetry_multiplicity
 _atom_site_fract_x
 _atom_site_fract_y
 _atom_site_fract_z
 _atom_site_occupancy
  Sn  Sn0  1  0.61790300  0.38209700  0.50000000  1
  H  H1  1  0.26486500  0.73513500  0.19230400  1
  H  H2  1  0.26486500  0.73513500  0.80769600  1
  H  H3  1  0.09205100  0.90794900  0.30597300  1
  H  H4  1  0.09205100  0.90794900  0.69402700  1
  H  H5  1  0.96706600  0.03293400  0.00000000  1
  C  C6  1  0.08673400  0.91326600  0.00000000  1
  I  I7  1  0.63082700  0.87131100  0.50000000  1
  I  I8  1  0.12868900  0.36917300  0.50000000  1
  I  I9  1  0.62133000  0.37867000  0.00000000  1
  N  N10  1  0.15341000  0.84659000  0.17683500  1
  N  N11  1  0.15341000  0.84659000  0.82316500  1
