# generated using pymatgen
data_NdMn2
_symmetry_space_group_name_H-M   'P 1'
_cell_length_a   5.25096293
_cell_length_b   5.25096293
_cell_length_c   8.84738200
_cell_angle_alpha   90.00000000
_cell_angle_beta   90.00000000
_cell_angle_gamma   116.69185823
_symmetry_Int_Tables_number   1
_chemical_formula_structural   NdMn2
_chemical_formula_sum   'Nd4 Mn8'
_cell_volume   217.94943934
_cell_formula_units_Z   4
loop_
 _symmetry_equiv_pos_site_id
 _symmetry_equiv_pos_as_xyz
  1  'x, y, z'
loop_
 _atom_site_type_symbol
 _atom_site_label
 _atom_site_symmetry_multiplicity
 _atom_site_fract_x
 _atom_site_fract_y
 _atom_site_fract_z
 _atom_site_occupancy
  Nd  Nd0  1  0.66389200  0.33610800  0.93860100  1
  Nd  Nd1  1  0.33610800  0.66389200  0.06139900  1
  Nd  Nd2  1  0.66389200  0.33610800  0.56139900  1
  Nd  Nd3  1  0.33610800  0.66389200  0.43860100  1
  Mn  Mn4  1  0.00000000  0.00000000  0.50000000  1
  Mn  Mn5  1  0.00000000  0.00000000  0.00000000  1
  Mn  Mn6  1  0.14582100  0.85417900  0.75000000  1
  Mn  Mn7  1  0.85417900  0.14582100  0.25000000  1
  Mn  Mn8  1  0.66144200  0.85713100  0.75000000  1
  Mn  Mn9  1  0.85713100  0.66144200  0.25000000  1
  Mn  Mn10  1  0.33855800  0.14286900  0.25000000  1
  Mn  Mn11  1  0.14286900  0.33855800  0.75000000  1
