# generated using pymatgen
data_Ce2Au
_symmetry_space_group_name_H-M   'P 1'
_cell_length_a   5.00225200
_cell_length_b   7.28195000
_cell_length_c   9.23565700
_cell_angle_alpha   90.00000000
_cell_angle_beta   90.00000000
_cell_angle_gamma   90.00000000
_symmetry_Int_Tables_number   1
_chemical_formula_structural   Ce2Au
_chemical_formula_sum   'Ce8 Au4'
_cell_volume   336.41941755
_cell_formula_units_Z   4
loop_
 _symmetry_equiv_pos_site_id
 _symmetry_equiv_pos_as_xyz
  1  'x, y, z'
loop_
 _atom_site_type_symbol
 _atom_site_label
 _atom_site_symmetry_multiplicity
 _atom_site_fract_x
 _atom_site_fract_y
 _atom_site_fract_z
 _atom_site_occupancy
  Ce  Ce0  1  0.75000000  0.65930600  0.57068700  1
  Ce  Ce1  1  0.75000000  0.15930600  0.92931300  1
  Ce  Ce2  1  0.25000000  0.34069400  0.42931300  1
  Ce  Ce3  1  0.25000000  0.84069400  0.07068700  1
  Ce  Ce4  1  0.75000000  0.01325300  0.31784700  1
  Ce  Ce5  1  0.75000000  0.51325300  0.18215300  1
  Ce  Ce6  1  0.25000000  0.98674700  0.68215300  1
  Ce  Ce7  1  0.25000000  0.48674700  0.81784700  1
  Au  Au8  1  0.75000000  0.24497200  0.61036400  1
  Au  Au9  1  0.75000000  0.74497200  0.88963600  1
  Au  Au10  1  0.25000000  0.75502800  0.38963600  1
  Au  Au11  1  0.25000000  0.25502800  0.11036400  1
