# generated using pymatgen
data_CeTeCl
_symmetry_space_group_name_H-M   'P 1'
_cell_length_a   4.48385700
_cell_length_b   7.92849500
_cell_length_c   9.43356700
_cell_angle_alpha   90.00000000
_cell_angle_beta   90.00000000
_cell_angle_gamma   90.00000000
_symmetry_Int_Tables_number   1
_chemical_formula_structural   CeTeCl
_chemical_formula_sum   'Ce4 Te4 Cl4'
_cell_volume   335.36555020
_cell_formula_units_Z   4
loop_
 _symmetry_equiv_pos_site_id
 _symmetry_equiv_pos_as_xyz
  1  'x, y, z'
loop_
 _atom_site_type_symbol
 _atom_site_label
 _atom_site_symmetry_multiplicity
 _atom_site_fract_x
 _atom_site_fract_y
 _atom_site_fract_z
 _atom_site_occupancy
  Ce  Ce0  1  0.25000000  0.23828100  0.63307100  1
  Ce  Ce1  1  0.25000000  0.73828100  0.86692900  1
  Ce  Ce2  1  0.75000000  0.76171900  0.36692900  1
  Ce  Ce3  1  0.75000000  0.26171900  0.13307100  1
  Te  Te4  1  0.25000000  0.46176600  0.33217400  1
  Te  Te5  1  0.25000000  0.96176600  0.16782600  1
  Te  Te6  1  0.75000000  0.53823400  0.66782600  1
  Te  Te7  1  0.75000000  0.03823400  0.83217400  1
  Cl  Cl8  1  0.25000000  0.86456000  0.56053900  1
  Cl  Cl9  1  0.25000000  0.36456000  0.93946100  1
  Cl  Cl10  1  0.75000000  0.13544000  0.43946100  1
  Cl  Cl11  1  0.75000000  0.63544000  0.06053900  1
