# generated using pymatgen
data_Sm2Al
_symmetry_space_group_name_H-M   'P 1'
_cell_length_a   5.20815200
_cell_length_b   6.66495200
_cell_length_c   9.65379900
_cell_angle_alpha   90.00000000
_cell_angle_beta   90.00000000
_cell_angle_gamma   90.00000000
_symmetry_Int_Tables_number   1
_chemical_formula_structural   Sm2Al
_chemical_formula_sum   'Sm8 Al4'
_cell_volume   335.10347301
_cell_formula_units_Z   4
loop_
 _symmetry_equiv_pos_site_id
 _symmetry_equiv_pos_as_xyz
  1  'x, y, z'
loop_
 _atom_site_type_symbol
 _atom_site_label
 _atom_site_symmetry_multiplicity
 _atom_site_fract_x
 _atom_site_fract_y
 _atom_site_fract_z
 _atom_site_occupancy
  Sm  Sm0  1  0.25000000  0.19208700  0.92517400  1
  Sm  Sm1  1  0.25000000  0.69208700  0.57482600  1
  Sm  Sm2  1  0.75000000  0.80791300  0.07482600  1
  Sm  Sm3  1  0.75000000  0.30791300  0.42517400  1
  Sm  Sm4  1  0.25000000  0.02557600  0.29274000  1
  Sm  Sm5  1  0.25000000  0.52557600  0.20726000  1
  Sm  Sm6  1  0.75000000  0.97442400  0.70726000  1
  Sm  Sm7  1  0.75000000  0.47442400  0.79274000  1
  Al  Al8  1  0.25000000  0.21007400  0.60166000  1
  Al  Al9  1  0.25000000  0.71007400  0.89834000  1
  Al  Al10  1  0.75000000  0.78992600  0.39834000  1
  Al  Al11  1  0.75000000  0.28992600  0.10166000  1
