# generated using pymatgen
data_Sr(AuO4)2
_symmetry_space_group_name_H-M   'P 1'
_cell_length_a   4.85784600
_cell_length_b   4.85784600
_cell_length_c   7.45003749
_cell_angle_alpha   109.02787728
_cell_angle_beta   109.02787728
_cell_angle_gamma   90.00000000
_symmetry_Int_Tables_number   1
_chemical_formula_structural   Sr(AuO4)2
_chemical_formula_sum   'Sr1 Au2 O8'
_cell_volume   156.00796072
_cell_formula_units_Z   1
loop_
 _symmetry_equiv_pos_site_id
 _symmetry_equiv_pos_as_xyz
  1  'x, y, z'
loop_
 _atom_site_type_symbol
 _atom_site_label
 _atom_site_symmetry_multiplicity
 _atom_site_fract_x
 _atom_site_fract_y
 _atom_site_fract_z
 _atom_site_occupancy
  Sr  Sr0  1  0.50000000  0.50000000  0.00000000  1
  Au  Au1  1  0.85666100  0.85666100  0.71332200  1
  Au  Au2  1  0.14333900  0.14333900  0.28667800  1
  O  O3  1  0.98447500  0.46110700  0.73814500  1
  O  O4  1  0.75367100  0.27703900  0.73814500  1
  O  O5  1  0.24632900  0.53889300  0.26185500  1
  O  O6  1  0.01552500  0.72296100  0.26185500  1
  O  O7  1  0.72296100  0.24632900  0.26185500  1
  O  O8  1  0.53889300  0.01552500  0.26185500  1
  O  O9  1  0.27703900  0.98447500  0.73814500  1
  O  O10  1  0.46110700  0.75367100  0.73814500  1
