# generated using pymatgen
data_PrAs2
_symmetry_space_group_name_H-M   'P 1'
_cell_length_a   6.95092800
_cell_length_b   4.17248300
_cell_length_c   10.69988675
_cell_angle_alpha   73.23692212
_cell_angle_beta   90.00000000
_cell_angle_gamma   90.00000000
_symmetry_Int_Tables_number   1
_chemical_formula_structural   PrAs2
_chemical_formula_sum   'Pr4 As8'
_cell_volume   297.13776275
_cell_formula_units_Z   4
loop_
 _symmetry_equiv_pos_site_id
 _symmetry_equiv_pos_as_xyz
  1  'x, y, z'
loop_
 _atom_site_type_symbol
 _atom_site_label
 _atom_site_symmetry_multiplicity
 _atom_site_fract_x
 _atom_site_fract_y
 _atom_site_fract_z
 _atom_site_occupancy
  Pr  Pr0  1  0.31365200  0.08896100  0.13973700  1
  Pr  Pr1  1  0.81365200  0.91103900  0.36026300  1
  Pr  Pr2  1  0.68634800  0.91103900  0.86026300  1
  Pr  Pr3  1  0.18634800  0.08896100  0.63973700  1
  As  As4  1  0.37725000  0.72782200  0.44972200  1
  As  As5  1  0.87725000  0.27217800  0.05027800  1
  As  As6  1  0.62275000  0.27217800  0.55027800  1
  As  As7  1  0.12275000  0.72782200  0.94972200  1
  As  As8  1  0.64582200  0.53901200  0.17126400  1
  As  As9  1  0.14582200  0.46098800  0.32873600  1
  As  As10  1  0.35417800  0.46098800  0.82873600  1
  As  As11  1  0.85417800  0.53901200  0.67126400  1
