# generated using pymatgen
data_K2U(BrO)4
_symmetry_space_group_name_H-M   'P 1'
_cell_length_a   6.99364125
_cell_length_b   7.34860186
_cell_length_c   8.22150103
_cell_angle_alpha   85.76307188
_cell_angle_beta   103.15605227
_cell_angle_gamma   120.19621804
_symmetry_Int_Tables_number   1
_chemical_formula_structural   K2U(BrO)4
_chemical_formula_sum   'K2 U1 Br4 O4'
_cell_volume   355.19845721
_cell_formula_units_Z   1
loop_
 _symmetry_equiv_pos_site_id
 _symmetry_equiv_pos_as_xyz
  1  'x, y, z'
loop_
 _atom_site_type_symbol
 _atom_site_label
 _atom_site_symmetry_multiplicity
 _atom_site_fract_x
 _atom_site_fract_y
 _atom_site_fract_z
 _atom_site_occupancy
  K  K0  1  0.60298700  0.28666200  0.83352600  1
  K  K1  1  0.39701300  0.71333800  0.16647400  1
  U  U2  1  0.00000000  0.00000000  0.00000000  1
  Br  Br3  1  0.85193200  0.61440600  0.16269900  1
  Br  Br4  1  0.14806800  0.38559400  0.83730100  1
  Br  Br5  1  0.82231300  0.77617900  0.68767800  1
  Br  Br6  1  0.17768700  0.22382100  0.31232200  1
  O  O7  1  0.73138200  0.98951200  0.99272400  1
  O  O8  1  0.26861800  0.01048800  0.00727600  1
  O  O9  1  0.43631100  0.92442700  0.53642300  1
  O  O10  1  0.56368900  0.07557300  0.46357700  1
