# generated using pymatgen
data_SmSiPd
_symmetry_space_group_name_H-M   'P 1'
_cell_length_a   4.32602600
_cell_length_b   7.16770400
_cell_length_c   7.67363400
_cell_angle_alpha   90.00000000
_cell_angle_beta   90.00000000
_cell_angle_gamma   90.00000000
_symmetry_Int_Tables_number   1
_chemical_formula_structural   SmSiPd
_chemical_formula_sum   'Sm4 Si4 Pd4'
_cell_volume   237.94154043
_cell_formula_units_Z   4
loop_
 _symmetry_equiv_pos_site_id
 _symmetry_equiv_pos_as_xyz
  1  'x, y, z'
loop_
 _atom_site_type_symbol
 _atom_site_label
 _atom_site_symmetry_multiplicity
 _atom_site_fract_x
 _atom_site_fract_y
 _atom_site_fract_z
 _atom_site_occupancy
  Sm  Sm0  1  0.25000000  0.00292300  0.30705400  1
  Sm  Sm1  1  0.25000000  0.50292300  0.19294600  1
  Sm  Sm2  1  0.75000000  0.99707700  0.69294600  1
  Sm  Sm3  1  0.75000000  0.49707700  0.80705400  1
  Si  Si4  1  0.25000000  0.29543600  0.60138600  1
  Si  Si5  1  0.25000000  0.79543600  0.89861400  1
  Si  Si6  1  0.75000000  0.70456400  0.39861400  1
  Si  Si7  1  0.75000000  0.20456400  0.10138600  1
  Pd  Pd8  1  0.25000000  0.16645700  0.92756300  1
  Pd  Pd9  1  0.25000000  0.66645700  0.57243700  1
  Pd  Pd10  1  0.75000000  0.83354300  0.07243700  1
  Pd  Pd11  1  0.75000000  0.33354300  0.42756300  1
