# generated using pymatgen
data_Eu2ZnGe3
_symmetry_space_group_name_H-M   'P 1'
_cell_length_a   8.61960340
_cell_length_b   8.54422596
_cell_length_c   6.13399826
_cell_angle_alpha   69.71970416
_cell_angle_beta   68.40450351
_cell_angle_gamma   41.87579233
_symmetry_Int_Tables_number   1
_chemical_formula_structural   Eu2ZnGe3
_chemical_formula_sum   'Eu4 Zn2 Ge6'
_cell_volume   278.46465073
_cell_formula_units_Z   2
loop_
 _symmetry_equiv_pos_site_id
 _symmetry_equiv_pos_as_xyz
  1  'x, y, z'
loop_
 _atom_site_type_symbol
 _atom_site_label
 _atom_site_symmetry_multiplicity
 _atom_site_fract_x
 _atom_site_fract_y
 _atom_site_fract_z
 _atom_site_occupancy
  Eu  Eu0  1  0.24463200  0.75536800  0.24463200  1
  Eu  Eu1  1  0.75536800  0.24463200  0.75536800  1
  Eu  Eu2  1  0.25000000  0.25000000  0.25000000  1
  Eu  Eu3  1  0.75000000  0.75000000  0.75000000  1
  Zn  Zn4  1  0.33353700  0.33353700  0.66646300  1
  Zn  Zn5  1  0.66646300  0.66646300  0.33353700  1
  Ge  Ge6  1  0.16888900  0.16888900  0.83111100  1
  Ge  Ge7  1  0.83111100  0.83111100  0.16888900  1
  Ge  Ge8  1  0.83036300  0.33829300  0.16963700  1
  Ge  Ge9  1  0.66170700  0.16963700  0.33829300  1
  Ge  Ge10  1  0.33829300  0.83036300  0.66170700  1
  Ge  Ge11  1  0.16963700  0.66170700  0.83036300  1
