# generated using pymatgen
data_GaAsO4
_symmetry_space_group_name_H-M   'P 1'
_cell_length_a   5.10928155
_cell_length_b   5.10928155
_cell_length_c   7.13254700
_cell_angle_alpha   90.00000000
_cell_angle_beta   90.00000000
_cell_angle_gamma   93.13638050
_symmetry_Int_Tables_number   1
_chemical_formula_structural   GaAsO4
_chemical_formula_sum   'Ga2 As2 O8'
_cell_volume   185.91451978
_cell_formula_units_Z   2
loop_
 _symmetry_equiv_pos_site_id
 _symmetry_equiv_pos_as_xyz
  1  'x, y, z'
loop_
 _atom_site_type_symbol
 _atom_site_label
 _atom_site_symmetry_multiplicity
 _atom_site_fract_x
 _atom_site_fract_y
 _atom_site_fract_z
 _atom_site_occupancy
  Ga  Ga0  1  0.82694700  0.82694700  0.50000000  1
  Ga  Ga1  1  0.17305300  0.17305300  0.00000000  1
  As  As2  1  0.67911300  0.32088700  0.25000000  1
  As  As3  1  0.32088700  0.67911300  0.75000000  1
  O  O4  1  0.78847400  0.17998900  0.45237500  1
  O  O5  1  0.82001100  0.21152600  0.04762500  1
  O  O6  1  0.21152600  0.82001100  0.95237500  1
  O  O7  1  0.17998900  0.78847400  0.54762500  1
  O  O8  1  0.34794600  0.26122100  0.22118800  1
  O  O9  1  0.73877900  0.65205400  0.27881200  1
  O  O10  1  0.65205400  0.73877900  0.72118800  1
  O  O11  1  0.26122100  0.34794600  0.77881200  1
