# generated using pymatgen
data_Cs2VBr5O4
_symmetry_space_group_name_H-M   'P 1'
_cell_length_a   9.68205651
_cell_length_b   9.68205651
_cell_length_c   7.24474764
_cell_angle_alpha   70.78217403
_cell_angle_beta   70.78217403
_cell_angle_gamma   35.55520052
_symmetry_Int_Tables_number   1
_chemical_formula_structural   Cs2VBr5O4
_chemical_formula_sum   'Cs2 V1 Br5 O4'
_cell_volume   370.56707749
_cell_formula_units_Z   1
loop_
 _symmetry_equiv_pos_site_id
 _symmetry_equiv_pos_as_xyz
  1  'x, y, z'
loop_
 _atom_site_type_symbol
 _atom_site_label
 _atom_site_symmetry_multiplicity
 _atom_site_fract_x
 _atom_site_fract_y
 _atom_site_fract_z
 _atom_site_occupancy
  Cs  Cs0  1  0.29656100  0.29656100  0.73114800  1
  Cs  Cs1  1  0.70343900  0.70343900  0.26885200  1
  V  V2  1  0.00000000  0.00000000  0.00000000  1
  Br  Br3  1  0.10510900  0.10510900  0.16257400  1
  Br  Br4  1  0.89489100  0.89489100  0.83742600  1
  Br  Br5  1  0.32992300  0.32992300  0.20785300  1
  Br  Br6  1  0.67007700  0.67007700  0.79214700  1
  Br  Br7  1  0.50000000  0.50000000  0.50000000  1
  O  O8  1  0.83165800  0.26641000  0.81941100  1
  O  O9  1  0.26641000  0.83165800  0.81941100  1
  O  O10  1  0.16834200  0.73359000  0.18058900  1
  O  O11  1  0.73359000  0.16834200  0.18058900  1
