# generated using pymatgen
data_Ag2S
_symmetry_space_group_name_H-M   'P 1'
_cell_length_a   4.55434870
_cell_length_b   7.02112400
_cell_length_c   8.30026798
_cell_angle_alpha   90.00000000
_cell_angle_beta   88.23123494
_cell_angle_gamma   90.00000000
_symmetry_Int_Tables_number   1
_chemical_formula_structural   Ag2S
_chemical_formula_sum   'Ag8 S4'
_cell_volume   265.28827829
_cell_formula_units_Z   4
loop_
 _symmetry_equiv_pos_site_id
 _symmetry_equiv_pos_as_xyz
  1  'x, y, z'
loop_
 _atom_site_type_symbol
 _atom_site_label
 _atom_site_symmetry_multiplicity
 _atom_site_fract_x
 _atom_site_fract_y
 _atom_site_fract_z
 _atom_site_occupancy
  Ag  Ag0  1  0.74426200  0.53973400  0.23120500  1
  Ag  Ag1  1  0.24426200  0.96026600  0.73120500  1
  Ag  Ag2  1  0.25573800  0.46026600  0.76879500  1
  Ag  Ag3  1  0.75573800  0.03973400  0.26879500  1
  Ag  Ag4  1  0.23166000  0.82372700  0.07126300  1
  Ag  Ag5  1  0.73166000  0.67627300  0.57126300  1
  Ag  Ag6  1  0.76834000  0.17627300  0.92873700  1
  Ag  Ag7  1  0.26834000  0.32372700  0.42873700  1
  S  S8  1  0.42355700  0.78408200  0.34507200  1
  S  S9  1  0.92355700  0.71591800  0.84507200  1
  S  S10  1  0.57644300  0.21591800  0.65492800  1
  S  S11  1  0.07644300  0.28408200  0.15492800  1
