# generated using pymatgen
data_Ni(N3O2)2
_symmetry_space_group_name_H-M   'P 1'
_cell_length_a   6.26690236
_cell_length_b   6.26690236
_cell_length_c   4.11606281
_cell_angle_alpha   80.22799517
_cell_angle_beta   80.22799517
_cell_angle_gamma   92.78551454
_symmetry_Int_Tables_number   1
_chemical_formula_structural   Ni(N3O2)2
_chemical_formula_sum   'Ni1 N6 O4'
_cell_volume   156.49820509
_cell_formula_units_Z   1
loop_
 _symmetry_equiv_pos_site_id
 _symmetry_equiv_pos_as_xyz
  1  'x, y, z'
loop_
 _atom_site_type_symbol
 _atom_site_label
 _atom_site_symmetry_multiplicity
 _atom_site_fract_x
 _atom_site_fract_y
 _atom_site_fract_z
 _atom_site_occupancy
  Ni  Ni0  1  0.00000000  0.00000000  0.00000000  1
  N  N1  1  0.18411600  0.18411600  0.56943200  1
  N  N2  1  0.81588400  0.81588400  0.43056800  1
  N  N3  1  0.31798400  0.74913200  0.09983500  1
  N  N4  1  0.74913200  0.31798400  0.09983500  1
  N  N5  1  0.68201600  0.25086800  0.90016500  1
  N  N6  1  0.25086800  0.68201600  0.90016500  1
  O  O7  1  0.32143700  0.32143700  0.59908900  1
  O  O8  1  0.67856300  0.67856300  0.40091100  1
  O  O9  1  0.16775300  0.16775300  0.26592200  1
  O  O10  1  0.83224700  0.83224700  0.73407800  1
