# generated using pymatgen
data_EuAs
_symmetry_space_group_name_H-M   'P 1'
_cell_length_a   7.96827202
_cell_length_b   7.96827202
_cell_length_c   6.25362500
_cell_angle_alpha   90.00000000
_cell_angle_beta   90.00000000
_cell_angle_gamma   120.00000017
_symmetry_Int_Tables_number   1
_chemical_formula_structural   EuAs
_chemical_formula_sum   'Eu6 As6'
_cell_volume   343.86721341
_cell_formula_units_Z   6
loop_
 _symmetry_equiv_pos_site_id
 _symmetry_equiv_pos_as_xyz
  1  'x, y, z'
loop_
 _atom_site_type_symbol
 _atom_site_label
 _atom_site_symmetry_multiplicity
 _atom_site_fract_x
 _atom_site_fract_y
 _atom_site_fract_z
 _atom_site_occupancy
  Eu  Eu0  1  0.68538200  0.00000000  0.00000000  1
  Eu  Eu1  1  0.00000000  0.68538200  0.00000000  1
  Eu  Eu2  1  0.31461800  0.31461800  0.00000000  1
  Eu  Eu3  1  0.35317000  0.00000000  0.50000000  1
  Eu  Eu4  1  0.00000000  0.35317000  0.50000000  1
  Eu  Eu5  1  0.64683000  0.64683000  0.50000000  1
  As  As6  1  0.00000000  0.00000000  0.71005900  1
  As  As7  1  0.00000000  0.00000000  0.28994100  1
  As  As8  1  0.33333300  0.66666700  0.77784300  1
  As  As9  1  0.33333300  0.66666700  0.22215700  1
  As  As10  1  0.66666700  0.33333300  0.77784300  1
  As  As11  1  0.66666700  0.33333300  0.22215700  1
