# generated using pymatgen
data_UO11
_symmetry_space_group_name_H-M   'P 1'
_cell_length_a   5.47921222
_cell_length_b   6.98668600
_cell_length_c   8.31839244
_cell_angle_alpha   103.92013441
_cell_angle_beta   94.63899438
_cell_angle_gamma   111.56188744
_symmetry_Int_Tables_number   1
_chemical_formula_structural   UO11
_chemical_formula_sum   'U1 O11'
_cell_volume   282.35914974
_cell_formula_units_Z   1
loop_
 _symmetry_equiv_pos_site_id
 _symmetry_equiv_pos_as_xyz
  1  'x, y, z'
loop_
 _atom_site_type_symbol
 _atom_site_label
 _atom_site_symmetry_multiplicity
 _atom_site_fract_x
 _atom_site_fract_y
 _atom_site_fract_z
 _atom_site_occupancy
  U  U0  1  0.02354700  0.02042900  0.02179700  1
  O  O1  1  0.61735300  0.99858900  0.96205900  1
  O  O2  1  0.39475500  0.98824000  0.02655000  1
  O  O3  1  0.00601400  0.16372100  0.79409900  1
  O  O4  1  0.26114100  0.24516400  0.86791300  1
  O  O5  1  0.99378000  0.79837800  0.19362000  1
  O  O6  1  0.74777800  0.72942900  0.10847500  1
  O  O7  1  0.11010000  0.62762100  0.68727200  1
  O  O8  1  0.79799700  0.45895900  0.36817700  1
  O  O9  1  0.08190400  0.23868000  0.21292300  1
  O  O10  1  0.94782400  0.67891300  0.76298400  1
  O  O11  1  0.59580600  0.33487700  0.40113000  1
