data_image0
_chemical_formula_structural       B64H96
_chemical_formula_sum              "B64 H96"
_cell_length_a       12.8536
_cell_length_b       9.82342
_cell_length_c       9.7481
_cell_angle_alpha    90
_cell_angle_beta     90
_cell_angle_gamma    90

_space_group_name_H-M_alt    "P 1"
_space_group_IT_number       1

loop_
  _space_group_symop_operation_xyz
  'x, y, z'

loop_
  _atom_site_type_symbol
  _atom_site_label
  _atom_site_symmetry_multiplicity
  _atom_site_fract_x
  _atom_site_fract_y
  _atom_site_fract_z
  _atom_site_occupancy
  B   B1        1.0  0.21600  0.61900  0.33400  1.0000
  B   B2        1.0  0.28400  0.38100  0.83400  1.0000
  B   B3        1.0  0.71600  0.88100  0.66600  1.0000
  B   B4        1.0  0.78400  0.11900  0.16600  1.0000
  B   B5        1.0  0.78400  0.38100  0.66600  1.0000
  B   B6        1.0  0.71600  0.61900  0.16600  1.0000
  B   B7        1.0  0.28400  0.11900  0.33400  1.0000
  B   B8        1.0  0.21600  0.88100  0.83400  1.0000
  B   B9        1.0  0.24300  0.65700  0.17300  1.0000
  B   B10       1.0  0.25700  0.34300  0.67300  1.0000
  B   B11       1.0  0.74300  0.84300  0.82700  1.0000
  B   B12       1.0  0.75700  0.15700  0.32700  1.0000
  B   B13       1.0  0.75700  0.34300  0.82700  1.0000
  B   B14       1.0  0.74300  0.65700  0.32700  1.0000
  B   B15       1.0  0.25700  0.15700  0.17300  1.0000
  B   B16       1.0  0.24300  0.84300  0.67300  1.0000
  B   B17       1.0  0.38000  0.63500  0.14500  1.0000
  B   B18       1.0  0.12000  0.36500  0.64500  1.0000
  B   B19       1.0  0.88000  0.86500  0.85500  1.0000
  B   B20       1.0  0.62000  0.13500  0.35500  1.0000
  B   B21       1.0  0.62000  0.36500  0.85500  1.0000
  B   B22       1.0  0.88000  0.63500  0.35500  1.0000
  B   B23       1.0  0.12000  0.13500  0.14500  1.0000
  B   B24       1.0  0.38000  0.86500  0.64500  1.0000
  B   B25       1.0  0.43900  0.47500  0.18300  1.0000
  B   B26       1.0  0.06150  0.52500  0.68300  1.0000
  B   B27       1.0  0.93900  0.02470  0.81700  1.0000
  B   B28       1.0  0.56100  0.97500  0.31700  1.0000
  B   B29       1.0  0.56100  0.52500  0.81700  1.0000
  B   B30       1.0  0.93900  0.47500  0.31700  1.0000
  B   B31       1.0  0.06150  0.97500  0.18300  1.0000
  B   B32       1.0  0.43900  0.02470  0.68300  1.0000
  B   B33       1.0  0.32800  0.70500  0.29800  1.0000
  B   B34       1.0  0.17200  0.29500  0.79800  1.0000
  B   B35       1.0  0.82800  0.79500  0.70200  1.0000
  B   B36       1.0  0.67200  0.20500  0.20200  1.0000
  B   B37       1.0  0.67200  0.29500  0.70200  1.0000
  B   B38       1.0  0.82800  0.70500  0.20200  1.0000
  B   B39       1.0  0.17200  0.20500  0.29800  1.0000
  B   B40       1.0  0.32800  0.79500  0.79800  1.0000
  B   B41       1.0  0.44300  0.60000  0.30600  1.0000
  B   B42       1.0  0.05680  0.40000  0.80600  1.0000
  B   B43       1.0  0.94300  0.90000  0.69400  1.0000
  B   B44       1.0  0.55700  0.10000  0.19400  1.0000
  B   B45       1.0  0.55700  0.40000  0.69400  1.0000
  B   B46       1.0  0.94300  0.60000  0.19400  1.0000
  B   B47       1.0  0.05680  0.10000  0.30600  1.0000
  B   B48       1.0  0.44300  0.90000  0.80600  1.0000
  B   B49       1.0  0.33500  0.57100  0.42000  1.0000
  B   B50       1.0  0.16500  0.42900  0.92000  1.0000
  B   B51       1.0  0.83500  0.92900  0.58000  1.0000
  B   B52       1.0  0.66500  0.07090  0.08010  1.0000
  B   B53       1.0  0.66500  0.42900  0.58000  1.0000
  B   B54       1.0  0.83500  0.57100  0.08010  1.0000
  B   B55       1.0  0.16500  0.07090  0.42000  1.0000
  B   B56       1.0  0.33500  0.92900  0.92000  1.0000
  B   B57       1.0  0.41200  0.43700  0.35100  1.0000
  B   B58       1.0  0.08820  0.56300  0.85100  1.0000
  B   B59       1.0  0.91200  0.06340  0.64900  1.0000
  B   B60       1.0  0.58800  0.93700  0.14900  1.0000
  B   B61       1.0  0.58800  0.56300  0.64900  1.0000
  B   B62       1.0  0.91200  0.43700  0.14900  1.0000
  B   B63       1.0  0.08820  0.93700  0.35100  1.0000
  B   B64       1.0  0.41200  0.06340  0.85100  1.0000
  H   H1        1.0  0.45400  0.35300  0.41900  1.0000
  H   H2        1.0  0.04550  0.64700  0.91900  1.0000
  H   H3        1.0  0.95400  0.14700  0.58100  1.0000
  H   H4        1.0  0.54600  0.85300  0.08140  1.0000
  H   H5        1.0  0.54600  0.64700  0.58100  1.0000
  H   H6        1.0  0.95400  0.35300  0.08140  1.0000
  H   H7        1.0  0.04550  0.85300  0.41900  1.0000
  H   H8        1.0  0.45400  0.14700  0.91900  1.0000
  H   H9        1.0  0.30600  0.44800  0.38700  1.0000
  H   H10       1.0  0.19400  0.55200  0.88700  1.0000
  H   H11       1.0  0.80600  0.05190  0.61300  1.0000
  H   H12       1.0  0.69400  0.94800  0.11300  1.0000
  H   H13       1.0  0.69400  0.55200  0.61300  1.0000
  H   H14       1.0  0.80600  0.44800  0.11300  1.0000
  H   H15       1.0  0.19400  0.94800  0.38700  1.0000
  H   H16       1.0  0.30600  0.05190  0.88700  1.0000
  H   H17       1.0  0.52200  0.65300  0.34100  1.0000
  H   H18       1.0  0.97800  0.34700  0.84100  1.0000
  H   H19       1.0  0.02210  0.84700  0.65900  1.0000
  H   H20       1.0  0.47800  0.15300  0.15900  1.0000
  H   H21       1.0  0.47800  0.34700  0.65900  1.0000
  H   H22       1.0  0.02210  0.65300  0.15900  1.0000
  H   H23       1.0  0.97800  0.15300  0.34100  1.0000
  H   H24       1.0  0.52200  0.84700  0.84100  1.0000
  H   H25       1.0  0.34000  0.58400  0.54100  1.0000
  H   H26       1.0  0.16000  0.41600  0.04140  1.0000
  H   H27       1.0  0.84000  0.91600  0.45900  1.0000
  H   H28       1.0  0.66000  0.08370  0.95900  1.0000
  H   H29       1.0  0.66000  0.41600  0.45900  1.0000
  H   H30       1.0  0.84000  0.58400  0.95900  1.0000
  H   H31       1.0  0.16000  0.08370  0.54100  1.0000
  H   H32       1.0  0.34000  0.91600  0.04140  1.0000
  H   H33       1.0  0.38200  0.37300  0.23600  1.0000
  H   H34       1.0  0.11800  0.62700  0.73600  1.0000
  H   H35       1.0  0.88200  0.12700  0.76400  1.0000
  H   H36       1.0  0.61800  0.87300  0.26400  1.0000
  H   H37       1.0  0.61800  0.62700  0.76400  1.0000
  H   H38       1.0  0.88200  0.37300  0.26400  1.0000
  H   H39       1.0  0.11800  0.87300  0.23600  1.0000
  H   H40       1.0  0.38200  0.12700  0.73600  1.0000
  H   H41       1.0  0.34200  0.82100  0.32800  1.0000
  H   H42       1.0  0.15800  0.17900  0.82800  1.0000
  H   H43       1.0  0.84200  0.67900  0.67200  1.0000
  H   H44       1.0  0.65800  0.32100  0.17200  1.0000
  H   H45       1.0  0.65800  0.17900  0.67200  1.0000
  H   H46       1.0  0.84200  0.82100  0.17200  1.0000
  H   H47       1.0  0.15800  0.32100  0.32800  1.0000
  H   H48       1.0  0.34200  0.67900  0.82800  1.0000
  H   H49       1.0  0.42100  0.69600  0.05440  1.0000
  H   H50       1.0  0.07900  0.30400  0.55400  1.0000
  H   H51       1.0  0.92100  0.80400  0.94600  1.0000
  H   H52       1.0  0.57900  0.19600  0.44600  1.0000
  H   H53       1.0  0.57900  0.30400  0.94600  1.0000
  H   H54       1.0  0.92100  0.69600  0.44600  1.0000
  H   H55       1.0  0.07900  0.19600  0.05440  1.0000
  H   H56       1.0  0.42100  0.80400  0.55400  1.0000
  H   H57       1.0  0.50300  0.42300  0.11300  1.0000
  H   H58       1.0  0.99700  0.57700  0.61300  1.0000
  H   H59       1.0  0.00284  0.07710  0.88700  1.0000
  H   H60       1.0  0.49700  0.92300  0.38700  1.0000
  H   H61       1.0  0.49700  0.57700  0.88700  1.0000
  H   H62       1.0  0.00284  0.42300  0.38700  1.0000
  H   H63       1.0  0.99700  0.92300  0.11300  1.0000
  H   H64       1.0  0.50300  0.07710  0.61300  1.0000
  H   H65       1.0  0.13700  0.62700  0.39800  1.0000
  H   H66       1.0  0.36300  0.37300  0.89800  1.0000
  H   H67       1.0  0.63700  0.87300  0.60200  1.0000
  H   H68       1.0  0.86300  0.12700  0.10200  1.0000
  H   H69       1.0  0.86300  0.37300  0.60200  1.0000
  H   H70       1.0  0.63700  0.62700  0.10200  1.0000
  H   H71       1.0  0.36300  0.12700  0.39800  1.0000
  H   H72       1.0  0.13700  0.87300  0.89800  1.0000
  H   H73       1.0  0.19000  0.70300  0.08470  1.0000
  H   H74       1.0  0.31000  0.29700  0.58500  1.0000
  H   H75       1.0  0.69000  0.79700  0.91500  1.0000
  H   H76       1.0  0.81000  0.20300  0.41500  1.0000
  H   H77       1.0  0.81000  0.29700  0.91500  1.0000
  H   H78       1.0  0.69000  0.70300  0.41500  1.0000
  H   H79       1.0  0.31000  0.20300  0.08470  1.0000
  H   H80       1.0  0.19000  0.79700  0.58500  1.0000
  H   H81       1.0  0.19900  0.54300  0.22200  1.0000
  H   H82       1.0  0.30100  0.45700  0.72200  1.0000
  H   H83       1.0  0.69900  0.95700  0.77800  1.0000
  H   H84       1.0  0.80100  0.04280  0.27800  1.0000
  H   H85       1.0  0.80100  0.45700  0.77800  1.0000
  H   H86       1.0  0.69900  0.54300  0.27800  1.0000
  H   H87       1.0  0.30100  0.04280  0.22200  1.0000
  H   H88       1.0  0.19900  0.95700  0.72200  1.0000
  H   H89       1.0  0.35200  0.51400  0.10400  1.0000
  H   H90       1.0  0.14800  0.48600  0.60400  1.0000
  H   H91       1.0  0.85200  0.98600  0.89600  1.0000
  H   H92       1.0  0.64800  0.01360  0.39600  1.0000
  H   H93       1.0  0.64800  0.48600  0.89600  1.0000
  H   H94       1.0  0.85200  0.51400  0.39600  1.0000
  H   H95       1.0  0.14800  0.01360  0.10400  1.0000
  H   H96       1.0  0.35200  0.98600  0.60400  1.0000
