# generated using pymatgen
data_MoPRh
_symmetry_space_group_name_H-M   'P 1'
_cell_length_a   3.94642400
_cell_length_b   5.99520400
_cell_length_c   7.03891700
_cell_angle_alpha   90.00000000
_cell_angle_beta   90.00000000
_cell_angle_gamma   90.00000000
_symmetry_Int_Tables_number   1
_chemical_formula_structural   MoPRh
_chemical_formula_sum   'Mo4 P4 Rh4'
_cell_volume   166.53807997
_cell_formula_units_Z   4
loop_
 _symmetry_equiv_pos_site_id
 _symmetry_equiv_pos_as_xyz
  1  'x, y, z'
loop_
 _atom_site_type_symbol
 _atom_site_label
 _atom_site_symmetry_multiplicity
 _atom_site_fract_x
 _atom_site_fract_y
 _atom_site_fract_z
 _atom_site_occupancy
  Mo  Mo0  1  0.25000000  0.03244100  0.16368700  1
  Mo  Mo1  1  0.25000000  0.53244100  0.33631300  1
  Mo  Mo2  1  0.75000000  0.96755900  0.83631300  1
  Mo  Mo3  1  0.75000000  0.46755900  0.66368700  1
  P  P4  1  0.25000000  0.74815200  0.61441200  1
  P  P5  1  0.25000000  0.24815200  0.88558800  1
  P  P6  1  0.75000000  0.25184800  0.38558800  1
  P  P7  1  0.75000000  0.75184800  0.11441200  1
  Rh  Rh8  1  0.25000000  0.13765700  0.57267000  1
  Rh  Rh9  1  0.25000000  0.63765700  0.92733000  1
  Rh  Rh10  1  0.75000000  0.86234300  0.42733000  1
  Rh  Rh11  1  0.75000000  0.36234300  0.07267000  1
