# generated using pymatgen
data_KAlN4
_symmetry_space_group_name_H-M   'P 1'
_cell_length_a   5.58253108
_cell_length_b   5.58253108
_cell_length_c   9.69236400
_cell_angle_alpha   90.00000000
_cell_angle_beta   90.00000000
_cell_angle_gamma   121.60540157
_symmetry_Int_Tables_number   1
_chemical_formula_structural   KAlN4
_chemical_formula_sum   'K2 Al2 N8'
_cell_volume   257.25700258
_cell_formula_units_Z   2
loop_
 _symmetry_equiv_pos_site_id
 _symmetry_equiv_pos_as_xyz
  1  'x, y, z'
loop_
 _atom_site_type_symbol
 _atom_site_label
 _atom_site_symmetry_multiplicity
 _atom_site_fract_x
 _atom_site_fract_y
 _atom_site_fract_z
 _atom_site_occupancy
  K  K0  1  0.78018500  0.21981500  0.25000000  1
  K  K1  1  0.21981500  0.78018500  0.75000000  1
  Al  Al2  1  0.54495100  0.54495100  0.50000000  1
  Al  Al3  1  0.45504900  0.45504900  0.00000000  1
  N  N4  1  0.76667000  0.72500400  0.33849700  1
  N  N5  1  0.27499600  0.23333000  0.16150300  1
  N  N6  1  0.23333000  0.27499600  0.83849700  1
  N  N7  1  0.72500400  0.76667000  0.66150300  1
  N  N8  1  0.50331200  0.18341300  0.52384800  1
  N  N9  1  0.81658700  0.49668800  0.97615200  1
  N  N10  1  0.49668800  0.81658700  0.02384800  1
  N  N11  1  0.18341300  0.50331200  0.47615200  1
