# generated using pymatgen
data_K3TcC4(N2O)2
_symmetry_space_group_name_H-M   'P 1'
_cell_length_a   6.51963040
_cell_length_b   7.13369222
_cell_length_c   7.64173390
_cell_angle_alpha   106.48527986
_cell_angle_beta   110.65441799
_cell_angle_gamma   105.63898507
_symmetry_Int_Tables_number   1
_chemical_formula_structural   K3TcC4(N2O)2
_chemical_formula_sum   'K3 Tc1 C4 N4 O2'
_cell_volume   290.57211617
_cell_formula_units_Z   1
loop_
 _symmetry_equiv_pos_site_id
 _symmetry_equiv_pos_as_xyz
  1  'x, y, z'
loop_
 _atom_site_type_symbol
 _atom_site_label
 _atom_site_symmetry_multiplicity
 _atom_site_fract_x
 _atom_site_fract_y
 _atom_site_fract_z
 _atom_site_occupancy
  K  K0  1  0.50000000  0.00000000  0.00000000  1
  K  K1  1  0.95599100  0.66464900  0.30023800  1
  K  K2  1  0.04400900  0.33535100  0.69976200  1
  Tc  Tc3  1  0.50000000  0.50000000  0.50000000  1
  C  C4  1  0.40214900  0.59841400  0.25604100  1
  C  C5  1  0.59785100  0.40158600  0.74395900  1
  C  C6  1  0.82113600  0.78825600  0.66815700  1
  C  C7  1  0.17886400  0.21174400  0.33184300  1
  N  N8  1  0.34968100  0.65738500  0.12430100  1
  N  N9  1  0.65031900  0.34261500  0.87569900  1
  N  N10  1  0.00157600  0.94189200  0.74481100  1
  N  N11  1  0.99842400  0.05810800  0.25518900  1
  O  O12  1  0.34339800  0.63005000  0.60539200  1
  O  O13  1  0.65660200  0.36995000  0.39460800  1
