# generated using pymatgen
data_YbCu2
_symmetry_space_group_name_H-M   'P 1'
_cell_length_a   5.12748300
_cell_length_b   5.12748229
_cell_length_c   8.44622500
_cell_angle_alpha   90.00000000
_cell_angle_beta   90.00000000
_cell_angle_gamma   119.99999815
_symmetry_Int_Tables_number   1
_chemical_formula_structural   YbCu2
_chemical_formula_sum   'Yb4 Cu8'
_cell_volume   192.30991863
_cell_formula_units_Z   4
loop_
 _symmetry_equiv_pos_site_id
 _symmetry_equiv_pos_as_xyz
  1  'x, y, z'
loop_
 _atom_site_type_symbol
 _atom_site_label
 _atom_site_symmetry_multiplicity
 _atom_site_fract_x
 _atom_site_fract_y
 _atom_site_fract_z
 _atom_site_occupancy
  Yb  Yb0  1  0.33333300  0.66666700  0.43943800  1
  Yb  Yb1  1  0.66666700  0.33333300  0.56056200  1
  Yb  Yb2  1  0.66666700  0.33333300  0.93943800  1
  Yb  Yb3  1  0.33333300  0.66666700  0.06056200  1
  Cu  Cu4  1  0.00000000  0.00000000  0.50000000  1
  Cu  Cu5  1  0.00000000  0.00000000  0.00000000  1
  Cu  Cu6  1  0.83305000  0.16695000  0.25000000  1
  Cu  Cu7  1  0.83305000  0.66610000  0.25000000  1
  Cu  Cu8  1  0.33390000  0.16695000  0.25000000  1
  Cu  Cu9  1  0.16695000  0.83305000  0.75000000  1
  Cu  Cu10  1  0.16695000  0.33390000  0.75000000  1
  Cu  Cu11  1  0.66610000  0.83305000  0.75000000  1
