# generated using pymatgen
data_ZrV2
_symmetry_space_group_name_H-M   'P 1'
_cell_length_a   5.20819300
_cell_length_b   5.20819373
_cell_length_c   8.45714000
_cell_angle_alpha   90.00000000
_cell_angle_beta   90.00000000
_cell_angle_gamma   120.00000172
_symmetry_Int_Tables_number   1
_chemical_formula_structural   ZrV2
_chemical_formula_sum   'Zr4 V8'
_cell_volume   198.66819411
_cell_formula_units_Z   4
loop_
 _symmetry_equiv_pos_site_id
 _symmetry_equiv_pos_as_xyz
  1  'x, y, z'
loop_
 _atom_site_type_symbol
 _atom_site_label
 _atom_site_symmetry_multiplicity
 _atom_site_fract_x
 _atom_site_fract_y
 _atom_site_fract_z
 _atom_site_occupancy
  Zr  Zr0  1  0.33333300  0.66666700  0.43593900  1
  Zr  Zr1  1  0.66666700  0.33333300  0.56406100  1
  Zr  Zr2  1  0.66666700  0.33333300  0.93593900  1
  Zr  Zr3  1  0.33333300  0.66666700  0.06406100  1
  V  V4  1  0.00000000  0.00000000  0.50000000  1
  V  V5  1  0.00000000  0.00000000  0.00000000  1
  V  V6  1  0.83117000  0.16883000  0.25000000  1
  V  V7  1  0.83117000  0.66234000  0.25000000  1
  V  V8  1  0.33766000  0.16883000  0.25000000  1
  V  V9  1  0.16883000  0.83117000  0.75000000  1
  V  V10  1  0.16883000  0.33766000  0.75000000  1
  V  V11  1  0.66234000  0.83117000  0.75000000  1
