# generated using pymatgen
data_RbCuO
_symmetry_space_group_name_H-M   'P 1'
_cell_length_a   5.91555100
_cell_length_b   7.43400145
_cell_length_c   7.43400145
_cell_angle_alpha   80.89167802
_cell_angle_beta   66.55483646
_cell_angle_gamma   66.55483646
_symmetry_Int_Tables_number   1
_chemical_formula_structural   RbCuO
_chemical_formula_sum   'Rb4 Cu4 O4'
_cell_volume   275.16744275
_cell_formula_units_Z   4
loop_
 _symmetry_equiv_pos_site_id
 _symmetry_equiv_pos_as_xyz
  1  'x, y, z'
loop_
 _atom_site_type_symbol
 _atom_site_label
 _atom_site_symmetry_multiplicity
 _atom_site_fract_x
 _atom_site_fract_y
 _atom_site_fract_z
 _atom_site_occupancy
  Rb  Rb0  1  0.25225300  0.80641800  0.19358200  1
  Rb  Rb1  1  0.25225300  0.19358200  0.80641800  1
  Rb  Rb2  1  0.55416500  0.19358200  0.19358200  1
  Rb  Rb3  1  0.94132900  0.80641800  0.80641800  1
  Cu  Cu4  1  0.88530000  0.50000000  0.22940100  1
  Cu  Cu5  1  0.61470000  0.50000000  0.77059900  1
  Cu  Cu6  1  0.88530000  0.22940100  0.50000000  1
  Cu  Cu7  1  0.61470000  0.77059900  0.50000000  1
  O  O8  1  0.74063400  0.23010700  0.76989300  1
  O  O9  1  0.74063400  0.76989300  0.23010700  1
  O  O10  1  0.48947400  0.76989300  0.76989300  1
  O  O11  1  0.02925900  0.23010700  0.23010700  1
