# generated using pymatgen
data_Yb2GeS4
_symmetry_space_group_name_H-M   'P 1'
_cell_length_a   6.66078000
_cell_length_b   6.49318400
_cell_length_c   7.67838830
_cell_angle_alpha   72.42120925
_cell_angle_beta   90.00000000
_cell_angle_gamma   90.00000000
_symmetry_Int_Tables_number   1
_chemical_formula_structural   Yb2GeS4
_chemical_formula_sum   'Yb4 Ge2 S8'
_cell_volume   316.58010311
_cell_formula_units_Z   2
loop_
 _symmetry_equiv_pos_site_id
 _symmetry_equiv_pos_as_xyz
  1  'x, y, z'
loop_
 _atom_site_type_symbol
 _atom_site_label
 _atom_site_symmetry_multiplicity
 _atom_site_fract_x
 _atom_site_fract_y
 _atom_site_fract_z
 _atom_site_occupancy
  Yb  Yb0  1  0.25000000  0.72008200  0.94696800  1
  Yb  Yb1  1  0.75000000  0.27991800  0.05303200  1
  Yb  Yb2  1  0.25000000  0.74239900  0.43778600  1
  Yb  Yb3  1  0.75000000  0.25760100  0.56221400  1
  Ge  Ge4  1  0.25000000  0.26016500  0.80544300  1
  Ge  Ge5  1  0.75000000  0.73983500  0.19455700  1
  S  S6  1  0.25000000  0.06977400  0.09680800  1
  S  S7  1  0.75000000  0.93022600  0.90319200  1
  S  S8  1  0.25000000  0.06304900  0.61701000  1
  S  S9  1  0.75000000  0.93695100  0.38299000  1
  S  S10  1  0.50217900  0.49793700  0.74395900  1
  S  S11  1  0.00217900  0.50206300  0.25604100  1
  S  S12  1  0.49782100  0.50206300  0.25604100  1
  S  S13  1  0.99782100  0.49793700  0.74395900  1
