# generated using pymatgen
data_LaS2
_symmetry_space_group_name_H-M   'P 1'
_cell_length_a   4.14171700
_cell_length_b   8.20223500
_cell_length_c   8.22150683
_cell_angle_alpha   89.94470088
_cell_angle_beta   90.00000000
_cell_angle_gamma   90.00000000
_symmetry_Int_Tables_number   1
_chemical_formula_structural   LaS2
_chemical_formula_sum   'La4 S8'
_cell_volume   279.29544197
_cell_formula_units_Z   4
loop_
 _symmetry_equiv_pos_site_id
 _symmetry_equiv_pos_as_xyz
  1  'x, y, z'
loop_
 _atom_site_type_symbol
 _atom_site_label
 _atom_site_symmetry_multiplicity
 _atom_site_fract_x
 _atom_site_fract_y
 _atom_site_fract_z
 _atom_site_occupancy
  La  La0  1  0.71231000  0.37020500  0.27717800  1
  La  La1  1  0.21231000  0.12979500  0.72282200  1
  La  La2  1  0.28769000  0.62979500  0.72282200  1
  La  La3  1  0.78769000  0.87020500  0.27717800  1
  S  S4  1  0.65197900  0.10514600  0.99766600  1
  S  S5  1  0.15197900  0.39485400  0.00233400  1
  S  S6  1  0.34802100  0.89485400  0.00233400  1
  S  S7  1  0.84802100  0.60514600  0.99766600  1
  S  S8  1  0.73765200  0.37440900  0.63478800  1
  S  S9  1  0.23765200  0.12559100  0.36521200  1
  S  S10  1  0.26234800  0.62559100  0.36521200  1
  S  S11  1  0.76234800  0.87440900  0.63478800  1
