# generated using pymatgen
data_NbNi2
_symmetry_space_group_name_H-M   'P 1'
_cell_length_a   4.79210230
_cell_length_b   4.79210230
_cell_length_c   7.78637000
_cell_angle_alpha   90.00000000
_cell_angle_beta   90.00000000
_cell_angle_gamma   120.00271015
_symmetry_Int_Tables_number   1
_chemical_formula_structural   NbNi2
_chemical_formula_sum   'Nb4 Ni8'
_cell_volume   154.84813176
_cell_formula_units_Z   4
loop_
 _symmetry_equiv_pos_site_id
 _symmetry_equiv_pos_as_xyz
  1  'x, y, z'
loop_
 _atom_site_type_symbol
 _atom_site_label
 _atom_site_symmetry_multiplicity
 _atom_site_fract_x
 _atom_site_fract_y
 _atom_site_fract_z
 _atom_site_occupancy
  Nb  Nb0  1  0.66671500  0.33328500  0.55517800  1
  Nb  Nb1  1  0.33328500  0.66671500  0.44482200  1
  Nb  Nb2  1  0.33328500  0.66671500  0.05517800  1
  Nb  Nb3  1  0.66671500  0.33328500  0.94482200  1
  Ni  Ni4  1  0.00000000  0.00000000  0.50000000  1
  Ni  Ni5  1  0.00000000  0.00000000  0.00000000  1
  Ni  Ni6  1  0.16881100  0.33763500  0.75000000  1
  Ni  Ni7  1  0.16878900  0.83121100  0.75000000  1
  Ni  Ni8  1  0.66236500  0.83118900  0.75000000  1
  Ni  Ni9  1  0.83118900  0.66236500  0.25000000  1
  Ni  Ni10  1  0.83121100  0.16878900  0.25000000  1
  Ni  Ni11  1  0.33763500  0.16881100  0.25000000  1
