# generated using pymatgen
data_PdCl2
_symmetry_space_group_name_H-M   'P 1'
_cell_length_a   4.28004200
_cell_length_b   5.79006300
_cell_length_c   6.46678073
_cell_angle_alpha   73.03451491
_cell_angle_beta   90.00000000
_cell_angle_gamma   90.00000000
_symmetry_Int_Tables_number   1
_chemical_formula_structural   PdCl2
_chemical_formula_sum   'Pd2 Cl4'
_cell_volume   153.28359219
_cell_formula_units_Z   2
loop_
 _symmetry_equiv_pos_site_id
 _symmetry_equiv_pos_as_xyz
  1  'x, y, z'
loop_
 _atom_site_type_symbol
 _atom_site_label
 _atom_site_symmetry_multiplicity
 _atom_site_fract_x
 _atom_site_fract_y
 _atom_site_fract_z
 _atom_site_occupancy
  Pd  Pd0  1  0.00000000  0.00000000  0.50000000  1
  Pd  Pd1  1  0.50000000  0.00000000  0.00000000  1
  Cl  Cl2  1  0.75577300  0.76478000  0.30898800  1
  Cl  Cl3  1  0.25577300  0.23522000  0.19101200  1
  Cl  Cl4  1  0.24422700  0.23522000  0.69101200  1
  Cl  Cl5  1  0.74422700  0.76478000  0.80898800  1
