# generated using pymatgen
data_Y(CrGe)6
_symmetry_space_group_name_H-M   'P 1'
_cell_length_a   5.11400317
_cell_length_b   5.11422179
_cell_length_c   8.32366900
_cell_angle_alpha   90.00000000
_cell_angle_beta   90.00000000
_cell_angle_gamma   119.99859616
_symmetry_Int_Tables_number   1
_chemical_formula_structural   Y(CrGe)6
_chemical_formula_sum   'Y1 Cr6 Ge6'
_cell_volume   188.53506207
_cell_formula_units_Z   1
loop_
 _symmetry_equiv_pos_site_id
 _symmetry_equiv_pos_as_xyz
  1  'x, y, z'
loop_
 _atom_site_type_symbol
 _atom_site_label
 _atom_site_symmetry_multiplicity
 _atom_site_fract_x
 _atom_site_fract_y
 _atom_site_fract_z
 _atom_site_occupancy
  Y  Y0  1  0.99997800  0.00000000  0.00000000  1
  Cr  Cr1  1  0.49998600  0.00000000  0.25098100  1
  Cr  Cr2  1  0.49998700  0.49999900  0.25102800  1
  Cr  Cr3  1  0.99998800  0.50000100  0.25102800  1
  Cr  Cr4  1  0.49998600  0.00000000  0.74901900  1
  Cr  Cr5  1  0.49998700  0.49999900  0.74897200  1
  Cr  Cr6  1  0.99998800  0.50000100  0.74897200  1
  Ge  Ge7  1  0.33332400  0.66669300  0.00000000  1
  Ge  Ge8  1  0.66663100  0.33330700  0.00000000  1
  Ge  Ge9  1  0.33333900  0.66671700  0.50000000  1
  Ge  Ge10  1  0.66662300  0.33328300  0.50000000  1
  Ge  Ge11  1  0.99999000  0.00000000  0.34623700  1
  Ge  Ge12  1  0.99999000  0.00000000  0.65376300  1
