# generated using pymatgen
data_Sr3TaHO6
_symmetry_space_group_name_H-M   'P 1'
_cell_length_a   6.05399511
_cell_length_b   6.05399511
_cell_length_c   6.25969646
_cell_angle_alpha   117.08201015
_cell_angle_beta   117.08201015
_cell_angle_gamma   91.16456280
_symmetry_Int_Tables_number   1
_chemical_formula_structural   Sr3TaHO6
_chemical_formula_sum   'Sr3 Ta1 H1 O6'
_cell_volume   174.21501258
_cell_formula_units_Z   1
loop_
 _symmetry_equiv_pos_site_id
 _symmetry_equiv_pos_as_xyz
  1  'x, y, z'
loop_
 _atom_site_type_symbol
 _atom_site_label
 _atom_site_symmetry_multiplicity
 _atom_site_fract_x
 _atom_site_fract_y
 _atom_site_fract_z
 _atom_site_occupancy
  Sr  Sr0  1  0.34067900  0.78303400  0.62510300  1
  Sr  Sr1  1  0.78303400  0.34067900  0.62510300  1
  Sr  Sr2  1  0.00620900  0.00620900  0.98639800  1
  Ta  Ta3  1  0.49783500  0.49783500  0.01724200  1
  H  H4  1  0.21230200  0.21230200  0.53356900  1
  O  O5  1  0.18575800  0.18575800  0.79996700  1
  O  O6  1  0.63001700  0.63001700  0.40510200  1
  O  O7  1  0.71915100  0.71915100  0.99682700  1
  O  O8  1  0.29824200  0.29824200  0.47725200  1
  O  O9  1  0.67656400  0.23026000  0.91674300  1
  O  O10  1  0.23026000  0.67656400  0.91674300  1
