# generated using pymatgen
data_MgCr2O4
_symmetry_space_group_name_H-M   'P 1'
_cell_length_a   5.05272773
_cell_length_b   5.05272773
_cell_length_c   9.82916900
_cell_angle_alpha   90.00000000
_cell_angle_beta   90.00000000
_cell_angle_gamma   146.33354243
_symmetry_Int_Tables_number   1
_chemical_formula_structural   MgCr2O4
_chemical_formula_sum   'Mg2 Cr4 O8'
_cell_volume   139.11000140
_cell_formula_units_Z   2
loop_
 _symmetry_equiv_pos_site_id
 _symmetry_equiv_pos_as_xyz
  1  'x, y, z'
loop_
 _atom_site_type_symbol
 _atom_site_label
 _atom_site_symmetry_multiplicity
 _atom_site_fract_x
 _atom_site_fract_y
 _atom_site_fract_z
 _atom_site_occupancy
  Mg  Mg0  1  0.60918200  0.39081800  0.75000000  1
  Mg  Mg1  1  0.39081800  0.60918200  0.25000000  1
  Cr  Cr2  1  0.13319100  0.86680900  0.07170400  1
  Cr  Cr3  1  0.86680900  0.13319100  0.92829600  1
  Cr  Cr4  1  0.13319100  0.86680900  0.42829600  1
  Cr  Cr5  1  0.86680900  0.13319100  0.57170400  1
  O  O6  1  0.77028400  0.22971600  0.38636300  1
  O  O7  1  0.22971600  0.77028400  0.61363700  1
  O  O8  1  0.22971600  0.77028400  0.88636300  1
  O  O9  1  0.77028400  0.22971600  0.11363700  1
  O  O10  1  0.03666300  0.96333700  0.25000000  1
  O  O11  1  0.96333700  0.03666300  0.75000000  1
  O  O12  1  0.50000000  0.50000000  0.00000000  1
  O  O13  1  0.50000000  0.50000000  0.50000000  1
