# generated using pymatgen
data_BaGaH5
_symmetry_space_group_name_H-M   'P 1'
_cell_length_a   4.61165800
_cell_length_b   5.02455700
_cell_length_c   8.59863415
_cell_angle_alpha   89.82709226
_cell_angle_beta   90.00000000
_cell_angle_gamma   90.00000000
_symmetry_Int_Tables_number   1
_chemical_formula_structural   BaGaH5
_chemical_formula_sum   'Ba2 Ga2 H10'
_cell_volume   199.24267496
_cell_formula_units_Z   2
loop_
 _symmetry_equiv_pos_site_id
 _symmetry_equiv_pos_as_xyz
  1  'x, y, z'
loop_
 _atom_site_type_symbol
 _atom_site_label
 _atom_site_symmetry_multiplicity
 _atom_site_fract_x
 _atom_site_fract_y
 _atom_site_fract_z
 _atom_site_occupancy
  Ba  Ba0  1  0.75824300  0.75419200  0.33994900  1
  Ba  Ba1  1  0.25824300  0.24580800  0.66005100  1
  Ga  Ga2  1  0.17082200  0.25598500  0.14414400  1
  Ga  Ga3  1  0.67082200  0.74401500  0.85585600  1
  H  H4  1  0.82213500  0.25585800  0.15777000  1
  H  H5  1  0.32213500  0.74414200  0.84223000  1
  H  H6  1  0.27187000  0.00862300  0.25012400  1
  H  H7  1  0.77187000  0.99137700  0.74987600  1
  H  H8  1  0.27157500  0.52272900  0.23179100  1
  H  H9  1  0.77157500  0.47727100  0.76820900  1
  H  H10  1  0.29564500  0.23927100  0.97402600  1
  H  H11  1  0.79564500  0.76072900  0.02597400  1
  H  H12  1  0.76121900  0.25349600  0.48285800  1
  H  H13  1  0.26121900  0.74650400  0.51714200  1
