# generated using pymatgen
data_Rb2LaNb2O8
_symmetry_space_group_name_H-M   'P 1'
_cell_length_a   3.91706200
_cell_length_b   3.91706200
_cell_length_c   14.84155900
_cell_angle_alpha   90.00000000
_cell_angle_beta   90.00000000
_cell_angle_gamma   90.00000000
_symmetry_Int_Tables_number   1
_chemical_formula_structural   Rb2LaNb2O8
_chemical_formula_sum   'Rb2 La1 Nb2 O8'
_cell_volume   227.71960104
_cell_formula_units_Z   1
loop_
 _symmetry_equiv_pos_site_id
 _symmetry_equiv_pos_as_xyz
  1  'x, y, z'
loop_
 _atom_site_type_symbol
 _atom_site_label
 _atom_site_symmetry_multiplicity
 _atom_site_fract_x
 _atom_site_fract_y
 _atom_site_fract_z
 _atom_site_occupancy
  Rb  Rb0  1  0.00000000  0.00000000  0.61489800  1
  Rb  Rb1  1  0.00000000  0.00000000  0.38510200  1
  La  La2  1  0.00000000  0.00000000  0.00000000  1
  Nb  Nb3  1  0.50000000  0.50000000  0.84478000  1
  Nb  Nb4  1  0.50000000  0.50000000  0.15522000  1
  O  O5  1  0.50000000  0.50000000  0.50000000  1
  O  O6  1  0.50000000  0.50000000  0.72288900  1
  O  O7  1  0.50000000  0.50000000  0.27711100  1
  O  O8  1  0.50000000  0.50000000  0.00000000  1
  O  O9  1  0.50000000  0.00000000  0.87520100  1
  O  O10  1  0.00000000  0.50000000  0.87520100  1
  O  O11  1  0.50000000  0.00000000  0.12479900  1
  O  O12  1  0.00000000  0.50000000  0.12479900  1
