# generated using pymatgen
data_Tb3Se2NO
_symmetry_space_group_name_H-M   'P 1'
_cell_length_a   8.04700209
_cell_length_b   8.04700209
_cell_length_c   9.76545942
_cell_angle_alpha   82.85025727
_cell_angle_beta   82.85025727
_cell_angle_gamma   28.33431440
_symmetry_Int_Tables_number   1
_chemical_formula_structural   Tb3Se2NO
_chemical_formula_sum   'Tb6 Se4 N2 O2'
_cell_volume   297.64239107
_cell_formula_units_Z   2
loop_
 _symmetry_equiv_pos_site_id
 _symmetry_equiv_pos_as_xyz
  1  'x, y, z'
loop_
 _atom_site_type_symbol
 _atom_site_label
 _atom_site_symmetry_multiplicity
 _atom_site_fract_x
 _atom_site_fract_y
 _atom_site_fract_z
 _atom_site_occupancy
  Tb  Tb0  1  0.39143800  0.39143800  0.94582300  1
  Tb  Tb1  1  0.60856200  0.60856200  0.05417700  1
  Tb  Tb2  1  0.04389100  0.04389100  0.73943100  1
  Tb  Tb3  1  0.95610900  0.95610900  0.26056900  1
  Tb  Tb4  1  0.19765300  0.19765300  0.32512500  1
  Tb  Tb5  1  0.80234700  0.80234700  0.67487500  1
  Se  Se6  1  0.21207400  0.21207400  0.84990100  1
  Se  Se7  1  0.78792600  0.78792600  0.15009900  1
  Se  Se8  1  0.37103500  0.37103500  0.47365300  1
  Se  Se9  1  0.62896500  0.62896500  0.52634700  1
  N  N10  1  0.09810200  0.09810200  0.18712200  1
  N  N11  1  0.90189800  0.90189800  0.81287800  1
  O  O12  1  0.53580700  0.53580700  0.86022400  1
  O  O13  1  0.46419300  0.46419300  0.13977600  1
