# generated using pymatgen
data_TiTl(VS2)4
_symmetry_space_group_name_H-M   'P 1'
_cell_length_a   3.30724500
_cell_length_b   8.53717773
_cell_length_c   9.15635259
_cell_angle_alpha   104.13642600
_cell_angle_beta   100.40461285
_cell_angle_gamma   90.00000000
_symmetry_Int_Tables_number   1
_chemical_formula_structural   TiTl(VS2)4
_chemical_formula_sum   'Ti1 Tl1 V4 S8'
_cell_volume   246.31041996
_cell_formula_units_Z   1
loop_
 _symmetry_equiv_pos_site_id
 _symmetry_equiv_pos_as_xyz
  1  'x, y, z'
loop_
 _atom_site_type_symbol
 _atom_site_label
 _atom_site_symmetry_multiplicity
 _atom_site_fract_x
 _atom_site_fract_y
 _atom_site_fract_z
 _atom_site_occupancy
  Ti  Ti0  1  0.00000000  0.50000000  0.00000000  1
  Tl  Tl1  1  0.50000000  0.00000000  0.00000000  1
  V  V2  1  0.71146700  0.85810500  0.42293400  1
  V  V3  1  0.28853300  0.14189500  0.57706600  1
  V  V4  1  0.65371700  0.49327200  0.30743400  1
  V  V5  1  0.34628300  0.50672800  0.69256600  1
  S  S6  1  0.83716000  0.99945000  0.67432100  1
  S  S7  1  0.16284000  0.00055000  0.32567900  1
  S  S8  1  0.75838000  0.33820600  0.51675900  1
  S  S9  1  0.24162000  0.66179400  0.48324100  1
  S  S10  1  0.91257000  0.68025100  0.82514100  1
  S  S11  1  0.08743000  0.31974900  0.17485900  1
  S  S12  1  0.57824900  0.67807800  0.15649800  1
  S  S13  1  0.42175100  0.32192200  0.84350200  1
