# generated using pymatgen
data_Yb2GeSe4
_symmetry_space_group_name_H-M   'P 1'
_cell_length_a   6.79771682
_cell_length_b   7.05283500
_cell_length_c   8.02774785
_cell_angle_alpha   90.00000000
_cell_angle_beta   107.58374636
_cell_angle_gamma   90.00000000
_symmetry_Int_Tables_number   1
_chemical_formula_structural   Yb2GeSe4
_chemical_formula_sum   'Yb4 Ge2 Se8'
_cell_volume   366.89294403
_cell_formula_units_Z   2
loop_
 _symmetry_equiv_pos_site_id
 _symmetry_equiv_pos_as_xyz
  1  'x, y, z'
loop_
 _atom_site_type_symbol
 _atom_site_label
 _atom_site_symmetry_multiplicity
 _atom_site_fract_x
 _atom_site_fract_y
 _atom_site_fract_z
 _atom_site_occupancy
  Yb  Yb0  1  0.27368300  0.75000000  0.94536200  1
  Yb  Yb1  1  0.72631700  0.25000000  0.05463800  1
  Yb  Yb2  1  0.26642100  0.75000000  0.43899500  1
  Yb  Yb3  1  0.73357900  0.25000000  0.56100500  1
  Ge  Ge4  1  0.73754200  0.75000000  0.80541200  1
  Ge  Ge5  1  0.26245800  0.25000000  0.19458800  1
  Se  Se6  1  0.93107600  0.75000000  0.10274600  1
  Se  Se7  1  0.06892400  0.25000000  0.89725400  1
  Se  Se8  1  0.93677900  0.75000000  0.61231000  1
  Se  Se9  1  0.06322100  0.25000000  0.38769000  1
  Se  Se10  1  0.49614500  0.49589000  0.74381400  1
  Se  Se11  1  0.50385500  0.99589000  0.25618600  1
  Se  Se12  1  0.50385500  0.50411000  0.25618600  1
  Se  Se13  1  0.49614500  0.00411000  0.74381400  1
