# generated using pymatgen
data_Re2Pt(NO2)4
_symmetry_space_group_name_H-M   'P 1'
_cell_length_a   4.81650291
_cell_length_b   8.42072759
_cell_length_c   7.03505214
_cell_angle_alpha   71.35114481
_cell_angle_beta   89.65452865
_cell_angle_gamma   86.54290921
_symmetry_Int_Tables_number   1
_chemical_formula_structural   Re2Pt(NO2)4
_chemical_formula_sum   'Re2 Pt1 N4 O8'
_cell_volume   269.83142062
_cell_formula_units_Z   1
loop_
 _symmetry_equiv_pos_site_id
 _symmetry_equiv_pos_as_xyz
  1  'x, y, z'
loop_
 _atom_site_type_symbol
 _atom_site_label
 _atom_site_symmetry_multiplicity
 _atom_site_fract_x
 _atom_site_fract_y
 _atom_site_fract_z
 _atom_site_occupancy
  Re  Re0  1  0.03555900  0.65308300  0.70363800  1
  Re  Re1  1  0.96444100  0.34691700  0.29636200  1
  Pt  Pt2  1  0.50000000  0.00000000  0.00000000  1
  N  N3  1  0.53879100  0.89799300  0.26772500  1
  N  N4  1  0.46120900  0.10200700  0.73227500  1
  N  N5  1  0.69390300  0.19648600  0.03521900  1
  N  N6  1  0.30609700  0.80351400  0.96478100  1
  O  O7  1  0.67638100  0.66584000  0.71044000  1
  O  O8  1  0.32361900  0.33416000  0.28956000  1
  O  O9  1  0.15449600  0.45052400  0.83580600  1
  O  O10  1  0.84550400  0.54947600  0.16419400  1
  O  O11  1  0.16305900  0.83318800  0.79912100  1
  O  O12  1  0.83694100  0.16681200  0.20087900  1
  O  O13  1  0.13076600  0.69780000  0.45607100  1
  O  O14  1  0.86923400  0.30220000  0.54392900  1
