# generated using pymatgen
data_Be12Fe
_symmetry_space_group_name_H-M   'P 1'
_cell_length_a   5.45204314
_cell_length_b   5.45204314
_cell_length_c   5.45204314
_cell_angle_alpha   98.04107479
_cell_angle_beta   98.04107479
_cell_angle_gamma   136.07380680
_symmetry_Int_Tables_number   1
_chemical_formula_structural   Be12Fe
_chemical_formula_sum   'Be12 Fe1'
_cell_volume   104.26722714
_cell_formula_units_Z   1
loop_
 _symmetry_equiv_pos_site_id
 _symmetry_equiv_pos_as_xyz
  1  'x, y, z'
loop_
 _atom_site_type_symbol
 _atom_site_label
 _atom_site_symmetry_multiplicity
 _atom_site_fract_x
 _atom_site_fract_y
 _atom_site_fract_z
 _atom_site_occupancy
  Be  Be0  1  0.00000000  0.00000000  0.50000000  1
  Be  Be1  1  0.50000000  0.50000000  0.50000000  1
  Be  Be2  1  0.50000000  0.00000000  0.00000000  1
  Be  Be3  1  0.00000000  0.50000000  0.00000000  1
  Be  Be4  1  0.00000000  0.34602500  0.34602500  1
  Be  Be5  1  0.00000000  0.65397500  0.65397500  1
  Be  Be6  1  0.65397500  0.00000000  0.65397500  1
  Be  Be7  1  0.34602500  0.00000000  0.34602500  1
  Be  Be8  1  0.50000000  0.29034200  0.79034200  1
  Be  Be9  1  0.50000000  0.70965800  0.20965800  1
  Be  Be10  1  0.70965800  0.50000000  0.20965800  1
  Be  Be11  1  0.29034200  0.50000000  0.79034200  1
  Fe  Fe12  1  0.00000000  0.00000000  0.00000000  1
