# generated using pymatgen
data_Cu(NCl2)2
_symmetry_space_group_name_H-M   'P 1'
_cell_length_a   8.15750968
_cell_length_b   8.15750968
_cell_length_c   7.61591200
_cell_angle_alpha   90.00000000
_cell_angle_beta   90.00000000
_cell_angle_gamma   124.22183830
_symmetry_Int_Tables_number   1
_chemical_formula_structural   Cu(NCl2)2
_chemical_formula_sum   'Cu2 N4 Cl8'
_cell_volume   419.05631713
_cell_formula_units_Z   2
loop_
 _symmetry_equiv_pos_site_id
 _symmetry_equiv_pos_as_xyz
  1  'x, y, z'
loop_
 _atom_site_type_symbol
 _atom_site_label
 _atom_site_symmetry_multiplicity
 _atom_site_fract_x
 _atom_site_fract_y
 _atom_site_fract_z
 _atom_site_occupancy
  Cu  Cu0  1  0.00000000  0.00000000  0.00000000  1
  Cu  Cu1  1  0.50000000  0.50000000  0.50000000  1
  N  N2  1  0.35577800  0.64422200  0.00000000  1
  N  N3  1  0.85577800  0.14422200  0.50000000  1
  N  N4  1  0.64422200  0.35577800  0.00000000  1
  N  N5  1  0.14422200  0.85577800  0.50000000  1
  Cl  Cl6  1  0.14879000  0.85121000  0.00000000  1
  Cl  Cl7  1  0.64879000  0.35121000  0.50000000  1
  Cl  Cl8  1  0.85121000  0.14879000  0.00000000  1
  Cl  Cl9  1  0.35121000  0.64879000  0.50000000  1
  Cl  Cl10  1  0.80075900  0.80075900  0.19958800  1
  Cl  Cl11  1  0.19924100  0.19924100  0.80041200  1
  Cl  Cl12  1  0.69924100  0.69924100  0.69958800  1
  Cl  Cl13  1  0.30075900  0.30075900  0.30041200  1
