# generated using pymatgen
data_Nd3Al11
_symmetry_space_group_name_H-M   'P 1'
_cell_length_a   8.50463077
_cell_length_b   8.50463077
_cell_length_c   8.50463077
_cell_angle_alpha   150.31934060
_cell_angle_beta   107.41525494
_cell_angle_gamma   80.32300706
_symmetry_Int_Tables_number   1
_chemical_formula_structural   Nd3Al11
_chemical_formula_sum   'Nd3 Al11'
_cell_volume   285.07354044
_cell_formula_units_Z   1
loop_
 _symmetry_equiv_pos_site_id
 _symmetry_equiv_pos_as_xyz
  1  'x, y, z'
loop_
 _atom_site_type_symbol
 _atom_site_label
 _atom_site_symmetry_multiplicity
 _atom_site_fract_x
 _atom_site_fract_y
 _atom_site_fract_z
 _atom_site_occupancy
  Nd  Nd0  1  0.00000000  0.00000000  0.00000000  1
  Nd  Nd1  1  0.31738000  0.31738000  0.00000000  1
  Nd  Nd2  1  0.68262000  0.68262000  0.00000000  1
  Al  Al3  1  0.50000000  0.00000000  0.50000000  1
  Al  Al4  1  0.28388200  0.50000000  0.78388200  1
  Al  Al5  1  0.71611800  0.50000000  0.21611800  1
  Al  Al6  1  0.96454000  0.33406600  0.63047400  1
  Al  Al7  1  0.03546000  0.66593400  0.36952600  1
  Al  Al8  1  0.70359200  0.33406600  0.36952600  1
  Al  Al9  1  0.29640800  0.66593400  0.63047400  1
  Al  Al10  1  0.86328000  0.13729300  0.72598700  1
  Al  Al11  1  0.13672000  0.86270700  0.27401300  1
  Al  Al12  1  0.41130600  0.13729300  0.27401300  1
  Al  Al13  1  0.58869400  0.86270700  0.72598700  1
