data_image0
_chemical_formula_structural       Na4O12V4
_chemical_formula_sum              "Na4 O12 V4"
_cell_length_a       6.73336
_cell_length_b       6.73336
_cell_length_c       5.68343
_cell_angle_alpha    77.1292
_cell_angle_beta     102.871
_cell_angle_gamma    99.1693

_space_group_name_H-M_alt    "P 1"
_space_group_IT_number       1

loop_
  _space_group_symop_operation_xyz
  'x, y, z'

loop_
  _atom_site_type_symbol
  _atom_site_label
  _atom_site_symmetry_multiplicity
  _atom_site_fract_x
  _atom_site_fract_y
  _atom_site_fract_z
  _atom_site_occupancy
  Na  Na1       1.0  0.68900  0.68900  0.75000  1.0000
  Na  Na2       1.0  0.31100  0.31100  0.25000  1.0000
  Na  Na3       1.0  0.91600  0.91600  0.25000  1.0000
  Na  Na4       1.0  0.08360  0.08360  0.75000  1.0000
  O   O1        1.0  0.39600  0.67500  0.01040  1.0000
  O   O2        1.0  0.67500  0.39600  0.49000  1.0000
  O   O3        1.0  0.60400  0.32500  0.99000  1.0000
  O   O4        1.0  0.32500  0.60400  0.51000  1.0000
  O   O5        1.0  0.61800  0.91600  0.35700  1.0000
  O   O6        1.0  0.91600  0.61800  0.14300  1.0000
  O   O7        1.0  0.38200  0.08400  0.64300  1.0000
  O   O8        1.0  0.08400  0.38200  0.85700  1.0000
  O   O9        1.0  0.23100  0.98700  0.15200  1.0000
  O   O10       1.0  0.98700  0.23100  0.34800  1.0000
  O   O11       1.0  0.76900  0.01310  0.84800  1.0000
  O   O12       1.0  0.01310  0.76900  0.65200  1.0000
  V   V1        1.0  0.38700  0.80500  0.25400  1.0000
  V   V2        1.0  0.80500  0.38700  0.24600  1.0000
  V   V3        1.0  0.61300  0.19500  0.74600  1.0000
  V   V4        1.0  0.19500  0.61300  0.75400  1.0000
