# generated using pymatgen
data_Nd2H5
_symmetry_space_group_name_H-M   'P 1'
_cell_length_a   6.72479497
_cell_length_b   6.72479497
_cell_length_c   6.72479497
_cell_angle_alpha   132.38842270
_cell_angle_beta   132.38842270
_cell_angle_gamma   69.61624298
_symmetry_Int_Tables_number   1
_chemical_formula_structural   Nd2H5
_chemical_formula_sum   'Nd4 H10'
_cell_volume   162.72712056
_cell_formula_units_Z   2
loop_
 _symmetry_equiv_pos_site_id
 _symmetry_equiv_pos_as_xyz
  1  'x, y, z'
loop_
 _atom_site_type_symbol
 _atom_site_label
 _atom_site_symmetry_multiplicity
 _atom_site_fract_x
 _atom_site_fract_y
 _atom_site_fract_z
 _atom_site_occupancy
  Nd  Nd0  1  0.49652300  0.99652300  0.50000000  1
  Nd  Nd1  1  0.74652300  0.74652300  0.00000000  1
  Nd  Nd2  1  0.00347700  0.50347700  0.50000000  1
  Nd  Nd3  1  0.25347700  0.25347700  0.00000000  1
  H  H4  1  0.37500000  0.35585300  0.48085300  1
  H  H5  1  0.87500000  0.89414700  0.51914700  1
  H  H6  1  0.64414700  0.12500000  0.01914700  1
  H  H7  1  0.10585300  0.62500000  0.98085300  1
  H  H8  1  0.37500000  0.89414700  0.01914700  1
  H  H9  1  0.87500000  0.35585300  0.98085300  1
  H  H10  1  0.64414700  0.62500000  0.51914700  1
  H  H11  1  0.10585300  0.12500000  0.48085300  1
  H  H12  1  0.25000000  0.75000000  0.50000000  1
  H  H13  1  0.50000000  0.50000000  0.00000000  1
