# generated using pymatgen
data_Er(Al2Cr)4
_symmetry_space_group_name_H-M   'P 1'
_cell_length_a   5.06287300
_cell_length_b   6.77492974
_cell_length_c   6.77492974
_cell_angle_alpha   81.97456953
_cell_angle_beta   68.05924213
_cell_angle_gamma   68.05924213
_symmetry_Int_Tables_number   1
_chemical_formula_structural   Er(Al2Cr)4
_chemical_formula_sum   'Er1 Al8 Cr4'
_cell_volume   199.94044723
_cell_formula_units_Z   1
loop_
 _symmetry_equiv_pos_site_id
 _symmetry_equiv_pos_as_xyz
  1  'x, y, z'
loop_
 _atom_site_type_symbol
 _atom_site_label
 _atom_site_symmetry_multiplicity
 _atom_site_fract_x
 _atom_site_fract_y
 _atom_site_fract_z
 _atom_site_occupancy
  Er  Er0  1  0.00000000  0.00000000  0.00000000  1
  Al  Al1  1  0.00000000  0.33529400  0.66470600  1
  Al  Al2  1  0.00000000  0.66470600  0.33529400  1
  Al  Al3  1  0.66470600  0.33529400  0.33529400  1
  Al  Al4  1  0.33529400  0.66470600  0.66470600  1
  Al  Al5  1  0.50000000  0.77813700  0.22186300  1
  Al  Al6  1  0.50000000  0.22186300  0.77813700  1
  Al  Al7  1  0.72186300  0.77813700  0.77813700  1
  Al  Al8  1  0.27813700  0.22186300  0.22186300  1
  Cr  Cr9  1  0.00000000  0.00000000  0.50000000  1
  Cr  Cr10  1  0.50000000  0.00000000  0.50000000  1
  Cr  Cr11  1  0.50000000  0.50000000  0.00000000  1
  Cr  Cr12  1  0.00000000  0.50000000  0.00000000  1
