# generated using pymatgen
data_PrAl4
_symmetry_space_group_name_H-M   'P 1'
_cell_length_a   8.82187426
_cell_length_b   8.82187426
_cell_length_c   8.82187426
_cell_angle_alpha   151.67509332
_cell_angle_beta   99.84879031
_cell_angle_gamma   87.05830295
_symmetry_Int_Tables_number   1
_chemical_formula_structural   PrAl4
_chemical_formula_sum   'Pr3 Al12'
_cell_volume   313.63815409
_cell_formula_units_Z   3
loop_
 _symmetry_equiv_pos_site_id
 _symmetry_equiv_pos_as_xyz
  1  'x, y, z'
loop_
 _atom_site_type_symbol
 _atom_site_label
 _atom_site_symmetry_multiplicity
 _atom_site_fract_x
 _atom_site_fract_y
 _atom_site_fract_z
 _atom_site_occupancy
  Pr  Pr0  1  0.99603700  0.00000000  0.99603700  1
  Pr  Pr1  1  0.33444100  0.33344300  0.00099800  1
  Pr  Pr2  1  0.66755500  0.66655700  0.00099800  1
  Al  Al3  1  0.39001200  0.00000000  0.39001200  1
  Al  Al4  1  0.61405800  0.00000000  0.61405800  1
  Al  Al5  1  0.74999300  0.50000000  0.24999300  1
  Al  Al6  1  0.25234300  0.50000000  0.75234300  1
  Al  Al7  1  0.08357600  0.83630700  0.24726900  1
  Al  Al8  1  0.41096300  0.16369300  0.24726900  1
  Al  Al9  1  0.05470700  0.66879000  0.38591700  1
  Al  Al10  1  0.71712700  0.33121000  0.38591700  1
  Al  Al11  1  0.27451300  0.66448300  0.61003000  1
  Al  Al12  1  0.94554700  0.33551700  0.61003000  1
  Al  Al13  1  0.57995300  0.83038900  0.74956400  1
  Al  Al14  1  0.91917500  0.16961100  0.74956400  1
