# generated using pymatgen
data_H6Pd(NO)4
_symmetry_space_group_name_H-M   'P 1'
_cell_length_a   5.18072600
_cell_length_b   5.59573937
_cell_length_c   6.50717065
_cell_angle_alpha   90.79283584
_cell_angle_beta   109.93483088
_cell_angle_gamma   101.05598329
_symmetry_Int_Tables_number   1
_chemical_formula_structural   H6Pd(NO)4
_chemical_formula_sum   'H6 Pd1 N4 O4'
_cell_volume   173.40539383
_cell_formula_units_Z   1
loop_
 _symmetry_equiv_pos_site_id
 _symmetry_equiv_pos_as_xyz
  1  'x, y, z'
loop_
 _atom_site_type_symbol
 _atom_site_label
 _atom_site_symmetry_multiplicity
 _atom_site_fract_x
 _atom_site_fract_y
 _atom_site_fract_z
 _atom_site_occupancy
  H  H0  1  0.40612500  0.59494800  0.75960700  1
  H  H1  1  0.59387500  0.40505200  0.24039300  1
  H  H2  1  0.09747700  0.62553700  0.77191000  1
  H  H3  1  0.90252300  0.37446300  0.22809000  1
  H  H4  1  0.22777900  0.78218000  0.60061800  1
  H  H5  1  0.77222100  0.21782000  0.39938200  1
  Pd  Pd6  1  0.50000000  0.00000000  0.00000000  1
  N  N7  1  0.69925200  0.16056200  0.80137200  1
  N  N8  1  0.30074800  0.83943800  0.19862800  1
  N  N9  1  0.27875400  0.71702800  0.75324600  1
  N  N10  1  0.72124600  0.28297200  0.24675400  1
  O  O11  1  0.80584000  0.03756900  0.70281000  1
  O  O12  1  0.19416000  0.96243100  0.29719000  1
  O  O13  1  0.71381700  0.38513700  0.77783500  1
  O  O14  1  0.28618300  0.61486300  0.22216500  1
