# generated using pymatgen
data_Ge4Rh
_symmetry_space_group_name_H-M   'P 1'
_cell_length_a   6.30280094
_cell_length_b   6.30280094
_cell_length_c   7.97114600
_cell_angle_alpha   90.00000000
_cell_angle_beta   90.00000000
_cell_angle_gamma   120.00000986
_symmetry_Int_Tables_number   1
_chemical_formula_structural   Ge4Rh
_chemical_formula_sum   'Ge12 Rh3'
_cell_volume   274.23225476
_cell_formula_units_Z   3
loop_
 _symmetry_equiv_pos_site_id
 _symmetry_equiv_pos_as_xyz
  1  'x, y, z'
loop_
 _atom_site_type_symbol
 _atom_site_label
 _atom_site_symmetry_multiplicity
 _atom_site_fract_x
 _atom_site_fract_y
 _atom_site_fract_z
 _atom_site_occupancy
  Ge  Ge0  1  0.07554500  0.00000000  0.33333300  1
  Ge  Ge1  1  0.92445500  0.92445500  0.00000000  1
  Ge  Ge2  1  0.00000000  0.07554500  0.66666700  1
  Ge  Ge3  1  0.61375500  0.00000000  0.33333300  1
  Ge  Ge4  1  0.38624500  0.38624500  0.00000000  1
  Ge  Ge5  1  0.00000000  0.61375500  0.66666700  1
  Ge  Ge6  1  0.26544700  0.77727700  0.11038200  1
  Ge  Ge7  1  0.51182900  0.73455300  0.77704900  1
  Ge  Ge8  1  0.22272300  0.48817100  0.44371500  1
  Ge  Ge9  1  0.73455300  0.51182900  0.22295100  1
  Ge  Ge10  1  0.77727700  0.26544700  0.88961800  1
  Ge  Ge11  1  0.48817100  0.22272300  0.55628500  1
  Rh  Rh12  1  0.31792600  0.00000000  0.83333300  1
  Rh  Rh13  1  0.68207400  0.68207400  0.50000000  1
  Rh  Rh14  1  0.00000000  0.31792600  0.16666700  1
