# generated using pymatgen
data_Nb3Te4
_symmetry_space_group_name_H-M   'P 1'
_cell_length_a   11.89039154
_cell_length_b   11.89039154
_cell_length_c   3.60887400
_cell_angle_alpha   90.00000000
_cell_angle_beta   90.00000000
_cell_angle_gamma   119.99999743
_symmetry_Int_Tables_number   1
_chemical_formula_structural   Nb3Te4
_chemical_formula_sum   'Nb6 Te8'
_cell_volume   441.87015963
_cell_formula_units_Z   2
loop_
 _symmetry_equiv_pos_site_id
 _symmetry_equiv_pos_as_xyz
  1  'x, y, z'
loop_
 _atom_site_type_symbol
 _atom_site_label
 _atom_site_symmetry_multiplicity
 _atom_site_fract_x
 _atom_site_fract_y
 _atom_site_fract_z
 _atom_site_occupancy
  Nb  Nb0  1  0.39971400  0.92579200  0.75000000  1
  Nb  Nb1  1  0.07420800  0.47392200  0.75000000  1
  Nb  Nb2  1  0.52607800  0.60028600  0.75000000  1
  Nb  Nb3  1  0.60028600  0.07420800  0.25000000  1
  Nb  Nb4  1  0.92579200  0.52607800  0.25000000  1
  Nb  Nb5  1  0.47392200  0.39971400  0.25000000  1
  Te  Te6  1  0.33333300  0.66666700  0.75000000  1
  Te  Te7  1  0.66666700  0.33333300  0.25000000  1
  Te  Te8  1  0.07569000  0.72040300  0.75000000  1
  Te  Te9  1  0.27959700  0.35528700  0.75000000  1
  Te  Te10  1  0.64471300  0.92431000  0.75000000  1
  Te  Te11  1  0.92431000  0.27959700  0.25000000  1
  Te  Te12  1  0.72040300  0.64471300  0.25000000  1
  Te  Te13  1  0.35528700  0.07569000  0.25000000  1
