# generated using pymatgen
data_Al(NCl)3
_symmetry_space_group_name_H-M   'P 1'
_cell_length_a   4.70138600
_cell_length_b   7.09839111
_cell_length_c   9.34954936
_cell_angle_alpha   86.19658231
_cell_angle_beta   82.83296645
_cell_angle_gamma   88.38316164
_symmetry_Int_Tables_number   1
_chemical_formula_structural   Al(NCl)3
_chemical_formula_sum   'Al2 N6 Cl6'
_cell_volume   308.83335911
_cell_formula_units_Z   2
loop_
 _symmetry_equiv_pos_site_id
 _symmetry_equiv_pos_as_xyz
  1  'x, y, z'
loop_
 _atom_site_type_symbol
 _atom_site_label
 _atom_site_symmetry_multiplicity
 _atom_site_fract_x
 _atom_site_fract_y
 _atom_site_fract_z
 _atom_site_occupancy
  Al  Al0  1  0.00000000  0.00000000  0.50000000  1
  Al  Al1  1  0.00000000  0.50000000  0.00000000  1
  N  N2  1  0.72701300  0.70779300  0.01260900  1
  N  N3  1  0.27298700  0.29220700  0.98739100  1
  N  N4  1  0.28153600  0.19081600  0.46697100  1
  N  N5  1  0.71846400  0.80918400  0.53302900  1
  N  N6  1  0.03151300  0.99007900  0.70645000  1
  N  N7  1  0.96848700  0.00992100  0.29355000  1
  Cl  Cl8  1  0.99279100  0.50227900  0.76499900  1
  Cl  Cl9  1  0.00720900  0.49772100  0.23500100  1
  Cl  Cl10  1  0.57142700  0.24020900  0.04911400  1
  Cl  Cl11  1  0.42857300  0.75979100  0.95088600  1
  Cl  Cl12  1  0.53057600  0.23464200  0.56197100  1
  Cl  Cl13  1  0.46942400  0.76535800  0.43802900  1
