# generated using pymatgen
data_Tm(FeSn)6
_symmetry_space_group_name_H-M   'P 1'
_cell_length_a   5.41199598
_cell_length_b   5.41199598
_cell_length_c   8.91623600
_cell_angle_alpha   90.00000000
_cell_angle_beta   90.00000000
_cell_angle_gamma   119.99999978
_symmetry_Int_Tables_number   1
_chemical_formula_structural   Tm(FeSn)6
_chemical_formula_sum   'Tm1 Fe6 Sn6'
_cell_volume   226.16589669
_cell_formula_units_Z   1
loop_
 _symmetry_equiv_pos_site_id
 _symmetry_equiv_pos_as_xyz
  1  'x, y, z'
loop_
 _atom_site_type_symbol
 _atom_site_label
 _atom_site_symmetry_multiplicity
 _atom_site_fract_x
 _atom_site_fract_y
 _atom_site_fract_z
 _atom_site_occupancy
  Tm  Tm0  1  0.00000000  0.00000000  0.00000000  1
  Fe  Fe1  1  0.50000000  0.50000000  0.75437900  1
  Fe  Fe2  1  0.50000000  0.00000000  0.75437900  1
  Fe  Fe3  1  0.00000000  0.50000000  0.75437900  1
  Fe  Fe4  1  0.50000000  0.50000000  0.24562100  1
  Fe  Fe5  1  0.50000000  0.00000000  0.24562100  1
  Fe  Fe6  1  0.00000000  0.50000000  0.24562100  1
  Sn  Sn7  1  0.66666700  0.33333300  0.00000000  1
  Sn  Sn8  1  0.33333300  0.66666700  0.00000000  1
  Sn  Sn9  1  0.66666700  0.33333300  0.50000000  1
  Sn  Sn10  1  0.33333300  0.66666700  0.50000000  1
  Sn  Sn11  1  0.00000000  0.00000000  0.66344100  1
  Sn  Sn12  1  0.00000000  0.00000000  0.33655900  1
