# generated using pymatgen
data_NaSi6
_symmetry_space_group_name_H-M   'P 1'
_cell_length_a   5.67429894
_cell_length_b   5.67429894
_cell_length_c   12.23484400
_cell_angle_alpha   90.00000000
_cell_angle_beta   90.00000000
_cell_angle_gamma   136.76448024
_symmetry_Int_Tables_number   1
_chemical_formula_structural   NaSi6
_chemical_formula_sum   'Na2 Si12'
_cell_volume   269.84397627
_cell_formula_units_Z   2
loop_
 _symmetry_equiv_pos_site_id
 _symmetry_equiv_pos_as_xyz
  1  'x, y, z'
loop_
 _atom_site_type_symbol
 _atom_site_label
 _atom_site_symmetry_multiplicity
 _atom_site_fract_x
 _atom_site_fract_y
 _atom_site_fract_z
 _atom_site_occupancy
  Na  Na0  1  0.71563500  0.28436500  0.25000000  1
  Na  Na1  1  0.28436500  0.71563500  0.75000000  1
  Si  Si2  1  0.75503400  0.24496600  0.95239900  1
  Si  Si3  1  0.24496600  0.75503400  0.04760100  1
  Si  Si4  1  0.75503400  0.24496600  0.54760100  1
  Si  Si5  1  0.24496600  0.75503400  0.45239900  1
  Si  Si6  1  0.43530300  0.56469700  0.15266200  1
  Si  Si7  1  0.56469700  0.43530300  0.84733800  1
  Si  Si8  1  0.43530300  0.56469700  0.34733800  1
  Si  Si9  1  0.56469700  0.43530300  0.65266200  1
  Si  Si10  1  0.97360600  0.02639400  0.90457100  1
  Si  Si11  1  0.02639400  0.97360600  0.09542900  1
  Si  Si12  1  0.97360600  0.02639400  0.59542900  1
  Si  Si13  1  0.02639400  0.97360600  0.40457100  1
