# generated using pymatgen
data_Ho3Ga9Pt2
_symmetry_space_group_name_H-M   'P 1'
_cell_length_a   8.16178764
_cell_length_b   8.16178764
_cell_length_c   8.16178764
_cell_angle_alpha   149.62482561
_cell_angle_beta   107.92720588
_cell_angle_gamma   80.18070843
_symmetry_Int_Tables_number   1
_chemical_formula_structural   Ho3Ga9Pt2
_chemical_formula_sum   'Ho3 Ga9 Pt2'
_cell_volume   256.42519972
_cell_formula_units_Z   1
loop_
 _symmetry_equiv_pos_site_id
 _symmetry_equiv_pos_as_xyz
  1  'x, y, z'
loop_
 _atom_site_type_symbol
 _atom_site_label
 _atom_site_symmetry_multiplicity
 _atom_site_fract_x
 _atom_site_fract_y
 _atom_site_fract_z
 _atom_site_occupancy
  Ho  Ho0  1  0.00000000  0.00000000  0.00000000  1
  Ho  Ho1  1  0.30368900  0.30368900  0.00000000  1
  Ho  Ho2  1  0.69631100  0.69631100  0.00000000  1
  Ga  Ga3  1  0.50000000  0.00000000  0.50000000  1
  Ga  Ga4  1  0.71284100  0.34378600  0.36905500  1
  Ga  Ga5  1  0.28715900  0.65621400  0.63094500  1
  Ga  Ga6  1  0.97473100  0.34378600  0.63094500  1
  Ga  Ga7  1  0.02526900  0.65621400  0.36905500  1
  Ga  Ga8  1  0.42099200  0.13942000  0.28157200  1
  Ga  Ga9  1  0.57900800  0.86058000  0.71842800  1
  Ga  Ga10  1  0.85784700  0.13942000  0.71842800  1
  Ga  Ga11  1  0.14215300  0.86058000  0.28157200  1
  Pt  Pt12  1  0.69101500  0.50000000  0.19101500  1
  Pt  Pt13  1  0.30898500  0.50000000  0.80898500  1
