# generated using pymatgen
data_NiSn(ClO)6
_symmetry_space_group_name_H-M   'P 1'
_cell_length_a   6.76483144
_cell_length_b   6.76483144
_cell_length_c   6.76483100
_cell_angle_alpha   102.16850314
_cell_angle_beta   102.16850314
_cell_angle_gamma   102.16850612
_symmetry_Int_Tables_number   1
_chemical_formula_structural   NiSn(ClO)6
_chemical_formula_sum   'Ni1 Sn1 Cl6 O6'
_cell_volume   285.07712999
_cell_formula_units_Z   1
loop_
 _symmetry_equiv_pos_site_id
 _symmetry_equiv_pos_as_xyz
  1  'x, y, z'
loop_
 _atom_site_type_symbol
 _atom_site_label
 _atom_site_symmetry_multiplicity
 _atom_site_fract_x
 _atom_site_fract_y
 _atom_site_fract_z
 _atom_site_occupancy
  Ni  Ni0  1  0.50000000  0.50000000  0.50000000  1
  Sn  Sn1  1  0.00000000  0.00000000  0.00000000  1
  Cl  Cl2  1  0.19699400  0.33144400  0.95309200  1
  Cl  Cl3  1  0.95309200  0.19699400  0.33144400  1
  Cl  Cl4  1  0.33144400  0.95309200  0.19699400  1
  Cl  Cl5  1  0.80300600  0.66855600  0.04690800  1
  Cl  Cl6  1  0.04690800  0.80300600  0.66855600  1
  Cl  Cl7  1  0.66855600  0.04690800  0.80300600  1
  O  O8  1  0.64271900  0.77098900  0.47211100  1
  O  O9  1  0.47211100  0.64271900  0.77098900  1
  O  O10  1  0.77098900  0.47211100  0.64271900  1
  O  O11  1  0.35728100  0.22901100  0.52788900  1
  O  O12  1  0.52788900  0.35728100  0.22901100  1
  O  O13  1  0.22901100  0.52788900  0.35728100  1
