data_image0
_chemical_formula_structural       O4Rb24
_chemical_formula_sum              "O4 Rb24"
_cell_length_a       8.06486
_cell_length_b       8.06232
_cell_length_c       29.502
_cell_angle_alpha    90
_cell_angle_beta     90
_cell_angle_gamma    120.057

_space_group_name_H-M_alt    "P 1"
_space_group_IT_number       1

loop_
  _space_group_symop_operation_xyz
  'x, y, z'

loop_
  _atom_site_type_symbol
  _atom_site_label
  _atom_site_symmetry_multiplicity
  _atom_site_fract_x
  _atom_site_fract_y
  _atom_site_fract_z
  _atom_site_occupancy
  O   O1        1.0  0.33300  0.66700  0.18500  1.0000
  O   O2        1.0  0.66700  0.33300  0.68500  1.0000
  O   O3        1.0  0.66700  0.33300  0.81500  1.0000
  O   O4        1.0  0.33300  0.66700  0.31500  1.0000
  Rb  Rb1       1.0  0.33300  0.66700  0.98800  1.0000
  Rb  Rb2       1.0  0.66700  0.33300  0.48800  1.0000
  Rb  Rb3       1.0  0.66700  0.33300  0.01230  1.0000
  Rb  Rb4       1.0  0.33300  0.66700  0.51200  1.0000
  Rb  Rb5       1.0  0.00000  0.00000  0.00000  1.0000
  Rb  Rb6       1.0  0.00000  0.00000  0.50000  1.0000
  Rb  Rb7       1.0  0.07280  0.41300  0.25000  1.0000
  Rb  Rb8       1.0  0.92700  0.58700  0.75000  1.0000
  Rb  Rb9       1.0  0.58700  0.65900  0.25000  1.0000
  Rb  Rb10      1.0  0.34100  0.92800  0.25000  1.0000
  Rb  Rb11      1.0  0.65900  0.07200  0.75000  1.0000
  Rb  Rb12      1.0  0.41300  0.34100  0.75000  1.0000
  Rb  Rb13      1.0  0.32400  0.37900  0.13600  1.0000
  Rb  Rb14      1.0  0.67600  0.62100  0.63600  1.0000
  Rb  Rb15      1.0  0.62100  0.94600  0.13600  1.0000
  Rb  Rb16      1.0  0.05400  0.67500  0.13600  1.0000
  Rb  Rb17      1.0  0.94600  0.32500  0.63600  1.0000
  Rb  Rb18      1.0  0.37900  0.05360  0.63600  1.0000
  Rb  Rb19      1.0  0.67600  0.62100  0.86400  1.0000
  Rb  Rb20      1.0  0.32400  0.37900  0.36400  1.0000
  Rb  Rb21      1.0  0.37900  0.05360  0.86400  1.0000
  Rb  Rb22      1.0  0.94600  0.32500  0.86400  1.0000
  Rb  Rb23      1.0  0.05400  0.67500  0.36400  1.0000
  Rb  Rb24      1.0  0.62100  0.94600  0.36400  1.0000
