# generated using pymatgen
data_PbCS(BrN)2
_symmetry_space_group_name_H-M   'P 1'
_cell_length_a   4.41128444
_cell_length_b   5.68214116
_cell_length_c   17.98536700
_cell_angle_alpha   90.00000000
_cell_angle_beta   90.00000000
_cell_angle_gamma   95.23451363
_symmetry_Int_Tables_number   1
_chemical_formula_structural   PbCS(BrN)2
_chemical_formula_sum   'Pb2 C2 S2 Br4 N4'
_cell_volume   448.93289215
_cell_formula_units_Z   2
loop_
 _symmetry_equiv_pos_site_id
 _symmetry_equiv_pos_as_xyz
  1  'x, y, z'
loop_
 _atom_site_type_symbol
 _atom_site_label
 _atom_site_symmetry_multiplicity
 _atom_site_fract_x
 _atom_site_fract_y
 _atom_site_fract_z
 _atom_site_occupancy
  Pb  Pb0  1  0.08650600  0.89662400  0.48466900  1
  Pb  Pb1  1  0.91349400  0.10337600  0.98466900  1
  C  C2  1  0.45746600  0.55817600  0.69591000  1
  C  C3  1  0.54253400  0.44182400  0.19591000  1
  S  S4  1  0.83759000  0.97446300  0.68177600  1
  S  S5  1  0.16241000  0.02553700  0.18177600  1
  Br  Br6  1  0.59262200  0.87367000  0.38090400  1
  Br  Br7  1  0.40737800  0.12633000  0.88090400  1
  Br  Br8  1  0.92477900  0.39831000  0.51318400  1
  Br  Br9  1  0.07522100  0.60169000  0.01318400  1
  N  N10  1  0.28816100  0.38099200  0.69620000  1
  N  N11  1  0.71183900  0.61900800  0.19620000  1
  N  N12  1  0.63529200  0.74360200  0.69735700  1
  N  N13  1  0.36470800  0.25639800  0.19735700  1
