# generated using pymatgen
data_IrN5(Cl2O)3
_symmetry_space_group_name_H-M   'P 1'
_cell_length_a   9.06716539
_cell_length_b   9.06716539
_cell_length_c   9.06716524
_cell_angle_alpha   46.49340118
_cell_angle_beta   46.49340118
_cell_angle_gamma   46.49339992
_symmetry_Int_Tables_number   1
_chemical_formula_structural   IrN5(Cl2O)3
_chemical_formula_sum   'Ir1 N5 Cl6 O3'
_cell_volume   358.06527685
_cell_formula_units_Z   1
loop_
 _symmetry_equiv_pos_site_id
 _symmetry_equiv_pos_as_xyz
  1  'x, y, z'
loop_
 _atom_site_type_symbol
 _atom_site_label
 _atom_site_symmetry_multiplicity
 _atom_site_fract_x
 _atom_site_fract_y
 _atom_site_fract_z
 _atom_site_occupancy
  Ir  Ir0  1  0.00011500  0.00011500  0.00011500  1
  N  N1  1  0.36910200  0.36910200  0.36910200  1
  N  N2  1  0.63063500  0.63063500  0.63063500  1
  N  N3  1  0.15967000  0.15967000  0.15967000  1
  N  N4  1  0.84120100  0.84120100  0.84120100  1
  N  N5  1  0.49955000  0.49955000  0.49955000  1
  Cl  Cl6  1  0.90406800  0.90406800  0.35733400  1
  Cl  Cl7  1  0.35733400  0.90406800  0.90406800  1
  Cl  Cl8  1  0.90406800  0.35733400  0.90406800  1
  Cl  Cl9  1  0.09645000  0.09645000  0.64265000  1
  Cl  Cl10  1  0.64265000  0.09645000  0.09645000  1
  Cl  Cl11  1  0.09645000  0.64265000  0.09645000  1
  O  O12  1  0.60063900  0.60063900  0.29743100  1
  O  O13  1  0.29743100  0.60063900  0.60063900  1
  O  O14  1  0.60063900  0.29743100  0.60063900  1
