# generated using pymatgen
data_RbHg3N(Cl4O)2
_symmetry_space_group_name_H-M   'P 1'
_cell_length_a   11.31642849
_cell_length_b   11.31642849
_cell_length_c   9.08575609
_cell_angle_alpha   73.93046252
_cell_angle_beta   73.93046252
_cell_angle_gamma   22.44691714
_symmetry_Int_Tables_number   1
_chemical_formula_structural   RbHg3N(Cl4O)2
_chemical_formula_sum   'Rb1 Hg3 N1 Cl8 O2'
_cell_volume   426.21267164
_cell_formula_units_Z   1
loop_
 _symmetry_equiv_pos_site_id
 _symmetry_equiv_pos_as_xyz
  1  'x, y, z'
loop_
 _atom_site_type_symbol
 _atom_site_label
 _atom_site_symmetry_multiplicity
 _atom_site_fract_x
 _atom_site_fract_y
 _atom_site_fract_z
 _atom_site_occupancy
  Rb  Rb0  1  0.52259600  0.52259600  0.80666700  1
  Hg  Hg1  1  0.02115200  0.02115200  0.31453800  1
  Hg  Hg2  1  0.86117500  0.86117500  0.21519400  1
  Hg  Hg3  1  0.19003600  0.19003600  0.42232400  1
  N  N4  1  0.70627000  0.70627000  0.05777700  1
  Cl  Cl5  1  0.25188900  0.25188900  0.14687200  1
  Cl  Cl6  1  0.78764300  0.78764300  0.46599500  1
  Cl  Cl7  1  0.14835700  0.14835700  0.69578100  1
  Cl  Cl8  1  0.89756500  0.89756500  0.94104700  1
  Cl  Cl9  1  0.61486900  0.61486900  0.37911200  1
  Cl  Cl10  1  0.08227800  0.08227800  0.05470400  1
  Cl  Cl11  1  0.43676400  0.43676400  0.24979400  1
  Cl  Cl12  1  0.96986900  0.96986900  0.57872300  1
  O  O13  1  0.34711900  0.34711900  0.69714200  1
  O  O14  1  0.71271700  0.71271700  0.93073100  1
