# generated using pymatgen
data_Tm3Ga8Rh3
_symmetry_space_group_name_H-M   'P 1'
_cell_length_a   8.12651054
_cell_length_b   8.12651054
_cell_length_c   8.12651054
_cell_angle_alpha   150.17134634
_cell_angle_beta   104.86005708
_cell_angle_gamma   82.87838411
_symmetry_Int_Tables_number   1
_chemical_formula_structural   Tm3Ga8Rh3
_chemical_formula_sum   'Tm3 Ga8 Rh3'
_cell_volume   252.54492026
_cell_formula_units_Z   1
loop_
 _symmetry_equiv_pos_site_id
 _symmetry_equiv_pos_as_xyz
  1  'x, y, z'
loop_
 _atom_site_type_symbol
 _atom_site_label
 _atom_site_symmetry_multiplicity
 _atom_site_fract_x
 _atom_site_fract_y
 _atom_site_fract_z
 _atom_site_occupancy
  Tm  Tm0  1  0.50000000  0.50000000  0.00000000  1
  Tm  Tm1  1  0.17149500  0.17149500  0.00000000  1
  Tm  Tm2  1  0.82850500  0.82850500  0.00000000  1
  Ga  Ga3  1  0.08813600  0.37431000  0.71382600  1
  Ga  Ga4  1  0.91186400  0.62569000  0.28617400  1
  Ga  Ga5  1  0.66048400  0.37431000  0.28617400  1
  Ga  Ga6  1  0.33951600  0.62569000  0.71382600  1
  Ga  Ga7  1  0.79178000  0.16429200  0.62748800  1
  Ga  Ga8  1  0.20822000  0.83570800  0.37251200  1
  Ga  Ga9  1  0.53680300  0.16429200  0.37251200  1
  Ga  Ga10  1  0.46319700  0.83570800  0.62748800  1
  Rh  Rh11  1  0.00000000  0.50000000  0.50000000  1
  Rh  Rh12  1  0.78683300  0.00000000  0.78683300  1
  Rh  Rh13  1  0.21316700  0.00000000  0.21316700  1
