# generated using pymatgen
data_TlV5S8
_symmetry_space_group_name_H-M   'P 1'
_cell_length_a   8.93633977
_cell_length_b   8.93633977
_cell_length_c   8.53970361
_cell_angle_alpha   75.57394893
_cell_angle_beta   75.57394893
_cell_angle_gamma   20.99302839
_symmetry_Int_Tables_number   1
_chemical_formula_structural   TlV5S8
_chemical_formula_sum   'Tl1 V5 S8'
_cell_volume   236.34475318
_cell_formula_units_Z   1
loop_
 _symmetry_equiv_pos_site_id
 _symmetry_equiv_pos_as_xyz
  1  'x, y, z'
loop_
 _atom_site_type_symbol
 _atom_site_label
 _atom_site_symmetry_multiplicity
 _atom_site_fract_x
 _atom_site_fract_y
 _atom_site_fract_z
 _atom_site_occupancy
  Tl  Tl0  1  0.50000000  0.50000000  0.00000000  1
  V  V1  1  0.00000000  0.00000000  0.50000000  1
  V  V2  1  0.28865100  0.28865100  0.85856000  1
  V  V3  1  0.71134900  0.71134900  0.14144000  1
  V  V4  1  0.35208600  0.35208600  0.49563400  1
  V  V5  1  0.64791400  0.64791400  0.50436600  1
  S  S6  1  0.16058400  0.16058400  0.00010100  1
  S  S7  1  0.83941600  0.83941600  0.99989900  1
  S  S8  1  0.24126800  0.24126800  0.34015900  1
  S  S9  1  0.75873200  0.75873200  0.65984100  1
  S  S10  1  0.08450300  0.08450300  0.68116400  1
  S  S11  1  0.91549700  0.91549700  0.31883600  1
  S  S12  1  0.42551300  0.42551300  0.67910700  1
  S  S13  1  0.57448700  0.57448700  0.32089300  1
