data_image0
_chemical_formula_structural       CuF6Zr
_chemical_formula_sum              "Cu1 F6 Zr1"
_cell_length_a       4.84658
_cell_length_b       4.72237
_cell_length_c       4.86936
_cell_angle_alpha    59.8804
_cell_angle_beta     60.4859
_cell_angle_gamma    60.4475

_space_group_name_H-M_alt    "P 1"
_space_group_IT_number       1

loop_
  _space_group_symop_operation_xyz
  'x, y, z'

loop_
  _atom_site_type_symbol
  _atom_site_label
  _atom_site_symmetry_multiplicity
  _atom_site_fract_x
  _atom_site_fract_y
  _atom_site_fract_z
  _atom_site_occupancy
  Cu  Cu1       1.0  0.00000  0.00000  0.00000  1.0000
  F   F1        1.0  0.04360  0.45000  0.75200  1.0000
  F   F2        1.0  0.95600  0.55000  0.24800  1.0000
  F   F3        1.0  0.24400  0.96000  0.24100  1.0000
  F   F4        1.0  0.75600  0.04000  0.75900  1.0000
  F   F5        1.0  0.55400  0.24400  0.24300  1.0000
  F   F6        1.0  0.44600  0.75600  0.75700  1.0000
  Zr  Zr1       1.0  0.50000  0.50000  0.50000  1.0000
