# generated using pymatgen
data_La(Al2Cr)4
_symmetry_space_group_name_H-M   'P 1'
_cell_length_a   5.05995200
_cell_length_b   6.89660006
_cell_length_c   6.89660006
_cell_angle_alpha   82.26598498
_cell_angle_beta   68.47889340
_cell_angle_gamma   68.47889340
_symmetry_Int_Tables_number   1
_chemical_formula_structural   La(Al2Cr)4
_chemical_formula_sum   'La1 Al8 Cr4'
_cell_volume   208.27933233
_cell_formula_units_Z   1
loop_
 _symmetry_equiv_pos_site_id
 _symmetry_equiv_pos_as_xyz
  1  'x, y, z'
loop_
 _atom_site_type_symbol
 _atom_site_label
 _atom_site_symmetry_multiplicity
 _atom_site_fract_x
 _atom_site_fract_y
 _atom_site_fract_z
 _atom_site_occupancy
  La  La0  1  0.00000000  0.00000000  0.00000000  1
  Al  Al1  1  0.00000000  0.34347200  0.65652800  1
  Al  Al2  1  0.00000000  0.65652800  0.34347200  1
  Al  Al3  1  0.65652800  0.34347200  0.34347200  1
  Al  Al4  1  0.34347200  0.65652800  0.65652800  1
  Al  Al5  1  0.50000000  0.77230400  0.22769600  1
  Al  Al6  1  0.50000000  0.22769600  0.77230400  1
  Al  Al7  1  0.72769600  0.77230400  0.77230400  1
  Al  Al8  1  0.27230400  0.22769600  0.22769600  1
  Cr  Cr9  1  0.00000000  0.00000000  0.50000000  1
  Cr  Cr10  1  0.50000000  0.00000000  0.50000000  1
  Cr  Cr11  1  0.50000000  0.50000000  0.00000000  1
  Cr  Cr12  1  0.00000000  0.50000000  0.00000000  1
