# generated using pymatgen
data_YbP3O10
_symmetry_space_group_name_H-M   'P 1'
_cell_length_a   6.83725643
_cell_length_b   6.83725643
_cell_length_c   5.73300779
_cell_angle_alpha   73.79997300
_cell_angle_beta   73.79997300
_cell_angle_gamma   60.80748892
_symmetry_Int_Tables_number   1
_chemical_formula_structural   YbP3O10
_chemical_formula_sum   'Yb1 P3 O10'
_cell_volume   221.38752436
_cell_formula_units_Z   1
loop_
 _symmetry_equiv_pos_site_id
 _symmetry_equiv_pos_as_xyz
  1  'x, y, z'
loop_
 _atom_site_type_symbol
 _atom_site_label
 _atom_site_symmetry_multiplicity
 _atom_site_fract_x
 _atom_site_fract_y
 _atom_site_fract_z
 _atom_site_occupancy
  Yb  Yb0  1  0.03228400  0.96771600  0.50000000  1
  P  P1  1  0.68717200  0.31282800  0.00000000  1
  P  P2  1  0.52662900  0.81759900  0.80812200  1
  P  P3  1  0.18240100  0.47337100  0.19187800  1
  O  O4  1  0.65968600  0.56407000  0.96029500  1
  O  O5  1  0.43593000  0.34031400  0.03970500  1
  O  O6  1  0.79106000  0.18375600  0.22710600  1
  O  O7  1  0.81624400  0.20894000  0.77289400  1
  O  O8  1  0.36392300  0.81522100  0.67687000  1
  O  O9  1  0.18477900  0.63607700  0.32313000  1
  O  O10  1  0.71400500  0.87758400  0.64757400  1
  O  O11  1  0.12241600  0.28599500  0.35242600  1
  O  O12  1  0.39078400  0.96771400  0.00678700  1
  O  O13  1  0.03228600  0.60921600  0.99321300  1
