# generated using pymatgen
data_Yb(GaSe2)2
_symmetry_space_group_name_H-M   'P 1'
_cell_length_a   6.16622286
_cell_length_b   6.16622286
_cell_length_c   10.66495700
_cell_angle_alpha   90.00000000
_cell_angle_beta   90.00000000
_cell_angle_gamma   118.19596747
_symmetry_Int_Tables_number   1
_chemical_formula_structural   Yb(GaSe2)2
_chemical_formula_sum   'Yb2 Ga4 Se8'
_cell_volume   357.38753583
_cell_formula_units_Z   2
loop_
 _symmetry_equiv_pos_site_id
 _symmetry_equiv_pos_as_xyz
  1  'x, y, z'
loop_
 _atom_site_type_symbol
 _atom_site_label
 _atom_site_symmetry_multiplicity
 _atom_site_fract_x
 _atom_site_fract_y
 _atom_site_fract_z
 _atom_site_occupancy
  Yb  Yb0  1  0.50000000  0.50000000  0.75000000  1
  Yb  Yb1  1  0.50000000  0.50000000  0.25000000  1
  Ga  Ga2  1  0.76616000  0.23781100  0.50000000  1
  Ga  Ga3  1  0.23384000  0.76218900  0.50000000  1
  Ga  Ga4  1  0.76218900  0.23384000  0.00000000  1
  Ga  Ga5  1  0.23781100  0.76616000  0.00000000  1
  Se  Se6  1  0.34705100  0.19746400  0.50000000  1
  Se  Se7  1  0.65294900  0.80253600  0.50000000  1
  Se  Se8  1  0.80253600  0.65294900  0.00000000  1
  Se  Se9  1  0.19746400  0.34705100  0.00000000  1
  Se  Se10  1  0.50000000  0.00000000  0.82349900  1
  Se  Se11  1  0.00000000  0.50000000  0.67650100  1
  Se  Se12  1  0.50000000  0.00000000  0.17650100  1
  Se  Se13  1  0.00000000  0.50000000  0.32349900  1
