# generated using pymatgen
data_Pr(MnAl2)4
_symmetry_space_group_name_H-M   'P 1'
_cell_length_a   5.21292900
_cell_length_b   6.82931819
_cell_length_c   6.82931819
_cell_angle_alpha   81.62433546
_cell_angle_beta   67.56357841
_cell_angle_gamma   67.56357841
_symmetry_Int_Tables_number   1
_chemical_formula_structural   Pr(MnAl2)4
_chemical_formula_sum   'Pr1 Mn4 Al8'
_cell_volume   207.71401607
_cell_formula_units_Z   1
loop_
 _symmetry_equiv_pos_site_id
 _symmetry_equiv_pos_as_xyz
  1  'x, y, z'
loop_
 _atom_site_type_symbol
 _atom_site_label
 _atom_site_symmetry_multiplicity
 _atom_site_fract_x
 _atom_site_fract_y
 _atom_site_fract_z
 _atom_site_occupancy
  Pr  Pr0  1  0.00000000  0.00000000  0.00000000  1
  Mn  Mn1  1  0.00000000  0.00000000  0.50000000  1
  Mn  Mn2  1  0.50000000  0.00000000  0.50000000  1
  Mn  Mn3  1  0.50000000  0.50000000  0.00000000  1
  Mn  Mn4  1  0.00000000  0.50000000  0.00000000  1
  Al  Al5  1  0.00000000  0.34080200  0.65919800  1
  Al  Al6  1  0.00000000  0.65919800  0.34080200  1
  Al  Al7  1  0.65919800  0.34080200  0.34080200  1
  Al  Al8  1  0.34080200  0.65919800  0.65919800  1
  Al  Al9  1  0.50000000  0.77173800  0.22826200  1
  Al  Al10  1  0.50000000  0.22826200  0.77173800  1
  Al  Al11  1  0.72826200  0.77173800  0.77173800  1
  Al  Al12  1  0.27173800  0.22826200  0.22826200  1
