# generated using pymatgen
data_CsCrH8(NO4)2
_symmetry_space_group_name_H-M   'P 1'
_cell_length_a   6.59594216
_cell_length_b   6.59594216
_cell_length_c   6.59594216
_cell_angle_alpha   99.60629078
_cell_angle_beta   114.61769004
_cell_angle_gamma   114.61769004
_symmetry_Int_Tables_number   1
_chemical_formula_structural   CsCrH8(NO4)2
_chemical_formula_sum   'Cs1 Cr1 H8 N2 O8'
_cell_volume   216.12010049
_cell_formula_units_Z   1
loop_
 _symmetry_equiv_pos_site_id
 _symmetry_equiv_pos_as_xyz
  1  'x, y, z'
loop_
 _atom_site_type_symbol
 _atom_site_label
 _atom_site_symmetry_multiplicity
 _atom_site_fract_x
 _atom_site_fract_y
 _atom_site_fract_z
 _atom_site_occupancy
  Cs  Cs0  1  0.00000000  0.00000000  0.00000000  1
  Cr  Cr1  1  0.00000000  0.50000000  0.50000000  1
  H  H2  1  0.62666700  0.30232900  0.68804000  1
  H  H3  1  0.37333300  0.06137400  0.67566200  1
  H  H4  1  0.38571100  0.69767100  0.32433800  1
  H  H5  1  0.61428900  0.93862600  0.31196000  1
  H  H6  1  0.61428900  0.31196000  0.93862600  1
  H  H7  1  0.38571100  0.32433800  0.69767100  1
  H  H8  1  0.62666700  0.68804000  0.30232900  1
  H  H9  1  0.37333300  0.67566200  0.06137400  1
  N  N10  1  0.50000000  0.25000000  0.75000000  1
  N  N11  1  0.50000000  0.75000000  0.25000000  1
  O  O12  1  0.73209200  0.52579800  0.52579800  1
  O  O13  1  0.26790800  0.79370600  0.79370600  1
  O  O14  1  0.00000000  0.47420200  0.20629400  1
  O  O15  1  0.00000000  0.20629400  0.47420200  1
  O  O16  1  0.61032400  0.31049500  0.31049500  1
  O  O17  1  0.38967600  0.70017100  0.70017100  1
  O  O18  1  0.00000000  0.68950500  0.29982900  1
  O  O19  1  0.00000000  0.29982900  0.68950500  1
