# generated using pymatgen
data_Pu6Co
_symmetry_space_group_name_H-M   'P 1'
_cell_length_a   5.18809700
_cell_length_b   7.90278722
_cell_length_c   7.90278722
_cell_angle_alpha   83.81467838
_cell_angle_beta   70.83772196
_cell_angle_gamma   70.83772196
_symmetry_Int_Tables_number   1
_chemical_formula_structural   Pu6Co
_chemical_formula_sum   'Pu12 Co2'
_cell_volume   289.10647491
_cell_formula_units_Z   2
loop_
 _symmetry_equiv_pos_site_id
 _symmetry_equiv_pos_as_xyz
  1  'x, y, z'
loop_
 _atom_site_type_symbol
 _atom_site_label
 _atom_site_symmetry_multiplicity
 _atom_site_fract_x
 _atom_site_fract_y
 _atom_site_fract_z
 _atom_site_occupancy
  Pu  Pu0  1  0.09721300  0.50000000  0.30557300  1
  Pu  Pu1  1  0.90278700  0.50000000  0.69442700  1
  Pu  Pu2  1  0.40278700  0.69442700  0.50000000  1
  Pu  Pu3  1  0.59721300  0.30557300  0.50000000  1
  Pu  Pu4  1  0.09762800  0.11657100  0.68817400  1
  Pu  Pu5  1  0.90237200  0.88342900  0.31182600  1
  Pu  Pu6  1  0.78580200  0.31182600  0.11657100  1
  Pu  Pu7  1  0.40237200  0.31182600  0.88342900  1
  Pu  Pu8  1  0.21419800  0.68817400  0.88342900  1
  Pu  Pu9  1  0.59762800  0.68817400  0.11657100  1
  Pu  Pu10  1  0.71419800  0.88342900  0.68817400  1
  Pu  Pu11  1  0.28580200  0.11657100  0.31182600  1
  Co  Co12  1  0.25000000  0.00000000  0.00000000  1
  Co  Co13  1  0.75000000  0.00000000  0.00000000  1
