# generated using pymatgen
data_Sr2ZnWO6
_symmetry_space_group_name_H-M   'P 1'
_cell_length_a   5.67528300
_cell_length_b   5.73651100
_cell_length_c   9.88713740
_cell_angle_alpha   54.44102534
_cell_angle_beta   90.00000000
_cell_angle_gamma   90.00000000
_symmetry_Int_Tables_number   1
_chemical_formula_structural   Sr2ZnWO6
_chemical_formula_sum   'Sr4 Zn2 W2 O12'
_cell_volume   261.86216393
_cell_formula_units_Z   2
loop_
 _symmetry_equiv_pos_site_id
 _symmetry_equiv_pos_as_xyz
  1  'x, y, z'
loop_
 _atom_site_type_symbol
 _atom_site_label
 _atom_site_symmetry_multiplicity
 _atom_site_fract_x
 _atom_site_fract_y
 _atom_site_fract_z
 _atom_site_occupancy
  Sr  Sr0  1  0.01289900  0.75335600  0.25003400  1
  Sr  Sr1  1  0.48710100  0.75335600  0.75003400  1
  Sr  Sr2  1  0.98710100  0.24664400  0.74996600  1
  Sr  Sr3  1  0.51289900  0.24664400  0.24996600  1
  Zn  Zn4  1  0.00000000  0.00000000  0.50000000  1
  Zn  Zn5  1  0.50000000  0.00000000  0.00000000  1
  W  W6  1  0.50000000  0.50000000  0.50000000  1
  W  W7  1  0.00000000  0.50000000  0.00000000  1
  O  O8  1  0.75950600  0.74953200  0.47027100  1
  O  O9  1  0.74049400  0.74953200  0.97027100  1
  O  O10  1  0.24049400  0.25046800  0.52972900  1
  O  O11  1  0.25950600  0.25046800  0.02972900  1
  O  O12  1  0.27939600  0.78799700  0.47003500  1
  O  O13  1  0.22060400  0.78799700  0.97003500  1
  O  O14  1  0.72060400  0.21200300  0.52996500  1
  O  O15  1  0.77939600  0.21200300  0.02996500  1
  O  O16  1  0.49471600  0.68180100  0.26098300  1
  O  O17  1  0.00528400  0.68180100  0.76098300  1
  O  O18  1  0.50528400  0.31819900  0.73901700  1
  O  O19  1  0.99471600  0.31819900  0.23901700  1
