# generated using pymatgen
data_Hf3In4
_symmetry_space_group_name_H-M   'P 1'
_cell_length_a   10.34894800
_cell_length_b   10.34894800
_cell_length_c   3.11645200
_cell_angle_alpha   90.00000000
_cell_angle_beta   90.00000000
_cell_angle_gamma   90.00000000
_symmetry_Int_Tables_number   1
_chemical_formula_structural   Hf3In4
_chemical_formula_sum   'Hf6 In8'
_cell_volume   333.77426771
_cell_formula_units_Z   2
loop_
 _symmetry_equiv_pos_site_id
 _symmetry_equiv_pos_as_xyz
  1  'x, y, z'
loop_
 _atom_site_type_symbol
 _atom_site_label
 _atom_site_symmetry_multiplicity
 _atom_site_fract_x
 _atom_site_fract_y
 _atom_site_fract_z
 _atom_site_occupancy
  Hf  Hf0  1  0.50000000  0.00000000  0.00000000  1
  Hf  Hf1  1  0.00000000  0.50000000  0.00000000  1
  Hf  Hf2  1  0.68251500  0.18251500  0.50000000  1
  Hf  Hf3  1  0.31748500  0.81748500  0.50000000  1
  Hf  Hf4  1  0.18251500  0.31748500  0.50000000  1
  Hf  Hf5  1  0.81748500  0.68251500  0.50000000  1
  In  In6  1  0.55591500  0.70826600  0.00000000  1
  In  In7  1  0.44408500  0.29173400  0.00000000  1
  In  In8  1  0.05591500  0.79173400  0.00000000  1
  In  In9  1  0.94408500  0.20826600  0.00000000  1
  In  In10  1  0.29173400  0.55591500  0.00000000  1
  In  In11  1  0.70826600  0.44408500  0.00000000  1
  In  In12  1  0.20826600  0.05591500  0.00000000  1
  In  In13  1  0.79173400  0.94408500  0.00000000  1
