# generated using pymatgen
data_KYMnWO6
_symmetry_space_group_name_H-M   'P 1'
_cell_length_a   5.54978589
_cell_length_b   5.73043400
_cell_length_c   8.29749441
_cell_angle_alpha   90.00000000
_cell_angle_beta   90.66213175
_cell_angle_gamma   90.00000000
_symmetry_Int_Tables_number   1
_chemical_formula_structural   KYMnWO6
_chemical_formula_sum   'K2 Y2 Mn2 W2 O12'
_cell_volume   263.86495339
_cell_formula_units_Z   2
loop_
 _symmetry_equiv_pos_site_id
 _symmetry_equiv_pos_as_xyz
  1  'x, y, z'
loop_
 _atom_site_type_symbol
 _atom_site_label
 _atom_site_symmetry_multiplicity
 _atom_site_fract_x
 _atom_site_fract_y
 _atom_site_fract_z
 _atom_site_occupancy
  K  K0  1  0.24556300  0.74855600  0.00361400  1
  K  K1  1  0.75443700  0.24855600  0.99638600  1
  Y  Y2  1  0.25831000  0.83709200  0.50185100  1
  Y  Y3  1  0.74169000  0.33709200  0.49814900  1
  Mn  Mn4  1  0.74886500  0.78056300  0.25159800  1
  Mn  Mn5  1  0.25113500  0.28056300  0.74840200  1
  W  W6  1  0.76535200  0.76963400  0.74435100  1
  W  W7  1  0.23464800  0.26963400  0.25564900  1
  O  O8  1  0.56489200  0.04248800  0.67722700  1
  O  O9  1  0.43510800  0.54248800  0.32277300  1
  O  O10  1  0.52606900  0.07701400  0.32479200  1
  O  O11  1  0.47393100  0.57701400  0.67520800  1
  O  O12  1  0.94463600  0.44640900  0.24740600  1
  O  O13  1  0.05536400  0.94640900  0.75259400  1
  O  O14  1  0.92574500  0.47099400  0.75635600  1
  O  O15  1  0.07425500  0.97099400  0.24364400  1
  O  O16  1  0.85629300  0.73012800  0.50373100  1
  O  O17  1  0.14370700  0.23012800  0.49626900  1
  O  O18  1  0.71018300  0.78051100  0.96666800  1
  O  O19  1  0.28981700  0.28051100  0.03333200  1
