# generated using pymatgen
data_CsSn
_symmetry_space_group_name_H-M   'P 1'
_cell_length_a   13.36129446
_cell_length_b   13.36129446
_cell_length_c   13.36129446
_cell_angle_alpha   124.90113487
_cell_angle_beta   124.90113487
_cell_angle_gamma   81.70185082
_symmetry_Int_Tables_number   1
_chemical_formula_structural   CsSn
_chemical_formula_sum   'Cs16 Sn16'
_cell_volume   1543.88300627
_cell_formula_units_Z   16
loop_
 _symmetry_equiv_pos_site_id
 _symmetry_equiv_pos_as_xyz
  1  'x, y, z'
loop_
 _atom_site_type_symbol
 _atom_site_label
 _atom_site_symmetry_multiplicity
 _atom_site_fract_x
 _atom_site_fract_y
 _atom_site_fract_z
 _atom_site_occupancy
  Cs  Cs0  1  0.37900200  0.87900200  0.25800300  1
  Cs  Cs1  1  0.62900200  0.87099800  0.00000000  1
  Cs  Cs2  1  0.87099800  0.62900200  0.00000000  1
  Cs  Cs3  1  0.62099800  0.12099800  0.74199700  1
  Cs  Cs4  1  0.37099800  0.37099800  0.24199700  1
  Cs  Cs5  1  0.12099800  0.37900200  0.50000000  1
  Cs  Cs6  1  0.87900200  0.62099800  0.50000000  1
  Cs  Cs7  1  0.12900200  0.12900200  0.75800300  1
  Cs  Cs8  1  0.62500000  0.23454500  0.10954500  1
  Cs  Cs9  1  0.98454500  0.37500000  0.10954500  1
  Cs  Cs10  1  0.26545500  0.87500000  0.89045500  1
  Cs  Cs11  1  0.12500000  0.51545500  0.89045500  1
  Cs  Cs12  1  0.12500000  0.01545500  0.39045500  1
  Cs  Cs13  1  0.76545500  0.87500000  0.39045500  1
  Cs  Cs14  1  0.48454500  0.37500000  0.60954500  1
  Cs  Cs15  1  0.62500000  0.73454500  0.60954500  1
  Sn  Sn16  1  0.09311200  0.75888600  0.45728900  1
  Sn  Sn17  1  0.86417600  0.19840200  0.45728900  1
  Sn  Sn18  1  0.74111400  0.40688800  0.54271100  1
  Sn  Sn19  1  0.15688800  0.11417600  0.16577400  1
  Sn  Sn20  1  0.94840200  0.99111400  0.83422600  1
  Sn  Sn21  1  0.50888600  0.55159800  0.16577400  1
  Sn  Sn22  1  0.38582400  0.34311200  0.83422600  1
  Sn  Sn23  1  0.30159800  0.63582400  0.54271100  1
  Sn  Sn24  1  0.65688800  0.49111400  0.04271100  1
  Sn  Sn25  1  0.88582400  0.05159800  0.04271100  1
  Sn  Sn26  1  0.00888600  0.84311200  0.95728900  1
  Sn  Sn27  1  0.59311200  0.13582400  0.33422600  1
  Sn  Sn28  1  0.80159800  0.25888600  0.66577400  1
  Sn  Sn29  1  0.24111400  0.69840200  0.33422600  1
  Sn  Sn30  1  0.36417600  0.90688800  0.66577400  1
  Sn  Sn31  1  0.44840200  0.61417600  0.95728900  1
