# generated using pymatgen
data_TlIn(PS3)2
_symmetry_space_group_name_H-M   'P 1'
_cell_length_a   9.30097700
_cell_length_b   6.70521600
_cell_length_c   8.98454521
_cell_angle_alpha   89.91795158
_cell_angle_beta   90.00000000
_cell_angle_gamma   90.00000000
_symmetry_Int_Tables_number   1
_chemical_formula_structural   TlIn(PS3)2
_chemical_formula_sum   'Tl2 In2 P4 S12'
_cell_volume   560.32112488
_cell_formula_units_Z   2
loop_
 _symmetry_equiv_pos_site_id
 _symmetry_equiv_pos_as_xyz
  1  'x, y, z'
loop_
 _atom_site_type_symbol
 _atom_site_label
 _atom_site_symmetry_multiplicity
 _atom_site_fract_x
 _atom_site_fract_y
 _atom_site_fract_z
 _atom_site_occupancy
  Tl  Tl0  1  0.80045000  0.20632200  0.00408200  1
  Tl  Tl1  1  0.30045000  0.79367800  0.99591800  1
  In  In2  1  0.43530300  0.29968700  0.48085100  1
  In  In3  1  0.93530300  0.70031300  0.51914900  1
  P  P4  1  0.29322600  0.31272600  0.79071700  1
  P  P5  1  0.79322600  0.68727400  0.20928300  1
  P  P6  1  0.10474700  0.20385600  0.64728600  1
  P  P7  1  0.60474700  0.79614400  0.35271400  1
  S  S8  1  0.93825600  0.39774600  0.69399600  1
  S  S9  1  0.43825600  0.60225400  0.30600400  1
  S  S10  1  0.23034200  0.30419400  0.00160200  1
  S  S11  1  0.73034200  0.69580600  0.99839800  1
  S  S12  1  0.16857600  0.20668500  0.43042800  1
  S  S13  1  0.66857600  0.79331500  0.56957200  1
  S  S14  1  0.46117000  0.12212000  0.73359500  1
  S  S15  1  0.96117000  0.87788000  0.26640500  1
  S  S16  1  0.54338400  0.07033800  0.27201300  1
  S  S17  1  0.04338400  0.92966200  0.72798700  1
  S  S18  1  0.33466600  0.57636500  0.69062100  1
  S  S19  1  0.83466600  0.42363500  0.30937900  1
