# generated using pymatgen
data_Ca2Cr2O5
_symmetry_space_group_name_H-M   'P 1'
_cell_length_a   5.44002800
_cell_length_b   5.63051400
_cell_length_c   8.49430698
_cell_angle_alpha   109.35551387
_cell_angle_beta   108.67599525
_cell_angle_gamma   90.00000000
_symmetry_Int_Tables_number   1
_chemical_formula_structural   Ca2Cr2O5
_chemical_formula_sum   'Ca4 Cr4 O10'
_cell_volume   230.90565957
_cell_formula_units_Z   2
loop_
 _symmetry_equiv_pos_site_id
 _symmetry_equiv_pos_as_xyz
  1  'x, y, z'
loop_
 _atom_site_type_symbol
 _atom_site_label
 _atom_site_symmetry_multiplicity
 _atom_site_fract_x
 _atom_site_fract_y
 _atom_site_fract_z
 _atom_site_occupancy
  Ca  Ca0  1  0.88833600  0.41790700  0.79148100  1
  Ca  Ca1  1  0.09685500  0.58209300  0.20851900  1
  Ca  Ca2  1  0.59685500  0.12642600  0.20851900  1
  Ca  Ca3  1  0.38833600  0.87357400  0.79148100  1
  Cr  Cr4  1  0.48383100  0.50000000  0.00000000  1
  Cr  Cr5  1  0.98383100  0.00000000  0.00000000  1
  Cr  Cr6  1  0.28236700  0.18344100  0.50000000  1
  Cr  Cr7  1  0.78236700  0.81655900  0.50000000  1
  O  O8  1  0.25454100  0.77075900  0.03136600  1
  O  O9  1  0.22317500  0.22924100  0.96863400  1
  O  O10  1  0.72317500  0.23939400  0.96863400  1
  O  O11  1  0.75454100  0.76060600  0.03136600  1
  O  O12  1  0.32875100  0.42663800  0.72833900  1
  O  O13  1  0.60041300  0.57336200  0.27166100  1
  O  O14  1  0.10041300  0.19829900  0.27166100  1
  O  O15  1  0.82875100  0.80170100  0.72833900  1
  O  O16  1  0.63973100  0.13355500  0.50000000  1
  O  O17  1  0.13973100  0.86644500  0.50000000  1
