# generated using pymatgen
data_SrMn7O12
_symmetry_space_group_name_H-M   'P 1'
_cell_length_a   6.53212305
_cell_length_b   6.53212305
_cell_length_c   6.53212305
_cell_angle_alpha   109.47122063
_cell_angle_beta   109.47122063
_cell_angle_gamma   109.47122063
_symmetry_Int_Tables_number   1
_chemical_formula_structural   SrMn7O12
_chemical_formula_sum   'Sr1 Mn7 O12'
_cell_volume   214.55625519
_cell_formula_units_Z   1
loop_
 _symmetry_equiv_pos_site_id
 _symmetry_equiv_pos_as_xyz
  1  'x, y, z'
loop_
 _atom_site_type_symbol
 _atom_site_label
 _atom_site_symmetry_multiplicity
 _atom_site_fract_x
 _atom_site_fract_y
 _atom_site_fract_z
 _atom_site_occupancy
  Sr  Sr0  1  0.00000000  0.00000000  0.00000000  1
  Mn  Mn1  1  0.50000000  0.00000000  0.50000000  1
  Mn  Mn2  1  0.00000000  0.50000000  0.50000000  1
  Mn  Mn3  1  0.50000000  0.50000000  0.00000000  1
  Mn  Mn4  1  0.00000000  0.00000000  0.50000000  1
  Mn  Mn5  1  0.50000000  0.00000000  0.00000000  1
  Mn  Mn6  1  0.00000000  0.50000000  0.00000000  1
  Mn  Mn7  1  0.50000000  0.50000000  0.50000000  1
  O  O8  1  0.17999700  0.86917000  0.68917300  1
  O  O9  1  0.82000300  0.13083000  0.31082700  1
  O  O10  1  0.82000300  0.50917600  0.68917300  1
  O  O11  1  0.17999700  0.49082400  0.31082700  1
  O  O12  1  0.86917000  0.68917300  0.17999700  1
  O  O13  1  0.13083000  0.31082700  0.82000300  1
  O  O14  1  0.50917600  0.68917300  0.82000300  1
  O  O15  1  0.49082400  0.31082700  0.17999700  1
  O  O16  1  0.68917300  0.17999700  0.86917000  1
  O  O17  1  0.31082700  0.82000300  0.13083000  1
  O  O18  1  0.68917300  0.82000300  0.50917600  1
  O  O19  1  0.31082700  0.17999700  0.49082400  1
