# generated using pymatgen
data_As2O3
_symmetry_space_group_name_H-M   'P 1'
_cell_length_a   9.91506500
_cell_length_b   6.51535400
_cell_length_c   8.45905202
_cell_angle_alpha   90.00000000
_cell_angle_beta   94.37362026
_cell_angle_gamma   90.00000000
_symmetry_Int_Tables_number   1
_chemical_formula_structural   As2O3
_chemical_formula_sum   'As8 O12'
_cell_volume   544.86480348
_cell_formula_units_Z   4
loop_
 _symmetry_equiv_pos_site_id
 _symmetry_equiv_pos_as_xyz
  1  'x, y, z'
loop_
 _atom_site_type_symbol
 _atom_site_label
 _atom_site_symmetry_multiplicity
 _atom_site_fract_x
 _atom_site_fract_y
 _atom_site_fract_z
 _atom_site_occupancy
  As  As0  1  0.89082900  0.72734400  0.82828000  1
  As  As1  1  0.10917100  0.22734400  0.67172000  1
  As  As2  1  0.10917100  0.27265600  0.17172000  1
  As  As3  1  0.89082900  0.77265600  0.32828000  1
  As  As4  1  0.69819400  0.73561600  0.11249800  1
  As  As5  1  0.30180600  0.23561600  0.38750200  1
  As  As6  1  0.30180600  0.26438400  0.88750200  1
  As  As7  1  0.69819400  0.76438400  0.61249800  1
  O  O8  1  0.68125600  0.98494300  0.75002800  1
  O  O9  1  0.31874400  0.48494300  0.74997200  1
  O  O10  1  0.31874400  0.01505700  0.24997200  1
  O  O11  1  0.68125600  0.51505700  0.25002800  1
  O  O12  1  0.83968400  0.61582900  0.01060100  1
  O  O13  1  0.16031600  0.11582900  0.48939900  1
  O  O14  1  0.16031600  0.38417100  0.98939900  1
  O  O15  1  0.83968400  0.88417100  0.51060100  1
  O  O16  1  0.80447300  0.51519400  0.35962900  1
  O  O17  1  0.19552700  0.01519400  0.14037100  1
  O  O18  1  0.19552700  0.48480600  0.64037100  1
  O  O19  1  0.80447300  0.98480600  0.85962900  1
