# generated using pymatgen
data_MnTeMoO6
_symmetry_space_group_name_H-M   'P 1'
_cell_length_a   5.30361100
_cell_length_b   5.30361100
_cell_length_c   9.28707800
_cell_angle_alpha   90.00000000
_cell_angle_beta   90.00000000
_cell_angle_gamma   90.00000000
_symmetry_Int_Tables_number   1
_chemical_formula_structural   MnTeMoO6
_chemical_formula_sum   'Mn2 Te2 Mo2 O12'
_cell_volume   261.22961989
_cell_formula_units_Z   2
loop_
 _symmetry_equiv_pos_site_id
 _symmetry_equiv_pos_as_xyz
  1  'x, y, z'
loop_
 _atom_site_type_symbol
 _atom_site_label
 _atom_site_symmetry_multiplicity
 _atom_site_fract_x
 _atom_site_fract_y
 _atom_site_fract_z
 _atom_site_occupancy
  Mn  Mn0  1  0.00000000  0.00000000  0.00000000  1
  Mn  Mn1  1  0.50000000  0.50000000  0.00000000  1
  Te  Te2  1  0.00000000  0.50000000  0.75583700  1
  Te  Te3  1  0.50000000  0.00000000  0.24416300  1
  Mo  Mo4  1  0.50000000  0.00000000  0.69139200  1
  Mo  Mo5  1  0.00000000  0.50000000  0.30860800  1
  O  O6  1  0.31419300  0.81419300  0.57910000  1
  O  O7  1  0.18580700  0.31419300  0.42090000  1
  O  O8  1  0.68580700  0.18580700  0.57910000  1
  O  O9  1  0.81419300  0.68580700  0.42090000  1
  O  O10  1  0.28148800  0.21851200  0.79378500  1
  O  O11  1  0.21851200  0.71851200  0.20621500  1
  O  O12  1  0.71851200  0.78148800  0.79378500  1
  O  O13  1  0.78148800  0.28148800  0.20621500  1
  O  O14  1  0.80812300  0.30812300  0.89296300  1
  O  O15  1  0.69187700  0.80812300  0.10703700  1
  O  O16  1  0.19187700  0.69187700  0.89296300  1
  O  O17  1  0.30812300  0.19187700  0.10703700  1
