# generated using pymatgen
data_Pu(Mo3Se4)2
_symmetry_space_group_name_H-M   'P 1'
_cell_length_a   6.84111963
_cell_length_b   6.84111963
_cell_length_c   6.84112069
_cell_angle_alpha   89.14999698
_cell_angle_beta   89.14999698
_cell_angle_gamma   89.14999581
_symmetry_Int_Tables_number   1
_chemical_formula_structural   Pu(Mo3Se4)2
_chemical_formula_sum   'Pu1 Mo6 Se8'
_cell_volume   320.06606435
_cell_formula_units_Z   1
loop_
 _symmetry_equiv_pos_site_id
 _symmetry_equiv_pos_as_xyz
  1  'x, y, z'
loop_
 _atom_site_type_symbol
 _atom_site_label
 _atom_site_symmetry_multiplicity
 _atom_site_fract_x
 _atom_site_fract_y
 _atom_site_fract_z
 _atom_site_occupancy
  Pu  Pu0  1  0.00000000  0.00000000  0.00000000  1
  Mo  Mo1  1  0.42261300  0.23611700  0.55999400  1
  Mo  Mo2  1  0.23611700  0.55999400  0.42261300  1
  Mo  Mo3  1  0.55999400  0.42261300  0.23611700  1
  Mo  Mo4  1  0.57738700  0.76388300  0.44000600  1
  Mo  Mo5  1  0.76388300  0.44000600  0.57738700  1
  Mo  Mo6  1  0.44000600  0.57738700  0.76388300  1
  Se  Se7  1  0.23956900  0.23956900  0.23956900  1
  Se  Se8  1  0.76043100  0.76043100  0.76043100  1
  Se  Se9  1  0.37480500  0.75169300  0.12209500  1
  Se  Se10  1  0.75169300  0.12209500  0.37480500  1
  Se  Se11  1  0.12209500  0.37480500  0.75169300  1
  Se  Se12  1  0.62519500  0.24830700  0.87790500  1
  Se  Se13  1  0.24830700  0.87790500  0.62519500  1
  Se  Se14  1  0.87790500  0.62519500  0.24830700  1
