# generated using pymatgen
data_Sr3Hg
_symmetry_space_group_name_H-M   'P 1'
_cell_length_a   7.51634500
_cell_length_b   8.44079900
_cell_length_c   11.24411400
_cell_angle_alpha   90.00000000
_cell_angle_beta   90.00000000
_cell_angle_gamma   90.00000000
_symmetry_Int_Tables_number   1
_chemical_formula_structural   Sr3Hg
_chemical_formula_sum   'Sr12 Hg4'
_cell_volume   713.37108916
_cell_formula_units_Z   4
loop_
 _symmetry_equiv_pos_site_id
 _symmetry_equiv_pos_as_xyz
  1  'x, y, z'
loop_
 _atom_site_type_symbol
 _atom_site_label
 _atom_site_symmetry_multiplicity
 _atom_site_fract_x
 _atom_site_fract_y
 _atom_site_fract_z
 _atom_site_occupancy
  Sr  Sr0  1  0.33589700  0.67839200  0.06586000  1
  Sr  Sr1  1  0.16410300  0.17839200  0.43414000  1
  Sr  Sr2  1  0.66410300  0.32160800  0.56586000  1
  Sr  Sr3  1  0.83589700  0.82160800  0.93414000  1
  Sr  Sr4  1  0.66410300  0.32160800  0.93414000  1
  Sr  Sr5  1  0.83589700  0.82160800  0.56586000  1
  Sr  Sr6  1  0.33589700  0.67839200  0.43414000  1
  Sr  Sr7  1  0.16410300  0.17839200  0.06586000  1
  Sr  Sr8  1  0.84991300  0.53671800  0.25000000  1
  Sr  Sr9  1  0.65008700  0.03671800  0.25000000  1
  Sr  Sr10  1  0.15008700  0.46328200  0.75000000  1
  Sr  Sr11  1  0.34991300  0.96328200  0.75000000  1
  Hg  Hg12  1  0.05492700  0.87926500  0.25000000  1
  Hg  Hg13  1  0.44507300  0.37926500  0.25000000  1
  Hg  Hg14  1  0.94507300  0.12073500  0.75000000  1
  Hg  Hg15  1  0.55492700  0.62073500  0.75000000  1
