# generated using pymatgen
data_MnV4(CuO4)3
_symmetry_space_group_name_H-M   'P 1'
_cell_length_a   6.38310606
_cell_length_b   6.38310606
_cell_length_c   6.38310606
_cell_angle_alpha   109.47122063
_cell_angle_beta   109.47122063
_cell_angle_gamma   109.47122063
_symmetry_Int_Tables_number   1
_chemical_formula_structural   MnV4(CuO4)3
_chemical_formula_sum   'Mn1 V4 Cu3 O12'
_cell_volume   200.20470997
_cell_formula_units_Z   1
loop_
 _symmetry_equiv_pos_site_id
 _symmetry_equiv_pos_as_xyz
  1  'x, y, z'
loop_
 _atom_site_type_symbol
 _atom_site_label
 _atom_site_symmetry_multiplicity
 _atom_site_fract_x
 _atom_site_fract_y
 _atom_site_fract_z
 _atom_site_occupancy
  Mn  Mn0  1  0.00000000  0.00000000  0.00000000  1
  V  V1  1  0.00000000  0.00000000  0.50000000  1
  V  V2  1  0.50000000  0.00000000  0.00000000  1
  V  V3  1  0.00000000  0.50000000  0.00000000  1
  V  V4  1  0.50000000  0.50000000  0.50000000  1
  Cu  Cu5  1  0.50000000  0.00000000  0.50000000  1
  Cu  Cu6  1  0.00000000  0.50000000  0.50000000  1
  Cu  Cu7  1  0.50000000  0.50000000  0.00000000  1
  O  O8  1  0.70042500  0.81954400  0.51996900  1
  O  O9  1  0.70042500  0.18045600  0.88088100  1
  O  O10  1  0.29957500  0.81954400  0.11911900  1
  O  O11  1  0.29957500  0.18045600  0.48003100  1
  O  O12  1  0.81954400  0.51996900  0.70042500  1
  O  O13  1  0.18045600  0.88088100  0.70042500  1
  O  O14  1  0.81954400  0.11911900  0.29957500  1
  O  O15  1  0.18045600  0.48003100  0.29957500  1
  O  O16  1  0.51996900  0.70042500  0.81954400  1
  O  O17  1  0.88088100  0.70042500  0.18045600  1
  O  O18  1  0.11911900  0.29957500  0.81954400  1
  O  O19  1  0.48003100  0.29957500  0.18045600  1
