# generated using pymatgen
data_SbN2F5
_symmetry_space_group_name_H-M   'P 1'
_cell_length_a   8.35535022
_cell_length_b   8.35535022
_cell_length_c   6.85887600
_cell_angle_alpha   90.00000000
_cell_angle_beta   90.00000000
_cell_angle_gamma   133.86339105
_symmetry_Int_Tables_number   1
_chemical_formula_structural   SbN2F5
_chemical_formula_sum   'Sb2 N4 F10'
_cell_volume   345.23429067
_cell_formula_units_Z   2
loop_
 _symmetry_equiv_pos_site_id
 _symmetry_equiv_pos_as_xyz
  1  'x, y, z'
loop_
 _atom_site_type_symbol
 _atom_site_label
 _atom_site_symmetry_multiplicity
 _atom_site_fract_x
 _atom_site_fract_y
 _atom_site_fract_z
 _atom_site_occupancy
  Sb  Sb0  1  0.87444400  0.12555600  0.75000000  1
  Sb  Sb1  1  0.12555600  0.87444400  0.25000000  1
  N  N2  1  0.44121400  0.55878600  0.25000000  1
  N  N3  1  0.55878600  0.44121400  0.75000000  1
  N  N4  1  0.24541300  0.75458700  0.75000000  1
  N  N5  1  0.75458700  0.24541300  0.25000000  1
  F  F6  1  0.75279400  0.24720600  0.75000000  1
  F  F7  1  0.24720600  0.75279400  0.25000000  1
  F  F8  1  0.70034500  0.89928300  0.94082000  1
  F  F9  1  0.89928300  0.70034500  0.05918000  1
  F  F10  1  0.70034500  0.89928300  0.55918000  1
  F  F11  1  0.89928300  0.70034500  0.44082000  1
  F  F12  1  0.29965500  0.10071700  0.05918000  1
  F  F13  1  0.10071700  0.29965500  0.94082000  1
  F  F14  1  0.29965500  0.10071700  0.44082000  1
  F  F15  1  0.10071700  0.29965500  0.55918000  1
