# generated using pymatgen
data_KCaH3
_symmetry_space_group_name_H-M   'P 1'
_cell_length_a   6.31177700
_cell_length_b   6.32258500
_cell_length_c   8.93302100
_cell_angle_alpha   90.00000000
_cell_angle_beta   90.00000000
_cell_angle_gamma   90.00000000
_symmetry_Int_Tables_number   1
_chemical_formula_structural   KCaH3
_chemical_formula_sum   'K4 Ca4 H12'
_cell_volume   356.48780527
_cell_formula_units_Z   4
loop_
 _symmetry_equiv_pos_site_id
 _symmetry_equiv_pos_as_xyz
  1  'x, y, z'
loop_
 _atom_site_type_symbol
 _atom_site_label
 _atom_site_symmetry_multiplicity
 _atom_site_fract_x
 _atom_site_fract_y
 _atom_site_fract_z
 _atom_site_occupancy
  K  K0  1  0.50340300  0.51642200  0.25000000  1
  K  K1  1  0.99659700  0.01642200  0.25000000  1
  K  K2  1  0.49659700  0.48357800  0.75000000  1
  K  K3  1  0.00340300  0.98357800  0.75000000  1
  Ca  Ca4  1  0.00000000  0.50000000  0.00000000  1
  Ca  Ca5  1  0.50000000  0.00000000  0.50000000  1
  Ca  Ca6  1  0.00000000  0.50000000  0.50000000  1
  Ca  Ca7  1  0.50000000  0.00000000  0.00000000  1
  H  H8  1  0.05630300  0.48603300  0.25000000  1
  H  H9  1  0.44369700  0.98603300  0.25000000  1
  H  H10  1  0.94369700  0.51396700  0.75000000  1
  H  H11  1  0.55630300  0.01396700  0.75000000  1
  H  H12  1  0.27831900  0.72186600  0.97039800  1
  H  H13  1  0.22168100  0.22186600  0.52960200  1
  H  H14  1  0.72168100  0.27813400  0.47039800  1
  H  H15  1  0.77831900  0.77813400  0.02960200  1
  H  H16  1  0.72168100  0.27813400  0.02960200  1
  H  H17  1  0.77831900  0.77813400  0.47039800  1
  H  H18  1  0.27831900  0.72186600  0.52960200  1
  H  H19  1  0.22168100  0.22186600  0.97039800  1
