data_image0
_chemical_formula_structural       B2H16Na2O14
_chemical_formula_sum              "B2 H16 Na2 O14"
_cell_length_a       5.72771
_cell_length_b       7.13886
_cell_length_c       6.84555
_cell_angle_alpha    105.228
_cell_angle_beta     94.6896
_cell_angle_gamma    122.15

_space_group_name_H-M_alt    "P 1"
_space_group_IT_number       1

loop_
  _space_group_symop_operation_xyz
  'x, y, z'

loop_
  _atom_site_type_symbol
  _atom_site_label
  _atom_site_symmetry_multiplicity
  _atom_site_fract_x
  _atom_site_fract_y
  _atom_site_fract_z
  _atom_site_occupancy
  B   B1        1.0  0.42000  0.57700  0.32500  1.0000
  B   B2        1.0  0.58000  0.42300  0.67500  1.0000
  H   H1        1.0  0.33800  0.88700  0.66400  1.0000
  H   H2        1.0  0.66200  0.11300  0.33600  1.0000
  H   H3        1.0  0.99800  0.26400  0.38100  1.0000
  H   H4        1.0  0.00175  0.73600  0.61900  1.0000
  H   H5        1.0  0.21400  0.85600  0.29600  1.0000
  H   H6        1.0  0.78600  0.14400  0.70400  1.0000
  H   H7        1.0  0.76900  0.89400  0.34100  1.0000
  H   H8        1.0  0.23100  0.10600  0.65900  1.0000
  H   H9        1.0  0.91300  0.47400  0.18700  1.0000
  H   H10       1.0  0.08720  0.52600  0.81300  1.0000
  H   H11       1.0  0.23000  0.49100  0.99800  1.0000
  H   H12       1.0  0.77000  0.50900  0.00151  1.0000
  H   H13       1.0  0.27100  0.10500  0.38400  1.0000
  H   H14       1.0  0.72900  0.89500  0.61600  1.0000
  H   H15       1.0  0.49700  0.38000  0.12100  1.0000
  H   H16       1.0  0.50300  0.62000  0.87900  1.0000
  Na  Na1       1.0  0.50000  0.00000  0.00000  1.0000
  Na  Na2       1.0  0.00000  0.00000  0.00000  1.0000
  O   O1        1.0  0.26400  0.53300  0.49100  1.0000
  O   O2        1.0  0.73600  0.46700  0.50900  1.0000
  O   O3        1.0  0.71600  0.75800  0.39200  1.0000
  O   O4        1.0  0.28400  0.24200  0.60800  1.0000
  O   O5        1.0  0.21900  0.64600  0.34600  1.0000
  O   O6        1.0  0.78100  0.35400  0.65400  1.0000
  O   O7        1.0  0.32200  0.37900  0.14400  1.0000
  O   O8        1.0  0.67800  0.62100  0.85600  1.0000
  O   O9        1.0  0.74200  0.38700  0.06230  1.0000
  O   O10       1.0  0.25800  0.61300  0.93800  1.0000
  O   O11       1.0  0.26900  0.99400  0.25500  1.0000
  O   O12       1.0  0.73100  0.00648  0.74500  1.0000
  O   O13       1.0  0.81600  0.10500  0.28800  1.0000
  O   O14       1.0  0.18400  0.89500  0.71200  1.0000
