# generated using pymatgen
data_Yb2S3
_symmetry_space_group_name_H-M   'P 1'
_cell_length_a   4.05063300
_cell_length_b   10.27061000
_cell_length_c   11.43373400
_cell_angle_alpha   90.00000000
_cell_angle_beta   90.00000000
_cell_angle_gamma   90.00000000
_symmetry_Int_Tables_number   1
_chemical_formula_structural   Yb2S3
_chemical_formula_sum   'Yb8 S12'
_cell_volume   475.67159626
_cell_formula_units_Z   4
loop_
 _symmetry_equiv_pos_site_id
 _symmetry_equiv_pos_as_xyz
  1  'x, y, z'
loop_
 _atom_site_type_symbol
 _atom_site_label
 _atom_site_symmetry_multiplicity
 _atom_site_fract_x
 _atom_site_fract_y
 _atom_site_fract_z
 _atom_site_occupancy
  Yb  Yb0  1  0.25000000  0.17189800  0.50297300  1
  Yb  Yb1  1  0.25000000  0.32810200  0.00297300  1
  Yb  Yb2  1  0.75000000  0.82810200  0.49702700  1
  Yb  Yb3  1  0.75000000  0.67189800  0.99702700  1
  Yb  Yb4  1  0.75000000  0.51855800  0.65467300  1
  Yb  Yb5  1  0.75000000  0.98144200  0.15467300  1
  Yb  Yb6  1  0.25000000  0.48144200  0.34532700  1
  Yb  Yb7  1  0.25000000  0.01855800  0.84532700  1
  S  S8  1  0.25000000  0.65522300  0.52855800  1
  S  S9  1  0.25000000  0.84477700  0.02855800  1
  S  S10  1  0.75000000  0.34477700  0.47144200  1
  S  S11  1  0.75000000  0.15522300  0.97144200  1
  S  S12  1  0.75000000  0.05679700  0.64979100  1
  S  S13  1  0.75000000  0.44320300  0.14979100  1
  S  S14  1  0.25000000  0.94320300  0.35020900  1
  S  S15  1  0.25000000  0.55679700  0.85020900  1
  S  S16  1  0.25000000  0.37201600  0.76472100  1
  S  S17  1  0.25000000  0.12798400  0.26472100  1
  S  S18  1  0.75000000  0.62798400  0.23527900  1
  S  S19  1  0.75000000  0.87201600  0.73527900  1
