# generated using pymatgen
data_Sc3As2
_symmetry_space_group_name_H-M   'P 1'
_cell_length_a   10.35425400
_cell_length_b   10.35425400
_cell_length_c   3.86413200
_cell_angle_alpha   90.00000000
_cell_angle_beta   90.00000000
_cell_angle_gamma   90.00000000
_symmetry_Int_Tables_number   1
_chemical_formula_structural   Sc3As2
_chemical_formula_sum   'Sc12 As8'
_cell_volume   414.27581706
_cell_formula_units_Z   4
loop_
 _symmetry_equiv_pos_site_id
 _symmetry_equiv_pos_as_xyz
  1  'x, y, z'
loop_
 _atom_site_type_symbol
 _atom_site_label
 _atom_site_symmetry_multiplicity
 _atom_site_fract_x
 _atom_site_fract_y
 _atom_site_fract_z
 _atom_site_occupancy
  Sc  Sc0  1  0.14032800  0.81165900  0.50000000  1
  Sc  Sc1  1  0.85967200  0.18834100  0.50000000  1
  Sc  Sc2  1  0.18834100  0.14032800  0.50000000  1
  Sc  Sc3  1  0.81165900  0.85967200  0.50000000  1
  Sc  Sc4  1  0.39662800  0.71997700  0.00000000  1
  Sc  Sc5  1  0.60337200  0.28002300  0.00000000  1
  Sc  Sc6  1  0.28002300  0.39662800  0.00000000  1
  Sc  Sc7  1  0.71997700  0.60337200  0.00000000  1
  Sc  Sc8  1  0.00000000  0.50000000  0.50000000  1
  Sc  Sc9  1  0.50000000  0.00000000  0.50000000  1
  Sc  Sc10  1  0.50000000  0.50000000  0.50000000  1
  Sc  Sc11  1  0.00000000  0.00000000  0.00000000  1
  As  As12  1  0.25410800  0.58274900  0.50000000  1
  As  As13  1  0.74589200  0.41725100  0.50000000  1
  As  As14  1  0.41725100  0.25410800  0.50000000  1
  As  As15  1  0.58274900  0.74589200  0.50000000  1
  As  As16  1  0.27807300  0.95577800  0.00000000  1
  As  As17  1  0.72192700  0.04422200  0.00000000  1
  As  As18  1  0.04422200  0.27807300  0.00000000  1
  As  As19  1  0.95577800  0.72192700  0.00000000  1
