# generated using pymatgen
data_MnO2
_symmetry_space_group_name_H-M   'P 1'
_cell_length_a   2.92542700
_cell_length_b   9.45641400
_cell_length_c   9.57079002
_cell_angle_alpha   88.03220739
_cell_angle_beta   90.00000000
_cell_angle_gamma   90.00000000
_symmetry_Int_Tables_number   1
_chemical_formula_structural   MnO2
_chemical_formula_sum   'Mn6 O12'
_cell_volume   264.61066609
_cell_formula_units_Z   6
loop_
 _symmetry_equiv_pos_site_id
 _symmetry_equiv_pos_as_xyz
  1  'x, y, z'
loop_
 _atom_site_type_symbol
 _atom_site_label
 _atom_site_symmetry_multiplicity
 _atom_site_fract_x
 _atom_site_fract_y
 _atom_site_fract_z
 _atom_site_occupancy
  Mn  Mn0  1  0.50000000  0.00000000  0.50000000  1
  Mn  Mn1  1  0.00000000  0.98935300  0.76549700  1
  Mn  Mn2  1  0.00000000  0.01064700  0.23450300  1
  Mn  Mn3  1  0.00000000  0.50000000  0.00000000  1
  Mn  Mn4  1  0.50000000  0.23285800  0.98150700  1
  Mn  Mn5  1  0.50000000  0.76714200  0.01849300  1
  O  O6  1  0.50000000  0.90788200  0.15914600  1
  O  O7  1  0.50000000  0.09211800  0.84085400  1
  O  O8  1  0.00000000  0.90211300  0.41121600  1
  O  O9  1  0.00000000  0.09788700  0.58878400  1
  O  O10  1  0.50000000  0.89255200  0.67565300  1
  O  O11  1  0.50000000  0.10744800  0.32434700  1
  O  O12  1  0.00000000  0.85452500  0.92010100  1
  O  O13  1  0.00000000  0.14547500  0.07989900  1
  O  O14  1  0.50000000  0.59935500  0.90604200  1
  O  O15  1  0.50000000  0.40064500  0.09395800  1
  O  O16  1  0.00000000  0.33289900  0.88889400  1
  O  O17  1  0.00000000  0.66710100  0.11110600  1
