# generated using pymatgen
data_Ba3InSe4Cl
_symmetry_space_group_name_H-M   'P 1'
_cell_length_a   8.71001000
_cell_length_b   8.71001000
_cell_length_c   9.83850373
_cell_angle_alpha   116.27302785
_cell_angle_beta   116.27302785
_cell_angle_gamma   90.00000000
_symmetry_Int_Tables_number   1
_chemical_formula_structural   Ba3InSe4Cl
_chemical_formula_sum   'Ba6 In2 Se8 Cl2'
_cell_volume   582.05263644
_cell_formula_units_Z   2
loop_
 _symmetry_equiv_pos_site_id
 _symmetry_equiv_pos_as_xyz
  1  'x, y, z'
loop_
 _atom_site_type_symbol
 _atom_site_label
 _atom_site_symmetry_multiplicity
 _atom_site_fract_x
 _atom_site_fract_y
 _atom_site_fract_z
 _atom_site_occupancy
  Ba  Ba0  1  0.65454000  0.15454000  0.00000000  1
  Ba  Ba1  1  0.34546000  0.84546000  0.00000000  1
  Ba  Ba2  1  0.84546000  0.65454000  0.00000000  1
  Ba  Ba3  1  0.15454000  0.34546000  0.00000000  1
  Ba  Ba4  1  0.75000000  0.75000000  0.50000000  1
  Ba  Ba5  1  0.25000000  0.25000000  0.50000000  1
  In  In6  1  0.75000000  0.25000000  0.50000000  1
  In  In7  1  0.25000000  0.75000000  0.50000000  1
  Se  Se8  1  0.69722500  0.19722500  0.71584900  1
  Se  Se9  1  0.01862400  0.51862400  0.71584900  1
  Se  Se10  1  0.51862400  0.69722500  0.71584900  1
  Se  Se11  1  0.19722500  0.01862400  0.71584900  1
  Se  Se12  1  0.30277500  0.80277500  0.28415100  1
  Se  Se13  1  0.98137600  0.48137600  0.28415100  1
  Se  Se14  1  0.48137600  0.30277500  0.28415100  1
  Se  Se15  1  0.80277500  0.98137600  0.28415100  1
  Cl  Cl16  1  0.00000000  0.00000000  0.00000000  1
  Cl  Cl17  1  0.50000000  0.50000000  0.00000000  1
