# generated using pymatgen
data_NaMn3V4O12
_symmetry_space_group_name_H-M   'P 1'
_cell_length_a   6.49743689
_cell_length_b   6.49852399
_cell_length_c   6.43700534
_cell_angle_alpha   70.70962511
_cell_angle_beta   70.74388619
_cell_angle_gamma   109.67586646
_symmetry_Int_Tables_number   1
_chemical_formula_structural   NaMn3V4O12
_chemical_formula_sum   'Na1 Mn3 V4 O12'
_cell_volume   209.71742434
_cell_formula_units_Z   1
loop_
 _symmetry_equiv_pos_site_id
 _symmetry_equiv_pos_as_xyz
  1  'x, y, z'
loop_
 _atom_site_type_symbol
 _atom_site_label
 _atom_site_symmetry_multiplicity
 _atom_site_fract_x
 _atom_site_fract_y
 _atom_site_fract_z
 _atom_site_occupancy
  Na  Na0  1  0.00000300  0.00000100  0.99999900  1
  Mn  Mn1  1  0.50001000  0.00002400  0.49997400  1
  Mn  Mn2  1  0.49994600  0.49999800  0.00004300  1
  Mn  Mn3  1  0.99997500  0.49995700  0.50000100  1
  V  V4  1  0.99999600  0.99998600  0.50000500  1
  V  V5  1  0.00000300  0.50000600  0.99998800  1
  V  V6  1  0.50001700  0.50001000  0.50000600  1
  V  V7  1  0.50000600  0.00001100  0.99999600  1
  O  O8  1  0.11882600  0.80687100  0.70003800  1
  O  O9  1  0.49247300  0.18625400  0.69028900  1
  O  O10  1  0.50753400  0.81374900  0.30970800  1
  O  O11  1  0.88118400  0.19313400  0.29996100  1
  O  O12  1  0.68793900  0.88095000  0.81899300  1
  O  O13  1  0.69370400  0.50750600  0.18255800  1
  O  O14  1  0.30629800  0.49249500  0.81744600  1
  O  O15  1  0.31206400  0.11905500  0.18100900  1
  O  O16  1  0.19329900  0.31197100  0.50696400  1
  O  O17  1  0.81372600  0.30614800  0.87660700  1
  O  O18  1  0.18628300  0.69385000  0.12338900  1
  O  O19  1  0.80671400  0.68802400  0.49302600  1
