# generated using pymatgen
data_TiPbO3
_symmetry_space_group_name_H-M   'P 1'
_cell_length_a   3.80474100
_cell_length_b   9.19883569
_cell_length_c   9.19883569
_cell_angle_alpha   87.54879647
_cell_angle_beta   78.06478706
_cell_angle_gamma   78.06478706
_symmetry_Int_Tables_number   1
_chemical_formula_structural   TiPbO3
_chemical_formula_sum   'Ti4 Pb4 O12'
_cell_volume   308.18237153
_cell_formula_units_Z   4
loop_
 _symmetry_equiv_pos_site_id
 _symmetry_equiv_pos_as_xyz
  1  'x, y, z'
loop_
 _atom_site_type_symbol
 _atom_site_label
 _atom_site_symmetry_multiplicity
 _atom_site_fract_x
 _atom_site_fract_y
 _atom_site_fract_z
 _atom_site_occupancy
  Ti  Ti0  1  0.35691500  0.67523200  0.61093900  1
  Ti  Ti1  1  0.64308500  0.32476800  0.38906100  1
  Ti  Ti2  1  0.96785300  0.38906100  0.67523200  1
  Ti  Ti3  1  0.03214700  0.61093900  0.32476800  1
  Pb  Pb4  1  0.35049200  0.97903800  0.31997700  1
  Pb  Pb5  1  0.64950800  0.02096200  0.68002300  1
  Pb  Pb6  1  0.67047000  0.68002300  0.97903800  1
  Pb  Pb7  1  0.32953000  0.31997700  0.02096200  1
  O  O8  1  0.47053300  0.42577100  0.63316300  1
  O  O9  1  0.52946700  0.57422900  0.36683700  1
  O  O10  1  0.10369600  0.36683700  0.42577100  1
  O  O11  1  0.89630400  0.63316300  0.57422900  1
  O  O12  1  0.24178600  0.71122100  0.80520700  1
  O  O13  1  0.75821400  0.28877900  0.19479300  1
  O  O14  1  0.04699300  0.19479300  0.71122100  1
  O  O15  1  0.95300700  0.80520700  0.28877900  1
  O  O16  1  0.28906000  0.87402000  0.54786000  1
  O  O17  1  0.71094000  0.12598000  0.45214000  1
  O  O18  1  0.83692000  0.45214000  0.87402000  1
  O  O19  1  0.16308000  0.54786000  0.12598000  1
