# generated using pymatgen
data_RbSb3S5O
_symmetry_space_group_name_H-M   'P 1'
_cell_length_a   5.97202000
_cell_length_b   9.11892462
_cell_length_c   10.99930202
_cell_angle_alpha   76.63692758
_cell_angle_beta   86.36977373
_cell_angle_gamma   83.24784038
_symmetry_Int_Tables_number   1
_chemical_formula_structural   RbSb3S5O
_chemical_formula_sum   'Rb2 Sb6 S10 O2'
_cell_volume   578.33909700
_cell_formula_units_Z   2
loop_
 _symmetry_equiv_pos_site_id
 _symmetry_equiv_pos_as_xyz
  1  'x, y, z'
loop_
 _atom_site_type_symbol
 _atom_site_label
 _atom_site_symmetry_multiplicity
 _atom_site_fract_x
 _atom_site_fract_y
 _atom_site_fract_z
 _atom_site_occupancy
  Rb  Rb0  1  0.78747000  0.86686400  0.15854800  1
  Rb  Rb1  1  0.21253000  0.13313600  0.84145200  1
  Sb  Sb2  1  0.71562400  0.34227500  0.46382100  1
  Sb  Sb3  1  0.28437600  0.65772500  0.53617900  1
  Sb  Sb4  1  0.29644100  0.47986600  0.12535500  1
  Sb  Sb5  1  0.70355900  0.52013400  0.87464500  1
  Sb  Sb6  1  0.28336300  0.08181200  0.36792100  1
  Sb  Sb7  1  0.71663700  0.91818800  0.63207900  1
  S  S8  1  0.69330700  0.08693500  0.37638500  1
  S  S9  1  0.30669300  0.91306500  0.62361500  1
  S  S10  1  0.70468400  0.48008700  0.11468100  1
  S  S11  1  0.29531600  0.51991300  0.88531900  1
  S  S12  1  0.31511300  0.41480600  0.42236100  1
  S  S13  1  0.68488700  0.58519400  0.57763900  1
  S  S14  1  0.32387900  0.19287800  0.11720200  1
  S  S15  1  0.67612100  0.80712200  0.88279800  1
  S  S16  1  0.29637000  0.82419500  0.31876400  1
  S  S17  1  0.70363000  0.17580500  0.68123600  1
  O  O18  1  0.55316300  0.15591100  0.05221600  1
  O  O19  1  0.44683700  0.84408900  0.94778400  1
