# generated using pymatgen
data_K2MoO2F5
_symmetry_space_group_name_H-M   'P 1'
_cell_length_a   6.29214243
_cell_length_b   6.29214243
_cell_length_c   9.46953378
_cell_angle_alpha   86.00782809
_cell_angle_beta   86.00782809
_cell_angle_gamma   89.99164051
_symmetry_Int_Tables_number   1
_chemical_formula_structural   K2MoO2F5
_chemical_formula_sum   'K4 Mo2 O4 F10'
_cell_volume   373.08751147
_cell_formula_units_Z   2
loop_
 _symmetry_equiv_pos_site_id
 _symmetry_equiv_pos_as_xyz
  1  'x, y, z'
loop_
 _atom_site_type_symbol
 _atom_site_label
 _atom_site_symmetry_multiplicity
 _atom_site_fract_x
 _atom_site_fract_y
 _atom_site_fract_z
 _atom_site_occupancy
  K  K0  1  0.28497000  0.29774600  0.20180000  1
  K  K1  1  0.70225400  0.71503000  0.79820000  1
  K  K2  1  0.23405100  0.76594900  0.50000000  1
  K  K3  1  0.74650300  0.25349700  0.50000000  1
  Mo  Mo4  1  0.76549800  0.79169300  0.26533800  1
  Mo  Mo5  1  0.20830700  0.23450200  0.73466200  1
  O  O6  1  0.74847600  0.80661200  0.08305100  1
  O  O7  1  0.19338800  0.25152400  0.91694900  1
  O  O8  1  0.33654900  0.66345100  0.00000000  1
  O  O9  1  0.73772000  0.26228000  0.00000000  1
  F  F10  1  0.77977300  0.77152800  0.48400100  1
  F  F11  1  0.22847200  0.22022700  0.51599900  1
  F  F12  1  0.54599200  0.56258400  0.31439500  1
  F  F13  1  0.43741600  0.45400800  0.68560500  1
  F  F14  1  0.99062700  0.56975200  0.28029400  1
  F  F15  1  0.43024800  0.00937300  0.71970600  1
  F  F16  1  0.54129300  0.00663200  0.31110500  1
  F  F17  1  0.99336800  0.45870700  0.68889500  1
  F  F18  1  0.98443000  0.01643600  0.27747000  1
  F  F19  1  0.98356400  0.01557000  0.72253000  1
