# generated using pymatgen
data_Cs2RhCl5O
_symmetry_space_group_name_H-M   'P 1'
_cell_length_a   7.41134600
_cell_length_b   8.45527700
_cell_length_c   9.52516082
_cell_angle_alpha   90.00000000
_cell_angle_beta   112.89480753
_cell_angle_gamma   90.00000000
_symmetry_Int_Tables_number   1
_chemical_formula_structural   Cs2RhCl5O
_chemical_formula_sum   'Cs4 Rh2 Cl10 O2'
_cell_volume   549.87112948
_cell_formula_units_Z   2
loop_
 _symmetry_equiv_pos_site_id
 _symmetry_equiv_pos_as_xyz
  1  'x, y, z'
loop_
 _atom_site_type_symbol
 _atom_site_label
 _atom_site_symmetry_multiplicity
 _atom_site_fract_x
 _atom_site_fract_y
 _atom_site_fract_z
 _atom_site_occupancy
  Cs  Cs0  1  0.46979200  0.25000000  0.93958400  1
  Cs  Cs1  1  0.53020800  0.75000000  0.06041600  1
  Cs  Cs2  1  0.75708100  0.25000000  0.51416200  1
  Cs  Cs3  1  0.24291900  0.75000000  0.48583800  1
  Rh  Rh4  1  0.10811800  0.25000000  0.21623600  1
  Rh  Rh5  1  0.89188200  0.75000000  0.78376400  1
  Cl  Cl6  1  0.24609400  0.25000000  0.49218900  1
  Cl  Cl7  1  0.75390600  0.75000000  0.50781100  1
  Cl  Cl8  1  0.88614800  0.04995800  0.22493600  1
  Cl  Cl9  1  0.66121200  0.95004200  0.77506400  1
  Cl  Cl10  1  0.88614800  0.45004200  0.22493600  1
  Cl  Cl11  1  0.66121200  0.54995800  0.77506400  1
  Cl  Cl12  1  0.11385200  0.95004200  0.77506400  1
  Cl  Cl13  1  0.33878800  0.04995800  0.22493600  1
  Cl  Cl14  1  0.11385200  0.54995800  0.77506400  1
  Cl  Cl15  1  0.33878800  0.45004200  0.22493600  1
  O  O16  1  0.00584000  0.25000000  0.01168000  1
  O  O17  1  0.99416000  0.75000000  0.98832000  1
