data_image0
_chemical_formula_structural       La6O18Re4
_chemical_formula_sum              "La6 O18 Re4"
_cell_length_a       6.77744
_cell_length_b       11.0656
_cell_length_c       5.62447
_cell_angle_alpha    105.039
_cell_angle_beta     110.932
_cell_angle_gamma    92.1984

_space_group_name_H-M_alt    "P 1"
_space_group_IT_number       1

loop_
  _space_group_symop_operation_xyz
  'x, y, z'

loop_
  _atom_site_type_symbol
  _atom_site_label
  _atom_site_symmetry_multiplicity
  _atom_site_fract_x
  _atom_site_fract_y
  _atom_site_fract_z
  _atom_site_occupancy
  La  La1       1.0  0.72800  0.73200  0.73200  1.0000
  La  La2       1.0  0.27200  0.26800  0.26800  1.0000
  La  La3       1.0  0.90500  0.38000  0.66200  1.0000
  La  La4       1.0  0.09490  0.62000  0.33800  1.0000
  La  La5       1.0  0.66200  0.11600  0.89100  1.0000
  La  La6       1.0  0.33800  0.88400  0.10900  1.0000
  O   O1        1.0  0.68800  0.93600  0.07870  1.0000
  O   O2        1.0  0.31200  0.06440  0.92100  1.0000
  O   O3        1.0  0.33200  0.07360  0.45700  1.0000
  O   O4        1.0  0.66800  0.92600  0.54300  1.0000
  O   O5        1.0  0.75100  0.54000  0.42700  1.0000
  O   O6        1.0  0.24900  0.46000  0.57300  1.0000
  O   O7        1.0  0.98200  0.18800  0.35800  1.0000
  O   O8        1.0  0.01830  0.81200  0.64200  1.0000
  O   O9        1.0  0.44300  0.68800  0.27600  1.0000
  O   O10       1.0  0.55700  0.31200  0.72400  1.0000
  O   O11       1.0  0.61100  0.28700  0.22500  1.0000
  O   O12       1.0  0.38900  0.71300  0.77500  1.0000
  O   O13       1.0  0.02530  0.81400  0.17800  1.0000
  O   O14       1.0  0.97500  0.18600  0.82200  1.0000
  O   O15       1.0  0.92000  0.40600  0.11100  1.0000
  O   O16       1.0  0.08010  0.59400  0.88900  1.0000
  O   O17       1.0  0.31400  0.42300  0.04620  1.0000
  O   O18       1.0  0.68600  0.57700  0.95400  1.0000
  Re  Re1       1.0  0.62100  0.42700  0.07280  1.0000
  Re  Re2       1.0  0.37900  0.57300  0.92700  1.0000
  Re  Re3       1.0  0.11000  0.09110  0.59900  1.0000
  Re  Re4       1.0  0.89000  0.90900  0.40100  1.0000
