# generated using pymatgen
data_Yb3Co
_symmetry_space_group_name_H-M   'P 1'
_cell_length_a   6.30921900
_cell_length_b   7.37638900
_cell_length_c   9.38993400
_cell_angle_alpha   90.00000000
_cell_angle_beta   90.00000000
_cell_angle_gamma   90.00000000
_symmetry_Int_Tables_number   1
_chemical_formula_structural   Yb3Co
_chemical_formula_sum   'Yb12 Co4'
_cell_volume   437.00052000
_cell_formula_units_Z   4
loop_
 _symmetry_equiv_pos_site_id
 _symmetry_equiv_pos_as_xyz
  1  'x, y, z'
loop_
 _atom_site_type_symbol
 _atom_site_label
 _atom_site_symmetry_multiplicity
 _atom_site_fract_x
 _atom_site_fract_y
 _atom_site_fract_z
 _atom_site_occupancy
  Yb  Yb0  1  0.33741100  0.66916300  0.06924500  1
  Yb  Yb1  1  0.16258900  0.16916300  0.43075500  1
  Yb  Yb2  1  0.66258900  0.33083700  0.56924500  1
  Yb  Yb3  1  0.83741100  0.83083700  0.93075500  1
  Yb  Yb4  1  0.66258900  0.33083700  0.93075500  1
  Yb  Yb5  1  0.83741100  0.83083700  0.56924500  1
  Yb  Yb6  1  0.33741100  0.66916300  0.43075500  1
  Yb  Yb7  1  0.16258900  0.16916300  0.06924500  1
  Yb  Yb8  1  0.85695600  0.54418800  0.25000000  1
  Yb  Yb9  1  0.64304400  0.04418800  0.25000000  1
  Yb  Yb10  1  0.14304400  0.45581200  0.75000000  1
  Yb  Yb11  1  0.35695600  0.95581200  0.75000000  1
  Co  Co12  1  0.04465200  0.88131800  0.25000000  1
  Co  Co13  1  0.45534800  0.38131800  0.25000000  1
  Co  Co14  1  0.95534800  0.11868200  0.75000000  1
  Co  Co15  1  0.54465200  0.61868200  0.75000000  1
