# generated using pymatgen
data_Nd5Ga3
_symmetry_space_group_name_H-M   'P 1'
_cell_length_a   9.18764283
_cell_length_b   9.18764283
_cell_length_c   9.18764283
_cell_angle_alpha   129.16467637
_cell_angle_beta   129.16467637
_cell_angle_gamma   74.74574648
_symmetry_Int_Tables_number   1
_chemical_formula_structural   Nd5Ga3
_chemical_formula_sum   'Nd10 Ga6'
_cell_volume   454.17534292
_cell_formula_units_Z   2
loop_
 _symmetry_equiv_pos_site_id
 _symmetry_equiv_pos_as_xyz
  1  'x, y, z'
loop_
 _atom_site_type_symbol
 _atom_site_label
 _atom_site_symmetry_multiplicity
 _atom_site_fract_x
 _atom_site_fract_y
 _atom_site_fract_z
 _atom_site_occupancy
  Nd  Nd0  1  0.50000000  0.50000000  0.00000000  1
  Nd  Nd1  1  0.00000000  0.00000000  0.00000000  1
  Nd  Nd2  1  0.52354400  0.02354400  0.84465200  1
  Nd  Nd3  1  0.17889100  0.67889100  0.15534800  1
  Nd  Nd4  1  0.02354400  0.17889100  0.50000000  1
  Nd  Nd5  1  0.67889100  0.52354400  0.50000000  1
  Nd  Nd6  1  0.47645600  0.97645600  0.15534800  1
  Nd  Nd7  1  0.82110900  0.32110900  0.84465200  1
  Nd  Nd8  1  0.97645600  0.82110900  0.50000000  1
  Nd  Nd9  1  0.32110900  0.47645600  0.50000000  1
  Ga  Ga10  1  0.25000000  0.25000000  0.00000000  1
  Ga  Ga11  1  0.75000000  0.75000000  0.00000000  1
  Ga  Ga12  1  0.88151200  0.38151200  0.26302300  1
  Ga  Ga13  1  0.11848800  0.61848800  0.73697700  1
  Ga  Ga14  1  0.38151200  0.11848800  0.50000000  1
  Ga  Ga15  1  0.61848800  0.88151200  0.50000000  1
