# generated using pymatgen
data_Bi6Te10Pb
_symmetry_space_group_name_H-M   'P 1'
_cell_length_a   4.50940810
_cell_length_b   4.50940810
_cell_length_c   34.35303888
_cell_angle_alpha   86.23678249
_cell_angle_beta   86.23678249
_cell_angle_gamma   59.99999853
_symmetry_Int_Tables_number   1
_chemical_formula_structural   Bi6Te10Pb
_chemical_formula_sum   'Bi6 Te10 Pb1'
_cell_volume   603.23156068
_cell_formula_units_Z   1
loop_
 _symmetry_equiv_pos_site_id
 _symmetry_equiv_pos_as_xyz
  1  'x, y, z'
loop_
 _atom_site_type_symbol
 _atom_site_label
 _atom_site_symmetry_multiplicity
 _atom_site_fract_x
 _atom_site_fract_y
 _atom_site_fract_z
 _atom_site_occupancy
  Bi  Bi0  1  0.29462800  0.29462800  0.11611600  1
  Bi  Bi1  1  0.70537200  0.70537200  0.88388400  1
  Bi  Bi2  1  0.23541900  0.23541900  0.29374300  1
  Bi  Bi3  1  0.76458100  0.76458100  0.70625700  1
  Bi  Bi4  1  0.47025000  0.47025000  0.58925100  1
  Bi  Bi5  1  0.52975000  0.52975000  0.41074900  1
  Te  Te6  1  0.35248800  0.35248800  0.94253500  1
  Te  Te7  1  0.64751200  0.64751200  0.05746500  1
  Te  Te8  1  0.05460900  0.05460900  0.83617300  1
  Te  Te9  1  0.94539100  0.94539100  0.16382700  1
  Te  Te10  1  0.41496600  0.41496600  0.75510200  1
  Te  Te11  1  0.58503400  0.58503400  0.24489800  1
  Te  Te12  1  0.11738200  0.11738200  0.64785300  1
  Te  Te13  1  0.88261800  0.88261800  0.35214700  1
  Te  Te14  1  0.18006600  0.18006600  0.45980300  1
  Te  Te15  1  0.81993400  0.81993400  0.54019700  1
  Pb  Pb16  1  0.00000000  0.00000000  0.00000000  1
