# generated using pymatgen
data_As2O3
_symmetry_space_group_name_H-M   'P 1'
_cell_length_a   5.26953300
_cell_length_b   7.49649400
_cell_length_c   13.15211000
_cell_angle_alpha   90.00000000
_cell_angle_beta   90.00000000
_cell_angle_gamma   90.00000000
_symmetry_Int_Tables_number   1
_chemical_formula_structural   As2O3
_chemical_formula_sum   'As8 O12'
_cell_volume   519.54809748
_cell_formula_units_Z   4
loop_
 _symmetry_equiv_pos_site_id
 _symmetry_equiv_pos_as_xyz
  1  'x, y, z'
loop_
 _atom_site_type_symbol
 _atom_site_label
 _atom_site_symmetry_multiplicity
 _atom_site_fract_x
 _atom_site_fract_y
 _atom_site_fract_z
 _atom_site_occupancy
  As  As0  1  0.00934200  0.61241200  0.11559200  1
  As  As1  1  0.00934200  0.38758800  0.88440800  1
  As  As2  1  0.50934200  0.38758800  0.11559200  1
  As  As3  1  0.50934200  0.61241200  0.88440800  1
  As  As4  1  0.94119900  0.88684000  0.38416200  1
  As  As5  1  0.94119900  0.11316000  0.61583800  1
  As  As6  1  0.44119900  0.11316000  0.38416200  1
  As  As7  1  0.44119900  0.88684000  0.61583800  1
  O  O8  1  0.39232200  0.50000000  0.00000000  1
  O  O9  1  0.89232200  0.50000000  0.00000000  1
  O  O10  1  0.55673200  0.00000000  0.50000000  1
  O  O11  1  0.05673200  0.00000000  0.50000000  1
  O  O12  1  0.24021400  0.94306400  0.32218600  1
  O  O13  1  0.24021400  0.05693500  0.67781400  1
  O  O14  1  0.74021400  0.05693500  0.32218600  1
  O  O15  1  0.74021400  0.94306400  0.67781400  1
  O  O16  1  0.20421800  0.43649300  0.17573800  1
  O  O17  1  0.20421800  0.56350700  0.82426200  1
  O  O18  1  0.70421800  0.56350700  0.17573800  1
  O  O19  1  0.70421800  0.43649300  0.82426200  1
