# generated using pymatgen
data_Sr(PO3)2
_symmetry_space_group_name_H-M   'P 1'
_cell_length_a   6.19204131
_cell_length_b   7.21694489
_cell_length_c   8.12249890
_cell_angle_alpha   86.01520737
_cell_angle_beta   119.91485708
_cell_angle_gamma   99.83492357
_symmetry_Int_Tables_number   1
_chemical_formula_structural   Sr(PO3)2
_chemical_formula_sum   'Sr2 P4 O12'
_cell_volume   309.93911532
_cell_formula_units_Z   2
loop_
 _symmetry_equiv_pos_site_id
 _symmetry_equiv_pos_as_xyz
  1  'x, y, z'
loop_
 _atom_site_type_symbol
 _atom_site_label
 _atom_site_symmetry_multiplicity
 _atom_site_fract_x
 _atom_site_fract_y
 _atom_site_fract_z
 _atom_site_occupancy
  Sr  Sr0  1  0.67863100  0.27424500  0.48611200  1
  Sr  Sr1  1  0.32136900  0.72575500  0.51388800  1
  P  P2  1  0.01551000  0.75786600  0.82069400  1
  P  P3  1  0.98449000  0.24213400  0.17930600  1
  P  P4  1  0.31759100  0.22887900  0.67197500  1
  P  P5  1  0.68240900  0.77112100  0.32802500  1
  O  O6  1  0.76741900  0.79402800  0.78766600  1
  O  O7  1  0.23258100  0.20597200  0.21233400  1
  O  O8  1  0.01892700  0.68205200  0.65172400  1
  O  O9  1  0.98107300  0.31794800  0.34827600  1
  O  O10  1  0.24884800  0.78322100  0.00657100  1
  O  O11  1  0.75115200  0.21677900  0.99342900  1
  O  O12  1  0.12730400  0.20913400  0.73553700  1
  O  O13  1  0.87269600  0.79086600  0.26446300  1
  O  O14  1  0.37390900  0.06158800  0.60925700  1
  O  O15  1  0.62609100  0.93841200  0.39074300  1
  O  O16  1  0.46492800  0.41400700  0.66370800  1
  O  O17  1  0.53507200  0.58599300  0.33629200  1
