# generated using pymatgen
data_AlI3N5
_symmetry_space_group_name_H-M   'P 1'
_cell_length_a   6.82842773
_cell_length_b   6.82842773
_cell_length_c   8.44773800
_cell_angle_alpha   90.00000000
_cell_angle_beta   90.00000000
_cell_angle_gamma   117.82135149
_symmetry_Int_Tables_number   1
_chemical_formula_structural   AlI3N5
_chemical_formula_sum   'Al2 I6 N10'
_cell_volume   348.36466509
_cell_formula_units_Z   2
loop_
 _symmetry_equiv_pos_site_id
 _symmetry_equiv_pos_as_xyz
  1  'x, y, z'
loop_
 _atom_site_type_symbol
 _atom_site_label
 _atom_site_symmetry_multiplicity
 _atom_site_fract_x
 _atom_site_fract_y
 _atom_site_fract_z
 _atom_site_occupancy
  Al  Al0  1  0.19155500  0.80844500  0.25000000  1
  Al  Al1  1  0.80844500  0.19155500  0.75000000  1
  I  I2  1  0.75611700  0.24388300  0.25000000  1
  I  I3  1  0.24388300  0.75611700  0.75000000  1
  I  I4  1  0.77087200  0.77087200  0.00000000  1
  I  I5  1  0.77087200  0.77087200  0.50000000  1
  I  I6  1  0.22912800  0.22912800  0.00000000  1
  I  I7  1  0.22912800  0.22912800  0.50000000  1
  N  N8  1  0.35590100  0.64409900  0.25000000  1
  N  N9  1  0.64409900  0.35590100  0.75000000  1
  N  N10  1  0.09914400  0.90085600  0.43450200  1
  N  N11  1  0.90085600  0.09914400  0.56549800  1
  N  N12  1  0.09914400  0.90085600  0.06549800  1
  N  N13  1  0.90085600  0.09914400  0.93450200  1
  N  N14  1  0.43737700  0.13185800  0.25000000  1
  N  N15  1  0.13185800  0.43737700  0.75000000  1
  N  N16  1  0.56262300  0.86814200  0.75000000  1
  N  N17  1  0.86814200  0.56262300  0.25000000  1
