# generated using pymatgen
data_Na2SeO5
_symmetry_space_group_name_H-M   'P 1'
_cell_length_a   6.70564500
_cell_length_b   6.09737120
_cell_length_c   9.47375400
_cell_angle_alpha   90.00000000
_cell_angle_beta   90.00000000
_cell_angle_gamma   123.35877552
_symmetry_Int_Tables_number   1
_chemical_formula_structural   Na2SeO5
_chemical_formula_sum   'Na4 Se2 O10'
_cell_volume   323.53294813
_cell_formula_units_Z   2
loop_
 _symmetry_equiv_pos_site_id
 _symmetry_equiv_pos_as_xyz
  1  'x, y, z'
loop_
 _atom_site_type_symbol
 _atom_site_label
 _atom_site_symmetry_multiplicity
 _atom_site_fract_x
 _atom_site_fract_y
 _atom_site_fract_z
 _atom_site_occupancy
  Na  Na0  1  0.00000000  0.00000000  0.50000000  1
  Na  Na1  1  0.00000000  0.00000000  0.00000000  1
  Na  Na2  1  0.66910100  0.33820100  0.75000000  1
  Na  Na3  1  0.33089900  0.66179900  0.25000000  1
  Se  Se4  1  0.21759600  0.43519200  0.75000000  1
  Se  Se5  1  0.78240400  0.56480800  0.25000000  1
  O  O6  1  0.08510700  0.17021300  0.25000000  1
  O  O7  1  0.91489300  0.82978700  0.75000000  1
  O  O8  1  0.96171700  0.30533100  0.86604600  1
  O  O9  1  0.65638600  0.69466900  0.13395400  1
  O  O10  1  0.96171700  0.30533100  0.63395400  1
  O  O11  1  0.65638600  0.69466900  0.36604600  1
  O  O12  1  0.03828300  0.69466900  0.13395400  1
  O  O13  1  0.34361400  0.30533100  0.86604600  1
  O  O14  1  0.03828300  0.69466900  0.36604600  1
  O  O15  1  0.34361400  0.30533100  0.63395400  1
