# generated using pymatgen
data_HgH4C2(N2Cl)2
_symmetry_space_group_name_H-M   'P 1'
_cell_length_a   4.13845400
_cell_length_b   6.91505876
_cell_length_c   7.17562367
_cell_angle_alpha   80.67049603
_cell_angle_beta   85.84775394
_cell_angle_gamma   85.23830697
_symmetry_Int_Tables_number   1
_chemical_formula_structural   HgH4C2(N2Cl)2
_chemical_formula_sum   'Hg1 H4 C2 N4 Cl2'
_cell_volume   201.57068158
_cell_formula_units_Z   1
loop_
 _symmetry_equiv_pos_site_id
 _symmetry_equiv_pos_as_xyz
  1  'x, y, z'
loop_
 _atom_site_type_symbol
 _atom_site_label
 _atom_site_symmetry_multiplicity
 _atom_site_fract_x
 _atom_site_fract_y
 _atom_site_fract_z
 _atom_site_occupancy
  Hg  Hg0  1  0.03491700  0.03823200  0.96916400  1
  H  H1  1  0.83754700  0.59670500  0.18929400  1
  H  H2  1  0.97931600  0.39293800  0.35134500  1
  H  H3  1  0.24637100  0.66598500  0.67304500  1
  H  H4  1  0.19656600  0.43272800  0.61488800  1
  C  C5  1  0.04358300  0.98710000  0.46915200  1
  C  C6  1  0.03528200  0.66284400  0.42193600  1
  N  N7  1  0.98300600  0.85757400  0.36601800  1
  N  N8  1  0.08698700  0.11987500  0.54806100  1
  N  N9  1  0.95053000  0.54111800  0.30896600  1
  N  N10  1  0.16672500  0.58185400  0.58412900  1
  Cl  Cl11  1  0.61931200  0.28226100  0.01798600  1
  Cl  Cl12  1  0.45337000  0.78844800  0.93127800  1
