# generated using pymatgen
data_K2PbBr4O
_symmetry_space_group_name_H-M   'P 1'
_cell_length_a   4.50519200
_cell_length_b   8.33245200
_cell_length_c   14.12564100
_cell_angle_alpha   90.00000000
_cell_angle_beta   90.00000000
_cell_angle_gamma   90.00000000
_symmetry_Int_Tables_number   1
_chemical_formula_structural   K2PbBr4O
_chemical_formula_sum   'K4 Pb2 Br8 O2'
_cell_volume   530.26661997
_cell_formula_units_Z   2
loop_
 _symmetry_equiv_pos_site_id
 _symmetry_equiv_pos_as_xyz
  1  'x, y, z'
loop_
 _atom_site_type_symbol
 _atom_site_label
 _atom_site_symmetry_multiplicity
 _atom_site_fract_x
 _atom_site_fract_y
 _atom_site_fract_z
 _atom_site_occupancy
  K  K0  1  0.49272200  0.91635100  0.67184400  1
  K  K1  1  0.49272200  0.08364900  0.32815600  1
  K  K2  1  0.50727800  0.41635100  0.82815600  1
  K  K3  1  0.50727800  0.58364900  0.17184400  1
  Pb  Pb4  1  0.98707200  0.50000000  0.50000000  1
  Pb  Pb5  1  0.01292800  0.00000000  0.00000000  1
  Br  Br6  1  0.99978000  0.62152500  0.70036100  1
  Br  Br7  1  0.99978000  0.37847500  0.29963900  1
  Br  Br8  1  0.00022000  0.12152500  0.79963900  1
  Br  Br9  1  0.00022000  0.87847500  0.20036100  1
  Br  Br10  1  0.48125600  0.25842900  0.54498000  1
  Br  Br11  1  0.48125600  0.74157100  0.45502000  1
  Br  Br12  1  0.51874400  0.75842900  0.95502000  1
  Br  Br13  1  0.51874400  0.24157100  0.04498000  1
  O  O14  1  0.83419500  0.50000000  0.00000000  1
  O  O15  1  0.16580500  0.00000000  0.50000000  1
