# generated using pymatgen
data_Np(Mo3Se4)2
_symmetry_space_group_name_H-M   'P 1'
_cell_length_a   6.78099759
_cell_length_b   6.78099759
_cell_length_c   6.78099783
_cell_angle_alpha   89.06422056
_cell_angle_beta   89.06422056
_cell_angle_gamma   89.06422457
_symmetry_Int_Tables_number   1
_chemical_formula_structural   Np(Mo3Se4)2
_chemical_formula_sum   'Np1 Mo6 Se8'
_cell_volume   311.67994143
_cell_formula_units_Z   1
loop_
 _symmetry_equiv_pos_site_id
 _symmetry_equiv_pos_as_xyz
  1  'x, y, z'
loop_
 _atom_site_type_symbol
 _atom_site_label
 _atom_site_symmetry_multiplicity
 _atom_site_fract_x
 _atom_site_fract_y
 _atom_site_fract_z
 _atom_site_occupancy
  Np  Np0  1  0.00000000  0.00000000  0.00000000  1
  Mo  Mo1  1  0.76611700  0.57574600  0.43970300  1
  Mo  Mo2  1  0.43970300  0.76611700  0.57574600  1
  Mo  Mo3  1  0.57574600  0.43970300  0.76611700  1
  Mo  Mo4  1  0.23388300  0.42425400  0.56029700  1
  Mo  Mo5  1  0.56029700  0.23388300  0.42425400  1
  Mo  Mo6  1  0.42425400  0.56029700  0.23388300  1
  Se  Se7  1  0.76111000  0.76111000  0.76111000  1
  Se  Se8  1  0.23889000  0.23889000  0.23889000  1
  Se  Se9  1  0.24197500  0.63033800  0.87868000  1
  Se  Se10  1  0.87868000  0.24197500  0.63033800  1
  Se  Se11  1  0.63033800  0.87868000  0.24197500  1
  Se  Se12  1  0.75802500  0.36966200  0.12132000  1
  Se  Se13  1  0.12132000  0.75802500  0.36966200  1
  Se  Se14  1  0.36966200  0.12132000  0.75802500  1
