# generated using pymatgen
data_Tb(BO2)3
_symmetry_space_group_name_H-M   'P 1'
_cell_length_a   6.51827795
_cell_length_b   6.51827795
_cell_length_c   6.51827795
_cell_angle_alpha   123.62810914
_cell_angle_beta   106.17506654
_cell_angle_gamma   99.64985901
_symmetry_Int_Tables_number   1
_chemical_formula_structural   Tb(BO2)3
_chemical_formula_sum   'Tb2 B6 O12'
_cell_volume   202.73725524
_cell_formula_units_Z   2
loop_
 _symmetry_equiv_pos_site_id
 _symmetry_equiv_pos_as_xyz
  1  'x, y, z'
loop_
 _atom_site_type_symbol
 _atom_site_label
 _atom_site_symmetry_multiplicity
 _atom_site_fract_x
 _atom_site_fract_y
 _atom_site_fract_z
 _atom_site_occupancy
  Tb  Tb0  1  0.75000000  0.00000000  0.75000000  1
  Tb  Tb1  1  0.25000000  0.00000000  0.25000000  1
  B  B2  1  0.25000000  0.50000000  0.75000000  1
  B  B3  1  0.75000000  0.50000000  0.25000000  1
  B  B4  1  0.18241500  0.80107600  0.61866100  1
  B  B5  1  0.68241500  0.56375400  0.88133900  1
  B  B6  1  0.81758500  0.19892400  0.38133900  1
  B  B7  1  0.31758500  0.43624600  0.11866100  1
  O  O8  1  0.04783500  0.24379000  0.49941500  1
  O  O9  1  0.33733100  0.90157400  0.56424300  1
  O  O10  1  0.83733100  0.77308800  0.93575700  1
  O  O11  1  0.66266900  0.09842600  0.43575700  1
  O  O12  1  0.45216500  0.45158000  0.69595500  1
  O  O13  1  0.25562500  0.75621000  0.80404500  1
  O  O14  1  0.54783500  0.54842000  0.30404500  1
  O  O15  1  0.74437500  0.24379000  0.19595500  1
  O  O16  1  0.95216500  0.75621000  0.50058500  1
  O  O17  1  0.75562500  0.45158000  0.99941500  1
  O  O18  1  0.16266900  0.22691200  0.06424300  1
  O  O19  1  0.24437500  0.54842000  0.00058500  1
