# generated using pymatgen
data_Na3VF6
_symmetry_space_group_name_H-M   'P 1'
_cell_length_a   5.83429400
_cell_length_b   5.83429416
_cell_length_c   5.83429374
_cell_angle_alpha   60.00000478
_cell_angle_beta   59.99999853
_cell_angle_gamma   60.00000090
_symmetry_Int_Tables_number   1
_chemical_formula_structural   Na3VF6
_chemical_formula_sum   'Na3 V1 F6'
_cell_volume   140.42678047
_cell_formula_units_Z   1
loop_
 _symmetry_equiv_pos_site_id
 _symmetry_equiv_pos_as_xyz
  1  'x, y, z'
loop_
 _atom_site_type_symbol
 _atom_site_label
 _atom_site_symmetry_multiplicity
 _atom_site_fract_x
 _atom_site_fract_y
 _atom_site_fract_z
 _atom_site_occupancy
  Na  Na0  1  0.25000000  0.25000000  0.25000000  1
  Na  Na1  1  0.75000000  0.75000000  0.75000000  1
  Na  Na2  1  0.50000000  0.50000000  0.50000000  1
  V  V3  1  0.00000000  0.00000000  0.00000000  1
  F  F4  1  0.23532000  0.76468000  0.23532000  1
  F  F5  1  0.76468000  0.76468000  0.23532000  1
  F  F6  1  0.76468000  0.23532000  0.76468000  1
  F  F7  1  0.76468000  0.23532000  0.23532000  1
  F  F8  1  0.23532000  0.76468000  0.76468000  1
  F  F9  1  0.23532000  0.23532000  0.76468000  1
