# generated using pymatgen
data_Cs2Mo(SO)2
_symmetry_space_group_name_H-M   'P 1'
_cell_length_a   7.22304208
_cell_length_b   7.22304208
_cell_length_c   10.39570570
_cell_angle_alpha   65.29531200
_cell_angle_beta   65.29531200
_cell_angle_gamma   66.18618630
_symmetry_Int_Tables_number   1
_chemical_formula_structural   Cs2Mo(SO)2
_chemical_formula_sum   'Cs4 Mo2 S4 O4'
_cell_volume   430.03978946
_cell_formula_units_Z   2
loop_
 _symmetry_equiv_pos_site_id
 _symmetry_equiv_pos_as_xyz
  1  'x, y, z'
loop_
 _atom_site_type_symbol
 _atom_site_label
 _atom_site_symmetry_multiplicity
 _atom_site_fract_x
 _atom_site_fract_y
 _atom_site_fract_z
 _atom_site_occupancy
  Cs  Cs0  1  0.76143000  0.64930800  0.66441900  1
  Cs  Cs1  1  0.35069200  0.23857000  0.83558100  1
  Cs  Cs2  1  0.23857000  0.35069200  0.33558100  1
  Cs  Cs3  1  0.64930800  0.76143000  0.16441900  1
  Mo  Mo4  1  0.08174800  0.91825200  0.75000000  1
  Mo  Mo5  1  0.91825200  0.08174800  0.25000000  1
  S  S6  1  0.23479300  0.73908600  0.93207000  1
  S  S7  1  0.26091400  0.76520700  0.56793000  1
  S  S8  1  0.76520700  0.26091400  0.06793000  1
  S  S9  1  0.73908600  0.23479300  0.43207000  1
  O  O10  1  0.09320100  0.18557900  0.67983000  1
  O  O11  1  0.81442100  0.90679900  0.82017000  1
  O  O12  1  0.90679900  0.81442100  0.32017000  1
  O  O13  1  0.18557900  0.09320100  0.17983000  1
