# generated using pymatgen
data_Mn2Mo2NO10
_symmetry_space_group_name_H-M   'P 1'
_cell_length_a   5.79042355
_cell_length_b   5.79042355
_cell_length_c   8.44960920
_cell_angle_alpha   68.62145915
_cell_angle_beta   68.62145915
_cell_angle_gamma   61.76454669
_symmetry_Int_Tables_number   1
_chemical_formula_structural   Mn2Mo2NO10
_chemical_formula_sum   'Mn2 Mo2 N1 O10'
_cell_volume   225.96275316
_cell_formula_units_Z   1
loop_
 _symmetry_equiv_pos_site_id
 _symmetry_equiv_pos_as_xyz
  1  'x, y, z'
loop_
 _atom_site_type_symbol
 _atom_site_label
 _atom_site_symmetry_multiplicity
 _atom_site_fract_x
 _atom_site_fract_y
 _atom_site_fract_z
 _atom_site_occupancy
  Mn  Mn0  1  0.00000000  0.50000000  0.50000000  1
  Mn  Mn1  1  0.50000000  0.00000000  0.50000000  1
  Mo  Mo2  1  0.57320600  0.57320600  0.24039200  1
  Mo  Mo3  1  0.42679400  0.42679400  0.75960800  1
  N  N4  1  0.00000000  0.00000000  0.00000000  1
  O  O5  1  0.19494800  0.19494800  0.40905600  1
  O  O6  1  0.80505200  0.80505200  0.59094400  1
  O  O7  1  0.21076100  0.69353200  0.29562500  1
  O  O8  1  0.69353200  0.21076100  0.29562500  1
  O  O9  1  0.78923900  0.30646800  0.70437500  1
  O  O10  1  0.30646800  0.78923900  0.70437500  1
  O  O11  1  0.68471700  0.68471700  0.01941400  1
  O  O12  1  0.31528300  0.31528300  0.98058600  1
  O  O13  1  0.68156000  0.68156000  0.38243600  1
  O  O14  1  0.31844000  0.31844000  0.61756400  1
