# generated using pymatgen
data_Li2FeAgF6
_symmetry_space_group_name_H-M   'P 1'
_cell_length_a   5.90930800
_cell_length_b   5.90930813
_cell_length_c   5.90930810
_cell_angle_alpha   60.00000354
_cell_angle_beta   60.00000056
_cell_angle_gamma   60.00000074
_symmetry_Int_Tables_number   1
_chemical_formula_structural   Li2FeAgF6
_chemical_formula_sum   'Li2 Fe1 Ag1 F6'
_cell_volume   145.91331177
_cell_formula_units_Z   1
loop_
 _symmetry_equiv_pos_site_id
 _symmetry_equiv_pos_as_xyz
  1  'x, y, z'
loop_
 _atom_site_type_symbol
 _atom_site_label
 _atom_site_symmetry_multiplicity
 _atom_site_fract_x
 _atom_site_fract_y
 _atom_site_fract_z
 _atom_site_occupancy
  Li  Li0  1  0.25000000  0.25000000  0.25000000  1
  Li  Li1  1  0.75000000  0.75000000  0.75000000  1
  Fe  Fe2  1  0.00000000  0.00000000  0.00000000  1
  Ag  Ag3  1  0.50000000  0.50000000  0.50000000  1
  F  F4  1  0.22471200  0.77528800  0.22471200  1
  F  F5  1  0.77528800  0.77528800  0.22471200  1
  F  F6  1  0.77528800  0.22471200  0.77528800  1
  F  F7  1  0.77528800  0.22471200  0.22471200  1
  F  F8  1  0.22471200  0.77528800  0.77528800  1
  F  F9  1  0.22471200  0.22471200  0.77528800  1
