data_image0
_chemical_formula_structural       Ca4Ge4O12
_chemical_formula_sum              "Ca4 Ge4 O12"
_cell_length_a       5.23594
_cell_length_b       5.26534
_cell_length_c       7.42119
_cell_angle_alpha    90
_cell_angle_beta     90
_cell_angle_gamma    90

_space_group_name_H-M_alt    "P 1"
_space_group_IT_number       1

loop_
  _space_group_symop_operation_xyz
  'x, y, z'

loop_
  _atom_site_type_symbol
  _atom_site_label
  _atom_site_symmetry_multiplicity
  _atom_site_fract_x
  _atom_site_fract_y
  _atom_site_fract_z
  _atom_site_occupancy
  Ca  Ca1       1.0  0.99200  0.04000  0.25000  1.0000
  Ca  Ca2       1.0  0.49200  0.46000  0.75000  1.0000
  Ca  Ca3       1.0  0.50800  0.54000  0.25000  1.0000
  Ca  Ca4       1.0  0.00817  0.96000  0.75000  1.0000
  Ge  Ge1       1.0  0.00000  0.50000  0.00000  1.0000
  Ge  Ge2       1.0  0.50000  0.00000  0.00000  1.0000
  Ge  Ge3       1.0  0.50000  0.00000  0.50000  1.0000
  Ge  Ge4       1.0  0.00000  0.50000  0.50000  1.0000
  O   O1        1.0  0.07420  0.48700  0.25000  1.0000
  O   O2        1.0  0.57400  0.01350  0.75000  1.0000
  O   O3        1.0  0.42600  0.98700  0.25000  1.0000
  O   O4        1.0  0.92600  0.51300  0.75000  1.0000
  O   O5        1.0  0.70900  0.29000  0.03830  1.0000
  O   O6        1.0  0.20900  0.21000  0.96200  1.0000
  O   O7        1.0  0.79100  0.79000  0.46200  1.0000
  O   O8        1.0  0.29100  0.71000  0.53800  1.0000
  O   O9        1.0  0.29100  0.71000  0.96200  1.0000
  O   O10       1.0  0.79100  0.79000  0.03830  1.0000
  O   O11       1.0  0.20900  0.21000  0.53800  1.0000
  O   O12       1.0  0.70900  0.29000  0.46200  1.0000
