# generated using pymatgen
data_Cs2Hg3I8O
_symmetry_space_group_name_H-M   'P 1'
_cell_length_a   11.87365582
_cell_length_b   11.87365582
_cell_length_c   7.96269389
_cell_angle_alpha   84.25279653
_cell_angle_beta   84.25279653
_cell_angle_gamma   142.83972128
_symmetry_Int_Tables_number   1
_chemical_formula_structural   Cs2Hg3I8O
_chemical_formula_sum   'Cs2 Hg3 I8 O1'
_cell_volume   643.74926283
_cell_formula_units_Z   1
loop_
 _symmetry_equiv_pos_site_id
 _symmetry_equiv_pos_as_xyz
  1  'x, y, z'
loop_
 _atom_site_type_symbol
 _atom_site_label
 _atom_site_symmetry_multiplicity
 _atom_site_fract_x
 _atom_site_fract_y
 _atom_site_fract_z
 _atom_site_occupancy
  Cs  Cs0  1  0.36898900  0.12441900  0.43841900  1
  Cs  Cs1  1  0.12441900  0.36898900  0.43841900  1
  Hg  Hg2  1  0.07864900  0.69031400  0.07225000  1
  Hg  Hg3  1  0.69031400  0.07864900  0.07225000  1
  Hg  Hg4  1  0.99197200  0.99197200  0.99958600  1
  I  I5  1  0.35086900  0.35086900  0.76772700  1
  I  I6  1  0.87764600  0.87764600  0.36522900  1
  I  I7  1  0.47915800  0.09209300  0.93786100  1
  I  I8  1  0.09209300  0.47915800  0.93786100  1
  I  I9  1  0.93421000  0.54404400  0.43756000  1
  I  I10  1  0.54404400  0.93421000  0.43756000  1
  I  I11  1  0.88708300  0.69128600  0.88888100  1
  I  I12  1  0.69128600  0.88708300  0.88888100  1
  O  O13  1  0.43429900  0.43429900  0.24141600  1
