# generated using pymatgen
data_Pt(NCl2)2
_symmetry_space_group_name_H-M   'P 1'
_cell_length_a   4.89778100
_cell_length_b   4.89778100
_cell_length_c   12.60088800
_cell_angle_alpha   90.00000000
_cell_angle_beta   90.00000000
_cell_angle_gamma   90.00000000
_symmetry_Int_Tables_number   1
_chemical_formula_structural   Pt(NCl2)2
_chemical_formula_sum   'Pt2 N4 Cl8'
_cell_volume   302.27336150
_cell_formula_units_Z   2
loop_
 _symmetry_equiv_pos_site_id
 _symmetry_equiv_pos_as_xyz
  1  'x, y, z'
loop_
 _atom_site_type_symbol
 _atom_site_label
 _atom_site_symmetry_multiplicity
 _atom_site_fract_x
 _atom_site_fract_y
 _atom_site_fract_z
 _atom_site_occupancy
  Pt  Pt0  1  0.50000000  0.50000000  0.50000000  1
  Pt  Pt1  1  0.00000000  0.00000000  0.00000000  1
  N  N2  1  0.28736700  0.71263300  0.00000000  1
  N  N3  1  0.71263300  0.28736700  0.00000000  1
  N  N4  1  0.21263300  0.21263300  0.50000000  1
  N  N5  1  0.78736700  0.78736700  0.50000000  1
  Cl  Cl6  1  0.25844700  0.74155300  0.37021300  1
  Cl  Cl7  1  0.74155300  0.25844700  0.37021300  1
  Cl  Cl8  1  0.24155300  0.24155300  0.87021300  1
  Cl  Cl9  1  0.75844700  0.75844700  0.87021300  1
  Cl  Cl10  1  0.74155300  0.25844700  0.62978700  1
  Cl  Cl11  1  0.25844700  0.74155300  0.62978700  1
  Cl  Cl12  1  0.75844700  0.75844700  0.12978700  1
  Cl  Cl13  1  0.24155300  0.24155300  0.12978700  1
