# generated using pymatgen
data_Rb2Mo(SO)2
_symmetry_space_group_name_H-M   'P 1'
_cell_length_a   6.97337910
_cell_length_b   6.97337910
_cell_length_c   10.18994376
_cell_angle_alpha   64.14887550
_cell_angle_beta   64.14887550
_cell_angle_gamma   64.62460412
_symmetry_Int_Tables_number   1
_chemical_formula_structural   Rb2Mo(SO)2
_chemical_formula_sum   'Rb4 Mo2 S4 O4'
_cell_volume   383.52207817
_cell_formula_units_Z   2
loop_
 _symmetry_equiv_pos_site_id
 _symmetry_equiv_pos_as_xyz
  1  'x, y, z'
loop_
 _atom_site_type_symbol
 _atom_site_label
 _atom_site_symmetry_multiplicity
 _atom_site_fract_x
 _atom_site_fract_y
 _atom_site_fract_z
 _atom_site_occupancy
  Rb  Rb0  1  0.76486800  0.65617900  0.66503000  1
  Rb  Rb1  1  0.34382100  0.23513200  0.83497000  1
  Rb  Rb2  1  0.23513200  0.34382100  0.33497000  1
  Rb  Rb3  1  0.65617900  0.76486800  0.16503000  1
  Mo  Mo4  1  0.07825200  0.92174800  0.75000000  1
  Mo  Mo5  1  0.92174800  0.07825200  0.25000000  1
  S  S6  1  0.24009200  0.73011200  0.93578800  1
  S  S7  1  0.26988800  0.75990800  0.56421200  1
  S  S8  1  0.75990800  0.26988800  0.06421200  1
  S  S9  1  0.73011200  0.24009200  0.43578800  1
  O  O10  1  0.08910300  0.20191000  0.67379200  1
  O  O11  1  0.79809000  0.91089700  0.82620800  1
  O  O12  1  0.91089700  0.79809000  0.32620800  1
  O  O13  1  0.20191000  0.08910300  0.17379200  1
