# generated using pymatgen
data_Dy3Ga9Pt2
_symmetry_space_group_name_H-M   'P 1'
_cell_length_a   8.19875594
_cell_length_b   8.19875594
_cell_length_c   8.19875594
_cell_angle_alpha   149.93080273
_cell_angle_beta   106.18299125
_cell_angle_gamma   81.71327483
_symmetry_Int_Tables_number   1
_chemical_formula_structural   Dy3Ga9Pt2
_chemical_formula_sum   'Dy3 Ga9 Pt2'
_cell_volume   259.74124719
_cell_formula_units_Z   1
loop_
 _symmetry_equiv_pos_site_id
 _symmetry_equiv_pos_as_xyz
  1  'x, y, z'
loop_
 _atom_site_type_symbol
 _atom_site_label
 _atom_site_symmetry_multiplicity
 _atom_site_fract_x
 _atom_site_fract_y
 _atom_site_fract_z
 _atom_site_occupancy
  Dy  Dy0  1  0.00000000  0.00000000  0.00000000  1
  Dy  Dy1  1  0.30834200  0.30834200  0.00000000  1
  Dy  Dy2  1  0.69165800  0.69165800  0.00000000  1
  Ga  Ga3  1  0.50000000  0.00000000  0.50000000  1
  Ga  Ga4  1  0.97144400  0.34201800  0.62942500  1
  Ga  Ga5  1  0.02855600  0.65798200  0.37057500  1
  Ga  Ga6  1  0.71259300  0.34201800  0.37057500  1
  Ga  Ga7  1  0.28740700  0.65798200  0.62942500  1
  Ga  Ga8  1  0.85444400  0.13697700  0.71746700  1
  Ga  Ga9  1  0.14555600  0.86302300  0.28253300  1
  Ga  Ga10  1  0.41951100  0.13697700  0.28253300  1
  Ga  Ga11  1  0.58048900  0.86302300  0.71746700  1
  Pt  Pt12  1  0.30155000  0.50000000  0.80155000  1
  Pt  Pt13  1  0.69845000  0.50000000  0.19845000  1
