data_image0
_chemical_formula_structural       B20H44
_chemical_formula_sum              "B20 H44"
_cell_length_a       6.34549
_cell_length_b       7.91194
_cell_length_c       9.49254
_cell_angle_alpha    90
_cell_angle_beta     94.362
_cell_angle_gamma    90

_space_group_name_H-M_alt    "P 1"
_space_group_IT_number       1

loop_
  _space_group_symop_operation_xyz
  'x, y, z'

loop_
  _atom_site_type_symbol
  _atom_site_label
  _atom_site_symmetry_multiplicity
  _atom_site_fract_x
  _atom_site_fract_y
  _atom_site_fract_z
  _atom_site_occupancy
  B   B1        1.0  0.12200  0.84000  0.79800  1.0000
  B   B2        1.0  0.62200  0.66000  0.29800  1.0000
  B   B3        1.0  0.87800  0.16000  0.20200  1.0000
  B   B4        1.0  0.37800  0.34000  0.70200  1.0000
  B   B5        1.0  0.87600  0.22100  0.38400  1.0000
  B   B6        1.0  0.62400  0.72100  0.11600  1.0000
  B   B7        1.0  0.12400  0.77900  0.61600  1.0000
  B   B8        1.0  0.37600  0.27900  0.88400  1.0000
  B   B9        1.0  0.31000  0.09860  0.32200  1.0000
  B   B10       1.0  0.19000  0.59900  0.17800  1.0000
  B   B11       1.0  0.69000  0.90100  0.67800  1.0000
  B   B12       1.0  0.81000  0.40100  0.82200  1.0000
  B   B13       1.0  0.13900  0.09750  0.17100  1.0000
  B   B14       1.0  0.36100  0.59800  0.32900  1.0000
  B   B15       1.0  0.86100  0.90200  0.82900  1.0000
  B   B16       1.0  0.63900  0.40200  0.67100  1.0000
  B   B17       1.0  0.02840  0.04000  0.32300  1.0000
  B   B18       1.0  0.47200  0.54000  0.17700  1.0000
  B   B19       1.0  0.97200  0.96000  0.67700  1.0000
  B   B20       1.0  0.52800  0.46000  0.82300  1.0000
  H   H1        1.0  0.31000  0.18700  0.19800  1.0000
  H   H2        1.0  0.19000  0.68700  0.30200  1.0000
  H   H3        1.0  0.69000  0.81300  0.80200  1.0000
  H   H4        1.0  0.81000  0.31300  0.69800  1.0000
  H   H5        1.0  0.01670  0.22900  0.12100  1.0000
  H   H6        1.0  0.48300  0.72900  0.37900  1.0000
  H   H7        1.0  0.98300  0.77100  0.87900  1.0000
  H   H8        1.0  0.51700  0.27100  0.62100  1.0000
  H   H9        1.0  0.35000  0.21300  0.40200  1.0000
  H   H10       1.0  0.15000  0.71300  0.09850  1.0000
  H   H11       1.0  0.65000  0.78700  0.59800  1.0000
  H   H12       1.0  0.85000  0.28700  0.90200  1.0000
  H   H13       1.0  0.15700  0.00038  0.07740  1.0000
  H   H14       1.0  0.34300  0.50000  0.42300  1.0000
  H   H15       1.0  0.84300  0.00000  0.92300  1.0000
  H   H16       1.0  0.65700  0.50000  0.57700  1.0000
  H   H17       1.0  0.44100  0.99100  0.31600  1.0000
  H   H18       1.0  0.05890  0.49100  0.18400  1.0000
  H   H19       1.0  0.55900  0.00935  0.68400  1.0000
  H   H20       1.0  0.94100  0.50900  0.81600  1.0000
  H   H21       1.0  0.96600  0.34300  0.43600  1.0000
  H   H22       1.0  0.53400  0.84300  0.06440  1.0000
  H   H23       1.0  0.03380  0.65700  0.56400  1.0000
  H   H24       1.0  0.46600  0.15700  0.93600  1.0000
  H   H25       1.0  0.71500  0.18100  0.43200  1.0000
  H   H26       1.0  0.78500  0.68100  0.06820  1.0000
  H   H27       1.0  0.28500  0.81900  0.56800  1.0000
  H   H28       1.0  0.21500  0.31900  0.93200  1.0000
  H   H29       1.0  0.97500  0.89800  0.34500  1.0000
  H   H30       1.0  0.52500  0.39800  0.15500  1.0000
  H   H31       1.0  0.02490  0.10200  0.65500  1.0000
  H   H32       1.0  0.47500  0.60200  0.84500  1.0000
  H   H33       1.0  0.73200  0.10700  0.12800  1.0000
  H   H34       1.0  0.76800  0.60700  0.37200  1.0000
  H   H35       1.0  0.26800  0.89300  0.87200  1.0000
  H   H36       1.0  0.23200  0.39300  0.62800  1.0000
  H   H37       1.0  0.06220  0.13100  0.43300  1.0000
  H   H38       1.0  0.43800  0.63100  0.06710  1.0000
  H   H39       1.0  0.93800  0.86900  0.56700  1.0000
  H   H40       1.0  0.56200  0.36900  0.93300  1.0000
  H   H41       1.0  0.82800  0.30100  0.25700  1.0000
  H   H42       1.0  0.67200  0.80100  0.24300  1.0000
  H   H43       1.0  0.17200  0.69900  0.74300  1.0000
  H   H44       1.0  0.32800  0.19900  0.75700  1.0000
