# generated using pymatgen
data_CaMnO2
_symmetry_space_group_name_H-M   'P 1'
_cell_length_a   5.66989637
_cell_length_b   5.73892988
_cell_length_c   6.61823472
_cell_angle_alpha   89.98028623
_cell_angle_beta   73.05454296
_cell_angle_gamma   99.75316747
_symmetry_Int_Tables_number   1
_chemical_formula_structural   CaMnO2
_chemical_formula_sum   'Ca4 Mn4 O8'
_cell_volume   202.74171971
_cell_formula_units_Z   4
loop_
 _symmetry_equiv_pos_site_id
 _symmetry_equiv_pos_as_xyz
  1  'x, y, z'
loop_
 _atom_site_type_symbol
 _atom_site_label
 _atom_site_symmetry_multiplicity
 _atom_site_fract_x
 _atom_site_fract_y
 _atom_site_fract_z
 _atom_site_occupancy
  Ca  Ca0  1  0.50000200  0.25001100  0.62500500  1
  Ca  Ca1  1  0.50000000  0.75001800  0.87499300  1
  Ca  Ca2  1  0.50000900  0.24999800  0.12499900  1
  Ca  Ca3  1  0.49998400  0.75000000  0.37500500  1
  Mn  Mn4  1  0.00000300  0.49999100  0.25087000  1
  Mn  Mn5  1  0.00000000  0.99999300  0.99914600  1
  Mn  Mn6  1  0.99999600  0.99998800  0.49913300  1
  Mn  Mn7  1  0.00001500  0.49998700  0.75085600  1
  O  O8  1  0.76185500  0.12715900  0.30948400  1
  O  O9  1  0.76186700  0.62716500  0.55985800  1
  O  O10  1  0.76186100  0.12715900  0.80948400  1
  O  O11  1  0.76187200  0.62716600  0.05985400  1
  O  O12  1  0.23814400  0.37284500  0.44051100  1
  O  O13  1  0.23812900  0.87284200  0.69015100  1
  O  O14  1  0.23814200  0.37285500  0.94051000  1
  O  O15  1  0.23813000  0.87284600  0.19015000  1
