data_image0
_chemical_formula_structural       C4Cl17Gd10
_chemical_formula_sum              "C4 Cl17 Gd10"
_cell_length_a       8.56176
_cell_length_b       9.26326
_cell_length_c       11.5811
_cell_angle_alpha    104.859
_cell_angle_beta     95.9452
_cell_angle_gamma    110.465

_space_group_name_H-M_alt    "P 1"
_space_group_IT_number       1

loop_
  _space_group_symop_operation_xyz
  'x, y, z'

loop_
  _atom_site_type_symbol
  _atom_site_label
  _atom_site_symmetry_multiplicity
  _atom_site_fract_x
  _atom_site_fract_y
  _atom_site_fract_z
  _atom_site_occupancy
  C   C1        1.0  0.39800  0.52900  0.34500  1.0000
  C   C2        1.0  0.60200  0.47100  0.65500  1.0000
  C   C3        1.0  0.32700  0.36300  0.33900  1.0000
  C   C4        1.0  0.67300  0.63700  0.66100  1.0000
  Cl  Cl1       1.0  0.10100  0.34800  0.03910  1.0000
  Cl  Cl2       1.0  0.89900  0.65200  0.96100  1.0000
  Cl  Cl3       1.0  0.81300  0.82200  0.44300  1.0000
  Cl  Cl4       1.0  0.18700  0.17800  0.55700  1.0000
  Cl  Cl5       1.0  0.00000  0.50000  0.50000  1.0000
  Cl  Cl6       1.0  0.29700  0.04220  0.09380  1.0000
  Cl  Cl7       1.0  0.70300  0.95800  0.90600  1.0000
  Cl  Cl8       1.0  0.90200  0.10300  0.24700  1.0000
  Cl  Cl9       1.0  0.09760  0.89700  0.75300  1.0000
  Cl  Cl10      1.0  0.54500  0.13100  0.41100  1.0000
  Cl  Cl11      1.0  0.45500  0.86900  0.58900  1.0000
  Cl  Cl12      1.0  0.73800  0.41400  0.20900  1.0000
  Cl  Cl13      1.0  0.26200  0.58600  0.79100  1.0000
  Cl  Cl14      1.0  0.16300  0.75600  0.28600  1.0000
  Cl  Cl15      1.0  0.83700  0.24400  0.71400  1.0000
  Cl  Cl16      1.0  0.53500  0.68400  0.11200  1.0000
  Cl  Cl17      1.0  0.46500  0.31600  0.88800  1.0000
  Gd  Gd1       1.0  0.65400  0.48900  0.43800  1.0000
  Gd  Gd2       1.0  0.34600  0.51100  0.56200  1.0000
  Gd  Gd3       1.0  0.08020  0.42400  0.27000  1.0000
  Gd  Gd4       1.0  0.92000  0.57600  0.73000  1.0000
  Gd  Gd5       1.0  0.40800  0.36800  0.13700  1.0000
  Gd  Gd6       1.0  0.59200  0.63200  0.86300  1.0000
  Gd  Gd7       1.0  0.49100  0.78200  0.34200  1.0000
  Gd  Gd8       1.0  0.50900  0.21800  0.65800  1.0000
  Gd  Gd9       1.0  0.20700  0.09700  0.30800  1.0000
  Gd  Gd10      1.0  0.79300  0.90300  0.69200  1.0000
