data_image0
_chemical_formula_structural       Mn4O18Pb4Si4
_chemical_formula_sum              "Mn4 O18 Pb4 Si4"
_cell_length_a       6.35465
_cell_length_b       6.35465
_cell_length_c       10.1524
_cell_angle_alpha    90
_cell_angle_beta     90
_cell_angle_gamma    68.2995

_space_group_name_H-M_alt    "P 1"
_space_group_IT_number       1

loop_
  _space_group_symop_operation_xyz
  'x, y, z'

loop_
  _atom_site_type_symbol
  _atom_site_label
  _atom_site_symmetry_multiplicity
  _atom_site_fract_x
  _atom_site_fract_y
  _atom_site_fract_z
  _atom_site_occupancy
  Mn  Mn1       1.0  0.59100  0.40900  0.00000  1.0000
  Mn  Mn2       1.0  0.40900  0.59100  0.50000  1.0000
  Mn  Mn3       1.0  0.65900  0.65900  0.25000  1.0000
  Mn  Mn4       1.0  0.34100  0.34100  0.75000  1.0000
  O   O1        1.0  0.36900  0.36900  0.25000  1.0000
  O   O2        1.0  0.63100  0.63100  0.75000  1.0000
  O   O3        1.0  0.70000  0.56500  0.43900  1.0000
  O   O4        1.0  0.30000  0.43500  0.93900  1.0000
  O   O5        1.0  0.43500  0.30000  0.56100  1.0000
  O   O6        1.0  0.56500  0.70000  0.06070  1.0000
  O   O7        1.0  0.32700  0.02120  0.83000  1.0000
  O   O8        1.0  0.67300  0.97900  0.33000  1.0000
  O   O9        1.0  0.97900  0.67300  0.17000  1.0000
  O   O10       1.0  0.02120  0.32700  0.67000  1.0000
  O   O11       1.0  0.37400  0.89500  0.57300  1.0000
  O   O12       1.0  0.62600  0.10500  0.07340  1.0000
  O   O13       1.0  0.10500  0.62600  0.42700  1.0000
  O   O14       1.0  0.89500  0.37400  0.92700  1.0000
  O   O15       1.0  0.19700  0.67900  0.71900  1.0000
  O   O16       1.0  0.80300  0.32100  0.21900  1.0000
  O   O17       1.0  0.32100  0.80300  0.28100  1.0000
  O   O18       1.0  0.67900  0.19700  0.78100  1.0000
  Pb  Pb1       1.0  0.23500  0.11200  0.04900  1.0000
  Pb  Pb2       1.0  0.76500  0.88800  0.54900  1.0000
  Pb  Pb3       1.0  0.88800  0.76500  0.95100  1.0000
  Pb  Pb4       1.0  0.11200  0.23500  0.45100  1.0000
  Si  Si1       1.0  0.63400  0.18200  0.22900  1.0000
  Si  Si2       1.0  0.36600  0.81800  0.72900  1.0000
  Si  Si3       1.0  0.81800  0.36600  0.77100  1.0000
  Si  Si4       1.0  0.18200  0.63400  0.27100  1.0000
