# generated using pymatgen
data_FeSO4F
_symmetry_space_group_name_H-M   'P 1'
_cell_length_a   5.15935349
_cell_length_b   5.19946757
_cell_length_c   7.39938431
_cell_angle_alpha   69.84433657
_cell_angle_beta   69.68496050
_cell_angle_gamma   88.35310923
_symmetry_Int_Tables_number   1
_chemical_formula_structural   FeSO4F
_chemical_formula_sum   'Fe2 S2 O8 F2'
_cell_volume   173.81474557
_cell_formula_units_Z   2
loop_
 _symmetry_equiv_pos_site_id
 _symmetry_equiv_pos_as_xyz
  1  'x, y, z'
loop_
 _atom_site_type_symbol
 _atom_site_label
 _atom_site_symmetry_multiplicity
 _atom_site_fract_x
 _atom_site_fract_y
 _atom_site_fract_z
 _atom_site_occupancy
  Fe  Fe0  1  0.00000000  0.50000000  0.50000000  1
  Fe  Fe1  1  0.00000000  0.00000000  0.00000000  1
  S  S2  1  0.61862500  0.91038100  0.74401900  1
  S  S3  1  0.38137500  0.08961900  0.25598100  1
  O  O4  1  0.74169300  0.75665600  0.60575500  1
  O  O5  1  0.25830700  0.24334400  0.39424500  1
  O  O6  1  0.67503000  0.21160100  0.62313500  1
  O  O7  1  0.32497000  0.78839900  0.37686500  1
  O  O8  1  0.31362800  0.83606900  0.83266200  1
  O  O9  1  0.68637200  0.16393100  0.16733800  1
  O  O10  1  0.73128700  0.83593400  0.91367300  1
  O  O11  1  0.26871300  0.16406600  0.08632700  1
  F  F12  1  0.93209900  0.65770700  0.23954300  1
  F  F13  1  0.06790100  0.34229300  0.76045700  1
