# generated using pymatgen
data_Dy3Ga8Rh3
_symmetry_space_group_name_H-M   'P 1'
_cell_length_a   8.17578944
_cell_length_b   8.17578944
_cell_length_c   8.17578944
_cell_angle_alpha   150.04757717
_cell_angle_beta   105.53493360
_cell_angle_gamma   82.28381282
_symmetry_Int_Tables_number   1
_chemical_formula_structural   Dy3Ga8Rh3
_chemical_formula_sum   'Dy3 Ga8 Rh3'
_cell_volume   257.39878880
_cell_formula_units_Z   1
loop_
 _symmetry_equiv_pos_site_id
 _symmetry_equiv_pos_as_xyz
  1  'x, y, z'
loop_
 _atom_site_type_symbol
 _atom_site_label
 _atom_site_symmetry_multiplicity
 _atom_site_fract_x
 _atom_site_fract_y
 _atom_site_fract_z
 _atom_site_occupancy
  Dy  Dy0  1  0.50000000  0.50000000  0.00000000  1
  Dy  Dy1  1  0.17058300  0.17058300  0.00000000  1
  Dy  Dy2  1  0.82941700  0.82941700  0.00000000  1
  Ga  Ga3  1  0.09208000  0.37638600  0.71569400  1
  Ga  Ga4  1  0.90792000  0.62361400  0.28430600  1
  Ga  Ga5  1  0.66069200  0.37638600  0.28430600  1
  Ga  Ga6  1  0.33930800  0.62361400  0.71569400  1
  Ga  Ga7  1  0.79647000  0.16754500  0.62892500  1
  Ga  Ga8  1  0.20353000  0.83245500  0.37107500  1
  Ga  Ga9  1  0.53862000  0.16754500  0.37107500  1
  Ga  Ga10  1  0.46138000  0.83245500  0.62892500  1
  Rh  Rh11  1  0.00000000  0.50000000  0.50000000  1
  Rh  Rh12  1  0.78156300  0.00000000  0.78156300  1
  Rh  Rh13  1  0.21843700  0.00000000  0.21843700  1
