# generated using pymatgen
data_ReN2
_symmetry_space_group_name_H-M   'P 1'
_cell_length_a   2.95718000
_cell_length_b   4.24162900
_cell_length_c   4.99414523
_cell_angle_alpha   65.84480937
_cell_angle_beta   90.00000000
_cell_angle_gamma   90.00000000
_symmetry_Int_Tables_number   1
_chemical_formula_structural   ReN2
_chemical_formula_sum   'Re2 N4'
_cell_volume   57.15788180
_cell_formula_units_Z   2
loop_
 _symmetry_equiv_pos_site_id
 _symmetry_equiv_pos_as_xyz
  1  'x, y, z'
loop_
 _atom_site_type_symbol
 _atom_site_label
 _atom_site_symmetry_multiplicity
 _atom_site_fract_x
 _atom_site_fract_y
 _atom_site_fract_z
 _atom_site_occupancy
  Re  Re0  1  0.80996400  0.50000000  0.75000000  1
  Re  Re1  1  0.19003600  0.50000000  0.25000000  1
  N  N2  1  0.30179100  0.17665500  0.69168400  1
  N  N3  1  0.30179100  0.82334500  0.80831600  1
  N  N4  1  0.69820900  0.82334500  0.30831600  1
  N  N5  1  0.69820900  0.17665500  0.19168400  1
