# generated using pymatgen
data_NdAu6
_symmetry_space_group_name_H-M   'P 1'
_cell_length_a   5.58737182
_cell_length_b   5.58737182
_cell_length_c   9.31822185
_cell_angle_alpha   82.53788053
_cell_angle_beta   82.53788053
_cell_angle_gamma   89.70599917
_symmetry_Int_Tables_number   1
_chemical_formula_structural   NdAu6
_chemical_formula_sum   'Nd2 Au12'
_cell_volume   285.97613547
_cell_formula_units_Z   2
loop_
 _symmetry_equiv_pos_site_id
 _symmetry_equiv_pos_as_xyz
  1  'x, y, z'
loop_
 _atom_site_type_symbol
 _atom_site_label
 _atom_site_symmetry_multiplicity
 _atom_site_fract_x
 _atom_site_fract_y
 _atom_site_fract_z
 _atom_site_occupancy
  Nd  Nd0  1  0.31563000  0.68437000  0.75000000  1
  Nd  Nd1  1  0.68437000  0.31563000  0.25000000  1
  Au  Au2  1  0.04229700  0.15603400  0.86385500  1
  Au  Au3  1  0.84396600  0.95770300  0.63614500  1
  Au  Au4  1  0.95770300  0.84396600  0.13614500  1
  Au  Au5  1  0.15603400  0.04229700  0.36385500  1
  Au  Au6  1  0.77838600  0.61598600  0.91929500  1
  Au  Au7  1  0.38401400  0.22161400  0.58070500  1
  Au  Au8  1  0.22161400  0.38401400  0.08070500  1
  Au  Au9  1  0.61598600  0.77838600  0.41929500  1
  Au  Au10  1  0.83572500  0.45934100  0.62816200  1
  Au  Au11  1  0.54065900  0.16427500  0.87183800  1
  Au  Au12  1  0.16427500  0.54065900  0.37183800  1
  Au  Au13  1  0.45934100  0.83572500  0.12816200  1
