# generated using pymatgen
data_Na2LiNiF6
_symmetry_space_group_name_H-M   'P 1'
_cell_length_a   5.47236500
_cell_length_b   5.47236516
_cell_length_c   5.47236508
_cell_angle_alpha   59.99999266
_cell_angle_beta   59.99999444
_cell_angle_gamma   59.99999490
_symmetry_Int_Tables_number   1
_chemical_formula_structural   Na2LiNiF6
_chemical_formula_sum   'Na2 Li1 Ni1 F6'
_cell_volume   115.88043895
_cell_formula_units_Z   1
loop_
 _symmetry_equiv_pos_site_id
 _symmetry_equiv_pos_as_xyz
  1  'x, y, z'
loop_
 _atom_site_type_symbol
 _atom_site_label
 _atom_site_symmetry_multiplicity
 _atom_site_fract_x
 _atom_site_fract_y
 _atom_site_fract_z
 _atom_site_occupancy
  Na  Na0  1  0.25000000  0.25000000  0.25000000  1
  Na  Na1  1  0.75000000  0.75000000  0.75000000  1
  Li  Li2  1  0.50000000  0.50000000  0.50000000  1
  Ni  Ni3  1  0.00000000  0.00000000  0.00000000  1
  F  F4  1  0.24330400  0.75669600  0.24330400  1
  F  F5  1  0.75669600  0.75669600  0.24330400  1
  F  F6  1  0.75669600  0.24330400  0.75669600  1
  F  F7  1  0.75669600  0.24330400  0.24330400  1
  F  F8  1  0.24330400  0.75669600  0.75669600  1
  F  F9  1  0.24330400  0.24330400  0.75669600  1
