data_image0
_chemical_formula_structural       H16Li8O32S8
_chemical_formula_sum              "H16 Li8 O32 S8"
_cell_length_a       5.70045
_cell_length_b       9.83353
_cell_length_c       9.56537
_cell_angle_alpha    90
_cell_angle_beta     90
_cell_angle_gamma    90

_space_group_name_H-M_alt    "P 1"
_space_group_IT_number       1

loop_
  _space_group_symop_operation_xyz
  'x, y, z'

loop_
  _atom_site_type_symbol
  _atom_site_label
  _atom_site_symmetry_multiplicity
  _atom_site_fract_x
  _atom_site_fract_y
  _atom_site_fract_z
  _atom_site_occupancy
  H   H1        1.0  0.82500  0.04900  0.39300  1.0000
  H   H2        1.0  0.67500  0.95100  0.89300  1.0000
  H   H3        1.0  0.32500  0.45100  0.10700  1.0000
  H   H4        1.0  0.17500  0.54900  0.60700  1.0000
  H   H5        1.0  0.17500  0.95100  0.60700  1.0000
  H   H6        1.0  0.32500  0.04900  0.10700  1.0000
  H   H7        1.0  0.67500  0.54900  0.89300  1.0000
  H   H8        1.0  0.82500  0.45100  0.39300  1.0000
  H   H9        1.0  0.69700  0.10900  0.26400  1.0000
  H   H10       1.0  0.80300  0.89100  0.76400  1.0000
  H   H11       1.0  0.19700  0.39100  0.23600  1.0000
  H   H12       1.0  0.30300  0.60900  0.73600  1.0000
  H   H13       1.0  0.30300  0.89100  0.73600  1.0000
  H   H14       1.0  0.19700  0.10900  0.23600  1.0000
  H   H15       1.0  0.80300  0.60900  0.76400  1.0000
  H   H16       1.0  0.69700  0.39100  0.26400  1.0000
  Li  Li1       1.0  0.05700  0.44000  0.84900  1.0000
  Li  Li2       1.0  0.44300  0.56000  0.34900  1.0000
  Li  Li3       1.0  0.55700  0.06020  0.65100  1.0000
  Li  Li4       1.0  0.94300  0.94000  0.15100  1.0000
  Li  Li5       1.0  0.94300  0.56000  0.15100  1.0000
  Li  Li6       1.0  0.55700  0.44000  0.65100  1.0000
  Li  Li7       1.0  0.44300  0.94000  0.34900  1.0000
  Li  Li8       1.0  0.05700  0.06020  0.84900  1.0000
  O   O1        1.0  0.39500  0.37500  0.47300  1.0000
  O   O2        1.0  0.10500  0.62500  0.97300  1.0000
  O   O3        1.0  0.89500  0.12500  0.02660  1.0000
  O   O4        1.0  0.60500  0.62500  0.52700  1.0000
  O   O5        1.0  0.60500  0.87500  0.52700  1.0000
  O   O6        1.0  0.89500  0.37500  0.02660  1.0000
  O   O7        1.0  0.10500  0.87500  0.97300  1.0000
  O   O8        1.0  0.87700  0.75000  0.67600  1.0000
  O   O9        1.0  0.39500  0.12500  0.47300  1.0000
  O   O10       1.0  0.62300  0.25000  0.17600  1.0000
  O   O11       1.0  0.12300  0.25000  0.32400  1.0000
  O   O12       1.0  0.37700  0.75000  0.82400  1.0000
  O   O13       1.0  0.86000  0.37600  0.56000  1.0000
  O   O14       1.0  0.64000  0.62400  0.05980  1.0000
  O   O15       1.0  0.14000  0.87600  0.44000  1.0000
  O   O16       1.0  0.36000  0.12400  0.94000  1.0000
  O   O17       1.0  0.14000  0.62400  0.44000  1.0000
  O   O18       1.0  0.36000  0.37600  0.94000  1.0000
  O   O19       1.0  0.86000  0.12400  0.56000  1.0000
  O   O20       1.0  0.64000  0.87600  0.05980  1.0000
  O   O21       1.0  0.95000  0.75000  0.25300  1.0000
  O   O22       1.0  0.45000  0.75000  0.24700  1.0000
  O   O23       1.0  0.55000  0.25000  0.75300  1.0000
  O   O24       1.0  0.04970  0.25000  0.74700  1.0000
  O   O25       1.0  0.25700  0.47800  0.19800  1.0000
  O   O26       1.0  0.75700  0.02240  0.30200  1.0000
  O   O27       1.0  0.24300  0.52200  0.69800  1.0000
  O   O28       1.0  0.74300  0.97800  0.80200  1.0000
  O   O29       1.0  0.74300  0.52200  0.80200  1.0000
  O   O30       1.0  0.24300  0.97800  0.69800  1.0000
  O   O31       1.0  0.75700  0.47800  0.30200  1.0000
  O   O32       1.0  0.25700  0.02240  0.19800  1.0000
  S   S1        1.0  0.97500  0.25000  0.60100  1.0000
  S   S2        1.0  0.73800  0.75000  0.54600  1.0000
  S   S3        1.0  0.76200  0.25000  0.04590  1.0000
  S   S4        1.0  0.23800  0.75000  0.95400  1.0000
  S   S5        1.0  0.26200  0.25000  0.45400  1.0000
  S   S6        1.0  0.02480  0.75000  0.39900  1.0000
  S   S7        1.0  0.47500  0.25000  0.89900  1.0000
  S   S8        1.0  0.52500  0.75000  0.10100  1.0000
