data_image0
_chemical_formula_structural       Al8Ca12Ge12
_chemical_formula_sum              "Al8 Ca12 Ge12"
_cell_length_a       11.3886
_cell_length_b       4.36972
_cell_length_c       14.7482
_cell_angle_alpha    90
_cell_angle_beta     90
_cell_angle_gamma    90

_space_group_name_H-M_alt    "P 1"
_space_group_IT_number       1

loop_
  _space_group_symop_operation_xyz
  'x, y, z'

loop_
  _atom_site_type_symbol
  _atom_site_label
  _atom_site_symmetry_multiplicity
  _atom_site_fract_x
  _atom_site_fract_y
  _atom_site_fract_z
  _atom_site_occupancy
  Al  Al1       1.0  0.85600  0.75000  0.28900  1.0000
  Al  Al2       1.0  0.64400  0.25000  0.78900  1.0000
  Al  Al3       1.0  0.35600  0.75000  0.21100  1.0000
  Al  Al4       1.0  0.14400  0.25000  0.71100  1.0000
  Al  Al5       1.0  0.68300  0.25000  0.08570  1.0000
  Al  Al6       1.0  0.81700  0.75000  0.58600  1.0000
  Al  Al7       1.0  0.18300  0.25000  0.41400  1.0000
  Al  Al8       1.0  0.31700  0.75000  0.91400  1.0000
  Ca  Ca1       1.0  0.89500  0.25000  0.43200  1.0000
  Ca  Ca2       1.0  0.60500  0.75000  0.93200  1.0000
  Ca  Ca3       1.0  0.39500  0.25000  0.06810  1.0000
  Ca  Ca4       1.0  0.10500  0.75000  0.56800  1.0000
  Ca  Ca5       1.0  0.12300  0.25000  0.20500  1.0000
  Ca  Ca6       1.0  0.37700  0.75000  0.70500  1.0000
  Ca  Ca7       1.0  0.62300  0.25000  0.29500  1.0000
  Ca  Ca8       1.0  0.87700  0.75000  0.79500  1.0000
  Ca  Ca9       1.0  0.89400  0.75000  0.06050  1.0000
  Ca  Ca10      1.0  0.60600  0.25000  0.56000  1.0000
  Ca  Ca11      1.0  0.39400  0.75000  0.44000  1.0000
  Ca  Ca12      1.0  0.10600  0.25000  0.94000  1.0000
  Ge  Ge1       1.0  0.92800  0.25000  0.63800  1.0000
  Ge  Ge2       1.0  0.57200  0.75000  0.13800  1.0000
  Ge  Ge3       1.0  0.42800  0.25000  0.86200  1.0000
  Ge  Ge4       1.0  0.07150  0.75000  0.36200  1.0000
  Ge  Ge5       1.0  0.86100  0.25000  0.19800  1.0000
  Ge  Ge6       1.0  0.63900  0.75000  0.69800  1.0000
  Ge  Ge7       1.0  0.36100  0.25000  0.30200  1.0000
  Ge  Ge8       1.0  0.13900  0.75000  0.80200  1.0000
  Ge  Ge9       1.0  0.30200  0.25000  0.56900  1.0000
  Ge  Ge10      1.0  0.19800  0.75000  0.06850  1.0000
  Ge  Ge11      1.0  0.80200  0.25000  0.93100  1.0000
  Ge  Ge12      1.0  0.69800  0.75000  0.43100  1.0000
