# generated using pymatgen
data_Rb3Bi2I9
_symmetry_space_group_name_H-M   'P 1'
_cell_length_a   8.59645090
_cell_length_b   8.59645090
_cell_length_c   21.93168123
_cell_angle_alpha   89.29901350
_cell_angle_beta   89.29901350
_cell_angle_gamma   119.83792159
_symmetry_Int_Tables_number   1
_chemical_formula_structural   Rb3Bi2I9
_chemical_formula_sum   'Rb6 Bi4 I18'
_cell_volume   1405.46002856
_cell_formula_units_Z   2
loop_
 _symmetry_equiv_pos_site_id
 _symmetry_equiv_pos_as_xyz
  1  'x, y, z'
loop_
 _atom_site_type_symbol
 _atom_site_label
 _atom_site_symmetry_multiplicity
 _atom_site_fract_x
 _atom_site_fract_y
 _atom_site_fract_z
 _atom_site_occupancy
  Rb  Rb0  1  0.99723500  0.00276500  0.75000000  1
  Rb  Rb1  1  0.66657500  0.33086700  0.07660400  1
  Rb  Rb2  1  0.00276500  0.99723500  0.25000000  1
  Rb  Rb3  1  0.33086700  0.66657500  0.57660400  1
  Rb  Rb4  1  0.33342500  0.66913300  0.92339600  1
  Rb  Rb5  1  0.66913300  0.33342500  0.42339600  1
  Bi  Bi6  1  0.65453500  0.32397100  0.65621000  1
  Bi  Bi7  1  0.34546500  0.67602900  0.34379000  1
  Bi  Bi8  1  0.32397100  0.65453500  0.15621000  1
  Bi  Bi9  1  0.67602900  0.34546500  0.84379000  1
  I  I10  1  0.64836600  0.81380600  0.07457000  1
  I  I11  1  0.35163400  0.18619400  0.92543000  1
  I  I12  1  0.49581700  0.99815000  0.75715700  1
  I  I13  1  0.18736000  0.85560900  0.41727800  1
  I  I14  1  0.85560900  0.18736000  0.91727800  1
  I  I15  1  0.81380600  0.64836600  0.57457000  1
  I  I16  1  0.81264000  0.14439100  0.58272200  1
  I  I17  1  0.30825000  0.14962500  0.58962300  1
  I  I18  1  0.50418300  0.00185000  0.24284300  1
  I  I19  1  0.00185000  0.50418300  0.74284300  1
  I  I20  1  0.14439100  0.81264000  0.08272200  1
  I  I21  1  0.99815000  0.49581700  0.25715700  1
  I  I22  1  0.49654700  0.50345300  0.75000000  1
  I  I23  1  0.85037500  0.69175000  0.91037700  1
  I  I24  1  0.14962500  0.30825000  0.08962300  1
  I  I25  1  0.69175000  0.85037500  0.41037700  1
  I  I26  1  0.50345300  0.49654700  0.25000000  1
  I  I27  1  0.18619400  0.35163400  0.42543000  1
