# generated using pymatgen
data_Y(Fe2Si)2
_symmetry_space_group_name_H-M   'P 1'
_cell_length_a   7.08465400
_cell_length_b   7.08465400
_cell_length_c   3.75993000
_cell_angle_alpha   90.00000000
_cell_angle_beta   90.00000000
_cell_angle_gamma   90.00000000
_symmetry_Int_Tables_number   1
_chemical_formula_structural   Y(Fe2Si)2
_chemical_formula_sum   'Y2 Fe8 Si4'
_cell_volume   188.71961838
_cell_formula_units_Z   2
loop_
 _symmetry_equiv_pos_site_id
 _symmetry_equiv_pos_as_xyz
  1  'x, y, z'
loop_
 _atom_site_type_symbol
 _atom_site_label
 _atom_site_symmetry_multiplicity
 _atom_site_fract_x
 _atom_site_fract_y
 _atom_site_fract_z
 _atom_site_occupancy
  Y  Y0  1  0.50000000  0.50000000  0.00000000  1
  Y  Y1  1  0.00000000  0.00000000  0.50000000  1
  Fe  Fe2  1  0.58570000  0.14566700  0.50000000  1
  Fe  Fe3  1  0.41430000  0.85433300  0.50000000  1
  Fe  Fe4  1  0.08570000  0.35433300  0.00000000  1
  Fe  Fe5  1  0.91430000  0.64566700  0.00000000  1
  Fe  Fe6  1  0.14566700  0.58570000  0.50000000  1
  Fe  Fe7  1  0.85433300  0.41430000  0.50000000  1
  Fe  Fe8  1  0.35433300  0.08570000  0.00000000  1
  Fe  Fe9  1  0.64566700  0.91430000  0.00000000  1
  Si  Si10  1  0.71913800  0.71913800  0.50000000  1
  Si  Si11  1  0.28086200  0.28086200  0.50000000  1
  Si  Si12  1  0.21913800  0.78086200  0.00000000  1
  Si  Si13  1  0.78086200  0.21913800  0.00000000  1
