# generated using pymatgen
data_LiMnO3
_symmetry_space_group_name_H-M   'P 1'
_cell_length_a   5.02182300
_cell_length_b   5.15404300
_cell_length_c   7.07634500
_cell_angle_alpha   90.00000000
_cell_angle_beta   90.00000000
_cell_angle_gamma   90.00000000
_symmetry_Int_Tables_number   1
_chemical_formula_structural   LiMnO3
_chemical_formula_sum   'Li4 Mn4 O12'
_cell_volume   183.15485586
_cell_formula_units_Z   4
loop_
 _symmetry_equiv_pos_site_id
 _symmetry_equiv_pos_as_xyz
  1  'x, y, z'
loop_
 _atom_site_type_symbol
 _atom_site_label
 _atom_site_symmetry_multiplicity
 _atom_site_fract_x
 _atom_site_fract_y
 _atom_site_fract_z
 _atom_site_occupancy
  Li  Li0  1  0.99979900  0.05460600  0.24999900  1
  Li  Li1  1  0.49979900  0.44539400  0.75000000  1
  Li  Li2  1  0.50020100  0.55460700  0.24999900  1
  Li  Li3  1  0.00020100  0.94539500  0.75000000  1
  Mn  Mn4  1  0.50000000  0.00000000  0.00000000  1
  Mn  Mn5  1  0.00000000  0.49999900  0.00000000  1
  Mn  Mn6  1  0.00000000  0.49999900  0.50000000  1
  Mn  Mn7  1  0.50000000  0.00000000  0.50000000  1
  O  O8  1  0.87140200  0.55266700  0.75000000  1
  O  O9  1  0.37140200  0.94733500  0.24999900  1
  O  O10  1  0.62859800  0.05266600  0.75000000  1
  O  O11  1  0.12859800  0.44733400  0.24999900  1
  O  O12  1  0.67691400  0.31675700  0.43074300  1
  O  O13  1  0.17691400  0.18324400  0.56925800  1
  O  O14  1  0.82308600  0.81675600  0.06925800  1
  O  O15  1  0.32308600  0.68324300  0.93074200  1
  O  O16  1  0.67691400  0.31675700  0.06925800  1
  O  O17  1  0.17691400  0.18324400  0.93074200  1
  O  O18  1  0.32308600  0.68324300  0.56925800  1
  O  O19  1  0.82308600  0.81675600  0.43074300  1
