# generated using pymatgen
data_AlC
_symmetry_space_group_name_H-M   'P 1'
_cell_length_a   29.96977100
_cell_length_b   8.06643000
_cell_length_c   8.10666236
_cell_angle_alpha   89.63626340
_cell_angle_beta   90.00000000
_cell_angle_gamma   90.00000000
_symmetry_Int_Tables_number   1
_chemical_formula_structural   AlC
_chemical_formula_sum   'Al30 C30'
_cell_volume   1959.73851223
_cell_formula_units_Z   30
loop_
 _symmetry_equiv_pos_site_id
 _symmetry_equiv_pos_as_xyz
  1  'x, y, z'
loop_
 _atom_site_type_symbol
 _atom_site_label
 _atom_site_symmetry_multiplicity
 _atom_site_fract_x
 _atom_site_fract_y
 _atom_site_fract_z
 _atom_site_occupancy
  Al  Al0  1  0.30254800  0.50000000  0.50000000  1
  Al  Al1  1  0.30408800  0.16909300  0.49738500  1
  Al  Al2  1  0.30408800  0.83090700  0.50261500  1
  Al  Al3  1  0.30303600  0.50000000  0.00000000  1
  Al  Al4  1  0.30351300  0.16582300  0.99776400  1
  Al  Al5  1  0.30351300  0.83417700  0.00223600  1
  Al  Al6  1  0.34691600  0.33271600  0.74553800  1
  Al  Al7  1  0.34757700  0.99955500  0.74831100  1
  Al  Al8  1  0.35125100  0.66331500  0.74800100  1
  Al  Al9  1  0.35125100  0.33668500  0.25199900  1
  Al  Al10  1  0.34757700  0.00044500  0.25168900  1
  Al  Al11  1  0.34691600  0.66728400  0.25446200  1
  Al  Al12  1  0.39917200  0.50000000  0.50000000  1
  Al  Al13  1  0.40066200  0.16924000  0.49850600  1
  Al  Al14  1  0.40066200  0.83076000  0.50149400  1
  Al  Al15  1  0.39692100  0.50000000  0.00000000  1
  Al  Al16  1  0.39464800  0.16814300  0.00043200  1
  Al  Al17  1  0.39464800  0.83185700  0.99956800  1
  Al  Al18  1  0.44164700  0.34254400  0.76548800  1
  Al  Al19  1  0.44175900  0.99720400  0.75863600  1
  Al  Al20  1  0.45856300  0.67375900  0.73617400  1
  Al  Al21  1  0.45856300  0.32624100  0.26382600  1
  Al  Al22  1  0.44175900  0.00279600  0.24136400  1
  Al  Al23  1  0.44164700  0.65745600  0.23451200  1
  Al  Al24  1  0.49962200  0.50000000  0.50000000  1
  Al  Al25  1  0.50003700  0.17577100  0.57535000  1
  Al  Al26  1  0.50003700  0.82422900  0.42465000  1
  Al  Al27  1  0.50762300  0.50000000  0.00000000  1
  Al  Al28  1  0.49175800  0.16735300  0.00096700  1
  Al  Al29  1  0.49175800  0.83264700  0.99903300  1
  C  C30  1  0.55602400  0.03114500  0.58834600  1
  C  C31  1  0.55693000  0.43147700  0.79996500  1
  C  C32  1  0.56064800  0.82852400  0.98702200  1
  C  C33  1  0.56040400  0.22758200  0.18192600  1
  C  C34  1  0.55456500  0.62708200  0.37949800  1
  C  C35  1  0.55456500  0.37291800  0.62050200  1
  C  C36  1  0.56040400  0.77241800  0.81807400  1
  C  C37  1  0.56064800  0.17147600  0.01297800  1
  C  C38  1  0.55693000  0.56852300  0.20003500  1
  C  C39  1  0.55602400  0.96885500  0.41165400  1
  C  C40  1  0.58157600  0.50000000  0.50000000  1
  C  C41  1  0.58150000  0.90069500  0.69992300  1
  C  C42  1  0.58517700  0.30043500  0.90055400  1
  C  C43  1  0.58517700  0.69956500  0.09944600  1
  C  C44  1  0.58150000  0.09930500  0.30007700  1
  C  C45  1  0.58292300  0.20165200  0.60182300  1
  C  C46  1  0.58389900  0.60062600  0.80128200  1
  C  C47  1  0.58518500  0.00000000  0.00000000  1
  C  C48  1  0.58389900  0.39937400  0.19871800  1
  C  C49  1  0.58292300  0.79834800  0.39817700  1
  C  C50  1  0.60171400  0.62006400  0.62595000  1
  C  C51  1  0.60363800  0.02192200  0.82449700  1
  C  C52  1  0.60592500  0.42022200  0.02694100  1
  C  C53  1  0.60386100  0.81827500  0.22932000  1
  C  C54  1  0.60149400  0.22078500  0.42854000  1
  C  C55  1  0.60149400  0.77921500  0.57146000  1
  C  C56  1  0.60386100  0.18172500  0.77068000  1
  C  C57  1  0.60592500  0.57977800  0.97305900  1
  C  C58  1  0.60363800  0.97807800  0.17550300  1
  C  C59  1  0.60171400  0.37993600  0.37405000  1
