# generated using pymatgen
data_Yb(In2Au)2
_symmetry_space_group_name_H-M   'P 1'
_cell_length_a   4.61572800
_cell_length_b   7.76557600
_cell_length_c   9.73318496
_cell_angle_alpha   72.31781373
_cell_angle_beta   90.00000000
_cell_angle_gamma   90.00000000
_symmetry_Int_Tables_number   1
_chemical_formula_structural   Yb(In2Au)2
_chemical_formula_sum   'Yb2 In8 Au4'
_cell_volume   332.39197828
_cell_formula_units_Z   2
loop_
 _symmetry_equiv_pos_site_id
 _symmetry_equiv_pos_as_xyz
  1  'x, y, z'
loop_
 _atom_site_type_symbol
 _atom_site_label
 _atom_site_symmetry_multiplicity
 _atom_site_fract_x
 _atom_site_fract_y
 _atom_site_fract_z
 _atom_site_occupancy
  Yb  Yb0  1  0.75000000  0.83275800  0.78837000  1
  Yb  Yb1  1  0.25000000  0.16724200  0.21163000  1
  In  In2  1  0.25000000  0.09648000  0.87716900  1
  In  In3  1  0.75000000  0.90352000  0.12283100  1
  In  In4  1  0.25000000  0.10474500  0.57179400  1
  In  In5  1  0.75000000  0.89525500  0.42820600  1
  In  In6  1  0.25000000  0.53760000  0.36775200  1
  In  In7  1  0.75000000  0.46240000  0.63224800  1
  In  In8  1  0.25000000  0.50468000  0.87091200  1
  In  In9  1  0.75000000  0.49532000  0.12908800  1
  Au  Au10  1  0.25000000  0.72687600  0.05812000  1
  Au  Au11  1  0.75000000  0.27312400  0.94188000  1
  Au  Au12  1  0.25000000  0.72444200  0.58031600  1
  Au  Au13  1  0.75000000  0.27555800  0.41968400  1
