# generated using pymatgen
data_P
_symmetry_space_group_name_H-M   'P 1'
_cell_length_a   7.11950538
_cell_length_b   7.11950538
_cell_length_c   7.15552900
_cell_angle_alpha   90.00000000
_cell_angle_beta   90.00000000
_cell_angle_gamma   108.71548449
_symmetry_Int_Tables_number   1
_chemical_formula_structural   P
_chemical_formula_sum   P4
_cell_volume   343.51685234
_cell_formula_units_Z   4
loop_
 _symmetry_equiv_pos_site_id
 _symmetry_equiv_pos_as_xyz
  1  'x, y, z'
loop_
 _atom_site_type_symbol
 _atom_site_label
 _atom_site_symmetry_multiplicity
 _atom_site_fract_x
 _atom_site_fract_y
 _atom_site_fract_z
 _atom_site_occupancy
  P  P0  1  0.39419800  0.39419800  0.44868400  1
  P  P1  1  0.89419800  0.89419800  0.05131600  1
  P  P2  1  0.60580200  0.60580200  0.55131600  1
  P  P3  1  0.10580200  0.10580200  0.94868400  1
