# generated using pymatgen
data_V5Bi3
_symmetry_space_group_name_H-M   'P 1'
_cell_length_a   7.26557300
_cell_length_b   8.32252200
_cell_length_c   10.45895800
_cell_angle_alpha   90.00000000
_cell_angle_beta   90.00000000
_cell_angle_gamma   90.00000000
_symmetry_Int_Tables_number   1
_chemical_formula_structural   V5Bi3
_chemical_formula_sum   'V20 Bi12'
_cell_volume   632.43113373
_cell_formula_units_Z   4
loop_
 _symmetry_equiv_pos_site_id
 _symmetry_equiv_pos_as_xyz
  1  'x, y, z'
loop_
 _atom_site_type_symbol
 _atom_site_label
 _atom_site_symmetry_multiplicity
 _atom_site_fract_x
 _atom_site_fract_y
 _atom_site_fract_z
 _atom_site_occupancy
  V  V0  1  0.62330200  0.75000000  0.76519000  1
  V  V1  1  0.12330200  0.25000000  0.73481000  1
  V  V2  1  0.37669800  0.25000000  0.23481000  1
  V  V3  1  0.87669800  0.75000000  0.26519000  1
  V  V4  1  0.21899900  0.75000000  0.74828000  1
  V  V5  1  0.71899900  0.25000000  0.75172000  1
  V  V6  1  0.78100100  0.25000000  0.25172000  1
  V  V7  1  0.28100100  0.75000000  0.24828000  1
  V  V8  1  0.47904100  0.75000000  0.97184600  1
  V  V9  1  0.97904100  0.25000000  0.52815400  1
  V  V10  1  0.52095900  0.25000000  0.02815400  1
  V  V11  1  0.02095900  0.75000000  0.47184700  1
  V  V12  1  0.76314200  0.91655300  0.92563000  1
  V  V13  1  0.26314200  0.08344700  0.57437000  1
  V  V14  1  0.23685800  0.41655300  0.07437000  1
  V  V15  1  0.73685800  0.58344700  0.42563000  1
  V  V16  1  0.23685800  0.08344700  0.07437000  1
  V  V17  1  0.73685800  0.91655300  0.42563000  1
  V  V18  1  0.76314200  0.58344700  0.92563000  1
  V  V19  1  0.26314200  0.41655300  0.57437000  1
  Bi  Bi20  1  0.42160900  0.75000000  0.51389400  1
  Bi  Bi21  1  0.92160900  0.25000000  0.98610600  1
  Bi  Bi22  1  0.57839100  0.25000000  0.48610600  1
  Bi  Bi23  1  0.07839100  0.75000000  0.01389400  1
  Bi  Bi24  1  0.91335600  0.53690300  0.67394200  1
  Bi  Bi25  1  0.41335600  0.46309700  0.82605800  1
  Bi  Bi26  1  0.08664400  0.03690300  0.32605800  1
  Bi  Bi27  1  0.58664400  0.96309700  0.17394200  1
  Bi  Bi28  1  0.08664400  0.46309700  0.32605800  1
  Bi  Bi29  1  0.58664400  0.53690300  0.17394200  1
  Bi  Bi30  1  0.91335600  0.96309700  0.67394200  1
  Bi  Bi31  1  0.41335600  0.03690300  0.82605800  1
