# generated using pymatgen
data_BaNb4O11
_symmetry_space_group_name_H-M   'P 1'
_cell_length_a   6.40320235
_cell_length_b   6.40320235
_cell_length_c   12.66412300
_cell_angle_alpha   90.00000000
_cell_angle_beta   90.00000000
_cell_angle_gamma   120.00000360
_symmetry_Int_Tables_number   1
_chemical_formula_structural   BaNb4O11
_chemical_formula_sum   'Ba2 Nb8 O22'
_cell_volume   449.67649622
_cell_formula_units_Z   2
loop_
 _symmetry_equiv_pos_site_id
 _symmetry_equiv_pos_as_xyz
  1  'x, y, z'
loop_
 _atom_site_type_symbol
 _atom_site_label
 _atom_site_symmetry_multiplicity
 _atom_site_fract_x
 _atom_site_fract_y
 _atom_site_fract_z
 _atom_site_occupancy
  Ba  Ba0  1  0.66666700  0.33333300  0.25000000  1
  Ba  Ba1  1  0.33333300  0.66666700  0.75000000  1
  Nb  Nb2  1  0.33333300  0.66666700  0.25000000  1
  Nb  Nb3  1  0.66666700  0.33333300  0.75000000  1
  Nb  Nb4  1  0.35443200  0.35443200  0.50000000  1
  Nb  Nb5  1  0.64556800  0.00000000  0.50000000  1
  Nb  Nb6  1  0.00000000  0.64556800  0.50000000  1
  Nb  Nb7  1  0.64556800  0.64556800  0.00000000  1
  Nb  Nb8  1  0.35443200  0.00000000  0.00000000  1
  Nb  Nb9  1  0.00000000  0.35443200  0.00000000  1
  O  O10  1  0.33333300  0.66666700  0.96648200  1
  O  O11  1  0.66666700  0.33333300  0.03351800  1
  O  O12  1  0.66666700  0.33333300  0.46648200  1
  O  O13  1  0.33333300  0.66666700  0.53351800  1
  O  O14  1  0.75652400  0.75652400  0.50000000  1
  O  O15  1  0.24347600  0.00000000  0.50000000  1
  O  O16  1  0.00000000  0.24347600  0.50000000  1
  O  O17  1  0.24347600  0.24347600  0.00000000  1
  O  O18  1  0.75652400  0.00000000  0.00000000  1
  O  O19  1  0.00000000  0.75652400  0.00000000  1
  O  O20  1  0.36413100  0.92900200  0.15218700  1
  O  O21  1  0.07099800  0.43512800  0.15218700  1
  O  O22  1  0.56487200  0.63586900  0.15218700  1
  O  O23  1  0.92900200  0.36413100  0.84781300  1
  O  O24  1  0.43512800  0.07099800  0.84781300  1
  O  O25  1  0.63586900  0.56487200  0.84781300  1
  O  O26  1  0.63586900  0.07099800  0.65218700  1
  O  O27  1  0.92900200  0.56487200  0.65218700  1
  O  O28  1  0.43512800  0.36413100  0.65218700  1
  O  O29  1  0.07099800  0.63586900  0.34781300  1
  O  O30  1  0.56487200  0.92900200  0.34781300  1
  O  O31  1  0.36413100  0.43512800  0.34781300  1
