# generated using pymatgen
data_Ca2O3
_symmetry_space_group_name_H-M   'P 1'
_cell_length_a   9.47412000
_cell_length_b   9.48594773
_cell_length_c   9.48781643
_cell_angle_alpha   101.56888193
_cell_angle_beta   113.55062259
_cell_angle_gamma   113.42229205
_symmetry_Int_Tables_number   1
_chemical_formula_structural   Ca2O3
_chemical_formula_sum   'Ca16 O24'
_cell_volume   648.49610021
_cell_formula_units_Z   8
loop_
 _symmetry_equiv_pos_site_id
 _symmetry_equiv_pos_as_xyz
  1  'x, y, z'
loop_
 _atom_site_type_symbol
 _atom_site_label
 _atom_site_symmetry_multiplicity
 _atom_site_fract_x
 _atom_site_fract_y
 _atom_site_fract_z
 _atom_site_occupancy
  Ca  Ca0  1  0.21621200  0.46698200  0.24547300  1
  Ca  Ca1  1  0.97613800  0.75186900  0.22877000  1
  Ca  Ca2  1  0.78088100  0.53235900  0.74708300  1
  Ca  Ca3  1  0.25179500  0.23144900  0.48016500  1
  Ca  Ca4  1  0.71927900  0.96923700  0.25295100  1
  Ca  Ca5  1  0.74817600  0.76937300  0.51929700  1
  Ca  Ca6  1  0.25046200  0.73326100  0.98501600  1
  Ca  Ca7  1  0.74733500  0.26797800  0.01965900  1
  Ca  Ca8  1  0.28107200  0.02663400  0.74872600  1
  Ca  Ca9  1  0.52493000  0.24833700  0.27167700  1
  Ca  Ca10  1  0.47383600  0.75249400  0.72452100  1
  Ca  Ca11  1  0.02701000  0.25099500  0.77972900  1
  Ca  Ca12  1  0.99533600  0.49415800  0.49565200  1
  Ca  Ca13  1  0.99563200  0.99851200  0.99849300  1
  Ca  Ca14  1  0.50644000  0.50404800  0.00297000  1
  Ca  Ca15  1  0.50361900  0.00256600  0.50210900  1
  O  O16  1  0.26024800  0.24029100  0.23475500  1
  O  O17  1  0.97498000  0.00404500  0.24488200  1
  O  O18  1  0.52941800  0.02195000  0.76259300  1
  O  O19  1  0.46645800  0.72241800  0.47041500  1
  O  O20  1  0.02478900  0.76371200  0.00893100  1
  O  O21  1  0.75749300  0.51982900  0.48901100  1
  O  O22  1  0.74184200  0.73297500  0.26394000  1
  O  O23  1  0.75138200  0.50435400  0.97273800  1
  O  O24  1  0.97036600  0.23200000  0.99270800  1
  O  O25  1  0.76059200  0.22721600  0.25772800  1
  O  O26  1  0.50128400  0.74188500  0.97797900  1
  O  O27  1  0.77007700  0.03008200  0.52586300  1
  O  O28  1  0.52822200  0.27265500  0.52806100  1
  O  O29  1  0.23855900  0.97653400  0.47966900  1
  O  O30  1  0.02932000  0.00056000  0.75496300  1
  O  O31  1  0.26129700  0.26440600  0.74309000  1
  O  O32  1  0.26241500  0.50528600  0.02734300  1
  O  O33  1  0.23598100  0.76388400  0.74378900  1
  O  O34  1  0.48367100  0.25565300  0.01243700  1
  O  O35  1  0.99886300  0.47608800  0.73893400  1
  O  O36  1  0.24543500  0.48290500  0.50612600  1
  O  O37  1  0.00478200  0.52539100  0.26156000  1
  O  O38  1  0.73379100  0.75619200  0.76138600  1
  O  O39  1  0.47058400  0.97944300  0.23881000  1
