# generated using pymatgen
data_YAl3
_symmetry_space_group_name_H-M   'P 1'
_cell_length_a   7.97205239
_cell_length_b   7.97205239
_cell_length_c   4.28480600
_cell_angle_alpha   90.00000000
_cell_angle_beta   90.00000000
_cell_angle_gamma   120.00000322
_symmetry_Int_Tables_number   1
_chemical_formula_structural   YAl3
_chemical_formula_sum   'Y2 Al6'
_cell_volume   235.83163885
_cell_formula_units_Z   2
loop_
 _symmetry_equiv_pos_site_id
 _symmetry_equiv_pos_as_xyz
  1  'x, y, z'
loop_
 _atom_site_type_symbol
 _atom_site_label
 _atom_site_symmetry_multiplicity
 _atom_site_fract_x
 _atom_site_fract_y
 _atom_site_fract_z
 _atom_site_occupancy
  Y  Y0  1  0.33333300  0.66666700  0.25000000  1
  Y  Y1  1  0.66666700  0.33333300  0.75000000  1
  Al  Al2  1  0.11994600  0.23989200  0.25000000  1
  Al  Al3  1  0.88005400  0.11994600  0.75000000  1
  Al  Al4  1  0.23989200  0.11994600  0.75000000  1
  Al  Al5  1  0.76010800  0.88005400  0.25000000  1
  Al  Al6  1  0.11994600  0.88005400  0.25000000  1
  Al  Al7  1  0.88005400  0.76010800  0.75000000  1
