# generated using pymatgen
data_TiZnSnO4
_symmetry_space_group_name_H-M   'P 1'
_cell_length_a   3.11508400
_cell_length_b   10.08201600
_cell_length_c   11.70743000
_cell_angle_alpha   90.00000000
_cell_angle_beta   90.00000000
_cell_angle_gamma   90.00000000
_symmetry_Int_Tables_number   1
_chemical_formula_structural   TiZnSnO4
_chemical_formula_sum   'Ti4 Zn4 Sn4 O16'
_cell_volume   367.68737174
_cell_formula_units_Z   4
loop_
 _symmetry_equiv_pos_site_id
 _symmetry_equiv_pos_as_xyz
  1  'x, y, z'
loop_
 _atom_site_type_symbol
 _atom_site_label
 _atom_site_symmetry_multiplicity
 _atom_site_fract_x
 _atom_site_fract_y
 _atom_site_fract_z
 _atom_site_occupancy
  Ti  Ti0  1  0.75000000  0.18443700  0.78023700  1
  Ti  Ti1  1  0.75000000  0.31556300  0.28023700  1
  Ti  Ti2  1  0.25000000  0.81556300  0.21976300  1
  Ti  Ti3  1  0.25000000  0.68443700  0.71976300  1
  Zn  Zn4  1  0.75000000  0.48122000  0.91891100  1
  Zn  Zn5  1  0.75000000  0.01878000  0.41891100  1
  Zn  Zn6  1  0.25000000  0.51878000  0.08108900  1
  Zn  Zn7  1  0.25000000  0.98122000  0.58108900  1
  Sn  Sn8  1  0.25000000  0.35065200  0.53421700  1
  Sn  Sn9  1  0.25000000  0.14934800  0.03421700  1
  Sn  Sn10  1  0.75000000  0.64934800  0.46578300  1
  Sn  Sn11  1  0.75000000  0.85065200  0.96578300  1
  O  O12  1  0.75000000  0.30931200  0.65466600  1
  O  O13  1  0.75000000  0.19068800  0.15466600  1
  O  O14  1  0.25000000  0.69068800  0.34533400  1
  O  O15  1  0.25000000  0.80931200  0.84533400  1
  O  O16  1  0.25000000  0.08778700  0.71886400  1
  O  O17  1  0.25000000  0.41221300  0.21886400  1
  O  O18  1  0.75000000  0.91221300  0.28113600  1
  O  O19  1  0.75000000  0.58778700  0.78113600  1
  O  O20  1  0.25000000  0.27577100  0.86946600  1
  O  O21  1  0.25000000  0.22422900  0.36946600  1
  O  O22  1  0.75000000  0.72422900  0.13053400  1
  O  O23  1  0.75000000  0.77577100  0.63053400  1
  O  O24  1  0.75000000  0.06396600  0.92536100  1
  O  O25  1  0.75000000  0.43603400  0.42536100  1
  O  O26  1  0.25000000  0.93603400  0.07463900  1
  O  O27  1  0.25000000  0.56396600  0.57463900  1
