# generated using pymatgen
data_Al4Fe13Si2(SbO14)2
_symmetry_space_group_name_H-M   'P 1'
_cell_length_a   11.81703889
_cell_length_b   11.81703889
_cell_length_c   9.05546720
_cell_angle_alpha   87.55570915
_cell_angle_beta   87.55570915
_cell_angle_gamma   152.71501417
_symmetry_Int_Tables_number   1
_chemical_formula_structural   Al4Fe13Si2(SbO14)2
_chemical_formula_sum   'Al4 Fe13 Si2 Sb2 O28'
_cell_volume   570.12538603
_cell_formula_units_Z   1
loop_
 _symmetry_equiv_pos_site_id
 _symmetry_equiv_pos_as_xyz
  1  'x, y, z'
loop_
 _atom_site_type_symbol
 _atom_site_label
 _atom_site_symmetry_multiplicity
 _atom_site_fract_x
 _atom_site_fract_y
 _atom_site_fract_z
 _atom_site_occupancy
  Al  Al0  1  0.51873200  0.94989700  0.82164800  1
  Al  Al1  1  0.05010300  0.48126800  0.17835200  1
  Al  Al2  1  0.48126800  0.05010300  0.17835200  1
  Al  Al3  1  0.94989700  0.51873200  0.82164800  1
  Fe  Fe4  1  0.36526800  0.07356900  0.85629800  1
  Fe  Fe5  1  0.21356800  0.35461800  0.14986800  1
  Fe  Fe6  1  0.92643100  0.63473200  0.14370200  1
  Fe  Fe7  1  0.63473200  0.92643100  0.14370200  1
  Fe  Fe8  1  0.78643200  0.64538200  0.85013200  1
  Fe  Fe9  1  0.28686700  0.71313300  0.50000000  1
  Fe  Fe10  1  0.64538200  0.78643200  0.85013200  1
  Fe  Fe11  1  0.00000000  0.00000000  0.50000000  1
  Fe  Fe12  1  0.42607000  0.57393000  0.50000000  1
  Fe  Fe13  1  0.35461800  0.21356800  0.14986800  1
  Fe  Fe14  1  0.07356900  0.36526800  0.85629800  1
  Fe  Fe15  1  0.57393000  0.42607000  0.50000000  1
  Fe  Fe16  1  0.71313300  0.28686700  0.50000000  1
  Si  Si17  1  0.76645500  0.76645500  0.19290300  1
  Si  Si18  1  0.23354500  0.23354500  0.80709700  1
  Sb  Sb19  1  0.85715700  0.14284300  0.50000000  1
  Sb  Sb20  1  0.14284300  0.85715700  0.50000000  1
  O  O21  1  0.02026400  0.32315800  0.09580000  1
  O  O22  1  0.35930600  0.81196700  0.14216200  1
  O  O23  1  0.06315200  0.06315200  0.14704600  1
  O  O24  1  0.69691500  0.69691500  0.37816300  1
  O  O25  1  0.64069400  0.18803300  0.85783800  1
  O  O26  1  0.97973600  0.67684200  0.90420000  1
  O  O27  1  0.39745700  0.98213000  0.38199300  1
  O  O28  1  0.60254300  0.01787000  0.61800700  1
  O  O29  1  0.30308500  0.30308500  0.62183700  1
  O  O30  1  0.72258900  0.87982000  0.61409900  1
  O  O31  1  0.59270100  0.71306800  0.12525200  1
  O  O32  1  0.67684200  0.97973600  0.90420000  1
  O  O33  1  0.01787000  0.60254300  0.61800700  1
  O  O34  1  0.12018000  0.27741100  0.38590100  1
  O  O35  1  0.28693200  0.40729900  0.87474800  1
  O  O36  1  0.93684800  0.93684800  0.85295400  1
  O  O37  1  0.87982000  0.72258900  0.61409900  1
  O  O38  1  0.27741100  0.12018000  0.38590100  1
  O  O39  1  0.98213000  0.39745700  0.38199300  1
  O  O40  1  0.58477400  0.87892100  0.37720700  1
  O  O41  1  0.41522600  0.12107900  0.62279300  1
  O  O42  1  0.71306800  0.59270100  0.12525200  1
  O  O43  1  0.87892100  0.58477400  0.37720700  1
  O  O44  1  0.81196700  0.35930600  0.14216200  1
  O  O45  1  0.40729900  0.28693200  0.87474800  1
  O  O46  1  0.12107900  0.41522600  0.62279300  1
  O  O47  1  0.32315800  0.02026400  0.09580000  1
  O  O48  1  0.18803300  0.64069400  0.85783800  1
