data_image0
_chemical_formula_structural       H32K4Li12N16
_chemical_formula_sum              "H32 K4 Li12 N16"
_cell_length_a       13.8937
_cell_length_b       13.8937
_cell_length_c       13.8937
_cell_angle_alpha    150.715
_cell_angle_beta     150.715
_cell_angle_gamma    41.8936

_space_group_name_H-M_alt    "P 1"
_space_group_IT_number       1

loop_
  _space_group_symop_operation_xyz
  'x, y, z'

loop_
  _atom_site_type_symbol
  _atom_site_label
  _atom_site_symmetry_multiplicity
  _atom_site_fract_x
  _atom_site_fract_y
  _atom_site_fract_z
  _atom_site_occupancy
  H   H1        1.0  0.70900  0.73400  0.52500  1.0000
  H   H2        1.0  0.70900  0.18400  0.97500  1.0000
  H   H3        1.0  0.29100  0.26600  0.47500  1.0000
  H   H4        1.0  0.29100  0.81600  0.02480  1.0000
  H   H5        1.0  0.26600  0.29100  0.97500  1.0000
  H   H6        1.0  0.81600  0.29100  0.52500  1.0000
  H   H7        1.0  0.73400  0.70900  0.02480  1.0000
  H   H8        1.0  0.18400  0.70900  0.47500  1.0000
  H   H9        1.0  0.88800  0.84600  0.45900  1.0000
  H   H10       1.0  0.88800  0.42900  0.04150  1.0000
  H   H11       1.0  0.11200  0.15400  0.54100  1.0000
  H   H12       1.0  0.11200  0.57100  0.95900  1.0000
  H   H13       1.0  0.15400  0.11200  0.04150  1.0000
  H   H14       1.0  0.57100  0.11200  0.45900  1.0000
  H   H15       1.0  0.84600  0.88800  0.95900  1.0000
  H   H16       1.0  0.42900  0.88800  0.54100  1.0000
  H   H17       1.0  0.46100  0.85800  0.89700  1.0000
  H   H18       1.0  0.46100  0.56300  0.60300  1.0000
  H   H19       1.0  0.53900  0.14200  0.10300  1.0000
  H   H20       1.0  0.53900  0.43700  0.39700  1.0000
  H   H21       1.0  0.14200  0.53900  0.60300  1.0000
  H   H22       1.0  0.43700  0.53900  0.89700  1.0000
  H   H23       1.0  0.85800  0.46100  0.39700  1.0000
  H   H24       1.0  0.56300  0.46100  0.10300  1.0000
  H   H25       1.0  0.69300  0.07700  0.88400  1.0000
  H   H26       1.0  0.69300  0.80900  0.61600  1.0000
  H   H27       1.0  0.30700  0.92300  0.11600  1.0000
  H   H28       1.0  0.30700  0.19100  0.38400  1.0000
  H   H29       1.0  0.92300  0.30700  0.61600  1.0000
  H   H30       1.0  0.19100  0.30700  0.88400  1.0000
  H   H31       1.0  0.07700  0.69300  0.38400  1.0000
  H   H32       1.0  0.80900  0.69300  0.11600  1.0000
  K   K1        1.0  0.00000  0.50000  0.00000  1.0000
  K   K2        1.0  0.00000  0.00000  0.50000  1.0000
  K   K3        1.0  0.00000  0.00000  0.00000  1.0000
  K   K4        1.0  0.50000  0.00000  0.50000  1.0000
  Li  Li1       1.0  0.83900  0.16100  0.25000  1.0000
  Li  Li2       1.0  0.41100  0.58900  0.25000  1.0000
  Li  Li3       1.0  0.16100  0.41100  0.32300  1.0000
  Li  Li4       1.0  0.58900  0.83900  0.17700  1.0000
  Li  Li5       1.0  0.16100  0.83900  0.75000  1.0000
  Li  Li6       1.0  0.58900  0.41100  0.75000  1.0000
  Li  Li7       1.0  0.83900  0.58900  0.67700  1.0000
  Li  Li8       1.0  0.41100  0.16100  0.82300  1.0000
  Li  Li9       1.0  0.14800  0.39800  0.75000  1.0000
  Li  Li10      1.0  0.85200  0.60200  0.25000  1.0000
  Li  Li11      1.0  0.60200  0.85200  0.75000  1.0000
  Li  Li12      1.0  0.39800  0.14800  0.25000  1.0000
  N   N1        1.0  0.52400  0.85600  0.83300  1.0000
  N   N2        1.0  0.52400  0.69100  0.66700  1.0000
  N   N3        1.0  0.47600  0.14400  0.16700  1.0000
  N   N4        1.0  0.47600  0.30900  0.33300  1.0000
  N   N5        1.0  0.14400  0.47600  0.66700  1.0000
  N   N6        1.0  0.30900  0.47600  0.83300  1.0000
  N   N7        1.0  0.85600  0.52400  0.33300  1.0000
  N   N8        1.0  0.69100  0.52400  0.16700  1.0000
  N   N9        1.0  0.57700  0.22900  0.15200  1.0000
  N   N10       1.0  0.57700  0.42600  0.34800  1.0000
  N   N11       1.0  0.42300  0.77100  0.84800  1.0000
  N   N12       1.0  0.42300  0.57400  0.65200  1.0000
  N   N13       1.0  0.77100  0.42300  0.34800  1.0000
  N   N14       1.0  0.57400  0.42300  0.15200  1.0000
  N   N15       1.0  0.22900  0.57700  0.65200  1.0000
  N   N16       1.0  0.42600  0.57700  0.84800  1.0000
