# generated using pymatgen
data_KMn2(MoO5)2
_symmetry_space_group_name_H-M   'P 1'
_cell_length_a   5.97859059
_cell_length_b   5.97859059
_cell_length_c   8.52330460
_cell_angle_alpha   66.66645491
_cell_angle_beta   66.66645491
_cell_angle_gamma   63.30894503
_symmetry_Int_Tables_number   1
_chemical_formula_structural   KMn2(MoO5)2
_chemical_formula_sum   'K1 Mn2 Mo2 O10'
_cell_volume   240.92847971
_cell_formula_units_Z   1
loop_
 _symmetry_equiv_pos_site_id
 _symmetry_equiv_pos_as_xyz
  1  'x, y, z'
loop_
 _atom_site_type_symbol
 _atom_site_label
 _atom_site_symmetry_multiplicity
 _atom_site_fract_x
 _atom_site_fract_y
 _atom_site_fract_z
 _atom_site_occupancy
  K  K0  1  0.50000000  0.50000000  0.50000000  1
  Mn  Mn1  1  0.00000000  0.50000000  0.00000000  1
  Mn  Mn2  1  0.50000000  0.00000000  0.00000000  1
  Mo  Mo3  1  0.06868100  0.06868100  0.73759000  1
  Mo  Mo4  1  0.93131900  0.93131900  0.26241000  1
  O  O5  1  0.69402500  0.69402500  0.92760400  1
  O  O6  1  0.30597500  0.30597500  0.07239600  1
  O  O7  1  0.19627100  0.19627100  0.51350300  1
  O  O8  1  0.80372900  0.80372900  0.48649700  1
  O  O9  1  0.81499000  0.28284700  0.21769900  1
  O  O10  1  0.71715300  0.18501000  0.78230100  1
  O  O11  1  0.18501000  0.71715300  0.78230100  1
  O  O12  1  0.28284700  0.81499000  0.21769900  1
  O  O13  1  0.17079100  0.17079100  0.86781900  1
  O  O14  1  0.82920900  0.82920900  0.13218100  1
