# generated using pymatgen
data_CaFeSeO
_symmetry_space_group_name_H-M   'P 1'
_cell_length_a   3.93730300
_cell_length_b   6.03420100
_cell_length_c   13.49444400
_cell_angle_alpha   90.00000000
_cell_angle_beta   90.00000000
_cell_angle_gamma   90.00000000
_symmetry_Int_Tables_number   1
_chemical_formula_structural   CaFeSeO
_chemical_formula_sum   'Ca4 Fe4 Se4 O4'
_cell_volume   320.60744685
_cell_formula_units_Z   4
loop_
 _symmetry_equiv_pos_site_id
 _symmetry_equiv_pos_as_xyz
  1  'x, y, z'
loop_
 _atom_site_type_symbol
 _atom_site_label
 _atom_site_symmetry_multiplicity
 _atom_site_fract_x
 _atom_site_fract_y
 _atom_site_fract_z
 _atom_site_occupancy
  Ca  Ca0  1  0.75000000  0.25111400  0.08157600  1
  Ca  Ca1  1  0.75000000  0.75111400  0.41842400  1
  Ca  Ca2  1  0.25000000  0.74888600  0.91842400  1
  Ca  Ca3  1  0.25000000  0.24888600  0.58157600  1
  Fe  Fe4  1  0.75000000  0.38764500  0.79441900  1
  Fe  Fe5  1  0.75000000  0.88764500  0.70558100  1
  Fe  Fe6  1  0.25000000  0.61235500  0.20558100  1
  Fe  Fe7  1  0.25000000  0.11235500  0.29441900  1
  Se  Se8  1  0.75000000  0.25770800  0.40558500  1
  Se  Se9  1  0.75000000  0.75770800  0.09441500  1
  Se  Se10  1  0.25000000  0.74229200  0.59441500  1
  Se  Se11  1  0.25000000  0.24229200  0.90558500  1
  O  O12  1  0.75000000  0.20726600  0.67258400  1
  O  O13  1  0.75000000  0.70726600  0.82741600  1
  O  O14  1  0.25000000  0.79273400  0.32741600  1
  O  O15  1  0.25000000  0.29273400  0.17258400  1
