# generated using pymatgen
data_Si2MoO7
_symmetry_space_group_name_H-M   'P 1'
_cell_length_a   9.19047496
_cell_length_b   9.19047496
_cell_length_c   10.10868241
_cell_angle_alpha   63.91010622
_cell_angle_beta   63.91010622
_cell_angle_gamma   51.59135118
_symmetry_Int_Tables_number   1
_chemical_formula_structural   Si2MoO7
_chemical_formula_sum   'Si8 Mo4 O28'
_cell_volume   583.81418763
_cell_formula_units_Z   4
loop_
 _symmetry_equiv_pos_site_id
 _symmetry_equiv_pos_as_xyz
  1  'x, y, z'
loop_
 _atom_site_type_symbol
 _atom_site_label
 _atom_site_symmetry_multiplicity
 _atom_site_fract_x
 _atom_site_fract_y
 _atom_site_fract_z
 _atom_site_occupancy
  Si  Si0  1  0.52423600  0.13397400  0.65287800  1
  Si  Si1  1  0.13397400  0.52423600  0.15287800  1
  Si  Si2  1  0.53928100  0.18629700  0.10669100  1
  Si  Si3  1  0.18629700  0.53928100  0.60669100  1
  Si  Si4  1  0.86602600  0.47576400  0.84712200  1
  Si  Si5  1  0.46071900  0.81370300  0.89330900  1
  Si  Si6  1  0.81370300  0.46071900  0.39330900  1
  Si  Si7  1  0.47576400  0.86602600  0.34712200  1
  Mo  Mo8  1  0.78100700  0.21899300  0.75000000  1
  Mo  Mo9  1  0.21899300  0.78100700  0.25000000  1
  Mo  Mo10  1  0.00000000  0.00000000  0.00000000  1
  Mo  Mo11  1  0.00000000  0.00000000  0.50000000  1
  O  O12  1  0.88722100  0.25590500  0.37116300  1
  O  O13  1  0.95935300  0.91573800  0.39018300  1
  O  O14  1  0.43229200  0.74553700  0.08255200  1
  O  O15  1  0.91573800  0.95935300  0.89018300  1
  O  O16  1  0.26482900  0.90267900  0.35201200  1
  O  O17  1  0.00788300  0.50910100  0.68320300  1
  O  O18  1  0.74553700  0.43229200  0.58255200  1
  O  O19  1  0.09732100  0.73517100  0.14798800  1
  O  O20  1  0.99211700  0.49089900  0.31679700  1
  O  O21  1  0.62646000  0.64291300  0.32897100  1
  O  O22  1  0.04064700  0.08426200  0.60981700  1
  O  O23  1  0.73517100  0.09732100  0.64798800  1
  O  O24  1  0.49089900  0.99211700  0.81679700  1
  O  O25  1  0.25590500  0.88722100  0.87116300  1
  O  O26  1  0.64291300  0.62646000  0.82897100  1
  O  O27  1  0.90267900  0.26482900  0.85201200  1
  O  O28  1  0.89189000  0.46400100  0.99878900  1
  O  O29  1  0.37354000  0.35708700  0.67102900  1
  O  O30  1  0.53599900  0.10811000  0.50121100  1
  O  O31  1  0.35708700  0.37354000  0.17102900  1
  O  O32  1  0.50910100  0.00788300  0.18320300  1
  O  O33  1  0.08426200  0.04064700  0.10981700  1
  O  O34  1  0.46400100  0.89189000  0.49878900  1
  O  O35  1  0.56770800  0.25446300  0.91744800  1
  O  O36  1  0.10811000  0.53599900  0.00121100  1
  O  O37  1  0.25446300  0.56770800  0.41744800  1
  O  O38  1  0.74409500  0.11277900  0.12883700  1
  O  O39  1  0.11277900  0.74409500  0.62883700  1
