# generated using pymatgen
data_Si2WO6
_symmetry_space_group_name_H-M   'P 1'
_cell_length_a   6.74695490
_cell_length_b   6.74695490
_cell_length_c   5.44042835
_cell_angle_alpha   75.24900574
_cell_angle_beta   75.24900574
_cell_angle_gamma   86.24068213
_symmetry_Int_Tables_number   1
_chemical_formula_structural   Si2WO6
_chemical_formula_sum   'Si4 W2 O12'
_cell_volume   231.60014011
_cell_formula_units_Z   2
loop_
 _symmetry_equiv_pos_site_id
 _symmetry_equiv_pos_as_xyz
  1  'x, y, z'
loop_
 _atom_site_type_symbol
 _atom_site_label
 _atom_site_symmetry_multiplicity
 _atom_site_fract_x
 _atom_site_fract_y
 _atom_site_fract_z
 _atom_site_occupancy
  Si  Si0  1  0.77524600  0.61259800  0.75695700  1
  Si  Si1  1  0.38740200  0.22475400  0.74304300  1
  Si  Si2  1  0.61259800  0.77524600  0.25695700  1
  Si  Si3  1  0.22475400  0.38740200  0.24304300  1
  W  W4  1  0.89378300  0.10621700  0.75000000  1
  W  W5  1  0.10621700  0.89378300  0.25000000  1
  O  O6  1  0.64343300  0.63761100  0.53728300  1
  O  O7  1  0.36238900  0.35656700  0.96271700  1
  O  O8  1  0.35656700  0.36238900  0.46271700  1
  O  O9  1  0.63761100  0.64343300  0.03728300  1
  O  O10  1  0.88709400  0.39296700  0.79592800  1
  O  O11  1  0.60703300  0.11290600  0.70407200  1
  O  O12  1  0.11290600  0.60703300  0.20407200  1
  O  O13  1  0.39296700  0.88709400  0.29592800  1
  O  O14  1  0.81138000  0.94186800  0.13900300  1
  O  O15  1  0.05813200  0.18862000  0.36099700  1
  O  O16  1  0.94186800  0.81138000  0.63900300  1
  O  O17  1  0.18862000  0.05813200  0.86099700  1
