# generated using pymatgen
data_Sr2CuPtO2
_symmetry_space_group_name_H-M   'P 1'
_cell_length_a   3.92464300
_cell_length_b   3.92464300
_cell_length_c   7.00290000
_cell_angle_alpha   90.00000000
_cell_angle_beta   90.00000000
_cell_angle_gamma   90.00000000
_symmetry_Int_Tables_number   1
_chemical_formula_structural   Sr2CuPtO2
_chemical_formula_sum   'Sr2 Cu1 Pt1 O2'
_cell_volume   107.86442693
_cell_formula_units_Z   1
loop_
 _symmetry_equiv_pos_site_id
 _symmetry_equiv_pos_as_xyz
  1  'x, y, z'
loop_
 _atom_site_type_symbol
 _atom_site_label
 _atom_site_symmetry_multiplicity
 _atom_site_fract_x
 _atom_site_fract_y
 _atom_site_fract_z
 _atom_site_occupancy
  Sr  Sr0  1  0.50000000  0.50000000  0.74112200  1
  Sr  Sr1  1  0.50000000  0.50000000  0.25887800  1
  Cu  Cu2  1  0.00000000  0.00000000  0.50000000  1
  Pt  Pt3  1  0.00000000  0.00000000  0.00000000  1
  O  O4  1  0.00000000  0.50000000  0.50000000  1
  O  O5  1  0.50000000  0.00000000  0.50000000  1
