# generated using pymatgen
data_Si4SnO10
_symmetry_space_group_name_H-M   'P 1'
_cell_length_a   7.55771700
_cell_length_b   7.55771700
_cell_length_c   15.96735400
_cell_angle_alpha   90.00000000
_cell_angle_beta   90.00000000
_cell_angle_gamma   90.00000000
_symmetry_Int_Tables_number   1
_chemical_formula_structural   Si4SnO10
_chemical_formula_sum   'Si16 Sn4 O40'
_cell_volume   912.04067034
_cell_formula_units_Z   4
loop_
 _symmetry_equiv_pos_site_id
 _symmetry_equiv_pos_as_xyz
  1  'x, y, z'
loop_
 _atom_site_type_symbol
 _atom_site_label
 _atom_site_symmetry_multiplicity
 _atom_site_fract_x
 _atom_site_fract_y
 _atom_site_fract_z
 _atom_site_occupancy
  Si  Si0  1  0.17408900  0.26239000  0.65217900  1
  Si  Si1  1  0.82591100  0.73761000  0.65217900  1
  Si  Si2  1  0.26239000  0.17408900  0.84782100  1
  Si  Si3  1  0.76239000  0.32591100  0.65217900  1
  Si  Si4  1  0.23761000  0.67408900  0.65217900  1
  Si  Si5  1  0.32591100  0.76239000  0.84782100  1
  Si  Si6  1  0.67408900  0.23761000  0.84782100  1
  Si  Si7  1  0.73761000  0.82591100  0.84782100  1
  Si  Si8  1  0.32591100  0.23761000  0.34782100  1
  Si  Si9  1  0.67408900  0.76239000  0.34782100  1
  Si  Si10  1  0.23761000  0.32591100  0.15217900  1
  Si  Si11  1  0.73761000  0.17408900  0.34782100  1
  Si  Si12  1  0.26239000  0.82591100  0.34782100  1
  Si  Si13  1  0.17408900  0.73761000  0.15217900  1
  Si  Si14  1  0.82591100  0.26239000  0.15217900  1
  Si  Si15  1  0.76239000  0.67408900  0.15217900  1
  Sn  Sn16  1  0.50000000  0.00000000  0.59334800  1
  Sn  Sn17  1  0.00000000  0.50000000  0.90665200  1
  Sn  Sn18  1  0.00000000  0.50000000  0.40665200  1
  Sn  Sn19  1  0.50000000  0.00000000  0.09334800  1
  O  O20  1  0.26547800  0.11556600  0.59183400  1
  O  O21  1  0.73452200  0.88443400  0.59183400  1
  O  O22  1  0.11556600  0.26547800  0.90816600  1
  O  O23  1  0.61556600  0.23452200  0.59183400  1
  O  O24  1  0.38443400  0.76547800  0.59183400  1
  O  O25  1  0.23452200  0.61556600  0.90816600  1
  O  O26  1  0.76547800  0.38443400  0.90816600  1
  O  O27  1  0.88443400  0.73452200  0.90816600  1
  O  O28  1  0.23452200  0.38443400  0.40816600  1
  O  O29  1  0.76547800  0.61556600  0.40816600  1
  O  O30  1  0.38443400  0.23452200  0.09183400  1
  O  O31  1  0.88443400  0.26547800  0.40816600  1
  O  O32  1  0.11556600  0.73452200  0.40816600  1
  O  O33  1  0.26547800  0.88443400  0.09183400  1
  O  O34  1  0.73452200  0.11556600  0.09183400  1
  O  O35  1  0.25510900  0.03762900  0.36624800  1
  O  O36  1  0.61556600  0.76547800  0.09183400  1
  O  O37  1  0.75510900  0.53762900  0.63375200  1
  O  O38  1  0.46237100  0.24489100  0.86624800  1
  O  O39  1  0.96237100  0.25510900  0.63375200  1
  O  O40  1  0.03762900  0.74489100  0.63375200  1
  O  O41  1  0.25510900  0.96237100  0.86624800  1
  O  O42  1  0.74489100  0.03762900  0.86624800  1
  O  O43  1  0.53762900  0.75510900  0.86624800  1
  O  O44  1  0.71441100  0.71441100  0.25000000  1
  O  O45  1  0.78558900  0.21441100  0.25000000  1
  O  O46  1  0.21441100  0.78558900  0.25000000  1
  O  O47  1  0.28558900  0.28558900  0.25000000  1
  O  O48  1  0.78558900  0.78558900  0.75000000  1
  O  O49  1  0.71441100  0.28558900  0.75000000  1
  O  O50  1  0.28558900  0.71441100  0.75000000  1
  O  O51  1  0.21441100  0.21441100  0.75000000  1
  O  O52  1  0.96237100  0.74489100  0.13375200  1
  O  O53  1  0.75510900  0.46237100  0.13375200  1
  O  O54  1  0.24489100  0.53762900  0.13375200  1
  O  O55  1  0.46237100  0.75510900  0.36624800  1
  O  O56  1  0.53762900  0.24489100  0.36624800  1
  O  O57  1  0.03762900  0.25510900  0.13375200  1
  O  O58  1  0.74489100  0.96237100  0.36624800  1
  O  O59  1  0.24489100  0.46237100  0.63375200  1
