# generated using pymatgen
data_Si4SbO10
_symmetry_space_group_name_H-M   'P 1'
_cell_length_a   7.41671300
_cell_length_b   7.41671300
_cell_length_c   16.27354000
_cell_angle_alpha   90.00000000
_cell_angle_beta   90.00000000
_cell_angle_gamma   90.00000000
_symmetry_Int_Tables_number   1
_chemical_formula_structural   Si4SbO10
_chemical_formula_sum   'Si16 Sb4 O40'
_cell_volume   895.16889517
_cell_formula_units_Z   4
loop_
 _symmetry_equiv_pos_site_id
 _symmetry_equiv_pos_as_xyz
  1  'x, y, z'
loop_
 _atom_site_type_symbol
 _atom_site_label
 _atom_site_symmetry_multiplicity
 _atom_site_fract_x
 _atom_site_fract_y
 _atom_site_fract_z
 _atom_site_occupancy
  Si  Si0  1  0.17378400  0.25619300  0.65379500  1
  Si  Si1  1  0.82621600  0.74380700  0.65379500  1
  Si  Si2  1  0.25619300  0.17378400  0.84620500  1
  Si  Si3  1  0.75619300  0.32621600  0.65379500  1
  Si  Si4  1  0.24380700  0.67378400  0.65379500  1
  Si  Si5  1  0.32621600  0.75619300  0.84620500  1
  Si  Si6  1  0.67378400  0.24380700  0.84620500  1
  Si  Si7  1  0.74380700  0.82621600  0.84620500  1
  Si  Si8  1  0.32621600  0.24380700  0.34620500  1
  Si  Si9  1  0.67378400  0.75619300  0.34620500  1
  Si  Si10  1  0.24380700  0.32621600  0.15379500  1
  Si  Si11  1  0.74380700  0.17378400  0.34620500  1
  Si  Si12  1  0.25619300  0.82621600  0.34620500  1
  Si  Si13  1  0.17378400  0.74380700  0.15379500  1
  Si  Si14  1  0.82621600  0.25619300  0.15379500  1
  Si  Si15  1  0.75619300  0.67378400  0.15379500  1
  Sb  Sb16  1  0.50000000  0.00000000  0.56015200  1
  Sb  Sb17  1  0.00000000  0.50000000  0.93984800  1
  Sb  Sb18  1  0.00000000  0.50000000  0.43984800  1
  Sb  Sb19  1  0.50000000  0.00000000  0.06015200  1
  O  O20  1  0.26354900  0.09968400  0.59682200  1
  O  O21  1  0.73645100  0.90031600  0.59682200  1
  O  O22  1  0.09968400  0.26354900  0.90317800  1
  O  O23  1  0.59968400  0.23645100  0.59682200  1
  O  O24  1  0.40031600  0.76354900  0.59682200  1
  O  O25  1  0.23645100  0.59968400  0.90317800  1
  O  O26  1  0.76354900  0.40031600  0.90317800  1
  O  O27  1  0.90031600  0.73645100  0.90317800  1
  O  O28  1  0.23645100  0.40031600  0.40317800  1
  O  O29  1  0.76354900  0.59968400  0.40317800  1
  O  O30  1  0.40031600  0.23645100  0.09682200  1
  O  O31  1  0.90031600  0.26354900  0.40317800  1
  O  O32  1  0.09968400  0.73645100  0.40317800  1
  O  O33  1  0.26354900  0.90031600  0.09682200  1
  O  O34  1  0.73645100  0.09968400  0.09682200  1
  O  O35  1  0.25198600  0.04174300  0.36646000  1
  O  O36  1  0.59968400  0.76354900  0.09682200  1
  O  O37  1  0.75198600  0.54174300  0.63354000  1
  O  O38  1  0.45825700  0.24801400  0.86646000  1
  O  O39  1  0.95825700  0.25198600  0.63354000  1
  O  O40  1  0.04174300  0.74801400  0.63354000  1
  O  O41  1  0.25198600  0.95825700  0.86646000  1
  O  O42  1  0.74801400  0.04174300  0.86646000  1
  O  O43  1  0.54174300  0.75198600  0.86646000  1
  O  O44  1  0.71027500  0.71027500  0.25000000  1
  O  O45  1  0.78972500  0.21027500  0.25000000  1
  O  O46  1  0.21027500  0.78972500  0.25000000  1
  O  O47  1  0.28972500  0.28972500  0.25000000  1
  O  O48  1  0.78972500  0.78972500  0.75000000  1
  O  O49  1  0.71027500  0.28972500  0.75000000  1
  O  O50  1  0.28972500  0.71027500  0.75000000  1
  O  O51  1  0.21027500  0.21027500  0.75000000  1
  O  O52  1  0.95825700  0.74801400  0.13354000  1
  O  O53  1  0.75198600  0.45825700  0.13354000  1
  O  O54  1  0.24801400  0.54174300  0.13354000  1
  O  O55  1  0.45825700  0.75198600  0.36646000  1
  O  O56  1  0.54174300  0.24801400  0.36646000  1
  O  O57  1  0.04174300  0.25198600  0.13354000  1
  O  O58  1  0.74801400  0.95825700  0.36646000  1
  O  O59  1  0.24801400  0.45825700  0.63354000  1
