# generated using pymatgen
data_Si2SnO6
_symmetry_space_group_name_H-M   'P 1'
_cell_length_a   6.67808860
_cell_length_b   6.67808860
_cell_length_c   5.41549727
_cell_angle_alpha   75.79382649
_cell_angle_beta   75.79382649
_cell_angle_gamma   85.18921440
_symmetry_Int_Tables_number   1
_chemical_formula_structural   Si2SnO6
_chemical_formula_sum   'Si4 Sn2 O12'
_cell_volume   226.89673194
_cell_formula_units_Z   2
loop_
 _symmetry_equiv_pos_site_id
 _symmetry_equiv_pos_as_xyz
  1  'x, y, z'
loop_
 _atom_site_type_symbol
 _atom_site_label
 _atom_site_symmetry_multiplicity
 _atom_site_fract_x
 _atom_site_fract_y
 _atom_site_fract_z
 _atom_site_occupancy
  Si  Si0  1  0.78169000  0.61603600  0.25709400  1
  Si  Si1  1  0.38396400  0.21831000  0.24290600  1
  Si  Si2  1  0.61603600  0.78169000  0.75709400  1
  Si  Si3  1  0.21831000  0.38396400  0.74290600  1
  Sn  Sn4  1  0.88938000  0.11062000  0.25000000  1
  Sn  Sn5  1  0.11062000  0.88938000  0.75000000  1
  O  O6  1  0.65140500  0.63642500  0.03293800  1
  O  O7  1  0.36357500  0.34859500  0.46706200  1
  O  O8  1  0.34859500  0.36357500  0.96706200  1
  O  O9  1  0.63642500  0.65140500  0.53293800  1
  O  O10  1  0.90088900  0.39462900  0.30217300  1
  O  O11  1  0.60537100  0.09911100  0.19782700  1
  O  O12  1  0.09911100  0.60537100  0.69782700  1
  O  O13  1  0.39462900  0.90088900  0.80217300  1
  O  O14  1  0.81248100  0.94865300  0.64496200  1
  O  O15  1  0.05134700  0.18751900  0.85503800  1
  O  O16  1  0.94865300  0.81248100  0.14496200  1
  O  O17  1  0.18751900  0.05134700  0.35503800  1
