# generated using pymatgen
data_Y(TiGa2)2
_symmetry_space_group_name_H-M   'P 1'
_cell_length_a   5.51417299
_cell_length_b   5.51417299
_cell_length_c   5.51417299
_cell_angle_alpha   104.32906484
_cell_angle_beta   104.32906484
_cell_angle_gamma   120.33260826
_symmetry_Int_Tables_number   1
_chemical_formula_structural   Y(TiGa2)2
_chemical_formula_sum   'Y1 Ti2 Ga4'
_cell_volume   125.53430450
_cell_formula_units_Z   1
loop_
 _symmetry_equiv_pos_site_id
 _symmetry_equiv_pos_as_xyz
  1  'x, y, z'
loop_
 _atom_site_type_symbol
 _atom_site_label
 _atom_site_symmetry_multiplicity
 _atom_site_fract_x
 _atom_site_fract_y
 _atom_site_fract_z
 _atom_site_occupancy
  Y  Y0  1  0.00000000  0.00000000  0.00000000  1
  Ti  Ti1  1  0.25000000  0.75000000  0.50000000  1
  Ti  Ti2  1  0.75000000  0.25000000  0.50000000  1
  Ga  Ga3  1  0.69689500  0.30310500  0.00000000  1
  Ga  Ga4  1  0.69689500  0.69689500  0.39379100  1
  Ga  Ga5  1  0.30310500  0.30310500  0.60620900  1
  Ga  Ga6  1  0.30310500  0.69689500  0.00000000  1
