# generated using pymatgen
data_CsV5Se8
_symmetry_space_group_name_H-M   'P 1'
_cell_length_a   3.88872400
_cell_length_b   8.99354338
_cell_length_c   9.51893099
_cell_angle_alpha   104.75844333
_cell_angle_beta   101.78633827
_cell_angle_gamma   90.00000000
_symmetry_Int_Tables_number   1
_chemical_formula_structural   CsV5Se8
_chemical_formula_sum   'Cs1 V5 Se8'
_cell_volume   314.66231998
_cell_formula_units_Z   1
loop_
 _symmetry_equiv_pos_site_id
 _symmetry_equiv_pos_as_xyz
  1  'x, y, z'
loop_
 _atom_site_type_symbol
 _atom_site_label
 _atom_site_symmetry_multiplicity
 _atom_site_fract_x
 _atom_site_fract_y
 _atom_site_fract_z
 _atom_site_occupancy
  Cs  Cs0  1  0.50000000  0.50000000  0.00000000  1
  V  V1  1  0.00000000  0.00000000  0.00000000  1
  V  V2  1  0.34500100  0.00688900  0.69000200  1
  V  V3  1  0.65499900  0.99311100  0.30999800  1
  V  V4  1  0.28838200  0.65269500  0.57676400  1
  V  V5  1  0.71161800  0.34730500  0.42323600  1
  Se  Se6  1  0.57133400  0.16391500  0.14266800  1
  Se  Se7  1  0.42866600  0.83608500  0.85733200  1
  Se  Se8  1  0.09357200  0.83629900  0.18714300  1
  Se  Se9  1  0.90642800  0.16370100  0.81285700  1
  Se  Se10  1  0.16458800  0.47834200  0.32917600  1
  Se  Se11  1  0.83541200  0.52165800  0.67082400  1
  Se  Se12  1  0.24049600  0.16326300  0.48099100  1
  Se  Se13  1  0.75950400  0.83673700  0.51900900  1
