# generated using pymatgen
data_Ca2CuSO2
_symmetry_space_group_name_H-M   'P 1'
_cell_length_a   8.46686873
_cell_length_b   8.46686873
_cell_length_c   8.46686873
_cell_angle_alpha   153.52986017
_cell_angle_beta   153.52986017
_cell_angle_gamma   37.78330592
_symmetry_Int_Tables_number   1
_chemical_formula_structural   Ca2CuSO2
_chemical_formula_sum   'Ca2 Cu1 S1 O2'
_cell_volume   120.40634683
_cell_formula_units_Z   1
loop_
 _symmetry_equiv_pos_site_id
 _symmetry_equiv_pos_as_xyz
  1  'x, y, z'
loop_
 _atom_site_type_symbol
 _atom_site_label
 _atom_site_symmetry_multiplicity
 _atom_site_fract_x
 _atom_site_fract_y
 _atom_site_fract_z
 _atom_site_occupancy
  Ca  Ca0  1  0.31692600  0.31692600  0.00000000  1
  Ca  Ca1  1  0.68307400  0.68307400  0.00000000  1
  Cu  Cu2  1  0.00000000  0.00000000  0.00000000  1
  S  S3  1  0.50000000  0.50000000  0.00000000  1
  O  O4  1  0.75000000  0.25000000  0.50000000  1
  O  O5  1  0.25000000  0.75000000  0.50000000  1
