# generated using pymatgen
data_Ba2OsO4
_symmetry_space_group_name_H-M   'P 1'
_cell_length_a   7.40790737
_cell_length_b   7.40790737
_cell_length_c   7.40790737
_cell_angle_alpha   148.51627620
_cell_angle_beta   148.51627620
_cell_angle_gamma   45.12381278
_symmetry_Int_Tables_number   1
_chemical_formula_structural   Ba2OsO4
_chemical_formula_sum   'Ba2 Os1 O4'
_cell_volume   110.52967057
_cell_formula_units_Z   1
loop_
 _symmetry_equiv_pos_site_id
 _symmetry_equiv_pos_as_xyz
  1  'x, y, z'
loop_
 _atom_site_type_symbol
 _atom_site_label
 _atom_site_symmetry_multiplicity
 _atom_site_fract_x
 _atom_site_fract_y
 _atom_site_fract_z
 _atom_site_occupancy
  Ba  Ba0  1  0.64677100  0.64677100  0.00000000  1
  Ba  Ba1  1  0.35322900  0.35322900  0.00000000  1
  Os  Os2  1  0.00000000  0.00000000  0.00000000  1
  O  O3  1  0.84571900  0.84571900  0.00000000  1
  O  O4  1  0.15428100  0.15428100  0.00000000  1
  O  O5  1  0.50000000  0.00000000  0.50000000  1
  O  O6  1  0.00000000  0.50000000  0.50000000  1
