# generated using pymatgen
data_Ba4Cu3SnO9
_symmetry_space_group_name_H-M   'P 1'
_cell_length_a   8.08531900
_cell_length_b   8.08531900
_cell_length_c   8.08531900
_cell_angle_alpha   90.00000000
_cell_angle_beta   90.00000000
_cell_angle_gamma   90.00000000
_symmetry_Int_Tables_number   1
_chemical_formula_structural   Ba4Cu3SnO9
_chemical_formula_sum   'Ba8 Cu6 Sn2 O18'
_cell_volume   528.55657303
_cell_formula_units_Z   2
loop_
 _symmetry_equiv_pos_site_id
 _symmetry_equiv_pos_as_xyz
  1  'x, y, z'
loop_
 _atom_site_type_symbol
 _atom_site_label
 _atom_site_symmetry_multiplicity
 _atom_site_fract_x
 _atom_site_fract_y
 _atom_site_fract_z
 _atom_site_occupancy
  Ba  Ba0  1  0.25000000  0.25000000  0.25000000  1
  Ba  Ba1  1  0.75000000  0.75000000  0.25000000  1
  Ba  Ba2  1  0.75000000  0.25000000  0.75000000  1
  Ba  Ba3  1  0.25000000  0.75000000  0.75000000  1
  Ba  Ba4  1  0.25000000  0.75000000  0.25000000  1
  Ba  Ba5  1  0.75000000  0.25000000  0.25000000  1
  Ba  Ba6  1  0.25000000  0.25000000  0.75000000  1
  Ba  Ba7  1  0.75000000  0.75000000  0.75000000  1
  Cu  Cu8  1  0.50000000  0.00000000  0.50000000  1
  Cu  Cu9  1  0.50000000  0.00000000  0.00000000  1
  Cu  Cu10  1  0.00000000  0.50000000  0.00000000  1
  Cu  Cu11  1  0.00000000  0.00000000  0.50000000  1
  Cu  Cu12  1  0.50000000  0.50000000  0.00000000  1
  Cu  Cu13  1  0.00000000  0.50000000  0.50000000  1
  Sn  Sn14  1  0.50000000  0.50000000  0.50000000  1
  Sn  Sn15  1  0.00000000  0.00000000  0.00000000  1
  O  O16  1  0.00000000  0.50000000  0.25000000  1
  O  O17  1  0.50000000  0.50000000  0.23936000  1
  O  O18  1  0.23936000  0.50000000  0.50000000  1
  O  O19  1  0.50000000  0.75000000  0.00000000  1
  O  O20  1  0.25000000  0.00000000  0.50000000  1
  O  O21  1  0.75000000  0.00000000  0.50000000  1
  O  O22  1  0.50000000  0.25000000  0.00000000  1
  O  O23  1  0.00000000  0.00000000  0.26064000  1
  O  O24  1  0.00000000  0.00000000  0.73936000  1
  O  O25  1  0.00000000  0.26064000  0.00000000  1
  O  O26  1  0.50000000  0.76064000  0.50000000  1
  O  O27  1  0.26064000  0.00000000  0.00000000  1
  O  O28  1  0.73936000  0.00000000  0.00000000  1
  O  O29  1  0.50000000  0.23936000  0.50000000  1
  O  O30  1  0.00000000  0.50000000  0.75000000  1
  O  O31  1  0.50000000  0.50000000  0.76064000  1
  O  O32  1  0.76064000  0.50000000  0.50000000  1
  O  O33  1  0.00000000  0.73936000  0.00000000  1
