# generated using pymatgen
data_HoMn2O4
_symmetry_space_group_name_H-M   'P 1'
_cell_length_a   6.46878885
_cell_length_b   6.46878885
_cell_length_c   6.25299522
_cell_angle_alpha   61.51218904
_cell_angle_beta   61.51218904
_cell_angle_gamma   57.25661146
_symmetry_Int_Tables_number   1
_chemical_formula_structural   HoMn2O4
_chemical_formula_sum   'Ho2 Mn4 O8'
_cell_volume   184.75148548
_cell_formula_units_Z   2
loop_
 _symmetry_equiv_pos_site_id
 _symmetry_equiv_pos_as_xyz
  1  'x, y, z'
loop_
 _atom_site_type_symbol
 _atom_site_label
 _atom_site_symmetry_multiplicity
 _atom_site_fract_x
 _atom_site_fract_y
 _atom_site_fract_z
 _atom_site_occupancy
  Ho  Ho0  1  0.12524800  0.12524800  0.61179000  1
  Ho  Ho1  1  0.87475200  0.87475200  0.38821000  1
  Mn  Mn2  1  0.50000000  0.50000000  0.50000000  1
  Mn  Mn3  1  0.50000000  0.50000000  0.00000000  1
  Mn  Mn4  1  0.50000000  0.00000000  0.00000000  1
  Mn  Mn5  1  0.00000000  0.50000000  0.00000000  1
  O  O6  1  0.73349400  0.73349400  0.79496200  1
  O  O7  1  0.75186400  0.75186400  0.22049200  1
  O  O8  1  0.72982600  0.28601600  0.26653600  1
  O  O9  1  0.28601600  0.72982600  0.26653600  1
  O  O10  1  0.26650600  0.26650600  0.20503800  1
  O  O11  1  0.24813600  0.24813600  0.77950800  1
  O  O12  1  0.27017400  0.71398400  0.73346400  1
  O  O13  1  0.71398400  0.27017400  0.73346400  1
