# generated using pymatgen
data_Ba2NiRuO6
_symmetry_space_group_name_H-M   'P 1'
_cell_length_a   5.78271604
_cell_length_b   5.78271604
_cell_length_c   19.29759200
_cell_angle_alpha   90.00000000
_cell_angle_beta   90.00000000
_cell_angle_gamma   120.00000041
_symmetry_Int_Tables_number   1
_chemical_formula_structural   Ba2NiRuO6
_chemical_formula_sum   'Ba8 Ni4 Ru4 O24'
_cell_volume   558.85286661
_cell_formula_units_Z   4
loop_
 _symmetry_equiv_pos_site_id
 _symmetry_equiv_pos_as_xyz
  1  'x, y, z'
loop_
 _atom_site_type_symbol
 _atom_site_label
 _atom_site_symmetry_multiplicity
 _atom_site_fract_x
 _atom_site_fract_y
 _atom_site_fract_z
 _atom_site_occupancy
  Ba  Ba0  1  0.66666700  0.33333300  0.61821800  1
  Ba  Ba1  1  0.66666700  0.33333300  0.25000000  1
  Ba  Ba2  1  0.33333300  0.66666700  0.75000000  1
  Ba  Ba3  1  0.00000000  0.00000000  0.50000000  1
  Ba  Ba4  1  0.33333300  0.66666700  0.11821800  1
  Ba  Ba5  1  0.33333300  0.66666700  0.38178200  1
  Ba  Ba6  1  0.66666700  0.33333300  0.88178200  1
  Ba  Ba7  1  0.00000000  0.00000000  0.00000000  1
  Ni  Ni8  1  0.66666700  0.33333300  0.44393100  1
  Ni  Ni9  1  0.33333300  0.66666700  0.55606900  1
  Ni  Ni10  1  0.66666700  0.33333300  0.05606900  1
  Ni  Ni11  1  0.33333300  0.66666700  0.94393100  1
  Ru  Ru12  1  0.00000000  0.00000000  0.67748100  1
  Ru  Ru13  1  0.00000000  0.00000000  0.32251900  1
  Ru  Ru14  1  0.00000000  0.00000000  0.82251900  1
  Ru  Ru15  1  0.00000000  0.00000000  0.17748100  1
  O  O16  1  0.16683400  0.83316600  0.62816400  1
  O  O17  1  0.84925800  0.69851600  0.75000000  1
  O  O18  1  0.16683400  0.33366900  0.87183600  1
  O  O19  1  0.83316600  0.16683400  0.37183600  1
  O  O20  1  0.16683400  0.33366900  0.62816400  1
  O  O21  1  0.50000000  0.00000000  0.00000000  1
  O  O22  1  0.66633100  0.83316600  0.62816400  1
  O  O23  1  0.15074200  0.30148400  0.25000000  1
  O  O24  1  0.15074200  0.84925800  0.25000000  1
  O  O25  1  0.83316600  0.66633100  0.12816400  1
  O  O26  1  0.30148400  0.15074200  0.75000000  1
  O  O27  1  0.33366900  0.16683400  0.12816400  1
  O  O28  1  0.50000000  0.00000000  0.50000000  1
  O  O29  1  0.69851600  0.84925800  0.25000000  1
  O  O30  1  0.33366900  0.16683400  0.37183600  1
  O  O31  1  0.83316600  0.16683400  0.12816400  1
  O  O32  1  0.83316600  0.66633100  0.37183600  1
  O  O33  1  0.00000000  0.50000000  0.50000000  1
  O  O34  1  0.50000000  0.50000000  0.50000000  1
  O  O35  1  0.66633100  0.83316600  0.87183600  1
  O  O36  1  0.84925800  0.15074200  0.75000000  1
  O  O37  1  0.00000000  0.50000000  0.00000000  1
  O  O38  1  0.16683400  0.83316600  0.87183600  1
  O  O39  1  0.50000000  0.50000000  0.00000000  1
