# generated using pymatgen
data_Ho2HgO4
_symmetry_space_group_name_H-M   'P 1'
_cell_length_a   7.06349109
_cell_length_b   7.06349109
_cell_length_c   10.11815154
_cell_angle_alpha   58.57180707
_cell_angle_beta   58.57180707
_cell_angle_gamma   29.66910737
_symmetry_Int_Tables_number   1
_chemical_formula_structural   Ho2HgO4
_chemical_formula_sum   'Ho4 Hg2 O8'
_cell_volume   210.41249460
_cell_formula_units_Z   2
loop_
 _symmetry_equiv_pos_site_id
 _symmetry_equiv_pos_as_xyz
  1  'x, y, z'
loop_
 _atom_site_type_symbol
 _atom_site_label
 _atom_site_symmetry_multiplicity
 _atom_site_fract_x
 _atom_site_fract_y
 _atom_site_fract_z
 _atom_site_occupancy
  Ho  Ho0  1  0.88108400  0.88108400  0.46287100  1
  Ho  Ho1  1  0.11891600  0.11891600  0.53712900  1
  Ho  Ho2  1  0.65887200  0.65887200  0.19991600  1
  Ho  Ho3  1  0.34112800  0.34112800  0.80008400  1
  Hg  Hg4  1  0.61367200  0.61367200  0.83814000  1
  Hg  Hg5  1  0.38632800  0.38632800  0.16186000  1
  O  O6  1  0.08218600  0.08218600  0.34741200  1
  O  O7  1  0.91781400  0.91781400  0.65258800  1
  O  O8  1  0.26815400  0.26815400  0.61166100  1
  O  O9  1  0.73184600  0.73184600  0.38833900  1
  O  O10  1  0.70345800  0.70345800  0.94566000  1
  O  O11  1  0.29654200  0.29654200  0.05434000  1
  O  O12  1  0.53461400  0.53461400  0.71675000  1
  O  O13  1  0.46538600  0.46538600  0.28325000  1
