# generated using pymatgen
data_CaCo(Si2O5)2
_symmetry_space_group_name_H-M   'P 1'
_cell_length_a   7.44724900
_cell_length_b   7.44724900
_cell_length_c   15.40215500
_cell_angle_alpha   90.00000000
_cell_angle_beta   90.00000000
_cell_angle_gamma   90.00000000
_symmetry_Int_Tables_number   1
_chemical_formula_structural   CaCo(Si2O5)2
_chemical_formula_sum   'Ca4 Co4 Si16 O40'
_cell_volume   854.22689166
_cell_formula_units_Z   4
loop_
 _symmetry_equiv_pos_site_id
 _symmetry_equiv_pos_as_xyz
  1  'x, y, z'
loop_
 _atom_site_type_symbol
 _atom_site_label
 _atom_site_symmetry_multiplicity
 _atom_site_fract_x
 _atom_site_fract_y
 _atom_site_fract_z
 _atom_site_occupancy
  Ca  Ca0  1  0.50000000  0.50000000  0.50000000  1
  Ca  Ca1  1  0.00000000  0.00000000  0.50000000  1
  Ca  Ca2  1  0.00000000  0.00000000  0.00000000  1
  Ca  Ca3  1  0.50000000  0.50000000  0.00000000  1
  Co  Co4  1  0.50000000  0.00000000  0.58265900  1
  Co  Co5  1  0.00000000  0.50000000  0.91734100  1
  Co  Co6  1  0.00000000  0.50000000  0.41734100  1
  Co  Co7  1  0.50000000  0.00000000  0.08265900  1
  Si  Si8  1  0.17286400  0.25227000  0.64795500  1
  Si  Si9  1  0.82713600  0.74773000  0.64795500  1
  Si  Si10  1  0.25227000  0.17286400  0.85204500  1
  Si  Si11  1  0.75227000  0.32713600  0.64795500  1
  Si  Si12  1  0.24773000  0.67286400  0.64795500  1
  Si  Si13  1  0.32713600  0.75227000  0.85204500  1
  Si  Si14  1  0.67286400  0.24773000  0.85204500  1
  Si  Si15  1  0.74773000  0.82713600  0.85204500  1
  Si  Si16  1  0.32713600  0.24773000  0.35204500  1
  Si  Si17  1  0.67286400  0.75227000  0.35204500  1
  Si  Si18  1  0.24773000  0.32713600  0.14795500  1
  Si  Si19  1  0.74773000  0.17286400  0.35204500  1
  Si  Si20  1  0.25227000  0.82713600  0.35204500  1
  Si  Si21  1  0.17286400  0.74773000  0.14795500  1
  Si  Si22  1  0.82713600  0.25227000  0.14795500  1
  Si  Si23  1  0.75227000  0.67286400  0.14795500  1
  O  O24  1  0.25145100  0.10397100  0.58241000  1
  O  O25  1  0.74854900  0.89602900  0.58241000  1
  O  O26  1  0.10397100  0.25145100  0.91759000  1
  O  O27  1  0.60397100  0.24854900  0.58241000  1
  O  O28  1  0.39602900  0.75145100  0.58241000  1
  O  O29  1  0.24854900  0.60397100  0.91759000  1
  O  O30  1  0.75145100  0.39602900  0.91759000  1
  O  O31  1  0.89602900  0.74854900  0.91759000  1
  O  O32  1  0.24854900  0.39602900  0.41759000  1
  O  O33  1  0.75145100  0.60397100  0.41759000  1
  O  O34  1  0.39602900  0.24854900  0.08241000  1
  O  O35  1  0.89602900  0.25145100  0.41759000  1
  O  O36  1  0.10397100  0.74854900  0.41759000  1
  O  O37  1  0.25145100  0.89602900  0.08241000  1
  O  O38  1  0.74854900  0.10397100  0.08241000  1
  O  O39  1  0.25001500  0.04498200  0.37247500  1
  O  O40  1  0.60397100  0.75145100  0.08241000  1
  O  O41  1  0.75001500  0.54498200  0.62752500  1
  O  O42  1  0.45501800  0.24998500  0.87247500  1
  O  O43  1  0.95501800  0.25001500  0.62752500  1
  O  O44  1  0.04498200  0.74998500  0.62752500  1
  O  O45  1  0.25001500  0.95501800  0.87247500  1
  O  O46  1  0.74998500  0.04498200  0.87247500  1
  O  O47  1  0.54498200  0.75001500  0.87247500  1
  O  O48  1  0.70938200  0.70938200  0.25000000  1
  O  O49  1  0.79061800  0.20938200  0.25000000  1
  O  O50  1  0.20938200  0.79061800  0.25000000  1
  O  O51  1  0.29061800  0.29061800  0.25000000  1
  O  O52  1  0.79061800  0.79061800  0.75000000  1
  O  O53  1  0.70938200  0.29061800  0.75000000  1
  O  O54  1  0.29061800  0.70938200  0.75000000  1
  O  O55  1  0.20938200  0.20938200  0.75000000  1
  O  O56  1  0.95501800  0.74998500  0.12752500  1
  O  O57  1  0.75001500  0.45501800  0.12752500  1
  O  O58  1  0.24998500  0.54498200  0.12752500  1
  O  O59  1  0.45501800  0.75001500  0.37247500  1
  O  O60  1  0.54498200  0.24998500  0.37247500  1
  O  O61  1  0.04498200  0.25001500  0.12752500  1
  O  O62  1  0.74998500  0.95501800  0.37247500  1
  O  O63  1  0.24998500  0.45501800  0.62752500  1
