# generated using pymatgen
data_Al2Cu3(SiO4)3
_symmetry_space_group_name_H-M   'P 1'
_cell_length_a   10.08344381
_cell_length_b   10.08344381
_cell_length_c   10.08344381
_cell_angle_alpha   109.47122063
_cell_angle_beta   109.47122063
_cell_angle_gamma   109.47122063
_symmetry_Int_Tables_number   1
_chemical_formula_structural   Al2Cu3(SiO4)3
_chemical_formula_sum   'Al8 Cu12 Si12 O48'
_cell_volume   789.23213002
_cell_formula_units_Z   4
loop_
 _symmetry_equiv_pos_site_id
 _symmetry_equiv_pos_as_xyz
  1  'x, y, z'
loop_
 _atom_site_type_symbol
 _atom_site_label
 _atom_site_symmetry_multiplicity
 _atom_site_fract_x
 _atom_site_fract_y
 _atom_site_fract_z
 _atom_site_occupancy
  Al  Al0  1  0.00000000  0.00000000  0.00000000  1
  Al  Al1  1  0.50000000  0.00000000  0.00000000  1
  Al  Al2  1  0.50000000  0.50000000  0.00000000  1
  Al  Al3  1  0.00000000  0.50000000  0.50000000  1
  Al  Al4  1  0.00000000  0.00000000  0.50000000  1
  Al  Al5  1  0.50000000  0.50000000  0.50000000  1
  Al  Al6  1  0.00000000  0.50000000  0.00000000  1
  Al  Al7  1  0.50000000  0.00000000  0.50000000  1
  Cu  Cu8  1  0.87500000  0.75000000  0.62500000  1
  Cu  Cu9  1  0.87500000  0.62500000  0.25000000  1
  Cu  Cu10  1  0.62500000  0.87500000  0.75000000  1
  Cu  Cu11  1  0.25000000  0.87500000  0.62500000  1
  Cu  Cu12  1  0.75000000  0.62500000  0.87500000  1
  Cu  Cu13  1  0.62500000  0.25000000  0.87500000  1
  Cu  Cu14  1  0.12500000  0.25000000  0.37500000  1
  Cu  Cu15  1  0.12500000  0.37500000  0.75000000  1
  Cu  Cu16  1  0.37500000  0.12500000  0.25000000  1
  Cu  Cu17  1  0.75000000  0.12500000  0.37500000  1
  Cu  Cu18  1  0.25000000  0.37500000  0.12500000  1
  Cu  Cu19  1  0.37500000  0.75000000  0.12500000  1
  Si  Si20  1  0.12500000  0.75000000  0.87500000  1
  Si  Si21  1  0.75000000  0.87500000  0.12500000  1
  Si  Si22  1  0.25000000  0.62500000  0.37500000  1
  Si  Si23  1  0.62500000  0.75000000  0.37500000  1
  Si  Si24  1  0.87500000  0.12500000  0.75000000  1
  Si  Si25  1  0.37500000  0.25000000  0.62500000  1
  Si  Si26  1  0.37500000  0.62500000  0.75000000  1
  Si  Si27  1  0.25000000  0.12500000  0.87500000  1
  Si  Si28  1  0.62500000  0.37500000  0.25000000  1
  Si  Si29  1  0.12500000  0.87500000  0.25000000  1
  Si  Si30  1  0.75000000  0.37500000  0.62500000  1
  Si  Si31  1  0.87500000  0.25000000  0.12500000  1
  O  O32  1  0.57555400  0.89094600  0.37792200  1
  O  O33  1  0.37792200  0.57555400  0.89094600  1
  O  O34  1  0.30236800  0.31539200  0.92444600  1
  O  O35  1  0.48697600  0.60905400  0.18460800  1
  O  O36  1  0.31539200  0.89094600  0.01302400  1
  O  O37  1  0.12207800  0.01302400  0.19763200  1
  O  O38  1  0.37792200  0.30236800  0.48697600  1
  O  O39  1  0.89094600  0.37792200  0.57555400  1
  O  O40  1  0.18460800  0.19763200  0.57555400  1
  O  O41  1  0.48697600  0.37792200  0.30236800  1
  O  O42  1  0.89094600  0.01302400  0.31539200  1
  O  O43  1  0.60905400  0.92444600  0.12207800  1
  O  O44  1  0.92444600  0.12207800  0.60905400  1
  O  O45  1  0.30236800  0.48697600  0.37792200  1
  O  O46  1  0.57555400  0.18460800  0.19763200  1
  O  O47  1  0.19763200  0.57555400  0.18460800  1
  O  O48  1  0.01302400  0.31539200  0.89094600  1
  O  O49  1  0.92444600  0.30236800  0.31539200  1
  O  O50  1  0.01302400  0.19763200  0.12207800  1
  O  O51  1  0.81539200  0.80236800  0.42444600  1
  O  O52  1  0.31539200  0.92444600  0.30236800  1
  O  O53  1  0.60905400  0.18460800  0.48697600  1
  O  O54  1  0.19763200  0.12207800  0.01302400  1
  O  O55  1  0.12207800  0.60905400  0.92444600  1
  O  O56  1  0.42444600  0.10905400  0.62207800  1
  O  O57  1  0.62207800  0.42444600  0.10905400  1
  O  O58  1  0.69763200  0.68460800  0.07555400  1
  O  O59  1  0.51302400  0.39094600  0.81539200  1
  O  O60  1  0.68460800  0.10905400  0.98697600  1
  O  O61  1  0.87792200  0.98697600  0.80236800  1
  O  O62  1  0.62207800  0.69763200  0.51302400  1
  O  O63  1  0.10905400  0.62207800  0.42444600  1
  O  O64  1  0.87792200  0.39094600  0.07555400  1
  O  O65  1  0.80236800  0.87792200  0.98697600  1
  O  O66  1  0.39094600  0.81539200  0.51302400  1
  O  O67  1  0.68460800  0.07555400  0.69763200  1
  O  O68  1  0.81539200  0.51302400  0.39094600  1
  O  O69  1  0.98697600  0.80236800  0.87792200  1
  O  O70  1  0.07555400  0.69763200  0.68460800  1
  O  O71  1  0.98697600  0.68460800  0.10905400  1
  O  O72  1  0.80236800  0.42444600  0.81539200  1
  O  O73  1  0.42444600  0.81539200  0.80236800  1
  O  O74  1  0.69763200  0.51302400  0.62207800  1
  O  O75  1  0.07555400  0.87792200  0.39094600  1
  O  O76  1  0.39094600  0.07555400  0.87792200  1
  O  O77  1  0.10905400  0.98697600  0.68460800  1
  O  O78  1  0.51302400  0.62207800  0.69763200  1
  O  O79  1  0.18460800  0.48697600  0.60905400  1
