# generated using pymatgen
data_Sm(BO2)3
_symmetry_space_group_name_H-M   'P 1'
_cell_length_a   6.38483023
_cell_length_b   6.38483023
_cell_length_c   6.35967276
_cell_angle_alpha   62.56023371
_cell_angle_beta   62.56023371
_cell_angle_gamma   79.17922528
_symmetry_Int_Tables_number   1
_chemical_formula_structural   Sm(BO2)3
_chemical_formula_sum   'Sm2 B6 O12'
_cell_volume   204.10512119
_cell_formula_units_Z   2
loop_
 _symmetry_equiv_pos_site_id
 _symmetry_equiv_pos_as_xyz
  1  'x, y, z'
loop_
 _atom_site_type_symbol
 _atom_site_label
 _atom_site_symmetry_multiplicity
 _atom_site_fract_x
 _atom_site_fract_y
 _atom_site_fract_z
 _atom_site_occupancy
  Sm  Sm0  1  0.79630400  0.20369600  0.25000000  1
  Sm  Sm1  1  0.20369600  0.79630400  0.75000000  1
  B  B2  1  0.33873300  0.20743700  0.08777800  1
  B  B3  1  0.79256300  0.66126700  0.41222200  1
  B  B4  1  0.22254100  0.77745900  0.25000000  1
  B  B5  1  0.77745900  0.22254100  0.75000000  1
  B  B6  1  0.66126700  0.79256300  0.91222200  1
  B  B7  1  0.20743700  0.33873300  0.58777800  1
  O  O8  1  0.21746500  0.99068800  0.29156400  1
  O  O9  1  0.41656000  0.78630500  0.00558500  1
  O  O10  1  0.21369500  0.58344000  0.49441500  1
  O  O11  1  0.58344000  0.21369500  0.99441500  1
  O  O12  1  0.38659600  0.20599500  0.50669800  1
  O  O13  1  0.79400500  0.61340400  0.99330200  1
  O  O14  1  0.61340400  0.79400500  0.49330200  1
  O  O15  1  0.20599500  0.38659600  0.00669800  1
  O  O16  1  0.78253500  0.00931200  0.70843600  1
  O  O17  1  0.99068800  0.21746500  0.79156400  1
  O  O18  1  0.78630500  0.41656000  0.50558500  1
  O  O19  1  0.00931200  0.78253500  0.20843600  1
