# generated using pymatgen
data_Y2Si3(SnO4)3
_symmetry_space_group_name_H-M   'P 1'
_cell_length_a   11.27588458
_cell_length_b   11.27588458
_cell_length_c   11.27588458
_cell_angle_alpha   109.47122063
_cell_angle_beta   109.47122063
_cell_angle_gamma   109.47122063
_symmetry_Int_Tables_number   1
_chemical_formula_structural   Y2Si3(SnO4)3
_chemical_formula_sum   'Y8 Si12 Sn12 O48'
_cell_volume   1103.64646119
_cell_formula_units_Z   4
loop_
 _symmetry_equiv_pos_site_id
 _symmetry_equiv_pos_as_xyz
  1  'x, y, z'
loop_
 _atom_site_type_symbol
 _atom_site_label
 _atom_site_symmetry_multiplicity
 _atom_site_fract_x
 _atom_site_fract_y
 _atom_site_fract_z
 _atom_site_occupancy
  Y  Y0  1  0.00000000  0.00000000  0.50000000  1
  Y  Y1  1  0.00000000  0.00000000  0.00000000  1
  Y  Y2  1  0.50000000  0.00000000  0.00000000  1
  Y  Y3  1  0.00000000  0.50000000  0.00000000  1
  Y  Y4  1  0.50000000  0.50000000  0.00000000  1
  Y  Y5  1  0.00000000  0.50000000  0.50000000  1
  Y  Y6  1  0.50000000  0.00000000  0.50000000  1
  Y  Y7  1  0.50000000  0.50000000  0.50000000  1
  Si  Si8  1  0.12500000  0.87500000  0.25000000  1
  Si  Si9  1  0.25000000  0.12500000  0.87500000  1
  Si  Si10  1  0.75000000  0.37500000  0.62500000  1
  Si  Si11  1  0.62500000  0.37500000  0.25000000  1
  Si  Si12  1  0.62500000  0.75000000  0.37500000  1
  Si  Si13  1  0.37500000  0.62500000  0.75000000  1
  Si  Si14  1  0.12500000  0.75000000  0.87500000  1
  Si  Si15  1  0.75000000  0.87500000  0.12500000  1
  Si  Si16  1  0.87500000  0.25000000  0.12500000  1
  Si  Si17  1  0.37500000  0.25000000  0.62500000  1
  Si  Si18  1  0.25000000  0.62500000  0.37500000  1
  Si  Si19  1  0.87500000  0.12500000  0.75000000  1
  Sn  Sn20  1  0.87500000  0.62500000  0.25000000  1
  Sn  Sn21  1  0.62500000  0.25000000  0.87500000  1
  Sn  Sn22  1  0.87500000  0.75000000  0.62500000  1
  Sn  Sn23  1  0.75000000  0.62500000  0.87500000  1
  Sn  Sn24  1  0.25000000  0.87500000  0.62500000  1
  Sn  Sn25  1  0.62500000  0.87500000  0.75000000  1
  Sn  Sn26  1  0.12500000  0.37500000  0.75000000  1
  Sn  Sn27  1  0.37500000  0.75000000  0.12500000  1
  Sn  Sn28  1  0.12500000  0.25000000  0.37500000  1
  Sn  Sn29  1  0.25000000  0.37500000  0.12500000  1
  Sn  Sn30  1  0.75000000  0.12500000  0.37500000  1
  Sn  Sn31  1  0.37500000  0.12500000  0.25000000  1
  O  O32  1  0.49814200  0.38337500  0.29114900  1
  O  O33  1  0.29300700  0.88523300  0.00185800  1
  O  O34  1  0.61476700  0.90777400  0.11662500  1
  O  O35  1  0.59222600  0.20699300  0.20885100  1
  O  O36  1  0.11662500  0.00185800  0.20885100  1
  O  O37  1  0.20699300  0.20885100  0.59222600  1
  O  O38  1  0.20699300  0.49814200  0.61476700  1
  O  O39  1  0.20885100  0.59222600  0.20699300  1
  O  O40  1  0.38337500  0.59222600  0.88523300  1
  O  O41  1  0.90777400  0.29114900  0.29300700  1
  O  O42  1  0.29114900  0.29300700  0.90777400  1
  O  O43  1  0.20885100  0.11662500  0.00185800  1
  O  O44  1  0.49814200  0.61476700  0.20699300  1
  O  O45  1  0.88523300  0.38337500  0.59222600  1
  O  O46  1  0.00185800  0.20885100  0.11662500  1
  O  O47  1  0.61476700  0.20699300  0.49814200  1
  O  O48  1  0.59222600  0.88523300  0.38337500  1
  O  O49  1  0.00185800  0.29300700  0.88523300  1
  O  O50  1  0.90777400  0.11662500  0.61476700  1
  O  O51  1  0.61662500  0.40777400  0.11476700  1
  O  O52  1  0.38337500  0.29114900  0.49814200  1
  O  O53  1  0.29114900  0.49814200  0.38337500  1
  O  O54  1  0.88523300  0.00185800  0.29300700  1
  O  O55  1  0.29300700  0.90777400  0.29114900  1
  O  O56  1  0.50185800  0.61662500  0.70885100  1
  O  O57  1  0.70699300  0.11476700  0.99814200  1
  O  O58  1  0.38523300  0.09222600  0.88337500  1
  O  O59  1  0.40777400  0.79300700  0.79114900  1
  O  O60  1  0.88337500  0.99814200  0.79114900  1
  O  O61  1  0.79300700  0.79114900  0.40777400  1
  O  O62  1  0.79300700  0.50185800  0.38523300  1
  O  O63  1  0.79114900  0.40777400  0.79300700  1
  O  O64  1  0.70699300  0.09222600  0.70885100  1
  O  O65  1  0.11476700  0.99814200  0.70699300  1
  O  O66  1  0.70885100  0.50185800  0.61662500  1
  O  O67  1  0.61662500  0.70885100  0.50185800  1
  O  O68  1  0.88337500  0.38523300  0.09222600  1
  O  O69  1  0.09222600  0.88337500  0.38523300  1
  O  O70  1  0.99814200  0.70699300  0.11476700  1
  O  O71  1  0.40777400  0.11476700  0.61662500  1
  O  O72  1  0.38523300  0.79300700  0.50185800  1
  O  O73  1  0.99814200  0.79114900  0.88337500  1
  O  O74  1  0.11476700  0.61662500  0.40777400  1
  O  O75  1  0.50185800  0.38523300  0.79300700  1
  O  O76  1  0.79114900  0.88337500  0.99814200  1
  O  O77  1  0.70885100  0.70699300  0.09222600  1
  O  O78  1  0.09222600  0.70885100  0.70699300  1
  O  O79  1  0.11662500  0.61476700  0.90777400  1
