# generated using pymatgen
data_CaSi4NiO10
_symmetry_space_group_name_H-M   'P 1'
_cell_length_a   7.30577800
_cell_length_b   7.30577800
_cell_length_c   15.45442100
_cell_angle_alpha   90.00000000
_cell_angle_beta   90.00000000
_cell_angle_gamma   90.00000000
_symmetry_Int_Tables_number   1
_chemical_formula_structural   CaSi4NiO10
_chemical_formula_sum   'Ca4 Si16 Ni4 O40'
_cell_volume   824.87032745
_cell_formula_units_Z   4
loop_
 _symmetry_equiv_pos_site_id
 _symmetry_equiv_pos_as_xyz
  1  'x, y, z'
loop_
 _atom_site_type_symbol
 _atom_site_label
 _atom_site_symmetry_multiplicity
 _atom_site_fract_x
 _atom_site_fract_y
 _atom_site_fract_z
 _atom_site_occupancy
  Ca  Ca0  1  0.50000000  0.50000000  0.50000000  1
  Ca  Ca1  1  0.00000000  0.00000000  0.50000000  1
  Ca  Ca2  1  0.00000000  0.00000000  0.00000000  1
  Ca  Ca3  1  0.50000000  0.50000000  0.00000000  1
  Si  Si4  1  0.17874800  0.25128700  0.64794100  1
  Si  Si5  1  0.82125200  0.74871300  0.64794100  1
  Si  Si6  1  0.25128700  0.17874800  0.85205900  1
  Si  Si7  1  0.75128700  0.32125200  0.64794100  1
  Si  Si8  1  0.24871300  0.67874800  0.64794100  1
  Si  Si9  1  0.32125200  0.75128700  0.85205900  1
  Si  Si10  1  0.67874800  0.24871300  0.85205900  1
  Si  Si11  1  0.74871300  0.82125200  0.85205900  1
  Si  Si12  1  0.32125200  0.24871300  0.35205900  1
  Si  Si13  1  0.67874800  0.75128700  0.35205900  1
  Si  Si14  1  0.24871300  0.32125200  0.14794100  1
  Si  Si15  1  0.74871300  0.17874800  0.35205900  1
  Si  Si16  1  0.25128700  0.82125200  0.35205900  1
  Si  Si17  1  0.17874800  0.74871300  0.14794100  1
  Si  Si18  1  0.82125200  0.25128700  0.14794100  1
  Si  Si19  1  0.75128700  0.67874800  0.14794100  1
  Ni  Ni20  1  0.50000000  0.00000000  0.58424500  1
  Ni  Ni21  1  0.00000000  0.50000000  0.91575500  1
  Ni  Ni22  1  0.00000000  0.50000000  0.41575500  1
  Ni  Ni23  1  0.50000000  0.00000000  0.08424500  1
  O  O24  1  0.25956000  0.09924400  0.58317400  1
  O  O25  1  0.74044000  0.90075600  0.58317400  1
  O  O26  1  0.09924400  0.25956000  0.91682600  1
  O  O27  1  0.59924400  0.24044000  0.58317400  1
  O  O28  1  0.40075600  0.75956000  0.58317400  1
  O  O29  1  0.24044000  0.59924400  0.91682600  1
  O  O30  1  0.75956000  0.40075600  0.91682600  1
  O  O31  1  0.90075600  0.74044000  0.91682600  1
  O  O32  1  0.24044000  0.40075600  0.41682600  1
  O  O33  1  0.75956000  0.59924400  0.41682600  1
  O  O34  1  0.40075600  0.24044000  0.08317400  1
  O  O35  1  0.90075600  0.25956000  0.41682600  1
  O  O36  1  0.09924400  0.74044000  0.41682600  1
  O  O37  1  0.25956000  0.90075600  0.08317400  1
  O  O38  1  0.74044000  0.09924400  0.08317400  1
  O  O39  1  0.24456000  0.04238400  0.37367000  1
  O  O40  1  0.59924400  0.75956000  0.08317400  1
  O  O41  1  0.74456000  0.54238400  0.62633000  1
  O  O42  1  0.45761600  0.25544000  0.87367000  1
  O  O43  1  0.95761600  0.24456000  0.62633000  1
  O  O44  1  0.04238400  0.75544000  0.62633000  1
  O  O45  1  0.24456000  0.95761600  0.87367000  1
  O  O46  1  0.75544000  0.04238400  0.87367000  1
  O  O47  1  0.54238400  0.74456000  0.87367000  1
  O  O48  1  0.71099200  0.71099200  0.25000000  1
  O  O49  1  0.78900800  0.21099200  0.25000000  1
  O  O50  1  0.21099200  0.78900800  0.25000000  1
  O  O51  1  0.28900800  0.28900800  0.25000000  1
  O  O52  1  0.78900800  0.78900800  0.75000000  1
  O  O53  1  0.71099200  0.28900800  0.75000000  1
  O  O54  1  0.28900800  0.71099200  0.75000000  1
  O  O55  1  0.21099200  0.21099200  0.75000000  1
  O  O56  1  0.95761600  0.75544000  0.12633000  1
  O  O57  1  0.74456000  0.45761600  0.12633000  1
  O  O58  1  0.25544000  0.54238400  0.12633000  1
  O  O59  1  0.45761600  0.74456000  0.37367000  1
  O  O60  1  0.54238400  0.25544000  0.37367000  1
  O  O61  1  0.04238400  0.24456000  0.12633000  1
  O  O62  1  0.75544000  0.95761600  0.37367000  1
  O  O63  1  0.25544000  0.45761600  0.62633000  1
