# generated using pymatgen
data_Ca3Si3(WO6)2
_symmetry_space_group_name_H-M   'P 1'
_cell_length_a   10.80496075
_cell_length_b   10.80496075
_cell_length_c   10.80496075
_cell_angle_alpha   109.47122063
_cell_angle_beta   109.47122063
_cell_angle_gamma   109.47122063
_symmetry_Int_Tables_number   1
_chemical_formula_structural   Ca3Si3(WO6)2
_chemical_formula_sum   'Ca12 Si12 W8 O48'
_cell_volume   971.06363473
_cell_formula_units_Z   4
loop_
 _symmetry_equiv_pos_site_id
 _symmetry_equiv_pos_as_xyz
  1  'x, y, z'
loop_
 _atom_site_type_symbol
 _atom_site_label
 _atom_site_symmetry_multiplicity
 _atom_site_fract_x
 _atom_site_fract_y
 _atom_site_fract_z
 _atom_site_occupancy
  Ca  Ca0  1  0.25000000  0.37500000  0.12500000  1
  Ca  Ca1  1  0.75000000  0.12500000  0.37500000  1
  Ca  Ca2  1  0.37500000  0.12500000  0.25000000  1
  Ca  Ca3  1  0.12500000  0.37500000  0.75000000  1
  Ca  Ca4  1  0.25000000  0.87500000  0.62500000  1
  Ca  Ca5  1  0.12500000  0.25000000  0.37500000  1
  Ca  Ca6  1  0.62500000  0.25000000  0.87500000  1
  Ca  Ca7  1  0.75000000  0.62500000  0.87500000  1
  Ca  Ca8  1  0.87500000  0.75000000  0.62500000  1
  Ca  Ca9  1  0.87500000  0.62500000  0.25000000  1
  Ca  Ca10  1  0.62500000  0.87500000  0.75000000  1
  Ca  Ca11  1  0.37500000  0.75000000  0.12500000  1
  Si  Si12  1  0.12500000  0.75000000  0.87500000  1
  Si  Si13  1  0.87500000  0.25000000  0.12500000  1
  Si  Si14  1  0.75000000  0.37500000  0.62500000  1
  Si  Si15  1  0.12500000  0.87500000  0.25000000  1
  Si  Si16  1  0.25000000  0.12500000  0.87500000  1
  Si  Si17  1  0.37500000  0.62500000  0.75000000  1
  Si  Si18  1  0.37500000  0.25000000  0.62500000  1
  Si  Si19  1  0.87500000  0.12500000  0.75000000  1
  Si  Si20  1  0.62500000  0.37500000  0.25000000  1
  Si  Si21  1  0.75000000  0.87500000  0.12500000  1
  Si  Si22  1  0.25000000  0.62500000  0.37500000  1
  Si  Si23  1  0.62500000  0.75000000  0.37500000  1
  W  W24  1  0.50000000  0.00000000  0.00000000  1
  W  W25  1  0.50000000  0.50000000  0.00000000  1
  W  W26  1  0.00000000  0.50000000  0.50000000  1
  W  W27  1  0.00000000  0.00000000  0.50000000  1
  W  W28  1  0.50000000  0.50000000  0.50000000  1
  W  W29  1  0.00000000  0.50000000  0.00000000  1
  W  W30  1  0.50000000  0.00000000  0.50000000  1
  W  W31  1  0.00000000  0.00000000  0.00000000  1
  O  O32  1  0.59210500  0.89052000  0.37977200  1
  O  O33  1  0.37977200  0.59210500  0.89052000  1
  O  O34  1  0.28766700  0.29841500  0.90789500  1
  O  O35  1  0.48925200  0.60948000  0.20158500  1
  O  O36  1  0.29841500  0.89052000  0.01074800  1
  O  O37  1  0.12022800  0.01074800  0.21233300  1
  O  O38  1  0.37977200  0.28766700  0.48925200  1
  O  O39  1  0.89052000  0.37977200  0.59210500  1
  O  O40  1  0.20158500  0.21233300  0.59210500  1
  O  O41  1  0.48925200  0.37977200  0.28766700  1
  O  O42  1  0.89052000  0.01074800  0.29841500  1
  O  O43  1  0.60948000  0.90789500  0.12022800  1
  O  O44  1  0.90789500  0.12022800  0.60948000  1
  O  O45  1  0.28766700  0.48925200  0.37977200  1
  O  O46  1  0.59210500  0.20158500  0.21233300  1
  O  O47  1  0.21233300  0.59210500  0.20158500  1
  O  O48  1  0.01074800  0.29841500  0.89052000  1
  O  O49  1  0.90789500  0.28766700  0.29841500  1
  O  O50  1  0.01074800  0.21233300  0.12022800  1
  O  O51  1  0.79841500  0.78766700  0.40789500  1
  O  O52  1  0.20158500  0.48925200  0.60948000  1
  O  O53  1  0.60948000  0.20158500  0.48925200  1
  O  O54  1  0.21233300  0.12022800  0.01074800  1
  O  O55  1  0.12022800  0.60948000  0.90789500  1
  O  O56  1  0.40789500  0.10948000  0.62022800  1
  O  O57  1  0.62022800  0.40789500  0.10948000  1
  O  O58  1  0.71233300  0.70158500  0.09210500  1
  O  O59  1  0.51074800  0.39052000  0.79841500  1
  O  O60  1  0.70158500  0.10948000  0.98925200  1
  O  O61  1  0.87977200  0.98925200  0.78766700  1
  O  O62  1  0.62022800  0.71233300  0.51074800  1
  O  O63  1  0.10948000  0.62022800  0.40789500  1
  O  O64  1  0.87977200  0.39052000  0.09210500  1
  O  O65  1  0.78766700  0.87977200  0.98925200  1
  O  O66  1  0.39052000  0.79841500  0.51074800  1
  O  O67  1  0.70158500  0.09210500  0.71233300  1
  O  O68  1  0.79841500  0.51074800  0.39052000  1
  O  O69  1  0.98925200  0.78766700  0.87977200  1
  O  O70  1  0.09210500  0.71233300  0.70158500  1
  O  O71  1  0.98925200  0.70158500  0.10948000  1
  O  O72  1  0.78766700  0.40789500  0.79841500  1
  O  O73  1  0.40789500  0.79841500  0.78766700  1
  O  O74  1  0.71233300  0.51074800  0.62022800  1
  O  O75  1  0.09210500  0.87977200  0.39052000  1
  O  O76  1  0.39052000  0.09210500  0.87977200  1
  O  O77  1  0.10948000  0.98925200  0.70158500  1
  O  O78  1  0.51074800  0.62022800  0.71233300  1
  O  O79  1  0.29841500  0.90789500  0.28766700  1
