# generated using pymatgen
data_La2MgGeO6
_symmetry_space_group_name_H-M   'P 1'
_cell_length_a   5.51795559
_cell_length_b   5.51795559
_cell_length_c   5.51795611
_cell_angle_alpha   60.75349690
_cell_angle_beta   60.75349690
_cell_angle_gamma   60.75349201
_symmetry_Int_Tables_number   1
_chemical_formula_structural   La2MgGeO6
_chemical_formula_sum   'La2 Mg1 Ge1 O6'
_cell_volume   120.82054890
_cell_formula_units_Z   1
loop_
 _symmetry_equiv_pos_site_id
 _symmetry_equiv_pos_as_xyz
  1  'x, y, z'
loop_
 _atom_site_type_symbol
 _atom_site_label
 _atom_site_symmetry_multiplicity
 _atom_site_fract_x
 _atom_site_fract_y
 _atom_site_fract_z
 _atom_site_occupancy
  La  La0  1  0.74941700  0.74941700  0.74941700  1
  La  La1  1  0.25058300  0.25058300  0.25058300  1
  Mg  Mg2  1  0.00000000  0.00000000  0.00000000  1
  Ge  Ge3  1  0.50000000  0.50000000  0.50000000  1
  O  O4  1  0.80661200  0.26351700  0.67509900  1
  O  O5  1  0.67509900  0.80661200  0.26351700  1
  O  O6  1  0.26351700  0.67509900  0.80661200  1
  O  O7  1  0.73648300  0.32490100  0.19338800  1
  O  O8  1  0.32490100  0.19338800  0.73648300  1
  O  O9  1  0.19338800  0.73648300  0.32490100  1
