# generated using pymatgen
data_CaV(Si2O5)2
_symmetry_space_group_name_H-M   'P 1'
_cell_length_a   7.48291300
_cell_length_b   7.48291300
_cell_length_c   15.43614800
_cell_angle_alpha   90.00000000
_cell_angle_beta   90.00000000
_cell_angle_gamma   90.00000000
_symmetry_Int_Tables_number   1
_chemical_formula_structural   CaV(Si2O5)2
_chemical_formula_sum   'Ca4 V4 Si16 O40'
_cell_volume   864.33146991
_cell_formula_units_Z   4
loop_
 _symmetry_equiv_pos_site_id
 _symmetry_equiv_pos_as_xyz
  1  'x, y, z'
loop_
 _atom_site_type_symbol
 _atom_site_label
 _atom_site_symmetry_multiplicity
 _atom_site_fract_x
 _atom_site_fract_y
 _atom_site_fract_z
 _atom_site_occupancy
  Ca  Ca0  1  0.50000000  0.50000000  0.50000000  1
  Ca  Ca1  1  0.00000000  0.00000000  0.50000000  1
  Ca  Ca2  1  0.00000000  0.00000000  0.00000000  1
  Ca  Ca3  1  0.50000000  0.50000000  0.00000000  1
  V  V4  1  0.50000000  0.00000000  0.58126400  1
  V  V5  1  0.00000000  0.50000000  0.91873600  1
  V  V6  1  0.00000000  0.50000000  0.41873600  1
  V  V7  1  0.50000000  0.00000000  0.08126400  1
  Si  Si8  1  0.16941500  0.25211700  0.64883500  1
  Si  Si9  1  0.83058500  0.74788300  0.64883500  1
  Si  Si10  1  0.25211700  0.16941500  0.85116500  1
  Si  Si11  1  0.75211700  0.33058500  0.64883500  1
  Si  Si12  1  0.24788300  0.66941500  0.64883500  1
  Si  Si13  1  0.33058500  0.75211700  0.85116500  1
  Si  Si14  1  0.66941500  0.24788300  0.85116500  1
  Si  Si15  1  0.74788300  0.83058500  0.85116500  1
  Si  Si16  1  0.33058500  0.24788300  0.35116500  1
  Si  Si17  1  0.66941500  0.75211700  0.35116500  1
  Si  Si18  1  0.24788300  0.33058500  0.14883500  1
  Si  Si19  1  0.74788300  0.16941500  0.35116500  1
  Si  Si20  1  0.25211700  0.83058500  0.35116500  1
  Si  Si21  1  0.16941500  0.74788300  0.14883500  1
  Si  Si22  1  0.83058500  0.25211700  0.14883500  1
  Si  Si23  1  0.75211700  0.66941500  0.14883500  1
  O  O24  1  0.24795400  0.10716400  0.58194100  1
  O  O25  1  0.75204600  0.89283600  0.58194100  1
  O  O26  1  0.10716400  0.24795400  0.91805900  1
  O  O27  1  0.60716400  0.25204600  0.58194100  1
  O  O28  1  0.39283600  0.74795400  0.58194100  1
  O  O29  1  0.25204600  0.60716400  0.91805900  1
  O  O30  1  0.74795400  0.39283600  0.91805900  1
  O  O31  1  0.89283600  0.75204600  0.91805900  1
  O  O32  1  0.25204600  0.39283600  0.41805900  1
  O  O33  1  0.74795400  0.60716400  0.41805900  1
  O  O34  1  0.39283600  0.25204600  0.08194100  1
  O  O35  1  0.89283600  0.24795400  0.41805900  1
  O  O36  1  0.10716400  0.75204600  0.41805900  1
  O  O37  1  0.24795400  0.89283600  0.08194100  1
  O  O38  1  0.75204600  0.10716400  0.08194100  1
  O  O39  1  0.25114300  0.04727800  0.37086200  1
  O  O40  1  0.60716400  0.74795400  0.08194100  1
  O  O41  1  0.75114300  0.54727800  0.62913800  1
  O  O42  1  0.45272200  0.24885700  0.87086200  1
  O  O43  1  0.95272200  0.25114300  0.62913800  1
  O  O44  1  0.04727800  0.74885700  0.62913800  1
  O  O45  1  0.25114300  0.95272200  0.87086200  1
  O  O46  1  0.74885700  0.04727800  0.87086200  1
  O  O47  1  0.54727800  0.75114300  0.87086200  1
  O  O48  1  0.70501100  0.70501100  0.25000000  1
  O  O49  1  0.79498900  0.20501100  0.25000000  1
  O  O50  1  0.20501100  0.79498900  0.25000000  1
  O  O51  1  0.29498900  0.29498900  0.25000000  1
  O  O52  1  0.79498900  0.79498900  0.75000000  1
  O  O53  1  0.70501100  0.29498900  0.75000000  1
  O  O54  1  0.29498900  0.70501100  0.75000000  1
  O  O55  1  0.20501100  0.20501100  0.75000000  1
  O  O56  1  0.95272200  0.74885700  0.12913800  1
  O  O57  1  0.75114300  0.45272200  0.12913800  1
  O  O58  1  0.24885700  0.54727800  0.12913800  1
  O  O59  1  0.45272200  0.75114300  0.37086200  1
  O  O60  1  0.54727800  0.24885700  0.37086200  1
  O  O61  1  0.04727800  0.25114300  0.12913800  1
  O  O62  1  0.74885700  0.95272200  0.37086200  1
  O  O63  1  0.24885700  0.45272200  0.62913800  1
