# generated using pymatgen
data_Zr2Fe
_symmetry_space_group_name_H-M   'P 1'
_cell_length_a   5.28499578
_cell_length_b   5.28499578
_cell_length_c   5.28499578
_cell_angle_alpha   107.13033048
_cell_angle_beta   107.13033048
_cell_angle_gamma   114.26185541
_symmetry_Int_Tables_number   1
_chemical_formula_structural   Zr2Fe
_chemical_formula_sum   'Zr4 Fe2'
_cell_volume   113.03403368
_cell_formula_units_Z   2
loop_
 _symmetry_equiv_pos_site_id
 _symmetry_equiv_pos_as_xyz
  1  'x, y, z'
loop_
 _atom_site_type_symbol
 _atom_site_label
 _atom_site_symmetry_multiplicity
 _atom_site_fract_x
 _atom_site_fract_y
 _atom_site_fract_z
 _atom_site_occupancy
  Zr  Zr0  1  0.67828400  0.17828400  0.85656700  1
  Zr  Zr1  1  0.32171600  0.82171600  0.14343300  1
  Zr  Zr2  1  0.82171600  0.67828400  0.50000000  1
  Zr  Zr3  1  0.17828400  0.32171600  0.50000000  1
  Fe  Fe4  1  0.75000000  0.75000000  0.00000000  1
  Fe  Fe5  1  0.25000000  0.25000000  0.00000000  1
