# generated using pymatgen
data_Zn3Si3(SbO6)2
_symmetry_space_group_name_H-M   'P 1'
_cell_length_a   10.72892026
_cell_length_b   10.72892026
_cell_length_c   10.72892026
_cell_angle_alpha   109.47122063
_cell_angle_beta   109.47122063
_cell_angle_gamma   109.47122063
_symmetry_Int_Tables_number   1
_chemical_formula_structural   Zn3Si3(SbO6)2
_chemical_formula_sum   'Zn12 Si12 Sb8 O48'
_cell_volume   950.70584012
_cell_formula_units_Z   4
loop_
 _symmetry_equiv_pos_site_id
 _symmetry_equiv_pos_as_xyz
  1  'x, y, z'
loop_
 _atom_site_type_symbol
 _atom_site_label
 _atom_site_symmetry_multiplicity
 _atom_site_fract_x
 _atom_site_fract_y
 _atom_site_fract_z
 _atom_site_occupancy
  Zn  Zn0  1  0.25000000  0.37500000  0.12500000  1
  Zn  Zn1  1  0.75000000  0.12500000  0.37500000  1
  Zn  Zn2  1  0.37500000  0.12500000  0.25000000  1
  Zn  Zn3  1  0.12500000  0.37500000  0.75000000  1
  Zn  Zn4  1  0.25000000  0.87500000  0.62500000  1
  Zn  Zn5  1  0.12500000  0.25000000  0.37500000  1
  Zn  Zn6  1  0.62500000  0.25000000  0.87500000  1
  Zn  Zn7  1  0.75000000  0.62500000  0.87500000  1
  Zn  Zn8  1  0.87500000  0.75000000  0.62500000  1
  Zn  Zn9  1  0.87500000  0.62500000  0.25000000  1
  Zn  Zn10  1  0.62500000  0.87500000  0.75000000  1
  Zn  Zn11  1  0.37500000  0.75000000  0.12500000  1
  Si  Si12  1  0.12500000  0.75000000  0.87500000  1
  Si  Si13  1  0.87500000  0.25000000  0.12500000  1
  Si  Si14  1  0.75000000  0.37500000  0.62500000  1
  Si  Si15  1  0.12500000  0.87500000  0.25000000  1
  Si  Si16  1  0.25000000  0.12500000  0.87500000  1
  Si  Si17  1  0.37500000  0.62500000  0.75000000  1
  Si  Si18  1  0.37500000  0.25000000  0.62500000  1
  Si  Si19  1  0.87500000  0.12500000  0.75000000  1
  Si  Si20  1  0.62500000  0.37500000  0.25000000  1
  Si  Si21  1  0.75000000  0.87500000  0.12500000  1
  Si  Si22  1  0.25000000  0.62500000  0.37500000  1
  Si  Si23  1  0.62500000  0.75000000  0.37500000  1
  Sb  Sb24  1  0.50000000  0.00000000  0.00000000  1
  Sb  Sb25  1  0.50000000  0.50000000  0.00000000  1
  Sb  Sb26  1  0.00000000  0.50000000  0.50000000  1
  Sb  Sb27  1  0.00000000  0.00000000  0.50000000  1
  Sb  Sb28  1  0.50000000  0.50000000  0.50000000  1
  Sb  Sb29  1  0.00000000  0.50000000  0.00000000  1
  Sb  Sb30  1  0.50000000  0.00000000  0.50000000  1
  Sb  Sb31  1  0.00000000  0.00000000  0.00000000  1
  O  O32  1  0.59734800  0.89248100  0.36943900  1
  O  O33  1  0.36943900  0.59734800  0.89248100  1
  O  O34  1  0.27209200  0.29513300  0.90265200  1
  O  O35  1  0.47695800  0.60751900  0.20486700  1
  O  O36  1  0.29513300  0.89248100  0.02304200  1
  O  O37  1  0.13056100  0.02304200  0.22790800  1
  O  O38  1  0.36943900  0.27209200  0.47695800  1
  O  O39  1  0.89248100  0.36943900  0.59734800  1
  O  O40  1  0.20486700  0.22790800  0.59734800  1
  O  O41  1  0.47695800  0.36943900  0.27209200  1
  O  O42  1  0.89248100  0.02304200  0.29513300  1
  O  O43  1  0.60751900  0.90265200  0.13056100  1
  O  O44  1  0.90265200  0.13056100  0.60751900  1
  O  O45  1  0.27209200  0.47695800  0.36943900  1
  O  O46  1  0.59734800  0.20486700  0.22790800  1
  O  O47  1  0.22790800  0.59734800  0.20486700  1
  O  O48  1  0.02304200  0.29513300  0.89248100  1
  O  O49  1  0.90265200  0.27209200  0.29513300  1
  O  O50  1  0.02304200  0.22790800  0.13056100  1
  O  O51  1  0.79513300  0.77209200  0.40265200  1
  O  O52  1  0.20486700  0.47695800  0.60751900  1
  O  O53  1  0.60751900  0.20486700  0.47695800  1
  O  O54  1  0.22790800  0.13056100  0.02304200  1
  O  O55  1  0.13056100  0.60751900  0.90265200  1
  O  O56  1  0.40265200  0.10751900  0.63056100  1
  O  O57  1  0.63056100  0.40265200  0.10751900  1
  O  O58  1  0.72790800  0.70486700  0.09734800  1
  O  O59  1  0.52304200  0.39248100  0.79513300  1
  O  O60  1  0.70486700  0.10751900  0.97695800  1
  O  O61  1  0.86943900  0.97695800  0.77209200  1
  O  O62  1  0.63056100  0.72790800  0.52304200  1
  O  O63  1  0.10751900  0.63056100  0.40265200  1
  O  O64  1  0.86943900  0.39248100  0.09734800  1
  O  O65  1  0.77209200  0.86943900  0.97695800  1
  O  O66  1  0.39248100  0.79513300  0.52304200  1
  O  O67  1  0.70486700  0.09734800  0.72790800  1
  O  O68  1  0.79513300  0.52304200  0.39248100  1
  O  O69  1  0.97695800  0.77209200  0.86943900  1
  O  O70  1  0.09734800  0.72790800  0.70486700  1
  O  O71  1  0.97695800  0.70486700  0.10751900  1
  O  O72  1  0.77209200  0.40265200  0.79513300  1
  O  O73  1  0.40265200  0.79513300  0.77209200  1
  O  O74  1  0.72790800  0.52304200  0.63056100  1
  O  O75  1  0.09734800  0.86943900  0.39248100  1
  O  O76  1  0.39248100  0.09734800  0.86943900  1
  O  O77  1  0.10751900  0.97695800  0.70486700  1
  O  O78  1  0.52304200  0.63056100  0.72790800  1
  O  O79  1  0.29513300  0.90265200  0.27209200  1
