# generated using pymatgen
data_Mn3Al(SiO4)3
_symmetry_space_group_name_H-M   'P 1'
_cell_length_a   10.09073921
_cell_length_b   10.09073921
_cell_length_c   10.09073921
_cell_angle_alpha   109.47122063
_cell_angle_beta   109.47122063
_cell_angle_gamma   109.47122063
_symmetry_Int_Tables_number   1
_chemical_formula_structural   Mn3Al(SiO4)3
_chemical_formula_sum   'Mn12 Al4 Si12 O48'
_cell_volume   790.94640424
_cell_formula_units_Z   4
loop_
 _symmetry_equiv_pos_site_id
 _symmetry_equiv_pos_as_xyz
  1  'x, y, z'
loop_
 _atom_site_type_symbol
 _atom_site_label
 _atom_site_symmetry_multiplicity
 _atom_site_fract_x
 _atom_site_fract_y
 _atom_site_fract_z
 _atom_site_occupancy
  Mn  Mn0  1  0.39152500  0.14152500  0.25000000  1
  Mn  Mn1  1  0.75000000  0.10847500  0.35847500  1
  Mn  Mn2  1  0.25000000  0.39152500  0.14152500  1
  Mn  Mn3  1  0.35847500  0.75000000  0.10847500  1
  Mn  Mn4  1  0.10847500  0.35847500  0.75000000  1
  Mn  Mn5  1  0.14152500  0.25000000  0.39152500  1
  Mn  Mn6  1  0.64152500  0.25000000  0.89152500  1
  Mn  Mn7  1  0.25000000  0.89152500  0.64152500  1
  Mn  Mn8  1  0.60847500  0.85847500  0.75000000  1
  Mn  Mn9  1  0.89152500  0.64152500  0.25000000  1
  Mn  Mn10  1  0.85847500  0.75000000  0.60847500  1
  Mn  Mn11  1  0.75000000  0.60847500  0.85847500  1
  Al  Al12  1  0.50000000  0.00000000  0.50000000  1
  Al  Al13  1  0.00000000  0.00000000  0.00000000  1
  Al  Al14  1  0.00000000  0.50000000  0.50000000  1
  Al  Al15  1  0.50000000  0.50000000  0.00000000  1
  Si  Si16  1  0.62912800  0.37912800  0.25000000  1
  Si  Si17  1  0.87087200  0.12087200  0.75000000  1
  Si  Si18  1  0.25000000  0.62912800  0.37912800  1
  Si  Si19  1  0.62087200  0.75000000  0.37087200  1
  Si  Si20  1  0.37912800  0.25000000  0.62912800  1
  Si  Si21  1  0.37087200  0.62087200  0.75000000  1
  Si  Si22  1  0.25000000  0.12912800  0.87912800  1
  Si  Si23  1  0.12912800  0.87912800  0.25000000  1
  Si  Si24  1  0.75000000  0.37087200  0.62087200  1
  Si  Si25  1  0.87912800  0.25000000  0.12912800  1
  Si  Si26  1  0.75000000  0.87087200  0.12087200  1
  Si  Si27  1  0.12087200  0.75000000  0.87087200  1
  O  O28  1  0.57737800  0.89489700  0.37668500  1
  O  O29  1  0.37668500  0.57737800  0.89489700  1
  O  O30  1  0.29930800  0.31752000  0.92262200  1
  O  O31  1  0.48178800  0.60510300  0.18248000  1
  O  O32  1  0.30217200  0.89417900  0.02799900  1
  O  O33  1  0.12331500  0.01821200  0.20069200  1
  O  O34  1  0.36618000  0.27417400  0.47200100  1
  O  O35  1  0.89489700  0.37668500  0.57737800  1
  O  O36  1  0.19782800  0.22582600  0.59200700  1
  O  O37  1  0.47200100  0.36618000  0.27417400  1
  O  O38  1  0.89417900  0.02799900  0.30217200  1
  O  O39  1  0.60582100  0.90799300  0.13382000  1
  O  O40  1  0.90799300  0.13382000  0.60582100  1
  O  O41  1  0.27417400  0.47200100  0.36618000  1
  O  O42  1  0.59200700  0.19782800  0.22582600  1
  O  O43  1  0.22582600  0.59200700  0.19782800  1
  O  O44  1  0.02799900  0.30217200  0.89417900  1
  O  O45  1  0.92262200  0.29930800  0.31752000  1
  O  O46  1  0.01821200  0.20069200  0.12331500  1
  O  O47  1  0.80217200  0.77417400  0.40799300  1
  O  O48  1  0.18248000  0.48178800  0.60510300  1
  O  O49  1  0.60510300  0.18248000  0.48178800  1
  O  O50  1  0.20069200  0.12331500  0.01821200  1
  O  O51  1  0.13382000  0.60582100  0.90799300  1
  O  O52  1  0.42262200  0.10510300  0.62331500  1
  O  O53  1  0.62331500  0.42262200  0.10510300  1
  O  O54  1  0.70069200  0.68248000  0.07737800  1
  O  O55  1  0.51821200  0.39489700  0.81752000  1
  O  O56  1  0.69782800  0.10582100  0.97200100  1
  O  O57  1  0.87668500  0.98178800  0.79930800  1
  O  O58  1  0.63382000  0.72582600  0.52799900  1
  O  O59  1  0.10510300  0.62331500  0.42262200  1
  O  O60  1  0.86618000  0.39417900  0.09200700  1
  O  O61  1  0.79930800  0.87668500  0.98178800  1
  O  O62  1  0.39489700  0.81752000  0.51821200  1
  O  O63  1  0.68248000  0.07737800  0.70069200  1
  O  O64  1  0.81752000  0.51821200  0.39489700  1
  O  O65  1  0.98178800  0.79930800  0.87668500  1
  O  O66  1  0.07737800  0.70069200  0.68248000  1
  O  O67  1  0.97200100  0.69782800  0.10582100  1
  O  O68  1  0.77417400  0.40799300  0.80217200  1
  O  O69  1  0.40799300  0.80217200  0.77417400  1
  O  O70  1  0.72582600  0.52799900  0.63382000  1
  O  O71  1  0.09200700  0.86618000  0.39417900  1
  O  O72  1  0.39417900  0.09200700  0.86618000  1
  O  O73  1  0.10582100  0.97200100  0.69782800  1
  O  O74  1  0.52799900  0.63382000  0.72582600  1
  O  O75  1  0.31752000  0.92262200  0.29930800  1
