# generated using pymatgen
data_MgFe(SiO3)2
_symmetry_space_group_name_H-M   'P 1'
_cell_length_a   5.31425105
_cell_length_b   9.59372388
_cell_length_c   9.25547147
_cell_angle_alpha   90.02141727
_cell_angle_beta   90.01077737
_cell_angle_gamma   103.34145110
_symmetry_Int_Tables_number   1
_chemical_formula_structural   MgFe(SiO3)2
_chemical_formula_sum   'Mg4 Fe4 Si8 O24'
_cell_volume   459.14098361
_cell_formula_units_Z   4
loop_
 _symmetry_equiv_pos_site_id
 _symmetry_equiv_pos_as_xyz
  1  'x, y, z'
loop_
 _atom_site_type_symbol
 _atom_site_label
 _atom_site_symmetry_multiplicity
 _atom_site_fract_x
 _atom_site_fract_y
 _atom_site_fract_z
 _atom_site_occupancy
  Mg  Mg0  1  0.24997900  0.49995900  0.25556700  1
  Mg  Mg1  1  0.75000800  0.99993600  0.75554400  1
  Mg  Mg2  1  0.75007600  0.50002000  0.74447300  1
  Mg  Mg3  1  0.24995100  0.00004400  0.24440000  1
  Fe  Fe4  1  0.25001700  0.99998300  0.89891500  1
  Fe  Fe5  1  0.75000200  0.00004900  0.10102300  1
  Fe  Fe6  1  0.75002400  0.50002600  0.39898400  1
  Fe  Fe7  1  0.24995500  0.49998800  0.60105800  1
  Si  Si8  1  0.54053000  0.29913600  0.08700400  1
  Si  Si9  1  0.04050400  0.79913000  0.58705100  1
  Si  Si10  1  0.95945900  0.70084700  0.08706500  1
  Si  Si11  1  0.45958900  0.20087400  0.58700400  1
  Si  Si12  1  0.04053800  0.29919600  0.91291500  1
  Si  Si13  1  0.54036600  0.79908900  0.41303600  1
  Si  Si14  1  0.45955400  0.70084600  0.91301600  1
  Si  Si15  1  0.95947200  0.20088100  0.41295500  1
  O  O16  1  0.84492900  0.35071400  0.03196500  1
  O  O17  1  0.34496400  0.85071800  0.53212700  1
  O  O18  1  0.65502900  0.64921600  0.03202500  1
  O  O19  1  0.15507300  0.14926600  0.53193700  1
  O  O20  1  0.15506500  0.64930200  0.96800800  1
  O  O21  1  0.65507700  0.14927200  0.46794600  1
  O  O22  1  0.34500200  0.35076200  0.96800300  1
  O  O23  1  0.84490400  0.85074000  0.46804700  1
  O  O24  1  0.50746000  0.38036800  0.23647100  1
  O  O25  1  0.00754400  0.88043200  0.73654200  1
  O  O26  1  0.99254200  0.61959700  0.23647800  1
  O  O27  1  0.49266300  0.11964300  0.73645300  1
  O  O28  1  0.49258200  0.61961300  0.76353900  1
  O  O29  1  0.99239000  0.11961500  0.26340000  1
  O  O30  1  0.00752400  0.38049000  0.76348400  1
  O  O31  1  0.50713600  0.88022300  0.26357500  1
  O  O32  1  0.96447900  0.12305600  0.90827000  1
  O  O33  1  0.46419800  0.62291500  0.40861000  1
  O  O34  1  0.53589800  0.87704300  0.90853900  1
  O  O35  1  0.03572000  0.37701400  0.40847100  1
  O  O36  1  0.46436100  0.12299300  0.09154600  1
  O  O37  1  0.96418200  0.62299800  0.59151300  1
  O  O38  1  0.03547000  0.87699200  0.09151400  1
  O  O39  1  0.53578100  0.37701700  0.59152300  1
