# generated using pymatgen
data_Sr6La14Mn17(SnO20)3
_symmetry_space_group_name_H-M   'P 1'
_cell_length_a   5.59241709
_cell_length_b   5.57028426
_cell_length_c   55.96387204
_cell_angle_alpha   61.06860112
_cell_angle_beta   60.64900189
_cell_angle_gamma   60.67033218
_symmetry_Int_Tables_number   1
_chemical_formula_structural   Sr6La14Mn17(SnO20)3
_chemical_formula_sum   'Sr6 La14 Mn17 Sn3 O60'
_cell_volume   1254.82544235
_cell_formula_units_Z   1
loop_
 _symmetry_equiv_pos_site_id
 _symmetry_equiv_pos_as_xyz
  1  'x, y, z'
loop_
 _atom_site_type_symbol
 _atom_site_label
 _atom_site_symmetry_multiplicity
 _atom_site_fract_x
 _atom_site_fract_y
 _atom_site_fract_z
 _atom_site_occupancy
  Sr  Sr0  1  0.26206115  0.25764955  0.02238628  1
  Sr  Sr1  1  0.24510869  0.25274410  0.12364993  1
  Sr  Sr2  1  0.24716631  0.24386804  0.62702729  1
  Sr  Sr3  1  0.25030306  0.24868013  0.72527204  1
  Sr  Sr4  1  0.25287169  0.25250510  0.82389824  1
  Sr  Sr5  1  0.26348412  0.26582995  0.92050450  1
  La  La6  1  0.24670881  0.23087020  0.22839854  1
  La  La7  1  0.74213536  0.75824459  0.07227731  1
  La  La8  1  0.24344121  0.24492072  0.32720631  1
  La  La9  1  0.75269841  0.75371583  0.17370474  1
  La  La10  1  0.24679799  0.24696666  0.42666958  1
  La  La11  1  0.74288913  0.73465774  0.27888534  1
  La  La12  1  0.24114223  0.24494677  0.52790819  1
  La  La13  1  0.74731933  0.74822645  0.37668325  1
  La  La14  1  0.74456712  0.74791786  0.47687398  1
  La  La15  1  0.74147521  0.74311603  0.57852818  1
  La  La16  1  0.74843440  0.74917883  0.67649806  1
  La  La17  1  0.75067717  0.75206705  0.77460735  1
  La  La18  1  0.75655651  0.75514703  0.87195090  1
  La  La19  1  0.76552631  0.76981888  0.96880562  1
  Mn  Mn20  1  0.50230933  0.50776399  0.04807269  1
  Mn  Mn21  1  0.49349628  0.50395720  0.15001389  1
  Mn  Mn22  1  0.49599381  0.49078997  0.25207735  1
  Mn  Mn23  1  0.99607214  0.99706601  0.40112027  1
  Mn  Mn24  1  0.49381937  0.49585080  0.35158748  1
  Mn  Mn25  1  0.99411633  0.99931078  0.50076491  1
  Mn  Mn26  1  0.49655101  0.49704040  0.45097878  1
  Mn  Mn27  1  0.99164688  0.99548872  0.30173478  1
  Mn  Mn28  1  0.50055647  0.49475116  0.55076132  1
  Mn  Mn29  1  0.49857747  0.49658845  0.65080822  1
  Mn  Mn30  1  0.00217263  0.00282079  0.79922754  1
  Mn  Mn31  1  0.50053812  0.49915649  0.75000927  1
  Mn  Mn32  1  0.99467013  0.99861841  0.60098468  1
  Mn  Mn33  1  0.00924949  0.00796445  0.89755034  1
  Mn  Mn34  1  0.50432265  0.50489476  0.84860133  1
  Mn  Mn35  1  0.99972033  0.99868418  0.70029013  1
  Mn  Mn36  1  0.51175737  0.51246791  0.94694144  1
  Sn  Sn37  1  0.01286487  0.00823978  0.99772187  1
  Sn  Sn38  1  0.99173188  0.00437964  0.09897820  1
  Sn  Sn39  1  0.00387172  0.98979332  0.20095515  1
  O  O40  1  0.15672981  0.33485534  0.07472113  1
  O  O41  1  0.35500448  0.76037655  0.01460178  1
  O  O42  1  0.24972288  0.80878993  0.06685444  1
  O  O43  1  0.74726702  0.19654879  0.03136167  1
  O  O44  1  0.17320338  0.32871304  0.17608697  1
  O  O45  1  0.67139502  0.24702668  0.08072095  1
  O  O46  1  0.31958747  0.75859551  0.11608503  1
  O  O47  1  0.82594770  0.69815339  0.02678958  1
  O  O48  1  0.25026795  0.81126796  0.16776238  1
  O  O49  1  0.73573909  0.18753077  0.13341299  1
  O  O50  1  0.17096313  0.30950496  0.27639224  1
  O  O51  1  0.66704138  0.23289343  0.18530532  1
  O  O52  1  0.34455869  0.74942187  0.21678426  1
  O  O53  1  0.80105704  0.68333584  0.12829258  1
  O  O54  1  0.23541650  0.81413091  0.27011254  1
  O  O55  1  0.75917318  0.14834602  0.23546513  1
  O  O56  1  0.17303559  0.31745814  0.37572983  1
  O  O57  1  0.67476243  0.23677767  0.28516687  1
  O  O58  1  0.30790510  0.75152576  0.31905877  1
  O  O59  1  0.83818889  0.65344989  0.22708403  1
  O  O60  1  0.24379461  0.82003918  0.36900270  1
  O  O61  1  0.74617202  0.17305312  0.33354173  1
  O  O62  1  0.17472369  0.31912655  0.47468630  1
  O  O63  1  0.67985038  0.24025876  0.38371885  1
  O  O64  1  0.31699841  0.75250528  0.41803735  1
  O  O65  1  0.81755031  0.67401684  0.32568239  1
  O  O66  1  0.24604889  0.82174032  0.46833263  1
  O  O67  1  0.74767901  0.17305877  0.43317274  1
  O  O68  1  0.18626115  0.31494650  0.57376346  1
  O  O69  1  0.67669738  0.24624810  0.48319911  1
  O  O70  1  0.31362327  0.75067620  0.51832383  1
  O  O71  1  0.82096713  0.67542275  0.42488633  1
  O  O72  1  0.25454553  0.81107893  0.56884119  1
  O  O73  1  0.74500831  0.17379828  0.53275539  1
  O  O74  1  0.18633691  0.31146185  0.67536822  1
  O  O75  1  0.70626232  0.25044553  0.57969928  1
  O  O76  1  0.30806280  0.74511332  0.61958262  1
  O  O77  1  0.81721194  0.67908581  0.52354350  1
  O  O78  1  0.25196869  0.79555675  0.67067561  1
  O  O79  1  0.74724263  0.18535752  0.63162783  1
  O  O80  1  0.18799555  0.31221666  0.77489742  1
  O  O81  1  0.70525848  0.24949329  0.67941838  1
  O  O82  1  0.30726591  0.75006912  0.71923654  1
  O  O83  1  0.79713395  0.70027588  0.62353068  1
  O  O84  1  0.25325358  0.79613296  0.77023930  1
  O  O85  1  0.74710662  0.18868149  0.73116950  1
  O  O86  1  0.19744487  0.31918776  0.87319804  1
  O  O87  1  0.70919325  0.24690077  0.77925146  1
  O  O88  1  0.31467177  0.75480375  0.81807613  1
  O  O89  1  0.79436049  0.70476987  0.72437038  1
  O  O90  1  0.26101856  0.79417994  0.86918140  1
  O  O91  1  0.75480250  0.19079898  0.82987175  1
  O  O92  1  0.18652157  0.33812970  0.97333490  1
  O  O93  1  0.71183609  0.25704671  0.87720345  1
  O  O94  1  0.32002925  0.75480099  0.91736524  1
  O  O95  1  0.80126422  0.70629854  0.82461066  1
  O  O96  1  0.26957308  0.81463389  0.96602961  1
  O  O97  1  0.75011384  0.20802739  0.92904500  1
  O  O98  1  0.69783969  0.25751291  0.97829745  1
  O  O99  1  0.80394212  0.70764786  0.92452788  1
