# generated using pymatgen
data_Sr3La3Zn2RuO12
_symmetry_space_group_name_H-M   'P 1'
_cell_length_a   6.96323224
_cell_length_b   6.96323224
_cell_length_c   10.52955437
_cell_angle_alpha   56.54921456
_cell_angle_beta   56.54921456
_cell_angle_gamma   47.51958497
_symmetry_Int_Tables_number   1
_chemical_formula_structural   Sr3La3Zn2RuO12
_chemical_formula_sum   'Sr3 La3 Zn2 Ru1 O12'
_cell_volume   300.58121992
_cell_formula_units_Z   1
loop_
 _symmetry_equiv_pos_site_id
 _symmetry_equiv_pos_as_xyz
  1  'x, y, z'
loop_
 _atom_site_type_symbol
 _atom_site_label
 _atom_site_symmetry_multiplicity
 _atom_site_fract_x
 _atom_site_fract_y
 _atom_site_fract_z
 _atom_site_occupancy
  Sr  Sr0  1  0.68988300  0.68988300  0.34004100  1
  Sr  Sr1  1  0.35619700  0.35619700  0.99912400  1
  Sr  Sr2  1  0.64248300  0.64248300  0.00174500  1
  La  La3  1  0.03684400  0.03684400  0.64879000  1
  La  La4  1  0.31551000  0.31551000  0.64933400  1
  La  La5  1  0.96403800  0.96403800  0.34915400  1
  Zn  Zn6  1  0.65651400  0.65651400  0.66743200  1
  Zn  Zn7  1  0.33406700  0.33406700  0.33197600  1
  Ru  Ru8  1  0.00044300  0.00044300  0.00001600  1
  O  O9  1  0.85943400  0.85943400  0.64829200  1
  O  O10  1  0.15732800  0.15732800  0.00594100  1
  O  O11  1  0.49717800  0.49717800  0.34879200  1
  O  O12  1  0.14430600  0.14430600  0.34793900  1
  O  O13  1  0.48311500  0.48311500  0.67452000  1
  O  O14  1  0.84718500  0.84718500  0.98879200  1
  O  O15  1  0.84673400  0.33137400  0.83294100  1
  O  O16  1  0.16404800  0.67423900  0.16227200  1
  O  O17  1  0.49749100  0.00158800  0.50384300  1
  O  O18  1  0.00158800  0.49749100  0.50384300  1
  O  O19  1  0.33137400  0.84673400  0.83294100  1
  O  O20  1  0.67423900  0.16404800  0.16227200  1
