# generated using pymatgen
data_Sr6La4Zn3(RuO10)2
_symmetry_space_group_name_H-M   'P 1'
_cell_length_a   19.88544748
_cell_length_b   5.64643529
_cell_length_c   6.95301347
_cell_angle_alpha   114.01242016
_cell_angle_beta   106.68091703
_cell_angle_gamma   44.83591570
_symmetry_Int_Tables_number   1
_chemical_formula_structural   Sr6La4Zn3(RuO10)2
_chemical_formula_sum   'Sr6 La4 Zn3 Ru2 O20'
_cell_volume   502.81416495
_cell_formula_units_Z   1
loop_
 _symmetry_equiv_pos_site_id
 _symmetry_equiv_pos_as_xyz
  1  'x, y, z'
loop_
 _atom_site_type_symbol
 _atom_site_label
 _atom_site_symmetry_multiplicity
 _atom_site_fract_x
 _atom_site_fract_y
 _atom_site_fract_z
 _atom_site_occupancy
  Sr  Sr0  1  0.39928300  0.35667000  0.71415400  1
  Sr  Sr1  1  0.40012700  0.64588400  0.28692300  1
  Sr  Sr2  1  0.60046900  0.35263800  0.71342800  1
  Sr  Sr3  1  0.80278800  0.34766600  0.71497100  1
  Sr  Sr4  1  0.79940300  0.64651700  0.28495500  1
  Sr  Sr5  1  0.00474800  0.63454600  0.27905600  1
  La  La6  1  0.19032600  0.36647500  0.72114600  1
  La  La7  1  0.19012300  0.68568300  0.27851200  1
  La  La8  1  0.60098900  0.67155800  0.28694500  1
  La  La9  1  0.00689900  0.31614100  0.72249200  1
  Zn  Zn10  1  0.99942400  0.00264400  0.00743800  1
  Zn  Zn11  1  0.20017000  0.00679300  0.01188400  1
  Zn  Zn12  1  0.59995100  0.99890700  0.99182700  1
  Ru  Ru13  1  0.39990500  0.99969300  0.99813900  1
  Ru  Ru14  1  0.80002500  0.99899900  0.99894700  1
  O  O15  1  0.10303800  0.98727500  0.99624500  1
  O  O16  1  0.00649800  0.84946000  0.65619500  1
  O  O17  1  0.10198900  0.49469100  0.99508700  1
  O  O18  1  0.20243600  0.14248200  0.36058400  1
  O  O19  1  0.30047100  0.00726700  0.00121600  1
  O  O20  1  0.19410200  0.85226000  0.63656700  1
  O  O21  1  0.30042300  0.48878300  0.99680100  1
  O  O22  1  0.40121600  0.15710600  0.32023600  1
  O  O23  1  0.49718900  0.00179600  0.99890100  1
  O  O24  1  0.39713500  0.85015700  0.68107200  1
  O  O25  1  0.49844200  0.51437800  0.00439400  1
  O  O26  1  0.59999800  0.12593900  0.33649100  1
  O  O27  1  0.70045500  0.00855900  0.00200600  1
  O  O28  1  0.59831900  0.82941600  0.64313400  1
  O  O29  1  0.70237400  0.48720200  0.99534700  1
  O  O30  1  0.79233100  0.17993200  0.32078400  1
  O  O31  1  0.89848400  0.99501300  0.99886800  1
  O  O32  1  0.80505000  0.82693100  0.67969400  1
  O  O33  1  0.89707700  0.51314800  0.00404800  1
  O  O34  1  0.00834300  0.15739200  0.36151400  1
