# generated using pymatgen
data_Sr8V6O19
_symmetry_space_group_name_H-M   'P 1'
_cell_length_a   14.16771954
_cell_length_b   12.72415070
_cell_length_c   15.03367264
_cell_angle_alpha   34.74795147
_cell_angle_beta   33.99596731
_cell_angle_gamma   26.08944648
_symmetry_Int_Tables_number   1
_chemical_formula_structural   Sr8V6O19
_chemical_formula_sum   'Sr8 V6 O19'
_cell_volume   632.83104861
_cell_formula_units_Z   1
loop_
 _symmetry_equiv_pos_site_id
 _symmetry_equiv_pos_as_xyz
  1  'x, y, z'
loop_
 _atom_site_type_symbol
 _atom_site_label
 _atom_site_symmetry_multiplicity
 _atom_site_fract_x
 _atom_site_fract_y
 _atom_site_fract_z
 _atom_site_occupancy
  Sr  Sr0  1  0.31557600  0.28839900  0.36884700  1
  Sr  Sr1  1  0.03827800  0.43084500  0.92344500  1
  Sr  Sr2  1  0.45741500  0.64345700  0.08517000  1
  Sr  Sr3  1  0.22539100  0.77420500  0.54921900  1
  Sr  Sr4  1  0.80305500  0.19191300  0.39389000  1
  Sr  Sr5  1  0.54616500  0.46448000  0.90767000  1
  Sr  Sr6  1  0.96537200  0.68823300  0.06925600  1
  Sr  Sr7  1  0.72356300  0.79785600  0.55287300  1
  V  V8  1  0.08442600  0.08278100  0.83114800  1
  V  V9  1  0.42164900  0.92520900  0.15670100  1
  V  V10  1  0.39389400  0.14165700  0.21221100  1
  V  V11  1  0.16622700  0.97932500  0.66754500  1
  V  V12  1  0.92483800  0.05195900  0.15032500  1
  V  V13  1  0.60988800  0.97618000  0.78022300  1
  O  O14  1  0.22530000  0.88178600  0.96683500  1
  O  O15  1  0.11025100  0.10295300  0.29121500  1
  O  O16  1  0.20849500  0.46862300  0.16026800  1
  O  O17  1  0.47239100  0.11173700  0.05521800  1
  O  O18  1  0.07668500  0.72694000  0.30256400  1
  O  O19  1  0.27949500  0.03283600  0.44101000  1
  O  O20  1  0.63123700  0.04588100  0.16026800  1
  O  O21  1  0.62075100  0.18287500  0.30256400  1
  O  O22  1  0.11660000  0.80227600  0.76680000  1
  O  O23  1  0.40263900  0.31759700  0.69895400  1
  O  O24  1  0.04451100  0.91932400  0.91097800  1
  O  O25  1  0.80786500  0.29922100  0.96683500  1
  O  O26  1  0.59853400  0.61467000  0.29121500  1
  O  O27  1  0.93136000  0.19830300  0.13727900  1
  O  O28  1  0.38429200  0.90690200  0.65595200  1
  O  O29  1  0.63218700  0.85946400  0.73562500  1
  O  O30  1  0.95975600  0.33143900  0.65595200  1
  O  O31  1  0.49350400  0.86884400  0.01299100  1
  O  O32  1  0.89840700  0.82183000  0.69895400  1
