# generated using pymatgen
data_Sr2Li4MnS3O2
_symmetry_space_group_name_H-M   'P 1'
_cell_length_a   4.46303300
_cell_length_b   4.46303300
_cell_length_c   9.81948500
_cell_angle_alpha   90.00000000
_cell_angle_beta   90.00000000
_cell_angle_gamma   90.00000000
_symmetry_Int_Tables_number   1
_chemical_formula_structural   Sr2Li4MnS3O2
_chemical_formula_sum   'Sr2 Li4 Mn1 S3 O2'
_cell_volume   195.59101804
_cell_formula_units_Z   1
loop_
 _symmetry_equiv_pos_site_id
 _symmetry_equiv_pos_as_xyz
  1  'x, y, z'
loop_
 _atom_site_type_symbol
 _atom_site_label
 _atom_site_symmetry_multiplicity
 _atom_site_fract_x
 _atom_site_fract_y
 _atom_site_fract_z
 _atom_site_occupancy
  Sr  Sr0  1  0.50000000  0.50000000  0.14633300  1
  Sr  Sr1  1  0.50000000  0.50000000  0.85366700  1
  Li  Li2  1  0.00000000  0.50000000  0.37610300  1
  Li  Li3  1  0.00000000  0.50000000  0.62389700  1
  Li  Li4  1  0.50000000  0.00000000  0.62389700  1
  Li  Li5  1  0.50000000  0.00000000  0.37610300  1
  Mn  Mn6  1  0.00000000  0.00000000  0.00000000  1
  S  S7  1  0.00000000  0.00000000  0.69182400  1
  S  S8  1  0.00000000  0.00000000  0.30817600  1
  S  S9  1  0.50000000  0.50000000  0.50000000  1
  O  O10  1  0.50000000  0.00000000  0.00000000  1
  O  O11  1  0.00000000  0.50000000  0.00000000  1
