# generated using pymatgen
data_LiMnPO4
_symmetry_space_group_name_H-M   'P 1'
_cell_length_a   8.57862352
_cell_length_b   7.64063618
_cell_length_c   14.85827128
_cell_angle_alpha   89.08846557
_cell_angle_beta   90.39065638
_cell_angle_gamma   89.77000765
_symmetry_Int_Tables_number   1
_chemical_formula_structural   LiMnPO4
_chemical_formula_sum   'Li12 Mn12 P12 O48'
_cell_volume   973.74818848
_cell_formula_units_Z   12
loop_
 _symmetry_equiv_pos_site_id
 _symmetry_equiv_pos_as_xyz
  1  'x, y, z'
loop_
 _atom_site_type_symbol
 _atom_site_label
 _atom_site_symmetry_multiplicity
 _atom_site_fract_x
 _atom_site_fract_y
 _atom_site_fract_z
 _atom_site_occupancy
  Li  Li0  1  0.07298900  0.66453300  0.40856200  1
  Li  Li1  1  0.07481000  0.82191700  0.75892700  1
  Li  Li2  1  0.08840800  0.66182100  0.08136500  1
  Li  Li3  1  0.40367900  0.17390500  0.41861100  1
  Li  Li4  1  0.41874800  0.31728600  0.74565900  1
  Li  Li5  1  0.43372300  0.16161800  0.09146500  1
  Li  Li6  1  0.56896300  0.83556200  0.90787300  1
  Li  Li7  1  0.57569000  0.68705900  0.25656500  1
  Li  Li8  1  0.59641500  0.82940600  0.58083000  1
  Li  Li9  1  0.90929800  0.33644800  0.92033000  1
  Li  Li10  1  0.92301800  0.17065400  0.24051600  1
  Li  Li11  1  0.92865100  0.33772600  0.59046300  1
  Mn  Mn12  1  0.23945800  0.96061100  0.92203500  1
  Mn  Mn13  1  0.24000900  0.03670300  0.58738700  1
  Mn  Mn14  1  0.23451700  0.94275600  0.23971000  1
  Mn  Mn15  1  0.25960100  0.53668600  0.91425200  1
  Mn  Mn16  1  0.25651200  0.43711600  0.24648800  1
  Mn  Mn17  1  0.26449500  0.46657100  0.57551200  1
  Mn  Mn18  1  0.73711500  0.54025100  0.42247400  1
  Mn  Mn19  1  0.74250700  0.55601900  0.74898700  1
  Mn  Mn20  1  0.73632500  0.46337400  0.08959500  1
  Mn  Mn21  1  0.75942100  0.06667600  0.75841700  1
  Mn  Mn22  1  0.76041600  0.96804200  0.41393500  1
  Mn  Mn23  1  0.76192200  0.03536600  0.07419900  1
  P  P24  1  0.94412100  0.73705800  0.58842800  1
  P  P25  1  0.91371000  0.76475900  0.23213600  1
  P  P26  1  0.89252300  0.73254600  0.92661300  1
  P  P27  1  0.60443100  0.23291900  0.57626600  1
  P  P28  1  0.58831000  0.27160800  0.26690700  1
  P  P29  1  0.55980300  0.24144900  0.91305900  1
  P  P30  1  0.43910300  0.75946900  0.08725100  1
  P  P31  1  0.41268100  0.72918200  0.73345900  1
  P  P32  1  0.39469600  0.77507700  0.42329500  1
  P  P33  1  0.11113600  0.25702900  0.07341100  1
  P  P34  1  0.08397400  0.23218600  0.76928400  1
  P  P35  1  0.05668500  0.26586500  0.41049500  1
  O  O36  1  0.10071600  0.37340600  0.84179400  1
  O  O37  1  0.96090400  0.11407200  0.37014800  1
  O  O38  1  0.94127100  0.22838000  0.03975400  1
  O  O39  1  0.91647700  0.94371600  0.18025200  1
  O  O40  1  0.92434000  0.26040000  0.71841200  1
  O  O41  1  0.90117300  0.61779600  0.16224900  1
  O  O42  1  0.90684600  0.76684100  0.48619800  1
  O  O43  1  0.89328100  0.72167500  0.82172500  1
  O  O44  1  0.71002400  0.38517300  0.54387700  1
  O  O45  1  0.78013500  0.76260400  0.30229900  1
  O  O46  1  0.78574300  0.72474200  0.63957400  1
  O  O47  1  0.78137700  0.88255700  0.95472000  1
  O  O48  1  0.03475000  0.56257400  0.60180200  1
  O  O49  1  0.04070100  0.88758500  0.62918000  1
  O  O50  1  0.06287500  0.76403600  0.95981600  1
  O  O51  1  0.07530100  0.05026500  0.81814700  1
  O  O52  1  0.07432200  0.74522000  0.28221800  1
  O  O53  1  0.96578600  0.43982100  0.39642500  1
  O  O54  1  0.09358900  0.23692800  0.51280900  1
  O  O55  1  0.11330000  0.25065800  0.17926400  1
  O  O56  1  0.17115100  0.43898200  0.04259700  1
  O  O57  1  0.21815900  0.23482300  0.69951500  1
  O  O58  1  0.21533900  0.27883200  0.35957000  1
  O  O59  1  0.22393300  0.11386400  0.04006200  1
  O  O60  1  0.29001600  0.62164000  0.45547500  1
  O  O61  1  0.27888400  0.74416800  0.80390800  1
  O  O62  1  0.27957500  0.76288300  0.13751100  1
  O  O63  1  0.33077900  0.94793600  0.46083700  1
  O  O64  1  0.39229600  0.78785100  0.31816000  1
  O  O65  1  0.40322900  0.73893900  0.98475400  1
  O  O66  1  0.40420300  0.87217900  0.65910800  1
  O  O67  1  0.43016500  0.25316800  0.21424200  1
  O  O68  1  0.40892300  0.54772000  0.68769000  1
  O  O69  1  0.43191500  0.26138000  0.54405800  1
  O  O70  1  0.45929900  0.39369000  0.87546100  1
  O  O71  1  0.47418600  0.06685300  0.89531200  1
  O  O72  1  0.52891900  0.93201000  0.10338500  1
  O  O73  1  0.53619800  0.60611600  0.12727000  1
  O  O74  1  0.56761200  0.74530800  0.45468500  1
  O  O75  1  0.58954700  0.45352800  0.31213700  1
  O  O76  1  0.57221000  0.74523600  0.78487100  1
  O  O77  1  0.59663300  0.12962600  0.34157600  1
  O  O78  1  0.59867600  0.25882600  0.01544500  1
  O  O79  1  0.60453600  0.22390300  0.68183200  1
  O  O80  1  0.66942100  0.05834300  0.54120700  1
  O  O81  1  0.71863400  0.24348300  0.86165300  1
  O  O82  1  0.72271900  0.25633400  0.19697500  1
  O  O83  1  0.83205600  0.55666900  0.96527800  1
