# generated using pymatgen
data_Nb15IrS32
_symmetry_space_group_name_H-M   'P 1'
_cell_length_a   8.95229794
_cell_length_b   8.95229794
_cell_length_c   13.99693596
_cell_angle_alpha   74.00396649
_cell_angle_beta   74.00396649
_cell_angle_gamma   97.91992040
_symmetry_Int_Tables_number   1
_chemical_formula_structural   Nb15IrS32
_chemical_formula_sum   'Nb15 Ir1 S32'
_cell_volume   1008.47174741
_cell_formula_units_Z   1
loop_
 _symmetry_equiv_pos_site_id
 _symmetry_equiv_pos_as_xyz
  1  'x, y, z'
loop_
 _atom_site_type_symbol
 _atom_site_label
 _atom_site_symmetry_multiplicity
 _atom_site_fract_x
 _atom_site_fract_y
 _atom_site_fract_z
 _atom_site_occupancy
  Nb  Nb0  1  0.88156200  0.11843800  0.00000000  1
  Nb  Nb1  1  0.11843800  0.88156200  0.00000000  1
  Nb  Nb2  1  0.38605600  0.14406400  0.49773200  1
  Nb  Nb3  1  0.50000000  0.00000000  0.00000000  1
  Nb  Nb4  1  0.61394400  0.85593600  0.50226800  1
  Nb  Nb5  1  0.36560000  0.63440000  0.00000000  1
  Nb  Nb6  1  0.74721500  0.74721500  0.00003700  1
  Nb  Nb7  1  0.63440000  0.36560000  0.00000000  1
  Nb  Nb8  1  0.85593600  0.61394400  0.50226800  1
  Nb  Nb9  1  0.00000000  0.50000000  0.00000000  1
  Nb  Nb10  1  0.22567400  0.77432600  0.50000000  1
  Nb  Nb11  1  0.14406400  0.38605600  0.49773200  1
  Nb  Nb12  1  0.50000000  0.50000000  0.50000000  1
  Nb  Nb13  1  0.25278500  0.25278500  0.99996300  1
  Nb  Nb14  1  0.77432600  0.22567400  0.50000000  1
  Ir  Ir15  1  0.00000000  0.00000000  0.50000000  1
  S  S16  1  0.35230400  0.10286900  0.87855400  1
  S  S17  1  0.52645000  0.02435700  0.61908000  1
  S  S18  1  0.60169100  0.85231200  0.87788300  1
  S  S19  1  0.86098500  0.09423400  0.37708800  1
  S  S20  1  0.02148900  0.02148900  0.12486000  1
  S  S21  1  0.97851100  0.97851100  0.87514000  1
  S  S22  1  0.77741200  0.77741200  0.61646300  1
  S  S23  1  0.13901500  0.90576600  0.62291200  1
  S  S24  1  0.85231200  0.60169100  0.87788300  1
  S  S25  1  0.09423400  0.86098500  0.37708800  1
  S  S26  1  0.02435700  0.52645000  0.61908000  1
  S  S27  1  0.27052100  0.77466900  0.12291600  1
  S  S28  1  0.22533100  0.72947900  0.87708400  1
  S  S29  1  0.47355000  0.97564300  0.38092000  1
  S  S30  1  0.10286900  0.35230400  0.87855400  1
  S  S31  1  0.64769600  0.89713100  0.12144600  1
  S  S32  1  0.35157500  0.61078600  0.37869900  1
  S  S33  1  0.38921400  0.64842500  0.62130100  1
  S  S34  1  0.47616200  0.47616200  0.88216600  1
  S  S35  1  0.27128500  0.27128500  0.62623100  1
  S  S36  1  0.52383800  0.52383800  0.11783400  1
  S  S37  1  0.72871500  0.72871500  0.37376900  1
  S  S38  1  0.61078600  0.35157500  0.37869900  1
  S  S39  1  0.64842500  0.38921400  0.62130100  1
  S  S40  1  0.89713100  0.64769600  0.12144600  1
  S  S41  1  0.77466900  0.27052100  0.12291600  1
  S  S42  1  0.72947900  0.22533100  0.87708400  1
  S  S43  1  0.97564300  0.47355000  0.38092000  1
  S  S44  1  0.90576600  0.13901500  0.62291200  1
  S  S45  1  0.14768800  0.39830900  0.12211700  1
  S  S46  1  0.22258800  0.22258800  0.38353700  1
  S  S47  1  0.39830900  0.14768800  0.12211700  1
