# generated using pymatgen
data_SrAl7Tl5Si5O24
_symmetry_space_group_name_H-M   'P 1'
_cell_length_a   12.78023803
_cell_length_b   12.45065104
_cell_length_c   12.55601501
_cell_angle_alpha   89.81855587
_cell_angle_beta   89.65777434
_cell_angle_gamma   88.31662309
_symmetry_Int_Tables_number   1
_chemical_formula_structural   SrAl7Tl5Si5O24
_chemical_formula_sum   'Sr2 Al14 Tl10 Si10 O48'
_cell_volume   1997.03495718
_cell_formula_units_Z   2
loop_
 _symmetry_equiv_pos_site_id
 _symmetry_equiv_pos_as_xyz
  1  'x, y, z'
loop_
 _atom_site_type_symbol
 _atom_site_label
 _atom_site_symmetry_multiplicity
 _atom_site_fract_x
 _atom_site_fract_y
 _atom_site_fract_z
 _atom_site_occupancy
  Sr  Sr0  1  0.21936139  0.20613886  0.79031187  1
  Sr  Sr1  1  0.41129366  0.44927437  0.00538308  1
  Al  Al2  1  0.01319902  0.63484610  0.19171894  1
  Al  Al3  1  0.00563877  0.83188807  0.37670757  1
  Al  Al4  1  0.02102306  0.63764504  0.81419089  1
  Al  Al5  1  0.37734752  0.18563330  0.00668100  1
  Al  Al6  1  0.37717684  0.99412847  0.81623919  1
  Al  Al7  1  0.37928207  0.81104818  0.01001318  1
  Al  Al8  1  0.62026933  0.01221802  0.19506066  1
  Al  Al9  1  0.61505821  0.21025055  0.00092414  1
  Al  Al10  1  0.62130307  0.01682313  0.81535497  1
  Al  Al11  1  0.63283554  0.83394350  0.01032717  1
  Al  Al12  1  0.82188390  0.02225641  0.37422525  1
  Al  Al13  1  0.82672643  0.01789003  0.62801636  1
  Al  Al14  1  0.82644037  0.37972281  0.00785854  1
  Al  Al15  1  0.83838155  0.64027906  0.00471801  1
  Tl  Tl16  1  0.27369820  0.25018761  0.26813188  1
  Tl  Tl17  1  0.61003421  0.58782268  0.04498141  1
  Tl  Tl18  1  0.58090074  0.05765065  0.56015672  1
  Tl  Tl19  1  0.65558610  0.25315603  0.26193306  1
  Tl  Tl20  1  0.14405656  0.87354117  0.86970874  1
  Tl  Tl21  1  0.13067651  0.86063179  0.15328395  1
  Tl  Tl22  1  0.86416867  0.13051287  0.13279488  1
  Tl  Tl23  1  0.82571897  0.14344173  0.86240990  1
  Tl  Tl24  1  0.86007565  0.86539288  0.14604083  1
  Tl  Tl25  1  0.85486072  0.86617089  0.86348408  1
  Si  Si26  1  0.01338798  0.20063402  0.38049298  1
  Si  Si27  1  0.00713079  0.38051253  0.19254351  1
  Si  Si28  1  0.00691418  0.20012770  0.62563394  1
  Si  Si29  1  0.00367012  0.38058723  0.81778479  1
  Si  Si30  1  0.01101419  0.82915071  0.62704800  1
  Si  Si31  1  0.18750772  0.01052981  0.62331508  1
  Si  Si32  1  0.19523266  0.62930657  0.99970905  1
  Si  Si33  1  0.19109792  0.01577913  0.38038274  1
  Si  Si34  1  0.17358965  0.37265309  0.00390633  1
  Si  Si35  1  0.37508261  0.00134299  0.19421703  1
  O  O36  1  0.02431188  0.29865685  0.29489952  1
  O  O37  1  0.02683534  0.29367981  0.71732040  1
  O  O38  1  0.01143879  0.78722617  0.50719203  1
  O  O39  1  0.02256327  0.49999576  0.77790571  1
  O  O40  1  0.02885985  0.73420562  0.71353137  1
  O  O41  1  0.11794153  0.12637697  0.64121116  1
  O  O42  1  0.12272966  0.64570734  0.10293904  1
  O  O43  1  0.12926303  0.13544278  0.36675523  1
  O  O44  1  0.11503884  0.35304488  0.11622358  1
  O  O45  1  0.13965158  0.66071816  0.88761439  1
  O  O46  1  0.11578005  0.90863942  0.64505604  1
  O  O47  1  0.10808256  0.34185138  0.89635094  1
  O  O48  1  0.11347155  0.92171784  0.35607908  1
  O  O49  1  0.23727719  0.01280772  0.50303167  1
  O  O50  1  0.22380704  0.49334256  0.99335182  1
  O  O51  1  0.30909934  0.68392296  0.01229013  1
  O  O52  1  0.27485325  0.02310509  0.71570309  1
  O  O53  1  0.28907554  0.02020711  0.29618427  1
  O  O54  1  0.27946464  0.29654370  0.99685564  1
  O  O55  1  0.35221362  0.11531894  0.12559553  1
  O  O56  1  0.34966414  0.11566513  0.89087709  1
  O  O57  1  0.34553629  0.89608443  0.12447117  1
  O  O58  1  0.33910081  0.88322818  0.89360572  1
  O  O59  1  0.49066683  0.99962415  0.24520924  1
  O  O60  1  0.48506366  0.27364430  0.00504800  1
  O  O61  1  0.51051044  0.77373881  0.01341911  1
  O  O62  1  0.49882585  -0.00007322  0.75586228  1
  O  O63  1  0.61502108  0.13064196  0.11651112  1
  O  O64  1  0.63167989  0.14213248  0.88117766  1
  O  O65  1  0.66535922  0.89661293  0.13100378  1
  O  O66  1  0.66081666  0.91213189  0.89946801  1
  O  O67  1  0.72024836  0.71949946  0.00315006  1
  O  O68  1  0.71871998  0.02809702  0.71390860  1
  O  O69  1  0.71833037  0.05727030  0.28560796  1
  O  O70  1  0.72223366  0.29350994  0.01914117  1
  O  O71  1  0.78533510  0.51238183  0.00910878  1
  O  O72  1  0.77238762  0.02719249  0.50260617  1
  O  O73  1  0.90570383  0.13339099  0.65225356  1
  O  O74  1  0.89880833  0.67169341  0.12460845  1
  O  O75  1  0.91468806  0.12946589  0.35323041  1
  O  O76  1  0.90874816  0.34648256  0.12046938  1
  O  O77  1  0.90085090  0.35396024  0.88638351  1
  O  O78  1  0.91223797  0.66860145  0.89205107  1
  O  O79  1  0.88965882  0.90264496  0.34104345  1
  O  O80  1  0.90810825  0.90467626  0.65617905  1
  O  O81  1  0.01018933  0.24818040  0.50380803  1
  O  O82  1  0.01041749  0.50066093  0.23408302  1
  O  O83  1  0.03900250  0.73493278  0.28253383  1
