# generated using pymatgen
data_ZnHgC4(SeN)4
_symmetry_space_group_name_H-M   'P 1'
_cell_length_a   4.92153700
_cell_length_b   8.49950188
_cell_length_c   8.49950188
_cell_angle_alpha   85.19174764
_cell_angle_beta   73.17082647
_cell_angle_gamma   73.17082647
_symmetry_Int_Tables_number   1
_chemical_formula_structural   ZnHgC4(SeN)4
_chemical_formula_sum   'Zn1 Hg1 C4 Se4 N4'
_cell_volume   325.73757691
_cell_formula_units_Z   1
loop_
 _symmetry_equiv_pos_site_id
 _symmetry_equiv_pos_as_xyz
  1  'x, y, z'
loop_
 _atom_site_type_symbol
 _atom_site_label
 _atom_site_symmetry_multiplicity
 _atom_site_fract_x
 _atom_site_fract_y
 _atom_site_fract_z
 _atom_site_occupancy
  Zn  Zn0  1  0.75000000  0.50000000  0.50000000  1
  Hg  Hg1  1  0.00000000  0.00000000  0.00000000  1
  C  C2  1  0.61077100  0.35690700  0.21061000  1
  C  C3  1  0.17828800  0.64309300  0.78939000  1
  C  C4  1  0.03232100  0.78939000  0.35690700  1
  C  C5  1  0.17861900  0.21061000  0.64309300  1
  Se  Se6  1  0.53896900  0.27553900  0.04135300  1
  Se  Se7  1  0.85586100  0.72446100  0.95864700  1
  Se  Se8  1  0.18549200  0.95864700  0.27553900  1
  Se  Se9  1  0.41967800  0.04135300  0.72446100  1
  N  N10  1  0.65231200  0.41273600  0.32074800  1
  N  N11  1  0.38579600  0.58726400  0.67925200  1
  N  N12  1  0.93495200  0.67925200  0.41273600  1
  N  N13  1  0.02694000  0.32074800  0.58726400  1
