# generated using pymatgen
data_Nb6(Pb2O5)5
_symmetry_space_group_name_H-M   'P 1'
_cell_length_a   7.68109900
_cell_length_b   7.73427600
_cell_length_c   11.08169649
_cell_angle_alpha   89.66316803
_cell_angle_beta   90.00000000
_cell_angle_gamma   90.00000000
_symmetry_Int_Tables_number   1
_chemical_formula_structural   Nb6(Pb2O5)5
_chemical_formula_sum   'Nb6 Pb10 O25'
_cell_volume   658.32716396
_cell_formula_units_Z   1
loop_
 _symmetry_equiv_pos_site_id
 _symmetry_equiv_pos_as_xyz
  1  'x, y, z'
loop_
 _atom_site_type_symbol
 _atom_site_label
 _atom_site_symmetry_multiplicity
 _atom_site_fract_x
 _atom_site_fract_y
 _atom_site_fract_z
 _atom_site_occupancy
  Nb  Nb0  1  0.74825300  0.25074900  0.74089200  1
  Nb  Nb1  1  0.00000000  0.50138900  0.98630200  1
  Nb  Nb2  1  0.24432400  0.73914300  0.24025400  1
  Nb  Nb3  1  0.50000000  0.99458200  0.48888900  1
  Nb  Nb4  1  0.25174700  0.25074900  0.74089200  1
  Nb  Nb5  1  0.75567600  0.73914300  0.24025400  1
  Pb  Pb6  1  0.00000000  0.00754600  0.99842300  1
  Pb  Pb7  1  0.50000000  0.50926500  0.49447400  1
  Pb  Pb8  1  0.74265200  0.76803100  0.74443600  1
  Pb  Pb9  1  0.00000000  0.98816200  0.47348300  1
  Pb  Pb10  1  0.23460200  0.24690900  0.25323100  1
  Pb  Pb11  1  0.76539800  0.24690900  0.25323100  1
  Pb  Pb12  1  0.00000000  0.49326300  0.48703500  1
  Pb  Pb13  1  0.50000000  0.48952500  0.98626700  1
  Pb  Pb14  1  0.25734800  0.76803100  0.74443600  1
  Pb  Pb15  1  0.50000000  0.00672600  0.98885900  1
  O  O16  1  0.73273400  0.46110200  0.64983300  1
  O  O17  1  0.00000000  0.73836500  0.92528300  1
  O  O18  1  0.00000000  0.78823800  0.30715200  1
  O  O19  1  0.69088500  0.90358900  0.39259500  1
  O  O20  1  0.79013200  0.94732100  0.13435700  1
  O  O21  1  0.20986800  0.94732100  0.13435700  1
  O  O22  1  0.69098900  0.09335100  0.61437700  1
  O  O23  1  0.00000000  0.26874400  0.09227300  1
  O  O24  1  0.50000000  0.21796800  0.40938900  1
  O  O25  1  0.50000000  0.26368500  0.81254000  1
  O  O26  1  0.26726600  0.46110200  0.64983300  1
  O  O27  1  0.80694400  0.42301600  0.89131500  1
  O  O28  1  0.19305600  0.42301600  0.89131500  1
  O  O29  1  0.19025400  0.58039400  0.11409000  1
  O  O30  1  0.76069400  0.53182900  0.35374600  1
  O  O31  1  0.80974600  0.58039400  0.11409000  1
  O  O32  1  0.50000000  0.73358300  0.21051600  1
  O  O33  1  0.50000000  0.74159400  0.87985300  1
  O  O34  1  0.50000000  0.79812600  0.61336400  1
  O  O35  1  0.30911500  0.90358900  0.39259500  1
  O  O36  1  0.77602700  0.04794200  0.87424200  1
  O  O37  1  0.22397300  0.04794200  0.87424200  1
  O  O38  1  0.30901100  0.09335100  0.61437700  1
  O  O39  1  0.00000000  0.22248800  0.71416300  1
  O  O40  1  0.23930600  0.53182900  0.35374600  1
