# generated using pymatgen
data_Yb(Ga2Ge)2
_symmetry_space_group_name_H-M   'P 1'
_cell_length_a   6.11032800
_cell_length_b   6.11032800
_cell_length_c   8.69970429
_cell_angle_alpha   110.55951917
_cell_angle_beta   110.55951917
_cell_angle_gamma   90.00000000
_symmetry_Int_Tables_number   1
_chemical_formula_structural   Yb(Ga2Ge)2
_chemical_formula_sum   'Yb2 Ga8 Ge4'
_cell_volume   281.92297471
_cell_formula_units_Z   2
loop_
 _symmetry_equiv_pos_site_id
 _symmetry_equiv_pos_as_xyz
  1  'x, y, z'
loop_
 _atom_site_type_symbol
 _atom_site_label
 _atom_site_symmetry_multiplicity
 _atom_site_fract_x
 _atom_site_fract_y
 _atom_site_fract_z
 _atom_site_occupancy
  Yb  Yb0  1  0.08255000  0.58255000  0.16510100  1
  Yb  Yb1  1  0.58255000  0.08255000  0.16510100  1
  Ga  Ga2  1  0.46411100  0.96411100  0.50541600  1
  Ga  Ga3  1  0.04130500  0.54130500  0.50541600  1
  Ga  Ga4  1  0.96411100  0.04130500  0.50541600  1
  Ga  Ga5  1  0.54130500  0.46411100  0.50541600  1
  Ga  Ga6  1  0.49245800  0.49245800  0.98491500  1
  Ga  Ga7  1  0.99245800  0.99245800  0.98491500  1
  Ga  Ga8  1  0.65747900  0.65747900  0.31495800  1
  Ga  Ga9  1  0.15747900  0.15747900  0.31495800  1
  Ge  Ge10  1  0.74579300  0.24579300  0.80971200  1
  Ge  Ge11  1  0.06391800  0.56391800  0.80971200  1
  Ge  Ge12  1  0.24579300  0.06391800  0.80971200  1
  Ge  Ge13  1  0.56391800  0.74579300  0.80971200  1
