# generated using pymatgen
data_SrSiO3
_symmetry_space_group_name_H-M   'P 1'
_cell_length_a   4.42576635
_cell_length_b   7.63678596
_cell_length_c   10.90241500
_cell_angle_alpha   90.00000000
_cell_angle_beta   90.00000000
_cell_angle_gamma   91.06611217
_symmetry_Int_Tables_number   1
_chemical_formula_structural   SrSiO3
_chemical_formula_sum   'Sr4 Si4 O12'
_cell_volume   368.42290552
_cell_formula_units_Z   4
loop_
 _symmetry_equiv_pos_site_id
 _symmetry_equiv_pos_as_xyz
  1  'x, y, z'
loop_
 _atom_site_type_symbol
 _atom_site_label
 _atom_site_symmetry_multiplicity
 _atom_site_fract_x
 _atom_site_fract_y
 _atom_site_fract_z
 _atom_site_occupancy
  Sr  Sr0  1  0.78496700  0.98584900  0.71551200  1
  Sr  Sr1  1  0.71505700  0.23085300  0.13842300  1
  Sr  Sr2  1  0.78496700  0.48584900  0.78448800  1
  Sr  Sr3  1  0.71505700  0.73085300  0.36157700  1
  Si  Si4  1  0.24076000  0.69104100  0.59636300  1
  Si  Si5  1  0.24076000  0.19104100  0.90363700  1
  Si  Si6  1  0.82287400  0.21879300  0.46832400  1
  Si  Si7  1  0.82287400  0.71879300  0.03167600  1
  O  O8  1  0.20889900  0.17707900  0.04955700  1
  O  O9  1  0.20889900  0.67707900  0.45044300  1
  O  O10  1  0.60428100  0.19790800  0.86472800  1
  O  O11  1  0.60428100  0.69790800  0.63527200  1
  O  O12  1  0.87413900  0.28885600  0.60352200  1
  O  O13  1  0.72898100  0.51846900  0.04076300  1
  O  O14  1  0.87413900  0.78885600  0.89647800  1
  O  O15  1  0.72898100  0.01846900  0.45923700  1
  O  O16  1  0.67101000  0.35484400  0.35791800  1
  O  O17  1  0.67101000  0.85484400  0.14208200  1
  O  O18  1  0.03103100  0.30540800  0.34877400  1
  O  O19  1  0.03103100  0.80540800  0.15122600  1
