# generated using pymatgen
data_Sr2RhO4
_symmetry_space_group_name_H-M   'P 1'
_cell_length_a   5.54926762
_cell_length_b   5.55118214
_cell_length_c   27.17293412
_cell_angle_alpha   101.64253974
_cell_angle_beta   101.60272679
_cell_angle_gamma   89.97903123
_symmetry_Int_Tables_number   1
_chemical_formula_structural   Sr2RhO4
_chemical_formula_sum   'Sr16 Rh8 O32'
_cell_volume   802.38119654
_cell_formula_units_Z   8
loop_
 _symmetry_equiv_pos_site_id
 _symmetry_equiv_pos_as_xyz
  1  'x, y, z'
loop_
 _atom_site_type_symbol
 _atom_site_label
 _atom_site_symmetry_multiplicity
 _atom_site_fract_x
 _atom_site_fract_y
 _atom_site_fract_z
 _atom_site_occupancy
  Sr  Sr0  1  0.07805500  0.58178700  0.57395200  1
  Sr  Sr1  1  0.17398800  0.18035300  0.67671100  1
  Sr  Sr2  1  0.33123800  0.32840900  0.82430300  1
  Sr  Sr3  1  0.06328100  0.57862600  0.07335200  1
  Sr  Sr4  1  0.43886000  0.93438200  0.92626700  1
  Sr  Sr5  1  0.17261300  0.18110300  0.17567300  1
  Sr  Sr6  1  0.32360900  0.32261000  0.32352400  1
  Sr  Sr7  1  0.42646900  0.92783700  0.42615800  1
  Sr  Sr8  1  0.57454200  0.07243100  0.57403300  1
  Sr  Sr9  1  0.67052100  0.67117100  0.67685000  1
  Sr  Sr10  1  0.83462400  0.83677300  0.82418500  1
  Sr  Sr11  1  0.56893900  0.07994700  0.07381900  1
  Sr  Sr12  1  0.92709900  0.43760500  0.92584300  1
  Sr  Sr13  1  0.66459800  0.67521100  0.17573500  1
  Sr  Sr14  1  0.82890700  0.82905300  0.32348200  1
  Sr  Sr15  1  0.91891000  0.42330100  0.42610300  1
  Rh  Rh16  1  0.00096600  0.00115300  0.49997700  1
  Rh  Rh17  1  0.25258200  0.75328100  0.75063200  1
  Rh  Rh18  1  0.00172900  0.00502200  0.99969100  1
  Rh  Rh19  1  0.24748300  0.75129300  0.24950000  1
  Rh  Rh20  1  0.50042700  0.50030900  0.50009600  1
  Rh  Rh21  1  0.75257400  0.25338700  0.75059900  1
  Rh  Rh22  1  0.49819200  0.50498600  0.99980300  1
  Rh  Rh23  1  0.74839400  0.25165000  0.24959000  1
  O  O24  1  0.05644000  0.45195600  0.75203400  1
  O  O25  1  0.08482900  0.07062300  0.58015600  1
  O  O26  1  0.17876700  0.65917200  0.67057600  1
  O  O27  1  0.05105700  0.44995900  0.25033100  1
  O  O28  1  0.32528200  0.84668100  0.83050700  1
  O  O29  1  0.19562200  0.69546200  0.49707500  1
  O  O30  1  0.42102600  0.43500300  0.91990600  1
  O  O31  1  0.08255300  0.08913000  0.07953600  1
  O  O32  1  0.30451800  0.19862100  0.50048600  1
  O  O33  1  0.17339500  0.66586200  0.16945800  1
  O  O34  1  0.44833700  0.05450500  0.74923500  1
  O  O35  1  0.32092500  0.83850900  0.32973000  1
  O  O36  1  0.30252500  0.19932400  0.99837800  1
  O  O37  1  0.55809800  0.55950400  0.75452400  1
  O  O38  1  0.42914000  0.41569400  0.42003900  1
  O  O39  1  0.19514000  0.70164500  0.00057100  1
  O  O40  1  0.57505400  0.59127200  0.58023900  1
  O  O41  1  0.44469600  0.05333200  0.24878500  1
  O  O42  1  0.66978800  0.18471900  0.67051400  1
  O  O43  1  0.55193400  0.55636300  0.25241500  1
  O  O44  1  0.83488500  0.32321700  0.83044700  1
  O  O45  1  0.69798700  0.80362800  0.49973000  1
  O  O46  1  0.91381400  0.92046400  0.91985700  1
  O  O47  1  0.58005200  0.58466800  0.07985100  1
  O  O48  1  0.80639400  0.30628700  0.50296500  1
  O  O49  1  0.66336600  0.18116700  0.16962800  1
  O  O50  1  0.94651500  0.94731400  0.74684600  1
  O  O51  1  0.83402500  0.32263600  0.32972500  1
  O  O52  1  0.69912800  0.81023700  0.00161300  1
  O  O53  1  0.91284000  0.92785500  0.41988500  1
  O  O54  1  0.80084200  0.30649000  0.99836000  1
  O  O55  1  0.94242400  0.94662200  0.24672300  1
