# generated using pymatgen
data_Sr3LaTa2(CoO6)2
_symmetry_space_group_name_H-M   'P 1'
_cell_length_a   5.68882000
_cell_length_b   5.69275600
_cell_length_c   15.99215700
_cell_angle_alpha   90.00000000
_cell_angle_beta   90.00000000
_cell_angle_gamma   90.00000000
_symmetry_Int_Tables_number   1
_chemical_formula_structural   Sr3LaTa2(CoO6)2
_chemical_formula_sum   'Sr6 La2 Ta4 Co4 O24'
_cell_volume   517.90703095
_cell_formula_units_Z   2
loop_
 _symmetry_equiv_pos_site_id
 _symmetry_equiv_pos_as_xyz
  1  'x, y, z'
loop_
 _atom_site_type_symbol
 _atom_site_label
 _atom_site_symmetry_multiplicity
 _atom_site_fract_x
 _atom_site_fract_y
 _atom_site_fract_z
 _atom_site_occupancy
  Sr  Sr0  1  0.50000000  0.50000000  0.62479100  1
  Sr  Sr1  1  0.50000000  0.50000000  0.12652100  1
  Sr  Sr2  1  0.00000000  0.00000000  0.12936500  1
  Sr  Sr3  1  0.00000000  0.00000000  0.87407100  1
  Sr  Sr4  1  0.00000000  0.00000000  0.62291600  1
  Sr  Sr5  1  0.50000000  0.50000000  0.37543500  1
  La  La6  1  0.00000000  0.00000000  0.37115400  1
  La  La7  1  0.50000000  0.50000000  0.87627300  1
  Ta  Ta8  1  0.50000000  0.00000000  0.00330500  1
  Ta  Ta9  1  0.50000000  0.00000000  0.74945100  1
  Ta  Ta10  1  0.50000000  0.00000000  0.49635000  1
  Ta  Ta11  1  0.00000000  0.50000000  0.25019900  1
  Co  Co12  1  0.50000000  0.00000000  0.25051100  1
  Co  Co13  1  0.00000000  0.50000000  0.99572400  1
  Co  Co14  1  0.00000000  0.50000000  0.74898900  1
  Co  Co15  1  0.00000000  0.50000000  0.50294700  1
  O  O16  1  0.74109800  0.75141900  0.75281400  1
  O  O17  1  0.00000000  0.50000000  0.63473900  1
  O  O18  1  0.74946400  0.24258500  0.49971300  1
  O  O19  1  0.25053600  0.24258500  0.49971300  1
  O  O20  1  0.50000000  0.00000000  0.37628500  1
  O  O21  1  0.24154800  0.24793300  0.25482600  1
  O  O22  1  0.24154800  0.75206700  0.25482600  1
  O  O23  1  0.75845200  0.24793300  0.25482600  1
  O  O24  1  0.50000000  0.00000000  0.12301900  1
  O  O25  1  0.75845200  0.75206700  0.25482600  1
  O  O26  1  0.74091400  0.74922100  0.99298500  1
  O  O27  1  0.00000000  0.50000000  0.12705200  1
  O  O28  1  0.74091400  0.25077900  0.99298500  1
  O  O29  1  0.25908600  0.74922100  0.99298500  1
  O  O30  1  0.25908600  0.25077900  0.99298500  1
  O  O31  1  0.00000000  0.50000000  0.86490500  1
  O  O32  1  0.50000000  0.00000000  0.87400300  1
  O  O33  1  0.25890200  0.24858100  0.75281400  1
  O  O34  1  0.25890200  0.75141900  0.75281400  1
  O  O35  1  0.74109800  0.24858100  0.75281400  1
  O  O36  1  0.50000000  0.00000000  0.62545700  1
  O  O37  1  0.74946400  0.75741500  0.49971300  1
  O  O38  1  0.25053600  0.75741500  0.49971300  1
  O  O39  1  0.00000000  0.50000000  0.37518700  1
