# generated using pymatgen
data_Sr2Y4Fe2Cu2O13
_symmetry_space_group_name_H-M   'P 1'
_cell_length_a   5.47995401
_cell_length_b   10.82313869
_cell_length_c   11.87027780
_cell_angle_alpha   116.97828070
_cell_angle_beta   102.90817687
_cell_angle_gamma   90.08162421
_symmetry_Int_Tables_number   1
_chemical_formula_structural   Sr2Y4Fe2Cu2O13
_chemical_formula_sum   'Sr4 Y8 Fe4 Cu4 O26'
_cell_volume   607.26625905
_cell_formula_units_Z   2
loop_
 _symmetry_equiv_pos_site_id
 _symmetry_equiv_pos_as_xyz
  1  'x, y, z'
loop_
 _atom_site_type_symbol
 _atom_site_label
 _atom_site_symmetry_multiplicity
 _atom_site_fract_x
 _atom_site_fract_y
 _atom_site_fract_z
 _atom_site_occupancy
  Sr  Sr0  1  0.20090200  0.35945900  0.99050500  1
  Sr  Sr1  1  0.29834400  0.86963700  0.00851000  1
  Sr  Sr2  1  0.70165600  0.13036300  0.99149000  1
  Sr  Sr3  1  0.79909800  0.64054100  0.00949500  1
  Y  Y4  1  0.02239500  0.17543500  0.63306300  1
  Y  Y5  1  0.10620200  0.67841100  0.62928000  1
  Y  Y6  1  0.39306300  0.54903000  0.37029000  1
  Y  Y7  1  0.52202100  0.95803600  0.63310500  1
  Y  Y8  1  0.47797900  0.04196400  0.36689500  1
  Y  Y9  1  0.60693700  0.45097000  0.62971000  1
  Y  Y10  1  0.89379800  0.32158900  0.37072000  1
  Y  Y11  1  0.97760500  0.82456500  0.36693700  1
  Fe  Fe12  1  0.18966300  0.52007000  0.80911800  1
  Fe  Fe13  1  0.31132300  0.21082900  0.19129900  1
  Fe  Fe14  1  0.68867700  0.78917100  0.80870100  1
  Fe  Fe15  1  0.81033700  0.47993000  0.19088200  1
  Cu  Cu16  1  0.11371700  0.01372700  0.79573300  1
  Cu  Cu17  1  0.38527500  0.71798000  0.20328400  1
  Cu  Cu18  1  0.61472500  0.28202000  0.79671600  1
  Cu  Cu19  1  0.88628300  0.98627300  0.20426700  1
  O  O20  1  0.06319900  0.35915700  0.22081500  1
  O  O21  1  0.10347800  0.60859100  0.21348600  1
  O  O22  1  0.15491200  0.14984400  0.29409900  1
  O  O23  1  0.14735400  0.86144500  0.20925100  1
  O  O24  1  0.24971400  0.02744100  0.49989400  1
  O  O25  1  0.24995700  0.47226900  0.50003000  1
  O  O26  1  0.25051400  0.75214100  0.50009400  1
  O  O27  1  0.35222200  0.15139900  0.79080100  1
  O  O28  1  0.34665600  0.35651900  0.70727500  1
  O  O29  1  0.19987900  0.11114600  0.00934800  1
  O  O30  1  0.39395400  0.89484200  0.78749600  1
  O  O31  1  0.43648000  0.63822400  0.77811900  1
  O  O32  1  0.30061300  0.60265000  0.99109600  1
  O  O33  1  0.56352000  0.36177600  0.22188100  1
  O  O34  1  0.60604600  0.10515800  0.21250400  1
  O  O35  1  0.65334400  0.64348100  0.29272500  1
  O  O36  1  0.64777800  0.84860100  0.20919900  1
  O  O37  1  0.74948600  0.24785900  0.49990600  1
  O  O38  1  0.75004300  0.52773100  0.49997000  1
  O  O39  1  0.75028600  0.97255900  0.50010600  1
  O  O40  1  0.85264600  0.13855500  0.79074900  1
  O  O41  1  0.84508800  0.85015600  0.70590100  1
  O  O42  1  0.69938700  0.39735000  0.00890400  1
  O  O43  1  0.89652200  0.39140900  0.78651400  1
  O  O44  1  0.93680100  0.64084300  0.77918500  1
  O  O45  1  0.80012100  0.88885400  0.99065200  1
