# generated using pymatgen
data_Nb2Pb3O8
_symmetry_space_group_name_H-M   'P 1'
_cell_length_a   15.34443433
_cell_length_b   10.84435170
_cell_length_c   7.65239253
_cell_angle_alpha   89.99974730
_cell_angle_beta   60.08376553
_cell_angle_gamma   44.89107368
_symmetry_Int_Tables_number   1
_chemical_formula_structural   Nb2Pb3O8
_chemical_formula_sum   'Nb6 Pb9 O24'
_cell_volume   635.87425810
_cell_formula_units_Z   3
loop_
 _symmetry_equiv_pos_site_id
 _symmetry_equiv_pos_as_xyz
  1  'x, y, z'
loop_
 _atom_site_type_symbol
 _atom_site_label
 _atom_site_symmetry_multiplicity
 _atom_site_fract_x
 _atom_site_fract_y
 _atom_site_fract_z
 _atom_site_occupancy
  Nb  Nb0  1  0.99508200  0.00674700  0.00459300  1
  Nb  Nb1  1  0.50491800  0.99325300  0.99540700  1
  Nb  Nb2  1  0.50496600  0.99336300  0.49413000  1
  Nb  Nb3  1  0.75000000  0.00000000  0.50000000  1
  Nb  Nb4  1  0.75000000  0.50000000  0.00000000  1
  Nb  Nb5  1  0.99503400  0.00663700  0.50587000  1
  Pb  Pb6  1  0.01538900  0.48168400  0.99307800  1
  Pb  Pb7  1  0.01525300  0.48203200  0.47648900  1
  Pb  Pb8  1  0.25000000  0.00000000  0.50000000  1
  Pb  Pb9  1  0.25000000  0.50000000  0.00000000  1
  Pb  Pb10  1  0.25000000  0.50000000  0.50000000  1
  Pb  Pb11  1  0.25000000  0.00000000  0.00000000  1
  Pb  Pb12  1  0.48461100  0.51831600  0.00692200  1
  Pb  Pb13  1  0.48474700  0.51796800  0.52351100  1
  Pb  Pb14  1  0.75000000  0.00000000  0.00000000  1
  O  O15  1  0.98657500  0.34251400  0.76348100  1
  O  O16  1  0.30237000  0.07808100  0.23863600  1
  O  O17  1  0.29276100  0.32667300  0.17238000  1
  O  O18  1  0.30244000  0.07797200  0.65667700  1
  O  O19  1  0.50648800  0.06033400  0.24355700  1
  O  O20  1  0.20727900  0.67330600  0.25778400  1
  O  O21  1  0.29272100  0.32669400  0.74221600  1
  O  O22  1  0.99351200  0.93966600  0.75644300  1
  O  O23  1  0.19756000  0.92202800  0.34332300  1
  O  O24  1  0.20723900  0.67332700  0.82762000  1
  O  O25  1  0.19763000  0.92191900  0.76136400  1
  O  O26  1  0.51477800  0.31632000  0.73519400  1
  O  O27  1  0.51342500  0.65748600  0.23651900  1
  O  O28  1  0.82363500  0.04570000  0.23738100  1
  O  O29  1  0.82374800  0.30146800  0.10774000  1
  O  O30  1  0.82355600  0.04581900  0.61541700  1
  O  O31  1  0.00387700  0.04413500  0.24613300  1
  O  O32  1  0.67622400  0.69854000  0.25527300  1
  O  O33  1  0.82377600  0.30146000  0.74472700  1
  O  O34  1  0.49612300  0.95586500  0.75386700  1
  O  O35  1  0.67644400  0.95418100  0.38458300  1
  O  O36  1  0.67625200  0.69853200  0.89226000  1
  O  O37  1  0.67636500  0.95430000  0.76261900  1
  O  O38  1  0.98522200  0.68368000  0.26480600  1
