# generated using pymatgen
data_SrLaCuRuO6
_symmetry_space_group_name_H-M   'P 1'
_cell_length_a   5.81242200
_cell_length_b   5.70343941
_cell_length_c   7.70900130
_cell_angle_alpha   89.80954195
_cell_angle_beta   90.00000000
_cell_angle_gamma   90.00000000
_symmetry_Int_Tables_number   1
_chemical_formula_structural   SrLaCuRuO6
_chemical_formula_sum   'Sr2 La2 Cu2 Ru2 O12'
_cell_volume   255.55812292
_cell_formula_units_Z   2
loop_
 _symmetry_equiv_pos_site_id
 _symmetry_equiv_pos_as_xyz
  1  'x, y, z'
loop_
 _atom_site_type_symbol
 _atom_site_label
 _atom_site_symmetry_multiplicity
 _atom_site_fract_x
 _atom_site_fract_y
 _atom_site_fract_z
 _atom_site_occupancy
  Sr  Sr0  1  0.46650800  0.50300600  0.75163300  1
  Sr  Sr1  1  0.03349200  0.00300600  0.25163300  1
  La  La2  1  0.94571300  0.98835700  0.75307500  1
  La  La3  1  0.55428700  0.48835700  0.25307500  1
  Cu  Cu4  1  0.48530000  0.99604900  0.00276200  1
  Cu  Cu5  1  0.01470000  0.49604900  0.50276200  1
  Ru  Ru6  1  0.49073700  0.00006400  0.50034400  1
  Ru  Ru7  1  0.00926300  0.50006400  0.00034400  1
  O  O8  1  0.01819300  0.40762000  0.75091300  1
  O  O9  1  0.52672600  0.06778700  0.75032300  1
  O  O10  1  0.97327400  0.56778700  0.25032300  1
  O  O11  1  0.48180700  0.90762000  0.25091300  1
  O  O12  1  0.19733300  0.78375900  0.95509300  1
  O  O13  1  0.70450400  0.73126900  0.53656400  1
  O  O14  1  0.76146000  0.20852400  0.45652700  1
  O  O15  1  0.28977700  0.31356400  0.04276700  1
  O  O16  1  0.79549600  0.23126900  0.03656400  1
  O  O17  1  0.30266700  0.28375900  0.45509300  1
  O  O18  1  0.21022300  0.81356400  0.54276700  1
  O  O19  1  0.73854000  0.70852400  0.95652700  1
