# generated using pymatgen
data_Ta2OsSe6
_symmetry_space_group_name_H-M   'P 1'
_cell_length_a   40.62468322
_cell_length_b   23.45467182
_cell_length_c   18.44297856
_cell_angle_alpha   50.51546294
_cell_angle_beta   42.75701659
_cell_angle_gamma   30.00000008
_symmetry_Int_Tables_number   1
_chemical_formula_structural   Ta2OsSe6
_chemical_formula_sum   'Ta4 Os2 Se12'
_cell_volume   5965.13468236
_cell_formula_units_Z   2
loop_
 _symmetry_equiv_pos_site_id
 _symmetry_equiv_pos_as_xyz
  1  'x, y, z'
loop_
 _atom_site_type_symbol
 _atom_site_label
 _atom_site_symmetry_multiplicity
 _atom_site_fract_x
 _atom_site_fract_y
 _atom_site_fract_z
 _atom_site_occupancy
  Ta  Ta0  1  0.25000000  0.66672015  0.25000000  1
  Ta  Ta1  1  0.58338615  0.66656069  0.25000000  1
  Ta  Ta2  1  0.75000000  0.33333300  0.75000000  1
  Ta  Ta3  1  0.91661385  0.66672015  0.25000000  1
  Os  Os4  1  0.08332958  0.33333300  0.75001025  1
  Os  Os5  1  0.41667042  0.33333300  0.74998975  1
  Se  Se6  1  0.02331155  0.33333300  0.93006436  1
  Se  Se7  1  0.14335974  0.33333300  0.56991977  1
  Se  Se8  1  0.31224731  0.66664402  0.06325664  1
  Se  Se9  1  0.18775269  0.66664257  0.43674336  1
  Se  Se10  1  0.35664026  0.33333300  0.93008023  1
  Se  Se11  1  0.47668845  0.33333300  0.56993564  1
  Se  Se12  1  0.52106127  0.66671441  0.43674336  1
  Se  Se13  1  0.64555733  0.66671441  0.06325664  1
  Se  Se14  1  0.68763086  0.33333300  0.93710742  1
  Se  Se15  1  0.81236914  0.33333300  0.56289258  1
  Se  Se16  1  0.97893873  0.66664257  0.06325664  1
  Se  Se17  1  0.85444267  0.66664402  0.43674336  1
