# generated using pymatgen
data_Y2Ti2O7
_symmetry_space_group_name_H-M   'P 1'
_cell_length_a   7.43578600
_cell_length_b   7.26434900
_cell_length_c   10.74056316
_cell_angle_alpha   87.63259602
_cell_angle_beta   90.00000000
_cell_angle_gamma   90.00000000
_symmetry_Int_Tables_number   1
_chemical_formula_structural   Y2Ti2O7
_chemical_formula_sum   'Y8 Ti8 O28'
_cell_volume   579.66863802
_cell_formula_units_Z   4
loop_
 _symmetry_equiv_pos_site_id
 _symmetry_equiv_pos_as_xyz
  1  'x, y, z'
loop_
 _atom_site_type_symbol
 _atom_site_label
 _atom_site_symmetry_multiplicity
 _atom_site_fract_x
 _atom_site_fract_y
 _atom_site_fract_z
 _atom_site_occupancy
  Y  Y0  1  0.94011600  0.00000000  0.00000000  1
  Y  Y1  1  0.23777100  0.24566700  0.22767800  1
  Y  Y2  1  0.08379800  0.00000000  0.50000000  1
  Y  Y3  1  0.23777100  0.75433300  0.77232200  1
  Y  Y4  1  0.70533100  0.78559700  0.26324400  1
  Y  Y5  1  0.02443700  0.50000000  0.50000000  1
  Y  Y6  1  0.46302500  0.50000000  0.00000000  1
  Y  Y7  1  0.70533100  0.21440300  0.73675600  1
  Ti  Ti8  1  0.90365500  0.50000000  0.00000000  1
  Ti  Ti9  1  0.76562500  0.23237900  0.25006500  1
  Ti  Ti10  1  0.22447000  0.24895500  0.77120800  1
  Ti  Ti11  1  0.49463900  0.00000000  0.00000000  1
  Ti  Ti12  1  0.50565200  0.00000000  0.50000000  1
  Ti  Ti13  1  0.76562500  0.76762100  0.74993500  1
  Ti  Ti14  1  0.22447000  0.75104500  0.22879200  1
  Ti  Ti15  1  0.61750800  0.50000000  0.50000000  1
  O  O16  1  0.95997700  0.71051800  0.88670700  1
  O  O17  1  0.15640000  0.28468700  0.60804500  1
  O  O18  1  0.03585400  0.10156300  0.81615500  1
  O  O19  1  0.01323200  0.25008200  0.36567300  1
  O  O20  1  0.55073800  0.34438500  0.22705800  1
  O  O21  1  0.33283600  0.94607300  0.61732400  1
  O  O22  1  0.44299200  0.84435600  0.18134800  1
  O  O23  1  0.70095300  0.04824500  0.11870400  1
  O  O24  1  0.33283600  0.05392700  0.38267600  1
  O  O25  1  0.53521100  0.73496200  0.45508800  1
  O  O26  1  0.34947400  0.80898800  0.95799200  1
  O  O27  1  0.01323200  0.74991800  0.63432700  1
  O  O28  1  0.03585400  0.89843700  0.18384500  1
  O  O29  1  0.22553700  0.53728900  0.14392300  1
  O  O30  1  0.15640000  0.71531300  0.39195500  1
  O  O31  1  0.74129300  0.62713200  0.08448700  1
  O  O32  1  0.77966600  0.48985900  0.62803600  1
  O  O33  1  0.22553700  0.46271100  0.85607700  1
  O  O34  1  0.74129300  0.37286800  0.91551300  1
  O  O35  1  0.34947400  0.19101200  0.04200800  1
  O  O36  1  0.53521100  0.26503800  0.54491200  1
  O  O37  1  0.44299200  0.15564400  0.81865200  1
  O  O38  1  0.70095300  0.95175500  0.88129600  1
  O  O39  1  0.72622600  0.96077300  0.63056800  1
  O  O40  1  0.72622600  0.03922700  0.36943200  1
  O  O41  1  0.55073800  0.65561500  0.77294200  1
  O  O42  1  0.77966600  0.51014100  0.37196400  1
  O  O43  1  0.95997700  0.28948200  0.11329300  1
