# generated using pymatgen
data_Sm2CoO3
_symmetry_space_group_name_H-M   'P 1'
_cell_length_a   21.77332579
_cell_length_b   17.25978389
_cell_length_c   7.42888522
_cell_angle_alpha   51.61901928
_cell_angle_beta   51.71841865
_cell_angle_gamma   13.05582087
_symmetry_Int_Tables_number   1
_chemical_formula_structural   Sm2CoO3
_chemical_formula_sum   'Sm10 Co5 O15'
_cell_volume   492.67629083
_cell_formula_units_Z   5
loop_
 _symmetry_equiv_pos_site_id
 _symmetry_equiv_pos_as_xyz
  1  'x, y, z'
loop_
 _atom_site_type_symbol
 _atom_site_label
 _atom_site_symmetry_multiplicity
 _atom_site_fract_x
 _atom_site_fract_y
 _atom_site_fract_z
 _atom_site_occupancy
  Sm  Sm0  1  0.82729000  0.80786600  0.47794300  1
  Sm  Sm1  1  0.37965200  0.28016000  0.13922400  1
  Sm  Sm2  1  0.83947700  0.96503700  0.84314600  1
  Sm  Sm3  1  0.21908000  0.75328100  0.48872800  1
  Sm  Sm4  1  0.00760200  0.90422200  0.19309800  1
  Sm  Sm5  1  0.57128200  0.57786100  0.29215800  1
  Sm  Sm6  1  0.28949100  0.88929600  0.86592100  1
  Sm  Sm7  1  0.63835700  0.75903000  0.74413600  1
  Sm  Sm8  1  0.09837500  0.36976700  0.17091600  1
  Sm  Sm9  1  0.73779500  0.57795700  0.37007400  1
  Co  Co10  1  0.55303800  0.38627300  0.03759900  1
  Co  Co11  1  0.18569100  0.89505200  0.74681300  1
  Co  Co12  1  0.10949700  0.27248100  0.84286300  1
  Co  Co13  1  0.25067200  0.40089500  0.57969300  1
  Co  Co14  1  0.67697100  0.07506900  0.65173200  1
  O  O15  1  0.01152800  0.10027400  0.16099500  1
  O  O16  1  0.93953400  0.29213500  0.68706600  1
  O  O17  1  0.13452700  0.16702600  0.15579000  1
  O  O18  1  0.65990800  0.86245700  0.73168600  1
  O  O19  1  0.10241200  0.50981600  0.16162700  1
  O  O20  1  0.76528500  0.89593700  0.94409300  1
  O  O21  1  0.36973600  0.55226500  0.89289400  1
  O  O22  1  0.98344700  0.85811300  0.01310000  1
  O  O23  1  0.90949800  0.03040500  0.50282700  1
  O  O24  1  0.55319500  0.49977000  0.17482900  1
  O  O25  1  0.54256800  0.78397100  0.14482800  1
  O  O26  1  0.23897100  0.12187100  0.55633500  1
  O  O27  1  0.18510300  0.33056500  0.71679400  1
  O  O28  1  0.69275600  0.77461500  0.33798300  1
  O  O29  1  0.52316400  0.31063200  0.38330600  1
