# generated using pymatgen
data_NdNb3O9
_symmetry_space_group_name_H-M   'P 1'
_cell_length_a   5.59083400
_cell_length_b   9.73218949
_cell_length_c   13.73884453
_cell_angle_alpha   90.21575819
_cell_angle_beta   90.52804875
_cell_angle_gamma   90.31544016
_symmetry_Int_Tables_number   1
_chemical_formula_structural   NdNb3O9
_chemical_formula_sum   'Nd4 Nb12 O36'
_cell_volume   747.49651769
_cell_formula_units_Z   4
loop_
 _symmetry_equiv_pos_site_id
 _symmetry_equiv_pos_as_xyz
  1  'x, y, z'
loop_
 _atom_site_type_symbol
 _atom_site_label
 _atom_site_symmetry_multiplicity
 _atom_site_fract_x
 _atom_site_fract_y
 _atom_site_fract_z
 _atom_site_occupancy
  Nd  Nd0  1  0.74677600  0.58312000  0.58082900  1
  Nd  Nd1  1  0.73910800  0.92298000  0.92267400  1
  Nd  Nd2  1  0.26089200  0.07702000  0.07732600  1
  Nd  Nd3  1  0.25322400  0.41688000  0.41917100  1
  Nb  Nb4  1  0.25244600  0.76241700  0.49856400  1
  Nb  Nb5  1  0.25211500  0.08768400  0.82406600  1
  Nb  Nb6  1  0.24844300  0.41018000  0.16596200  1
  Nb  Nb7  1  0.75612000  0.92164100  0.66554900  1
  Nb  Nb8  1  0.74986900  0.26496000  0.99567700  1
  Nb  Nb9  1  0.74756200  0.58070100  0.32480700  1
  Nb  Nb10  1  0.24388000  0.07835900  0.33445100  1
  Nb  Nb11  1  0.25243800  0.41929900  0.67519300  1
  Nb  Nb12  1  0.25013100  0.73504000  0.00432300  1
  Nb  Nb13  1  0.74755400  0.23758300  0.50143600  1
  Nb  Nb14  1  0.75155700  0.58982000  0.83403800  1
  Nb  Nb15  1  0.74788500  0.91231600  0.17593400  1
  O  O16  1  0.50081100  0.84888200  0.57461100  1
  O  O17  1  0.49938700  0.18218600  0.90836300  1
  O  O18  1  0.49777600  0.52197400  0.24056100  1
  O  O19  1  0.49918900  0.15111800  0.42538900  1
  O  O20  1  0.50222400  0.47802600  0.75943900  1
  O  O21  1  0.50061300  0.81781400  0.09163700  1
  O  O22  1  0.98542300  0.96796700  0.77267200  1
  O  O23  1  0.01303400  0.29348700  0.09538000  1
  O  O24  1  0.00167900  0.62477000  0.43932200  1
  O  O25  1  0.99832100  0.37523000  0.56067800  1
  O  O26  1  0.98696600  0.70651300  0.90462000  1
  O  O27  1  0.01457700  0.03203300  0.22732800  1
  O  O28  1  0.20908100  0.90672800  0.40320100  1
  O  O29  1  0.21186500  0.23397600  0.73496200  1
  O  O30  1  0.20687200  0.57106800  0.07383800  1
  O  O31  1  0.79091900  0.09327200  0.59679900  1
  O  O32  1  0.79312800  0.42893200  0.92616200  1
  O  O33  1  0.78813500  0.76602400  0.26503800  1
  O  O34  1  0.28491100  0.27090000  0.26781900  1
  O  O35  1  0.30437500  0.58864900  0.59159100  1
  O  O36  1  0.31177400  0.93517300  0.93535200  1
  O  O37  1  0.69562500  0.41135100  0.40840900  1
  O  O38  1  0.71508900  0.72910000  0.73218100  1
  O  O39  1  0.68822600  0.06482700  0.06464800  1
  O  O40  1  0.99967100  0.13968000  0.92961100  1
  O  O41  1  0.01633000  0.49592000  0.26181000  1
  O  O42  1  0.98409100  0.81402200  0.58479400  1
  O  O43  1  0.50595800  0.68142900  0.91397300  1
  O  O44  1  0.49213700  0.01286100  0.24033600  1
  O  O45  1  0.50204800  0.34725900  0.57453600  1
  O  O46  1  0.98367000  0.50408000  0.73819000  1
  O  O47  1  0.00032900  0.86032000  0.07038900  1
  O  O48  1  0.01590900  0.18597800  0.41520600  1
  O  O49  1  0.49404200  0.31857100  0.08602700  1
  O  O50  1  0.49795200  0.65274100  0.42546400  1
  O  O51  1  0.50786300  0.98713900  0.75966400  1
