# generated using pymatgen
data_NaV3Fe2CuO12
_symmetry_space_group_name_H-M   'P 1'
_cell_length_a   6.74543600
_cell_length_b   8.33843915
_cell_length_c   9.94509462
_cell_angle_alpha   107.09888511
_cell_angle_beta   103.81468444
_cell_angle_gamma   102.08507679
_symmetry_Int_Tables_number   1
_chemical_formula_structural   NaV3Fe2CuO12
_chemical_formula_sum   'Na2 V6 Fe4 Cu2 O24'
_cell_volume   495.07236161
_cell_formula_units_Z   2
loop_
 _symmetry_equiv_pos_site_id
 _symmetry_equiv_pos_as_xyz
  1  'x, y, z'
loop_
 _atom_site_type_symbol
 _atom_site_label
 _atom_site_symmetry_multiplicity
 _atom_site_fract_x
 _atom_site_fract_y
 _atom_site_fract_z
 _atom_site_occupancy
  Na  Na0  1  0.50827100  0.00134500  0.50293800  1
  Na  Na1  1  0.01251700  0.97541100  0.44827900  1
  V  V2  1  0.61064300  0.58859800  0.33186200  1
  V  V3  1  0.38864300  0.41016700  0.66777100  1
  V  V4  1  0.72434700  0.16367300  0.25981300  1
  V  V5  1  0.27412700  0.83726100  0.73887900  1
  V  V6  1  0.90850000  0.22763500  0.87319300  1
  V  V7  1  0.09166000  0.77145500  0.12591700  1
  Fe  Fe8  1  0.87964200  0.45003200  0.60799200  1
  Fe  Fe9  1  0.12079100  0.54906600  0.39307300  1
  Fe  Fe10  1  0.54716000  0.70444800  0.01579800  1
  Fe  Fe11  1  0.45338400  0.29528100  0.98315800  1
  Cu  Cu12  1  0.22225600  0.21300700  0.20348700  1
  Cu  Cu13  1  0.77566100  0.78586700  0.79387200  1
  O  O14  1  0.67027500  0.80350100  0.41869300  1
  O  O15  1  0.33321700  0.19596800  0.57960800  1
  O  O16  1  0.57832900  0.55282600  0.14198000  1
  O  O17  1  0.42179300  0.44732300  0.85798500  1
  O  O18  1  0.62993700  0.51788500  0.65088600  1
  O  O19  1  0.36943800  0.48259400  0.34954300  1
  O  O20  1  0.68405100  0.94426700  0.17981600  1
  O  O21  1  0.31890000  0.05567700  0.82233800  1
  O  O22  1  0.93017400  0.34225300  0.75352200  1
  O  O23  1  0.06788100  0.66105200  0.24825500  1
  O  O24  1  0.49612800  0.77936700  0.83351300  1
  O  O25  1  0.50156700  0.22015600  0.16569200  1
  O  O26  1  0.80984900  0.00624000  0.76438300  1
  O  O27  1  0.18615100  0.99343600  0.23902300  1
  O  O28  1  0.97946500  0.27377300  0.25867600  1
  O  O29  1  0.02099700  0.72607100  0.74162800  1
  O  O30  1  0.74169800  0.20335800  0.44489800  1
  O  O31  1  0.25698800  0.79768400  0.55267800  1
  O  O32  1  0.73127000  0.28305300  0.96463100  1
  O  O33  1  0.26952800  0.71745600  0.03546600  1
  O  O34  1  0.83968000  0.72774100  0.99348000  1
  O  O35  1  0.16098500  0.27208400  0.00687400  1
  O  O36  1  0.83052000  0.52469600  0.42048700  1
  O  O37  1  0.16957900  0.47489200  0.57901400  1
