# generated using pymatgen
data_Rb2MnV2(ClO3)2
_symmetry_space_group_name_H-M   'P 1'
_cell_length_a   10.97585571
_cell_length_b   5.61299529
_cell_length_c   10.90801585
_cell_angle_alpha   104.64586360
_cell_angle_beta   59.79405419
_cell_angle_gamma   90.00000000
_symmetry_Int_Tables_number   1
_chemical_formula_structural   Rb2MnV2(ClO3)2
_chemical_formula_sum   'Rb4 Mn2 V4 Cl4 O12'
_cell_volume   555.35858730
_cell_formula_units_Z   2
loop_
 _symmetry_equiv_pos_site_id
 _symmetry_equiv_pos_as_xyz
  1  'x, y, z'
loop_
 _atom_site_type_symbol
 _atom_site_label
 _atom_site_symmetry_multiplicity
 _atom_site_fract_x
 _atom_site_fract_y
 _atom_site_fract_z
 _atom_site_occupancy
  Rb  Rb0  1  0.20024700  0.37001300  0.74257700  1
  Rb  Rb1  1  0.44560100  0.62963200  0.25229100  1
  Rb  Rb2  1  0.69789200  0.37036800  0.74770900  1
  Rb  Rb3  1  0.94282400  0.62998700  0.25742300  1
  Mn  Mn4  1  0.30881700  0.00000000  0.00000000  1
  Mn  Mn5  1  0.81034500  0.00000000  0.00000000  1
  V  V6  1  0.13178700  0.22171400  0.40170000  1
  V  V7  1  0.03210100  0.81798000  0.60048600  1
  V  V8  1  0.63258700  0.18202000  0.39951400  1
  V  V9  1  0.53348700  0.77828600  0.59830000  1
  Cl  Cl10  1  0.04001400  0.00000000  0.00000000  1
  Cl  Cl11  1  0.30099700  0.50000000  0.00000000  1
  Cl  Cl12  1  0.53909100  0.00000000  0.00000000  1
  Cl  Cl13  1  0.80070900  0.50000000  0.00000000  1
  O  O14  1  0.03670500  0.53408300  0.47185400  1
  O  O15  1  0.00889700  0.06269700  0.53004300  1
  O  O16  1  0.17390800  0.09258800  0.22387700  1
  O  O17  1  0.27721500  0.22770900  0.41107400  1
  O  O18  1  0.18652400  0.81168800  0.59194000  1
  O  O19  1  0.50855900  0.46591700  0.52814600  1
  O  O20  1  0.53894000  0.93730300  0.46995700  1
  O  O21  1  0.39778500  0.90741200  0.77612300  1
  O  O22  1  0.67317600  0.13837600  0.22246400  1
  O  O23  1  0.77846400  0.18831200  0.40806000  1
  O  O24  1  0.68829000  0.77229100  0.58892600  1
  O  O25  1  0.89564100  0.86162400  0.77753600  1
