# generated using pymatgen
data_Sr14Nb6O29
_symmetry_space_group_name_H-M   'P 1'
_cell_length_a   6.04881600
_cell_length_b   6.07196660
_cell_length_c   24.90252391
_cell_angle_alpha   86.91233356
_cell_angle_beta   84.92621587
_cell_angle_gamma   61.35957060
_symmetry_Int_Tables_number   1
_chemical_formula_structural   Sr14Nb6O29
_chemical_formula_sum   'Sr14 Nb6 O29'
_cell_volume   799.50191230
_cell_formula_units_Z   1
loop_
 _symmetry_equiv_pos_site_id
 _symmetry_equiv_pos_as_xyz
  1  'x, y, z'
loop_
 _atom_site_type_symbol
 _atom_site_label
 _atom_site_symmetry_multiplicity
 _atom_site_fract_x
 _atom_site_fract_y
 _atom_site_fract_z
 _atom_site_occupancy
  Sr  Sr0  1  0.07269200  0.42692400  0.06958100  1
  Sr  Sr1  1  0.43240800  0.71587100  0.23832300  1
  Sr  Sr2  1  0.42370900  0.78987400  0.10034900  1
  Sr  Sr3  1  0.77780000  0.08756900  0.16467500  1
  Sr  Sr4  1  0.75661100  0.16412500  0.46632700  1
  Sr  Sr5  1  0.77347300  0.04557900  0.30702600  1
  Sr  Sr6  1  0.10197600  0.41094800  0.34563500  1
  Sr  Sr7  1  0.74623000  0.66930300  0.68092900  1
  Sr  Sr8  1  0.95801600  0.03991200  0.84296600  1
  Sr  Sr9  1  0.05557300  0.00914600  0.70052500  1
  Sr  Sr10  1  0.36653600  0.91501500  0.54677800  1
  Sr  Sr11  1  0.32930300  0.36902900  0.77718900  1
  Sr  Sr12  1  0.30533400  0.34666200  0.91627300  1
  Sr  Sr13  1  0.64876400  0.68757800  0.94135300  1
  Nb  Nb14  1  0.94325500  0.98703300  0.00129900  1
  Nb  Nb15  1  0.12328700  0.54959300  0.50345600  1
  Nb  Nb16  1  0.10314700  0.40332700  0.20544200  1
  Nb  Nb17  1  0.40812200  0.35455300  0.62115700  1
  Nb  Nb18  1  0.39969000  0.71461100  0.39419300  1
  Nb  Nb19  1  0.65649400  0.69487700  0.80964700  1
  O  O20  1  0.99694400  0.28120100  0.97794000  1
  O  O21  1  0.34141200  0.16245600  0.14489000  1
  O  O22  1  0.79276200  0.52016100  0.15769300  1
  O  O23  1  0.73390000  0.83238400  0.03438600  1
  O  O24  1  0.86845800  0.64389800  0.26399700  1
  O  O25  1  0.97597100  0.07574100  0.07422500  1
  O  O26  1  0.40524700  0.29377000  0.25148600  1
  O  O27  1  0.17764500  0.66384400  0.16675100  1
  O  O28  1  0.69303400  0.40255900  0.37520900  1
  O  O29  1  0.22396300  0.75738500  0.33057800  1
  O  O30  1  0.02979000  0.13138500  0.23626700  1
  O  O31  1  0.45401000  0.99587200  0.38336700  1
  O  O32  1  0.07453100  0.27296100  0.48862600  1
  O  O33  1  0.79632500  0.79220600  0.52108100  1
  O  O34  1  0.43928700  0.27177400  0.54172000  1
  O  O35  1  0.06655200  0.70397300  0.42487500  1
  O  O36  1  0.15624500  0.66969000  0.58258700  1
  O  O37  1  0.42123100  0.63067700  0.47368200  1
  O  O38  1  0.72174500  0.32673300  0.63478900  1
  O  O39  1  0.90485400  0.38026700  0.76408200  1
  O  O40  1  0.39311500  0.75977100  0.75875200  1
  O  O41  1  0.39779900  0.04464900  0.63941200  1
  O  O42  1  0.75100600  0.93092900  0.76212300  1
  O  O43  1  0.20419000  0.53440500  0.68347700  1
  O  O44  1  0.95415300  0.61521200  0.85581300  1
  O  O45  1  0.25593800  0.68464600  0.98964300  1
  O  O46  1  0.74717900  0.05004700  0.93890300  1
  O  O47  1  0.56195300  0.46872800  0.85579000  1
  O  O48  1  0.40786400  0.98748700  0.85715100  1
