# generated using pymatgen
data_NiGeH12(OF)6
_symmetry_space_group_name_H-M   'P 1'
_cell_length_a   10.38309166
_cell_length_b   10.38309166
_cell_length_c   10.38309155
_cell_angle_alpha   79.67146235
_cell_angle_beta   79.67146235
_cell_angle_gamma   79.67146012
_symmetry_Int_Tables_number   1
_chemical_formula_structural   NiGeH12(OF)6
_chemical_formula_sum   'Ni1 Ge1 H12 O6 F6'
_cell_volume   1070.80877122
_cell_formula_units_Z   1
loop_
 _symmetry_equiv_pos_site_id
 _symmetry_equiv_pos_as_xyz
  1  'x, y, z'
loop_
 _atom_site_type_symbol
 _atom_site_label
 _atom_site_symmetry_multiplicity
 _atom_site_fract_x
 _atom_site_fract_y
 _atom_site_fract_z
 _atom_site_occupancy
  Ni  Ni0  1  0.00000000  0.00000000  0.00000000  1
  Ge  Ge1  1  0.50000000  0.50000000  0.50000000  1
  H  H2  1  0.31590500  0.44886600  0.03453000  1
  H  H3  1  0.49429500  0.37606500  0.27140300  1
  H  H4  1  0.62393500  0.72859700  0.50570500  1
  H  H5  1  0.44886600  0.03453000  0.31590500  1
  H  H6  1  0.72859700  0.50570500  0.62393500  1
  H  H7  1  0.03453000  0.31590500  0.44886600  1
  H  H8  1  0.96547000  0.68409500  0.55113400  1
  H  H9  1  0.27140300  0.49429500  0.37606500  1
  H  H10  1  0.55113400  0.96547000  0.68409500  1
  H  H11  1  0.37606500  0.27140300  0.49429500  1
  H  H12  1  0.50570500  0.62393500  0.72859700  1
  H  H13  1  0.68409500  0.55113400  0.96547000  1
  O  O14  1  0.72087100  0.49974800  0.72099200  1
  O  O15  1  0.50025200  0.27900800  0.27912900  1
  O  O16  1  0.27900800  0.27912900  0.50025200  1
  O  O17  1  0.72099200  0.72087100  0.49974800  1
  O  O18  1  0.49974800  0.72099200  0.72087100  1
  O  O19  1  0.27912900  0.50025200  0.27900800  1
  F  F20  1  0.75996500  0.66516800  0.37624000  1
  F  F21  1  0.66516800  0.37624000  0.75996500  1
  F  F22  1  0.62376000  0.24003500  0.33483200  1
  F  F23  1  0.37624000  0.75996500  0.66516800  1
  F  F24  1  0.33483200  0.62376000  0.24003500  1
  F  F25  1  0.24003500  0.33483200  0.62376000  1
