# generated using pymatgen
data_Np2Te3
_symmetry_space_group_name_H-M   'P 1'
_cell_length_a   15.46436922
_cell_length_b   15.46436922
_cell_length_c   15.46436922
_cell_angle_alpha   145.15380258
_cell_angle_beta   145.15380258
_cell_angle_gamma   50.10538282
_symmetry_Int_Tables_number   1
_chemical_formula_structural   Np2Te3
_chemical_formula_sum   'Np16 Te24'
_cell_volume   1201.49880982
_cell_formula_units_Z   8
loop_
 _symmetry_equiv_pos_site_id
 _symmetry_equiv_pos_as_xyz
  1  'x, y, z'
loop_
 _atom_site_type_symbol
 _atom_site_label
 _atom_site_symmetry_multiplicity
 _atom_site_fract_x
 _atom_site_fract_y
 _atom_site_fract_z
 _atom_site_occupancy
  Np  Np0  1  0.66934400  0.79410000  0.38038400  1
  Np  Np1  1  0.08229000  0.58229000  0.50000000  1
  Np  Np2  1  0.37500000  0.00505900  0.13005900  1
  Np  Np3  1  0.08065600  0.96104000  0.62475500  1
  Np  Np4  1  0.66771000  0.66771000  0.00000000  1
  Np  Np5  1  0.33628400  0.45590000  0.37524500  1
  Np  Np6  1  0.87500000  0.24494100  0.86994100  1
  Np  Np7  1  0.03896000  0.66371600  0.11961600  1
  Np  Np8  1  0.33229000  0.33229000  0.00000000  1
  Np  Np9  1  0.75505900  0.62500000  0.63005900  1
  Np  Np10  1  0.99494100  0.12500000  0.36994100  1
  Np  Np11  1  0.54410000  0.91934400  0.88038400  1
  Np  Np12  1  0.41771000  0.91771000  0.50000000  1
  Np  Np13  1  0.71104000  0.33065600  0.12475500  1
  Np  Np14  1  0.41371600  0.28896000  0.61961600  1
  Np  Np15  1  0.20590000  0.58628400  0.87524500  1
  Te  Te16  1  0.74064600  0.49011900  0.09688500  1
  Te  Te17  1  0.17648600  0.27677300  0.25128800  1
  Te  Te18  1  0.39323400  0.64376100  0.90311500  1
  Te  Te19  1  0.35676600  0.75988100  0.75052700  1
  Te  Te20  1  0.00935400  0.60623900  0.24947300  1
  Te  Te21  1  0.02548500  0.92519800  0.74871200  1
  Te  Te22  1  0.40872300  0.15623500  0.09688400  1
  Te  Te23  1  0.72451500  0.97322700  0.39971300  1
  Te  Te24  1  0.84376500  0.94064900  0.25248800  1
  Te  Te25  1  0.05935100  0.31183900  0.90311600  1
  Te  Te26  1  0.57351400  0.32480200  0.60028700  1
  Te  Te27  1  0.02677300  0.42648600  0.75128800  1
  Te  Te28  1  0.67519800  0.27548500  0.24871200  1
  Te  Te29  1  0.68816100  0.59127700  0.74751200  1
  Te  Te30  1  0.07480200  0.82351400  0.10028700  1
  Te  Te31  1  0.39376100  0.64323400  0.40311500  1
  Te  Te32  1  0.50988100  0.60676600  0.25052700  1
  Te  Te33  1  0.72322700  0.97451500  0.89971300  1
  Te  Te34  1  0.24011900  0.99064600  0.59688500  1
  Te  Te35  1  0.69064900  0.09376500  0.75248800  1
  Te  Te36  1  0.34127700  0.93816100  0.24751200  1
  Te  Te37  1  0.35623900  0.25935400  0.74947300  1
  Te  Te38  1  0.06183900  0.30935100  0.40311600  1
  Te  Te39  1  0.90623500  0.65872300  0.59688400  1
