# generated using pymatgen
data_SmBO3
_symmetry_space_group_name_H-M   'P 1'
_cell_length_a   4.29852900
_cell_length_b   8.03537732
_cell_length_c   8.86876500
_cell_angle_alpha   90.00000000
_cell_angle_beta   90.00000000
_cell_angle_gamma   122.34055353
_symmetry_Int_Tables_number   1
_chemical_formula_structural   SmBO3
_chemical_formula_sum   'Sm4 B4 O12'
_cell_volume   258.81298776
_cell_formula_units_Z   4
loop_
 _symmetry_equiv_pos_site_id
 _symmetry_equiv_pos_as_xyz
  1  'x, y, z'
loop_
 _atom_site_type_symbol
 _atom_site_label
 _atom_site_symmetry_multiplicity
 _atom_site_fract_x
 _atom_site_fract_y
 _atom_site_fract_z
 _atom_site_occupancy
  Sm  Sm0  1  0.00000000  0.50000000  0.00000000  1
  Sm  Sm1  1  0.00000000  0.00000000  0.00000000  1
  Sm  Sm2  1  0.00000000  0.00000000  0.50000000  1
  Sm  Sm3  1  0.00000000  0.50000000  0.50000000  1
  B  B4  1  0.30203800  0.86919800  0.25000000  1
  B  B5  1  0.56364300  0.63080200  0.75000000  1
  B  B6  1  0.43635700  0.36919800  0.25000000  1
  B  B7  1  0.69796200  0.13080200  0.75000000  1
  O  O8  1  0.38628000  0.82628300  0.10891400  1
  O  O9  1  0.38628000  0.82628300  0.39108600  1
  O  O10  1  0.18422000  0.53046500  0.75000000  1
  O  O11  1  0.87671000  0.03046500  0.75000000  1
  O  O12  1  0.73371300  0.67371700  0.60891400  1
  O  O13  1  0.73371300  0.67371700  0.89108600  1
  O  O14  1  0.26628700  0.32628300  0.39108600  1
  O  O15  1  0.26628700  0.32628300  0.10891400  1
  O  O16  1  0.12329000  0.96953500  0.25000000  1
  O  O17  1  0.81578000  0.46953500  0.25000000  1
  O  O18  1  0.61372000  0.17371700  0.89108600  1
  O  O19  1  0.61372000  0.17371700  0.60891400  1
