# generated using pymatgen
data_Nb2Zn(PbO3)3
_symmetry_space_group_name_H-M   'P 1'
_cell_length_a   4.19144503
_cell_length_b   12.52428498
_cell_length_c   5.81841395
_cell_angle_alpha   44.66089864
_cell_angle_beta   89.15565056
_cell_angle_gamma   89.22813836
_symmetry_Int_Tables_number   1
_chemical_formula_structural   Nb2Zn(PbO3)3
_chemical_formula_sum   'Nb2 Zn1 Pb3 O9'
_cell_volume   214.66914581
_cell_formula_units_Z   1
loop_
 _symmetry_equiv_pos_site_id
 _symmetry_equiv_pos_as_xyz
  1  'x, y, z'
loop_
 _atom_site_type_symbol
 _atom_site_label
 _atom_site_symmetry_multiplicity
 _atom_site_fract_x
 _atom_site_fract_y
 _atom_site_fract_z
 _atom_site_occupancy
  Nb  Nb0  1  0.45669500  0.64996000  0.51469900  1
  Nb  Nb1  1  0.45539400  0.33628500  0.49317900  1
  Zn  Zn2  1  0.46634100  0.98860100  0.48004200  1
  Pb  Pb3  1  0.88453100  0.98542000  0.96378900  1
  Pb  Pb4  1  0.94270900  0.26953200  0.08287500  1
  Pb  Pb5  1  0.93101600  0.70875600  0.91177700  1
  O  O6  1  0.98872600  0.99683400  0.52610800  1
  O  O7  1  0.00996200  0.33853400  0.49641400  1
  O  O8  1  0.01036800  0.66023700  0.50659800  1
  O  O9  1  0.51670700  0.18408000  0.97900100  1
  O  O10  1  0.53133700  0.81994000  0.02623200  1
  O  O11  1  0.52187600  0.49971600  0.00306200  1
  O  O12  1  0.52927800  0.17655100  0.50642800  1
  O  O13  1  0.51911500  0.50113300  0.49558400  1
  O  O14  1  0.52454700  0.81395400  0.51421300  1
