# generated using pymatgen
data_SbSI2
_symmetry_space_group_name_H-M   'P 1'
_cell_length_a   5.52354100
_cell_length_b   12.34302800
_cell_length_c   6.39455100
_cell_angle_alpha   90.00000000
_cell_angle_beta   90.00000000
_cell_angle_gamma   90.00000000
_symmetry_Int_Tables_number   1
_chemical_formula_structural   SbSI2
_chemical_formula_sum   'Sb2 S2 I4'
_cell_volume   435.96271814
_cell_formula_units_Z   2
loop_
 _symmetry_equiv_pos_site_id
 _symmetry_equiv_pos_as_xyz
  1  'x, y, z'
loop_
 _atom_site_type_symbol
 _atom_site_label
 _atom_site_symmetry_multiplicity
 _atom_site_fract_x
 _atom_site_fract_y
 _atom_site_fract_z
 _atom_site_occupancy
  Sb  Sb0  1  0.75000000  0.29672000  0.17095100  1
  Sb  Sb1  1  0.75000000  0.79672000  0.32904900  1
  S  S2  1  0.75000000  0.63198800  0.14688900  1
  S  S3  1  0.75000000  0.13198800  0.35311100  1
  I  I4  1  0.25000000  0.88663300  0.25224400  1
  I  I5  1  0.25000000  0.38663300  0.24775600  1
  I  I6  1  0.75000000  0.71944000  0.75156100  1
  I  I7  1  0.75000000  0.21944000  0.74843900  1
