# generated using pymatgen
data_SN
_symmetry_space_group_name_H-M   'P 1'
_cell_length_a   3.88351303
_cell_length_b   7.07616600
_cell_length_c   29.22407378
_cell_angle_alpha   90.00000000
_cell_angle_beta   88.25123747
_cell_angle_gamma   90.00000000
_symmetry_Int_Tables_number   1
_chemical_formula_structural   SN
_chemical_formula_sum   'S18 N18'
_cell_volume   802.71469802
_cell_formula_units_Z   18
loop_
 _symmetry_equiv_pos_site_id
 _symmetry_equiv_pos_as_xyz
  1  'x, y, z'
loop_
 _atom_site_type_symbol
 _atom_site_label
 _atom_site_symmetry_multiplicity
 _atom_site_fract_x
 _atom_site_fract_y
 _atom_site_fract_z
 _atom_site_occupancy
  S  S0  1  0.93389600  0.49974200  0.96405600  1
  S  S1  1  0.60738700  0.87845800  0.74075300  1
  S  S2  1  0.89169600  0.49142500  0.74732900  1
  S  S3  1  0.42517200  0.09501200  0.06186000  1
  S  S4  1  0.63327500  0.94034900  0.53689600  1
  S  S5  1  0.86672500  0.44034900  0.56310400  1
  S  S6  1  0.08569100  0.65039100  0.87724500  1
  S  S7  1  0.32614900  0.04369400  0.85767900  1
  S  S8  1  0.60830400  0.99142500  0.35267100  1
  S  S9  1  0.89261300  0.37845800  0.35924700  1
  S  S10  1  0.16344500  0.55599100  0.63746000  1
  S  S11  1  0.43410300  0.02124300  0.66820000  1
  S  S12  1  0.56610400  0.99974200  0.13594400  1
  S  S13  1  0.06589700  0.52124300  0.43180000  1
  S  S14  1  0.33655500  0.05599100  0.46254000  1
  S  S15  1  0.17385100  0.54369400  0.24232100  1
  S  S16  1  0.41430900  0.15039100  0.22275500  1
  S  S17  1  0.07482800  0.59501200  0.03814000  1
  N  N18  1  0.13459200  0.65078600  0.93156800  1
  N  N19  1  0.58116900  0.42104100  0.77199000  1
  N  N20  1  0.91405400  0.73740700  0.73145000  1
  N  N21  1  0.57105800  0.30969700  0.57219200  1
  N  N22  1  0.37623900  0.71998200  0.04236600  1
  N  N23  1  0.92894200  0.80969700  0.52780800  1
  N  N24  1  0.08286200  0.13634500  0.89011700  1
  N  N25  1  0.58594600  0.23740700  0.36855000  1
  N  N26  1  0.33061200  0.79998500  0.85337300  1
  N  N27  1  0.91883100  0.92104100  0.32801000  1
  N  N28  1  0.12054100  0.13704000  0.67535900  1
  N  N29  1  0.36540800  0.15078600  0.16843200  1
  N  N30  1  0.45924200  0.69041400  0.63115700  1
  N  N31  1  0.04075800  0.19041400  0.46884300  1
  N  N32  1  0.37945900  0.63704000  0.42464100  1
  N  N33  1  0.16938800  0.29998500  0.24662700  1
  N  N34  1  0.41713800  0.63634500  0.20988300  1
  N  N35  1  0.12376100  0.21998200  0.05763400  1
