# generated using pymatgen
data_NaTiPO5
_symmetry_space_group_name_H-M   'P 1'
_cell_length_a   6.32698000
_cell_length_b   10.68973400
_cell_length_c   12.72727500
_cell_angle_alpha   90.00000000
_cell_angle_beta   90.00000000
_cell_angle_gamma   90.00000000
_symmetry_Int_Tables_number   1
_chemical_formula_structural   NaTiPO5
_chemical_formula_sum   'Na8 Ti8 P8 O40'
_cell_volume   860.79312201
_cell_formula_units_Z   8
loop_
 _symmetry_equiv_pos_site_id
 _symmetry_equiv_pos_as_xyz
  1  'x, y, z'
loop_
 _atom_site_type_symbol
 _atom_site_label
 _atom_site_symmetry_multiplicity
 _atom_site_fract_x
 _atom_site_fract_y
 _atom_site_fract_z
 _atom_site_occupancy
  Na  Na0  1  0.70155100  0.27638000  0.84293600  1
  Na  Na1  1  0.29844900  0.77638000  0.15706400  1
  Na  Na2  1  0.20155100  0.77638000  0.65706400  1
  Na  Na3  1  0.79844900  0.27638000  0.34293600  1
  Na  Na4  1  0.74354700  0.07564700  0.59984400  1
  Na  Na5  1  0.25645300  0.57564700  0.40015600  1
  Na  Na6  1  0.24354700  0.57564700  0.90015600  1
  Na  Na7  1  0.75645300  0.07564700  0.09984400  1
  Ti  Ti8  1  0.21339200  0.23889000  0.72842700  1
  Ti  Ti9  1  0.78660800  0.73889000  0.27157300  1
  Ti  Ti10  1  0.71339200  0.73889000  0.77157300  1
  Ti  Ti11  1  0.28660800  0.23889000  0.22842700  1
  Ti  Ti12  1  0.98020500  0.00126800  0.87087400  1
  Ti  Ti13  1  0.01979500  0.50126800  0.12912600  1
  Ti  Ti14  1  0.48020500  0.50126800  0.62912600  1
  Ti  Ti15  1  0.51979500  0.00126800  0.37087400  1
  P  P16  1  0.15775900  0.26921100  0.98152100  1
  P  P17  1  0.84224100  0.76921100  0.01847900  1
  P  P18  1  0.65775900  0.76921100  0.51847900  1
  P  P19  1  0.34224100  0.26921100  0.48152100  1
  P  P20  1  0.97589700  0.50648500  0.68382000  1
  P  P21  1  0.02410300  0.00648500  0.31618000  1
  P  P22  1  0.47589700  0.00648500  0.81618000  1
  P  P23  1  0.52410300  0.50648500  0.18382000  1
  O  O24  1  0.29740900  0.27095000  0.88130700  1
  O  O25  1  0.70259100  0.77095000  0.11869300  1
  O  O26  1  0.79740900  0.77095000  0.61869300  1
  O  O27  1  0.20259100  0.27095000  0.38130700  1
  O  O28  1  0.00697300  0.38005500  0.74129200  1
  O  O29  1  0.99302700  0.88005500  0.25870800  1
  O  O30  1  0.50697300  0.88005500  0.75870800  1
  O  O31  1  0.49302700  0.38005500  0.24129200  1
  O  O32  1  0.00755400  0.12686900  0.75749700  1
  O  O33  1  0.99244600  0.62686900  0.24250300  1
  O  O34  1  0.50755400  0.62686900  0.74250300  1
  O  O35  1  0.49244600  0.12686900  0.25749700  1
  O  O36  1  0.30548100  0.23539100  0.07600400  1
  O  O37  1  0.69451900  0.73539100  0.92399600  1
  O  O38  1  0.80548100  0.73539100  0.42399600  1
  O  O39  1  0.19451900  0.23539100  0.57600400  1
  O  O40  1  0.95091700  0.87034800  0.79004600  1
  O  O41  1  0.04908300  0.37034800  0.20995400  1
  O  O42  1  0.45091700  0.37034800  0.70995400  1
  O  O43  1  0.54908300  0.87034800  0.29004600  1
  O  O44  1  0.94523500  0.60890800  0.76999100  1
  O  O45  1  0.05476500  0.10890800  0.23000900  1
  O  O46  1  0.44523500  0.10890800  0.73000900  1
  O  O47  1  0.55476500  0.60890800  0.26999100  1
  O  O48  1  0.06847200  0.40454200  0.99468100  1
  O  O49  1  0.93152800  0.90454200  0.00531900  1
  O  O50  1  0.56847200  0.90454200  0.50531900  1
  O  O51  1  0.43152800  0.40454200  0.49468100  1
  O  O52  1  0.78532800  0.49646200  0.60945400  1
  O  O53  1  0.21467200  0.99646200  0.39054600  1
  O  O54  1  0.28532800  0.99646200  0.89054600  1
  O  O55  1  0.71467200  0.49646200  0.10945400  1
  O  O56  1  0.16962100  0.54490200  0.61793400  1
  O  O57  1  0.83037900  0.04490200  0.38206600  1
  O  O58  1  0.66962100  0.04490200  0.88206600  1
  O  O59  1  0.33037900  0.54490200  0.11793400  1
  O  O60  1  0.97393300  0.17539300  0.97330500  1
  O  O61  1  0.02606700  0.67539300  0.02669500  1
  O  O62  1  0.47393300  0.67539300  0.52669500  1
  O  O63  1  0.52606700  0.17539300  0.47330500  1
