# generated using pymatgen
data_Pr10Ni5O22
_symmetry_space_group_name_H-M   'P 1'
_cell_length_a   3.96116621
_cell_length_b   3.99144948
_cell_length_c   34.72745295
_cell_angle_alpha   106.52889127
_cell_angle_beta   106.68310869
_cell_angle_gamma   89.27492142
_symmetry_Int_Tables_number   1
_chemical_formula_structural   Pr10Ni5O22
_chemical_formula_sum   'Pr10 Ni5 O22'
_cell_volume   502.79625432
_cell_formula_units_Z   1
loop_
 _symmetry_equiv_pos_site_id
 _symmetry_equiv_pos_as_xyz
  1  'x, y, z'
loop_
 _atom_site_type_symbol
 _atom_site_label
 _atom_site_symmetry_multiplicity
 _atom_site_fract_x
 _atom_site_fract_y
 _atom_site_fract_z
 _atom_site_occupancy
  Pr  Pr0  1  0.41931700  0.46667400  0.95509300  1
  Pr  Pr1  1  0.32888400  0.30962300  0.74408800  1
  Pr  Pr2  1  0.64285300  0.60605400  0.85517700  1
  Pr  Pr3  1  0.35860300  0.31870900  0.54230400  1
  Pr  Pr4  1  0.67185700  0.66233200  0.65248300  1
  Pr  Pr5  1  0.41734300  0.35615100  0.34255300  1
  Pr  Pr6  1  0.65864700  0.65461200  0.44768600  1
  Pr  Pr7  1  0.41003700  0.34966300  0.15043800  1
  Pr  Pr8  1  0.67356900  0.59590900  0.25435200  1
  Pr  Pr9  1  0.65712900  0.65235100  0.06250400  1
  Ni  Ni10  1  0.96821200  0.95901300  0.79348900  1
  Ni  Ni11  1  0.01332600  0.01775300  0.60180000  1
  Ni  Ni12  1  0.03398300  0.96224400  0.39355500  1
  Ni  Ni13  1  0.06996800  0.96803800  0.20179100  1
  Ni  Ni14  1  0.03777100  0.04190300  0.00523000  1
  O  O15  1  0.02084100  0.49450300  0.80850200  1
  O  O16  1  0.04790000  0.52748000  0.60666700  1
  O  O17  1  0.46223200  0.92902100  0.79078600  1
  O  O18  1  0.03673000  0.46638100  0.39590000  1
  O  O19  1  0.19523700  0.02992100  0.46889300  1
  O  O20  1  0.87283900  0.77691200  0.94038600  1
  O  O21  1  0.92936100  0.17222300  0.88441300  1
  O  O22  1  0.55218200  0.18049400  0.88621500  1
  O  O23  1  0.49655900  0.97616300  0.59417900  1
  O  O24  1  0.04382700  0.47103000  0.20314500  1
  O  O25  1  0.07804000  0.20437100  0.67185300  1
  O  O26  1  0.79208400  0.92096700  0.72814800  1
  O  O27  1  0.54044000  0.99789200  0.39627200  1
  O  O28  1  0.03823500  0.57002300  0.01620200  1
  O  O29  1  0.78229000  0.53311000  0.51475600  1
  O  O30  1  0.84505100  0.91985700  0.53245200  1
  O  O31  1  0.57907700  0.97722600  0.20536000  1
  O  O32  1  0.28516400  0.12316900  0.27232900  1
  O  O33  1  0.88963300  0.73121300  0.32715700  1
  O  O34  1  0.52814600  0.06703700  0.00241700  1
  O  O35  1  0.99911600  0.81621100  0.13409400  1
  O  O36  1  0.39551400  0.20576700  0.08213200  1
