# generated using pymatgen
data_Nb2SiTe4
_symmetry_space_group_name_H-M   'P 1'
_cell_length_a   8.05420099
_cell_length_b   6.39387081
_cell_length_c   7.87333192
_cell_angle_alpha   97.14535759
_cell_angle_beta   104.57194105
_cell_angle_gamma   89.97959760
_symmetry_Int_Tables_number   1
_chemical_formula_structural   Nb2SiTe4
_chemical_formula_sum   'Nb4 Si2 Te8'
_cell_volume   389.16482449
_cell_formula_units_Z   2
loop_
 _symmetry_equiv_pos_site_id
 _symmetry_equiv_pos_as_xyz
  1  'x, y, z'
loop_
 _atom_site_type_symbol
 _atom_site_label
 _atom_site_symmetry_multiplicity
 _atom_site_fract_x
 _atom_site_fract_y
 _atom_site_fract_z
 _atom_site_occupancy
  Nb  Nb0  1  0.08624600  0.10335000  0.00017600  1
  Nb  Nb1  1  0.41375400  0.89665000  0.99982400  1
  Nb  Nb2  1  0.58599300  0.39650400  0.99987700  1
  Nb  Nb3  1  0.91400700  0.60349600  0.00012300  1
  Si  Si4  1  0.25000000  0.50000000  0.00000000  1
  Si  Si5  1  0.75000000  0.00000000  0.00000000  1
  Te  Te6  1  0.08165100  0.74049900  0.75165800  1
  Te  Te7  1  0.20416800  0.81646000  0.24840300  1
  Te  Te8  1  0.29583200  0.18354000  0.75159700  1
  Te  Te9  1  0.41834900  0.25950100  0.24834200  1
  Te  Te10  1  0.58165300  0.68353900  0.75154200  1
  Te  Te11  1  0.70386800  0.75899700  0.24801900  1
  Te  Te12  1  0.79613200  0.24100300  0.75198100  1
  Te  Te13  1  0.91834700  0.31646100  0.24845800  1
