# generated using pymatgen
data_P2H26AuC9Cl3O4
_symmetry_space_group_name_H-M   'P 1'
_cell_length_a   11.43370202
_cell_length_b   11.43370202
_cell_length_c   9.39378300
_cell_angle_alpha   90.00000000
_cell_angle_beta   90.00000000
_cell_angle_gamma   107.90655822
_symmetry_Int_Tables_number   1
_chemical_formula_structural   P2H26AuC9Cl3O4
_chemical_formula_sum   'P4 H52 Au2 C18 Cl6 O8'
_cell_volume   1168.55748963
_cell_formula_units_Z   2
loop_
 _symmetry_equiv_pos_site_id
 _symmetry_equiv_pos_as_xyz
  1  'x, y, z'
loop_
 _atom_site_type_symbol
 _atom_site_label
 _atom_site_symmetry_multiplicity
 _atom_site_fract_x
 _atom_site_fract_y
 _atom_site_fract_z
 _atom_site_occupancy
  P  P0  1  0.29639900  0.98399700  0.24991800  1
  P  P1  1  0.01600300  0.70360100  0.24991800  1
  P  P2  1  0.70360100  0.01600300  0.74991800  1
  P  P3  1  0.98399700  0.29639900  0.74991800  1
  H  H4  1  0.66600100  0.98253200  0.00030700  1
  H  H5  1  0.01746800  0.33399900  0.00030700  1
  H  H6  1  0.84744200  0.68183500  0.08220800  1
  H  H7  1  0.31816500  0.15255800  0.08220800  1
  H  H8  1  0.88503800  0.54207000  0.10407300  1
  H  H9  1  0.45793000  0.11496200  0.10407300  1
  H  H10  1  0.35843400  0.81425900  0.15466300  1
  H  H11  1  0.86796900  0.95433100  0.15524700  1
  H  H12  1  0.18574100  0.64156600  0.15466300  1
  H  H13  1  0.04566900  0.13203100  0.15524700  1
  H  H14  1  0.47925700  0.92320000  0.25004900  1
  H  H15  1  0.82553200  0.81166900  0.25014700  1
  H  H16  1  0.18833100  0.17446800  0.25014700  1
  H  H17  1  0.07680000  0.52074300  0.25004900  1
  H  H18  1  0.18557900  0.64159700  0.34541100  1
  H  H19  1  0.86790200  0.95438300  0.34445600  1
  H  H20  1  0.35840300  0.81442100  0.34541100  1
  H  H21  1  0.04561700  0.13209800  0.34445600  1
  H  H22  1  0.54672000  0.45327900  0.37218500  1
  H  H23  1  0.88514700  0.54210100  0.39589700  1
  H  H24  1  0.45789900  0.11485300  0.39589700  1
  H  H25  1  0.84744300  0.68196600  0.41726900  1
  H  H26  1  0.31803400  0.15255700  0.41726900  1
  H  H27  1  0.45759700  0.54240300  0.45608100  1
  H  H28  1  0.66586900  0.98253800  0.49963200  1
  H  H29  1  0.01746200  0.33413100  0.49963200  1
  H  H30  1  0.98253200  0.66600100  0.50030700  1
  H  H31  1  0.33399900  0.01746800  0.50030700  1
  H  H32  1  0.68183500  0.84744200  0.58220800  1
  H  H33  1  0.15255800  0.31816500  0.58220800  1
  H  H34  1  0.54207000  0.88503800  0.60407300  1
  H  H35  1  0.11496200  0.45793000  0.60407300  1
  H  H36  1  0.64156600  0.18574100  0.65466300  1
  H  H37  1  0.95433100  0.86796900  0.65524700  1
  H  H38  1  0.81425900  0.35843400  0.65466300  1
  H  H39  1  0.13203100  0.04566900  0.65524700  1
  H  H40  1  0.81166900  0.82553200  0.75014700  1
  H  H41  1  0.52074300  0.07680000  0.75004900  1
  H  H42  1  0.92320000  0.47925700  0.75004900  1
  H  H43  1  0.17446800  0.18833100  0.75014700  1
  H  H44  1  0.64159700  0.18557900  0.84541100  1
  H  H45  1  0.95438300  0.86790200  0.84445600  1
  H  H46  1  0.81442100  0.35840300  0.84541100  1
  H  H47  1  0.13209800  0.04561700  0.84445600  1
  H  H48  1  0.45327900  0.54672000  0.87218500  1
  H  H49  1  0.54210100  0.88514700  0.89589700  1
  H  H50  1  0.11485300  0.45789900  0.89589700  1
  H  H51  1  0.68196600  0.84744300  0.91726900  1
  H  H52  1  0.15255700  0.31803400  0.91726900  1
  H  H53  1  0.54240300  0.45759700  0.95608100  1
  H  H54  1  0.98253800  0.66586900  0.99963200  1
  H  H55  1  0.33413100  0.01746200  0.99963200  1
  Au  Au56  1  0.07599700  0.92400300  0.24991300  1
  Au  Au57  1  0.92400300  0.07599700  0.74991300  1
  C  C58  1  0.92304900  0.64244800  0.09394700  1
  C  C59  1  0.35755200  0.07695100  0.09394700  1
  C  C60  1  0.12775200  0.61955100  0.24997200  1
  C  C61  1  0.88614800  0.90677400  0.24988800  1
  C  C62  1  0.38044900  0.87224800  0.24997200  1
  C  C63  1  0.09322600  0.11385200  0.24988800  1
  C  C64  1  0.48812500  0.51187500  0.35639400  1
  C  C65  1  0.92305800  0.64250000  0.40597700  1
  C  C66  1  0.35750000  0.07694200  0.40597700  1
  C  C67  1  0.64244800  0.92304900  0.59394700  1
  C  C68  1  0.07695100  0.35755200  0.59394700  1
  C  C69  1  0.90677400  0.88614800  0.74988800  1
  C  C70  1  0.61955100  0.12775200  0.74997200  1
  C  C71  1  0.87224800  0.38044900  0.74997200  1
  C  C72  1  0.11385200  0.09322600  0.74988800  1
  C  C73  1  0.51187500  0.48812500  0.85639400  1
  C  C74  1  0.64250000  0.92305800  0.90597700  1
  C  C75  1  0.07694200  0.35750000  0.90597700  1
  Cl  Cl76  1  0.57417100  0.64533700  0.26159100  1
  Cl  Cl77  1  0.72390600  0.27609400  0.24979000  1
  Cl  Cl78  1  0.35466300  0.42582900  0.26159100  1
  Cl  Cl79  1  0.42582900  0.35466300  0.76159100  1
  Cl  Cl80  1  0.27609400  0.72390600  0.74979000  1
  Cl  Cl81  1  0.64533700  0.57417100  0.76159100  1
  O  O82  1  0.67880500  0.32119500  0.12132800  1
  O  O83  1  0.68022100  0.14113200  0.25068900  1
  O  O84  1  0.85886800  0.31977900  0.25068900  1
  O  O85  1  0.67755100  0.32244900  0.37632600  1
  O  O86  1  0.32119500  0.67880500  0.62132800  1
  O  O87  1  0.31977900  0.85886800  0.75068900  1
  O  O88  1  0.14113200  0.68022100  0.75068900  1
  O  O89  1  0.32244900  0.67755100  0.87632600  1
