# generated using pymatgen
data_Nb27N37O3
_symmetry_space_group_name_H-M   'P 1'
_cell_length_a   4.23855148
_cell_length_b   5.39534265
_cell_length_c   42.99545738
_cell_angle_alpha   79.09716590
_cell_angle_beta   66.86644725
_cell_angle_gamma   67.00695822
_symmetry_Int_Tables_number   1
_chemical_formula_structural   Nb27N37O3
_chemical_formula_sum   'Nb27 N37 O3'
_cell_volume   831.60374610
_cell_formula_units_Z   1
loop_
 _symmetry_equiv_pos_site_id
 _symmetry_equiv_pos_as_xyz
  1  'x, y, z'
loop_
 _atom_site_type_symbol
 _atom_site_label
 _atom_site_symmetry_multiplicity
 _atom_site_fract_x
 _atom_site_fract_y
 _atom_site_fract_z
 _atom_site_occupancy
  Nb  Nb0  1  0.01920000  0.02121500  0.11796900  1
  Nb  Nb1  1  0.60305100  0.57548700  0.02737300  1
  Nb  Nb2  1  0.01735700  0.00361700  0.37026800  1
  Nb  Nb3  1  0.43700500  0.35531300  0.22093200  1
  Nb  Nb4  1  0.61593000  0.58118300  0.14710600  1
  Nb  Nb5  1  0.78740800  0.87286500  0.06932100  1
  Nb  Nb6  1  0.39441100  0.40646400  0.35044900  1
  Nb  Nb7  1  0.58462400  0.60746600  0.27775400  1
  Nb  Nb8  1  0.78942400  0.79397700  0.20361200  1
  Nb  Nb9  1  0.37453200  0.38754300  0.48257600  1
  Nb  Nb10  1  0.61086600  0.54921700  0.40366500  1
  Nb  Nb11  1  0.78453500  0.87598900  0.31936400  1
  Nb  Nb12  1  0.20351200  0.19244400  0.67497100  1
  Nb  Nb13  1  0.38721000  0.39563100  0.60334700  1
  Nb  Nb14  1  0.59975600  0.57146000  0.52857800  1
  Nb  Nb15  1  0.78029700  0.82496500  0.45205400  1
  Nb  Nb16  1  0.39898300  0.33467000  0.73326300  1
  Nb  Nb17  1  0.58716700  0.64668900  0.64736200  1
  Nb  Nb18  1  0.80171800  0.83547400  0.57064000  1
  Nb  Nb19  1  0.18949300  0.19761300  0.92793800  1
  Nb  Nb20  1  0.39124400  0.39248800  0.85282300  1
  Nb  Nb21  1  0.60484500  0.58039500  0.77632100  1
  Nb  Nb22  1  0.81239100  0.79647700  0.69742900  1
  Nb  Nb23  1  0.41141700  0.32158900  0.98194300  1
  Nb  Nb24  1  0.58481400  0.65269100  0.89721800  1
  Nb  Nb25  1  0.81090000  0.83158500  0.81875200  1
  Nb  Nb26  1  0.81384500  0.79298100  0.94757200  1
  N  N27  1  0.52446200  0.96785700  0.99821400  1
  N  N28  1  0.30332300  0.81128900  0.07294500  1
  N  N29  1  0.54078200  0.95338800  0.12088800  1
  N  N30  1  0.69095500  0.22129900  0.04989100  1
  N  N31  1  0.34094200  0.74523600  0.19674600  1
  N  N32  1  0.52712700  0.98535000  0.24504700  1
  N  N33  1  0.69893500  0.19461700  0.17590300  1
  N  N34  1  0.88381500  0.39304700  0.10516500  1
  N  N35  1  0.09703000  0.61158300  0.39931300  1
  N  N36  1  0.29431400  0.82338500  0.32345100  1
  N  N37  1  0.51933500  0.98620800  0.37195200  1
  N  N38  1  0.68293800  0.23269900  0.29995800  1
  N  N39  1  0.87614000  0.41836900  0.22859800  1
  N  N40  1  0.09143900  0.60642800  0.52633500  1
  N  N41  1  0.33416600  0.74222300  0.44864000  1
  N  N42  1  0.52349200  0.99512100  0.49475400  1
  N  N43  1  0.71103100  0.18764700  0.42376500  1
  N  N44  1  0.88309300  0.42782200  0.35063600  1
  N  N45  1  0.09451000  0.61430800  0.64951000  1
  N  N46  1  0.31292300  0.78628900  0.57357600  1
  N  N47  1  0.49620800  0.01135500  0.62461600  1
  N  N48  1  0.67453400  0.22120900  0.55346500  1
  N  N49  1  0.87096600  0.43167300  0.47805000  1
  N  N50  1  0.09681300  0.59849400  0.77600700  1
  N  N51  1  0.31272700  0.78000500  0.69937700  1
  N  N52  1  0.52535600  0.97222900  0.74724900  1
  N  N53  1  0.67505000  0.21969800  0.67868300  1
  N  N54  1  0.87403500  0.44409700  0.60094000  1
  N  N55  1  0.09657700  0.61044800  0.89948600  1
  N  N56  1  0.32355600  0.77800000  0.82200600  1
  N  N57  1  0.49351800  0.01289400  0.87507500  1
  N  N58  1  0.67292500  0.21771000  0.80435000  1
  N  N59  1  0.89819600  0.40200800  0.72516700  1
  N  N60  1  0.31198900  0.77873700  0.94981600  1
  N  N61  1  0.67643200  0.21791900  0.92865100  1
  N  N62  1  0.86960800  0.44887300  0.85140800  1
  N  N63  1  0.89210500  0.40048900  0.97697500  1
  O  O64  1  0.09781700  0.59265300  0.02660000  1
  O  O65  1  0.08102500  0.63178500  0.15074200  1
  O  O66  1  0.09187600  0.61406900  0.27519800  1
