# generated using pymatgen
data_NaZnFe(PO4)2
_symmetry_space_group_name_H-M   'P 1'
_cell_length_a   12.96344925
_cell_length_b   9.29331346
_cell_length_c   9.30468019
_cell_angle_alpha   85.76960952
_cell_angle_beta   63.94662992
_cell_angle_gamma   63.68333684
_symmetry_Int_Tables_number   1
_chemical_formula_structural   NaZnFe(PO4)2
_chemical_formula_sum   'Na6 Zn6 Fe6 P12 O48'
_cell_volume   892.44598497
_cell_formula_units_Z   6
loop_
 _symmetry_equiv_pos_site_id
 _symmetry_equiv_pos_as_xyz
  1  'x, y, z'
loop_
 _atom_site_type_symbol
 _atom_site_label
 _atom_site_symmetry_multiplicity
 _atom_site_fract_x
 _atom_site_fract_y
 _atom_site_fract_z
 _atom_site_occupancy
  Na  Na0  1  0.00140800  0.50066300  0.49638400  1
  Na  Na1  1  0.11684500  0.99401000  0.01130100  1
  Na  Na2  1  0.25000000  0.50000000  0.50000000  1
  Na  Na3  1  0.38315500  0.00599000  0.98869900  1
  Na  Na4  1  0.49859200  0.49933700  0.50361600  1
  Na  Na5  1  0.75000000  0.50000000  0.50000000  1
  Zn  Zn6  1  0.09801800  0.06698500  0.37266000  1
  Zn  Zn7  1  0.12691000  0.26523900  0.72545000  1
  Zn  Zn8  1  0.37309000  0.73476100  0.27455000  1
  Zn  Zn9  1  0.40198200  0.93301500  0.62734000  1
  Zn  Zn10  1  0.62570500  0.26585000  0.73414000  1
  Zn  Zn11  1  0.87429500  0.73415000  0.26586000  1
  Fe  Fe12  1  0.34932100  0.37414400  0.06053000  1
  Fe  Fe13  1  0.15067900  0.62585600  0.93947000  1
  Fe  Fe14  1  0.59677400  0.06002700  0.36817600  1
  Fe  Fe15  1  0.84696400  0.36432700  0.06203800  1
  Fe  Fe16  1  0.65303600  0.63567300  0.93796200  1
  Fe  Fe17  1  0.90322600  0.93997300  0.63182400  1
  P  P18  1  0.07573700  0.34762300  0.12422200  1
  P  P19  1  0.12622000  0.71156500  0.28842100  1
  P  P20  1  0.32745500  0.12704500  0.34205100  1
  P  P21  1  0.17254500  0.87295500  0.65794900  1
  P  P22  1  0.37378000  0.28843500  0.71157900  1
  P  P23  1  0.57261500  0.35057200  0.13270500  1
  P  P24  1  0.42426300  0.65237700  0.87577800  1
  P  P25  1  0.62761500  0.70767200  0.28826700  1
  P  P26  1  0.82237300  0.12772600  0.35247000  1
  P  P27  1  0.67762700  0.87227400  0.64753000  1
  P  P28  1  0.87238500  0.29232800  0.71173300  1
  P  P29  1  0.92738500  0.64942800  0.86729500  1
  O  O30  1  0.02894300  0.33037900  0.99871800  1
  O  O31  1  0.13782100  0.17503400  0.16405800  1
  O  O32  1  0.18347900  0.40568200  0.04005400  1
  O  O33  1  0.05917700  0.74149200  0.17499700  1
  O  O34  1  0.29039100  0.99403100  0.32052000  1
  O  O35  1  0.02497800  0.73881100  0.46623900  1
  O  O36  1  0.04134400  0.51577400  0.72510100  1
  O  O37  1  0.21293700  0.26950900  0.47406100  1
  O  O38  1  0.37307400  0.18551900  0.17388600  1
  O  O39  1  0.22528500  0.52993600  0.26115100  1
  O  O40  1  0.19527600  0.81947300  0.25547200  1
  O  O41  1  0.43999700  0.04829100  0.38894000  1
  O  O42  1  0.06000300  0.95170900  0.61106000  1
  O  O43  1  0.30472400  0.18052700  0.74452800  1
  O  O44  1  0.53012000  0.33298600  0.00286500  1
  O  O45  1  0.27471500  0.47006400  0.73884900  1
  O  O46  1  0.12692600  0.81448100  0.82611400  1
  O  O47  1  0.28706300  0.73049100  0.52593900  1
  O  O48  1  0.45865600  0.48422600  0.27489900  1
  O  O49  1  0.62268900  0.18620200  0.19059500  1
  O  O50  1  0.47502200  0.26118900  0.53376100  1
  O  O51  1  0.20960900  0.00596900  0.67948000  1
  O  O52  1  0.44082300  0.25850800  0.82500300  1
  O  O53  1  0.68399000  0.40089200  0.04819400  1
  O  O54  1  0.31652100  0.59431800  0.95994600  1
  O  O55  1  0.56164200  0.73640500  0.17490200  1
  O  O56  1  0.77838500  0.00160400  0.33095000  1
  O  O57  1  0.52824400  0.73037700  0.46441100  1
  O  O58  1  0.36217900  0.82496600  0.83594200  1
  O  O59  1  0.53586700  0.52347700  0.72978100  1
  O  O60  1  0.70825100  0.27499100  0.47974400  1
  O  O61  1  0.88130600  0.17928500  0.18362500  1
  O  O62  1  0.73330000  0.52890000  0.25499200  1
  O  O63  1  0.47105700  0.66962100  0.00128200  1
  O  O64  1  0.69397300  0.81982200  0.26088100  1
  O  O65  1  0.93056400  0.04192500  0.40669500  1
  O  O66  1  0.56943600  0.95807500  0.59330500  1
  O  O67  1  0.80602700  0.18017800  0.73911900  1
  O  O68  1  0.76670000  0.47110000  0.74500800  1
  O  O69  1  0.61869400  0.82071500  0.81637500  1
  O  O70  1  0.79174900  0.72500900  0.52025600  1
  O  O71  1  0.96413300  0.47652300  0.27021900  1
  O  O72  1  0.97175600  0.26962300  0.53558900  1
  O  O73  1  0.72161500  0.99839600  0.66905000  1
  O  O74  1  0.93835800  0.26359500  0.82509800  1
  O  O75  1  0.81601000  0.59910800  0.95180600  1
  O  O76  1  0.87731100  0.81379800  0.80940500  1
  O  O77  1  0.96988000  0.66701400  0.99713500  1
