# generated using pymatgen
data_Rb3P11
_symmetry_space_group_name_H-M   'P 1'
_cell_length_a   5.73218976
_cell_length_b   5.73218976
_cell_length_c   41.07871348
_cell_angle_alpha   85.17338266
_cell_angle_beta   85.17338266
_cell_angle_gamma   34.20223917
_symmetry_Int_Tables_number   1
_chemical_formula_structural   Rb3P11
_chemical_formula_sum   'Rb6 P22'
_cell_volume   755.77803476
_cell_formula_units_Z   2
loop_
 _symmetry_equiv_pos_site_id
 _symmetry_equiv_pos_as_xyz
  1  'x, y, z'
loop_
 _atom_site_type_symbol
 _atom_site_label
 _atom_site_symmetry_multiplicity
 _atom_site_fract_x
 _atom_site_fract_y
 _atom_site_fract_z
 _atom_site_occupancy
  Rb  Rb0  1  0.44751900  0.44751900  0.14454500  1
  Rb  Rb1  1  0.09732900  0.09732900  0.30712400  1
  Rb  Rb2  1  0.65437800  0.65437800  0.44957600  1
  Rb  Rb3  1  0.34562200  0.34562200  0.55042400  1
  Rb  Rb4  1  0.90267100  0.90267100  0.69287600  1
  Rb  Rb5  1  0.55248100  0.55248100  0.85545500  1
  P  P6  1  0.86260600  0.86260600  0.97104500  1
  P  P7  1  0.49842200  0.49842200  0.02740600  1
  P  P8  1  0.13739400  0.13739400  0.02895500  1
  P  P9  1  0.14487800  0.14487800  0.08360000  1
  P  P10  1  0.09008900  0.09008900  0.20800100  1
  P  P11  1  0.76991200  0.76991200  0.08996300  1
  P  P12  1  0.72450900  0.72450900  0.20368100  1
  P  P13  1  0.79819000  0.79819000  0.25341500  1
  P  P14  1  0.43186300  0.43186300  0.25144100  1
  P  P15  1  0.37518600  0.37518600  0.36424000  1
  P  P16  1  0.39593700  0.39593700  0.41744000  1
  P  P17  1  0.98927600  0.98927600  0.38560300  1
  P  P18  1  0.01072400  0.01072400  0.61439700  1
  P  P19  1  0.60406300  0.60406300  0.58256000  1
  P  P20  1  0.62481400  0.62481400  0.63576000  1
  P  P21  1  0.56813700  0.56813700  0.74855900  1
  P  P22  1  0.20181000  0.20181000  0.74658500  1
  P  P23  1  0.27549100  0.27549100  0.79631900  1
  P  P24  1  0.23008800  0.23008800  0.91003700  1
  P  P25  1  0.90991100  0.90991100  0.79199900  1
  P  P26  1  0.85512200  0.85512200  0.91640000  1
  P  P27  1  0.50157800  0.50157800  0.97259400  1
