# generated using pymatgen
data_Sr18La2MgRu9O40
_symmetry_space_group_name_H-M   'P 1'
_cell_length_a   3.95694536
_cell_length_b   3.95694619
_cell_length_c   69.32449487
_cell_angle_alpha   106.51151333
_cell_angle_beta   106.51151726
_cell_angle_gamma   89.95739186
_symmetry_Int_Tables_number   1
_chemical_formula_structural   Sr18La2MgRu9O40
_chemical_formula_sum   'Sr18 La2 Mg1 Ru9 O40'
_cell_volume   993.97822974
_cell_formula_units_Z   1
loop_
 _symmetry_equiv_pos_site_id
 _symmetry_equiv_pos_as_xyz
  1  'x, y, z'
loop_
 _atom_site_type_symbol
 _atom_site_label
 _atom_site_symmetry_multiplicity
 _atom_site_fract_x
 _atom_site_fract_y
 _atom_site_fract_z
 _atom_site_occupancy
  Sr  Sr0  1  0.36243800  0.36243800  0.97141200  1
  Sr  Sr1  1  0.35488500  0.35488500  0.77112700  1
  Sr  Sr2  1  0.63756200  0.63756200  0.82858800  1
  Sr  Sr3  1  0.35726300  0.35726300  0.67098100  1
  Sr  Sr4  1  0.64437700  0.64437700  0.72898900  1
  Sr  Sr5  1  0.35779800  0.35779800  0.57095900  1
  Sr  Sr6  1  0.64169900  0.64169900  0.62878200  1
  Sr  Sr7  1  0.35714000  0.35714000  0.47107100  1
  Sr  Sr8  1  0.64193200  0.64193200  0.52879200  1
  Sr  Sr9  1  0.35742900  0.35742900  0.37106200  1
  Sr  Sr10  1  0.64257100  0.64257100  0.42893800  1
  Sr  Sr11  1  0.35806800  0.35806800  0.27120800  1
  Sr  Sr12  1  0.64286000  0.64286000  0.32892900  1
  Sr  Sr13  1  0.35830100  0.35830100  0.17121800  1
  Sr  Sr14  1  0.64220200  0.64220200  0.22904100  1
  Sr  Sr15  1  0.35562300  0.35562300  0.07101100  1
  Sr  Sr16  1  0.64273700  0.64273700  0.12901900  1
  Sr  Sr17  1  0.64511500  0.64511500  0.02887300  1
  La  La18  1  0.33023900  0.33023900  0.87255600  1
  La  La19  1  0.66976100  0.66976100  0.92744400  1
  Mg  Mg20  1  0.00000000  0.00000000  0.90000000  1
  Ru  Ru21  1  0.00119000  0.00119000  0.80018100  1
  Ru  Ru22  1  0.00015300  0.00015300  0.69984200  1
  Ru  Ru23  1  0.99975600  0.99975600  0.59988200  1
  Ru  Ru24  1  0.99977200  0.99977200  0.49996200  1
  Ru  Ru25  1  0.00000000  0.00000000  0.40000000  1
  Ru  Ru26  1  0.99881000  0.99881000  0.99981900  1
  Ru  Ru27  1  0.00022800  0.00022800  0.30003800  1
  Ru  Ru28  1  0.00024400  0.00024400  0.20011800  1
  Ru  Ru29  1  0.99984700  0.99984700  0.10015800  1
  O  O30  1  0.13374500  0.13374500  0.93443700  1
  O  O31  1  0.16601400  0.16601400  0.83312100  1
  O  O32  1  0.50000000  0.00000000  0.90000000  1
  O  O33  1  0.16265400  0.16265400  0.73236900  1
  O  O34  1  0.83398600  0.83398600  0.96687900  1
  O  O35  1  0.49976100  0.00154800  0.79981600  1
  O  O36  1  0.16338200  0.16338200  0.63232900  1
  O  O37  1  0.86625500  0.86625500  0.86556300  1
  O  O38  1  0.00000000  0.50000000  0.90000000  1
  O  O39  1  0.50028600  0.00053800  0.69987200  1
  O  O40  1  0.00000100  0.49987700  0.49998100  1
  O  O41  1  0.16253200  0.16253200  0.53243400  1
  O  O42  1  0.83976000  0.83976000  0.76760200  1
  O  O43  1  0.00154800  0.49976100  0.79981600  1
  O  O44  1  0.49958200  0.99943500  0.59984800  1
  O  O45  1  0.16297200  0.16297200  0.43246800  1
  O  O46  1  0.83734800  0.83734800  0.66740900  1
  O  O47  1  0.00053800  0.50028600  0.69987200  1
  O  O48  1  0.49987700  0.00000100  0.49998100  1
  O  O49  1  0.16292000  0.16292000  0.33250600  1
  O  O50  1  0.83596000  0.83596000  0.56738300  1
  O  O51  1  0.99943500  0.49958200  0.59984800  1
  O  O52  1  0.50000000  0.00000000  0.40000000  1
  O  O53  1  0.00056500  0.50041800  0.20015200  1
  O  O54  1  0.16404000  0.16404000  0.23261700  1
  O  O55  1  0.83708000  0.83708000  0.46749400  1
  O  O56  1  0.50012300  0.99999900  0.30001900  1
  O  O57  1  0.16265200  0.16265200  0.13259100  1
  O  O58  1  0.83702800  0.83702800  0.36753200  1
  O  O59  1  0.00000000  0.50000000  0.40000000  1
  O  O60  1  0.50041800  0.00056500  0.20015200  1
  O  O61  1  0.99845200  0.50023900  0.00018400  1
  O  O62  1  0.16024000  0.16024000  0.03239800  1
  O  O63  1  0.83746800  0.83746800  0.26756600  1
  O  O64  1  0.99999900  0.50012300  0.30001900  1
  O  O65  1  0.49971400  0.99946200  0.10012800  1
  O  O66  1  0.83661800  0.83661800  0.16767100  1
  O  O67  1  0.50023900  0.99845200  0.00018400  1
  O  O68  1  0.83734600  0.83734600  0.06763100  1
  O  O69  1  0.99946200  0.49971400  0.10012800  1
