# generated using pymatgen
data_Sm3Th5F27
_symmetry_space_group_name_H-M   'P 1'
_cell_length_a   4.12741800
_cell_length_b   7.34220844
_cell_length_c   17.25260607
_cell_angle_alpha   88.48366150
_cell_angle_beta   90.00000000
_cell_angle_gamma   90.00000000
_symmetry_Int_Tables_number   1
_chemical_formula_structural   Sm3Th5F27
_chemical_formula_sum   'Sm3 Th5 F27'
_cell_volume   522.64615693
_cell_formula_units_Z   1
loop_
 _symmetry_equiv_pos_site_id
 _symmetry_equiv_pos_as_xyz
  1  'x, y, z'
loop_
 _atom_site_type_symbol
 _atom_site_label
 _atom_site_symmetry_multiplicity
 _atom_site_fract_x
 _atom_site_fract_y
 _atom_site_fract_z
 _atom_site_occupancy
  Sm  Sm0  1  0.75000000  0.65011100  0.57956500  1
  Sm  Sm1  1  0.75000000  0.83291300  0.32766800  1
  Sm  Sm2  1  0.75000000  0.80616500  0.81827000  1
  Th  Th3  1  0.25000000  0.16341600  0.17130700  1
  Th  Th4  1  0.25000000  0.36916300  0.41687400  1
  Th  Th5  1  0.25000000  0.36100700  0.91468500  1
  Th  Th6  1  0.25000000  0.17834300  0.67041000  1
  Th  Th7  1  0.75000000  0.67396800  0.08320300  1
  F  F8  1  0.25000000  0.21151900  0.04057100  1
  F  F9  1  0.25000000  0.19323400  0.53707500  1
  F  F10  1  0.25000000  0.48091300  0.63685500  1
  F  F11  1  0.25000000  0.07385200  0.38831900  1
  F  F12  1  0.25000000  0.34148100  0.27617200  1
  F  F13  1  0.25000000  0.58237100  0.01462000  1
  F  F14  1  0.25000000  0.82187000  0.10959400  1
  F  F15  1  0.25000000  0.06790700  0.89471700  1
  F  F16  1  0.25000000  0.33573000  0.78051100  1
  F  F17  1  0.25000000  0.62132700  0.51206000  1
  F  F18  1  0.25000000  0.66687800  0.35900500  1
  F  F19  1  0.25000000  0.90821700  0.25629900  1
  F  F20  1  0.25000000  0.67566100  0.85692100  1
  F  F21  1  0.25000000  0.89563100  0.73644600  1
  F  F22  1  0.75000000  0.43701700  0.35730100  1
  F  F23  1  0.75000000  0.10428400  0.25713700  1
  F  F24  1  0.75000000  0.35272700  0.14450700  1
  F  F25  1  0.75000000  0.39626800  0.49525500  1
  F  F26  1  0.75000000  0.38682200  0.98863000  1
  F  F27  1  0.75000000  0.46144100  0.85476600  1
  F  F28  1  0.75000000  0.80063000  0.45567300  1
  F  F29  1  0.75000000  0.78959000  0.95724000  1
  F  F30  1  0.75000000  0.09267200  0.77319200  1
  F  F31  1  0.75000000  0.00271800  0.11660800  1
  F  F32  1  0.75000000  0.94607000  0.61316800  1
  F  F33  1  0.75000000  0.67644600  0.21585000  1
  F  F34  1  0.75000000  0.65123500  0.71052500  1
