# generated using pymatgen
data_NaLa5Mg4(WO6)4
_symmetry_space_group_name_H-M   'P 1'
_cell_length_a   11.24648419
_cell_length_b   7.93892658
_cell_length_c   9.75102562
_cell_angle_alpha   65.90794140
_cell_angle_beta   54.81617155
_cell_angle_gamma   44.89306585
_symmetry_Int_Tables_number   1
_chemical_formula_structural   NaLa5Mg4(WO6)4
_chemical_formula_sum   'Na1 La5 Mg4 W4 O24'
_cell_volume   502.21226879
_cell_formula_units_Z   1
loop_
 _symmetry_equiv_pos_site_id
 _symmetry_equiv_pos_as_xyz
  1  'x, y, z'
loop_
 _atom_site_type_symbol
 _atom_site_label
 _atom_site_symmetry_multiplicity
 _atom_site_fract_x
 _atom_site_fract_y
 _atom_site_fract_z
 _atom_site_occupancy
  Na  Na0  1  0.01910200  0.74994400  0.99797800  1
  La  La1  1  0.25321700  0.25072200  0.49723800  1
  La  La2  1  0.25296800  0.74998400  0.50067400  1
  La  La3  1  0.51154400  0.74998700  0.00234300  1
  La  La4  1  0.75392400  0.24927800  0.49728500  1
  La  La5  1  0.75080500  0.75001300  0.50615100  1
  Mg  Mg6  1  0.12632000  0.25462200  0.24259200  1
  Mg  Mg7  1  0.63098100  0.24536100  0.24257700  1
  Mg  Mg8  1  0.37115400  0.75000100  0.75888300  1
  Mg  Mg9  1  0.87647900  0.74997800  0.75776800  1
  W  W10  1  0.12775100  0.74995400  0.24139000  1
  W  W11  1  0.36754800  0.25375300  0.76134200  1
  W  W12  1  0.63380300  0.75000100  0.23982200  1
  W  W13  1  0.87130200  0.24628100  0.76130600  1
  O  O14  1  0.10436900  0.98803100  0.30296000  1
  O  O15  1  0.23878200  0.22546300  0.98978900  1
  O  O16  1  0.03223400  0.25784000  0.50680600  1
  O  O17  1  0.39376700  0.98075500  0.22820700  1
  O  O18  1  0.13311000  0.51003700  0.23404200  1
  O  O19  1  0.16061500  0.48717800  0.69709600  1
  O  O20  1  0.59847500  0.99235500  0.30184000  1
  O  O21  1  0.34247100  0.51201100  0.30289600  1
  O  O22  1  0.71427100  0.27450200  0.98979700  1
  O  O23  1  0.54000600  0.24230000  0.50681000  1
  O  O24  1  0.35503800  0.50092800  0.76736700  1
  O  O25  1  0.10601700  0.99922400  0.76728800  1
  O  O26  1  0.89311200  0.98987700  0.23410800  1
  O  O27  1  0.62465300  0.51917800  0.22810700  1
  O  O28  1  0.46856100  0.74993900  0.49356400  1
  O  O29  1  0.28826300  0.75001900  0.01336700  1
  O  O30  1  0.65813400  0.49427500  0.69730100  1
  O  O31  1  0.40244500  0.00571000  0.69729100  1
  O  O32  1  0.84084800  0.50766700  0.30184300  1
  O  O33  1  0.84353200  0.51351500  0.77142700  1
  O  O34  1  0.60707200  0.98659700  0.77137100  1
  O  O35  1  0.97027400  0.74989900  0.49676900  1
  O  O36  1  0.77540400  0.75004000  0.01089500  1
  O  O37  1  0.89785300  0.01278200  0.69711000  1
