# generated using pymatgen
data_Na3(Mo9O26)2
_symmetry_space_group_name_H-M   'P 1'
_cell_length_a   7.97281403
_cell_length_b   23.07430207
_cell_length_c   10.29104108
_cell_angle_alpha   41.39594515
_cell_angle_beta   108.96615098
_cell_angle_gamma   115.45457813
_symmetry_Int_Tables_number   1
_chemical_formula_structural   Na3(Mo9O26)2
_chemical_formula_sum   'Na3 Mo18 O52'
_cell_volume   1130.36621211
_cell_formula_units_Z   1
loop_
 _symmetry_equiv_pos_site_id
 _symmetry_equiv_pos_as_xyz
  1  'x, y, z'
loop_
 _atom_site_type_symbol
 _atom_site_label
 _atom_site_symmetry_multiplicity
 _atom_site_fract_x
 _atom_site_fract_y
 _atom_site_fract_z
 _atom_site_occupancy
  Na  Na0  1  0.76332200  0.71551600  0.50626200  1
  Na  Na1  1  0.15420200  0.56076100  0.39060500  1
  Na  Na2  1  0.74082100  0.10880600  0.56956600  1
  Mo  Mo3  1  0.60436500  0.89980300  0.04031500  1
  Mo  Mo4  1  0.45826600  0.69905900  0.76763600  1
  Mo  Mo5  1  0.32517300  0.81968900  0.33806900  1
  Mo  Mo6  1  0.83343300  0.88174400  0.47402300  1
  Mo  Mo7  1  0.08998400  0.95635600  0.09711300  1
  Mo  Mo8  1  0.21611100  0.45753800  0.21467600  1
  Mo  Mo9  1  0.53598800  0.27637100  0.14000800  1
  Mo  Mo10  1  0.81843400  0.51115900  0.86371200  1
  Mo  Mo11  1  0.76051900  0.82058500  0.92739300  1
  Mo  Mo12  1  0.17746700  0.20037500  0.65216800  1
  Mo  Mo13  1  0.69057800  0.62052800  0.35306300  1
  Mo  Mo14  1  0.22792300  0.06708900  0.24221200  1
  Mo  Mo15  1  0.37770500  0.44009800  0.93115000  1
  Mo  Mo16  1  0.88731800  0.17004800  0.01525100  1
  Mo  Mo17  1  0.08712300  0.71124200  0.84134900  1
  Mo  Mo18  1  0.16621100  0.15889100  0.39783100  1
  Mo  Mo19  1  0.50714900  0.09373300  0.85479100  1
  Mo  Mo20  1  0.82711600  0.37415300  0.80085500  1
  O  O21  1  0.98459700  0.00320900  0.40158600  1
  O  O22  1  0.14172600  0.04500000  0.60908100  1
  O  O23  1  0.70595000  0.25555500  0.31242900  1
  O  O24  1  0.04208900  0.82185500  0.66009600  1
  O  O25  1  0.67238100  0.85755200  0.29806400  1
  O  O26  1  0.82035900  0.02137700  0.26784800  1
  O  O27  1  0.88815800  0.97325600  0.94388500  1
  O  O28  1  0.72753200  0.69478300  0.07663200  1
  O  O29  1  0.45234000  0.03477700  0.36413500  1
  O  O30  1  0.96728900  0.64143600  0.79438600  1
  O  O31  1  0.34616300  0.81367000  0.17474700  1
  O  O32  1  0.92099400  0.43963600  0.85996100  1
  O  O33  1  0.11930800  0.47722700  0.33454200  1
  O  O34  1  0.22782500  0.46270300  0.73914900  1
  O  O35  1  0.68984900  0.73492700  0.68833200  1
  O  O36  1  0.97710900  0.46372700  0.09095500  1
  O  O37  1  0.30140800  0.68542800  0.60459400  1
  O  O38  1  0.60189400  0.87245100  0.89613100  1
  O  O39  1  0.91033600  0.30477000  0.81601300  1
  O  O40  1  0.03946000  0.65317300  0.07318200  1
  O  O41  1  0.75089900  0.85670400  0.69726500  1
  O  O42  1  0.46629600  0.83833400  0.49485900  1
  O  O43  1  0.39746900  0.57620600  0.03234300  1
  O  O44  1  0.24135400  0.09020100  0.92438200  1
  O  O45  1  0.45899400  0.56169100  0.40787100  1
  O  O46  1  0.33886400  0.73226700  0.84318200  1
  O  O47  1  0.70156700  0.73613100  0.23067700  1
  O  O48  1  0.08014600  0.82393200  0.32802600  1
  O  O49  1  0.59300000  0.03647200  0.47220100  1
  O  O50  1  0.31903300  0.34699400  0.39984000  1
  O  O51  1  0.61575600  0.28251100  0.96710600  1
  O  O52  1  0.81651000  0.54539500  0.39602800  1
  O  O53  1  0.26929900  0.44740000  0.04349200  1
  O  O54  1  0.38661300  0.30473200  0.59704800  1
  O  O55  1  0.81379600  0.59559400  0.57136400  1
  O  O56  1  0.33808800  0.30543500  0.15877700  1
  O  O57  1  0.22865300  0.41393600  0.46632900  1
  O  O58  1  0.59279300  0.54327600  0.83304900  1
  O  O59  1  0.39422500  0.17410300  0.61401700  1
  O  O60  1  0.57984300  0.41340200  0.90839300  1
  O  O61  1  0.70039500  0.45214800  0.55560600  1
  O  O62  1  0.90234300  0.18236100  0.67326300  1
  O  O63  1  0.04687600  0.19063800  0.46743600  1
  O  O64  1  0.61670500  0.12846100  0.99559700  1
  O  O65  1  0.34557600  0.96024600  0.09165000  1
  O  O66  1  0.79229500  0.16991500  0.78246500  1
  O  O67  1  0.33736600  0.15975200  0.26856000  1
  O  O68  1  0.57193700  0.02087500  0.85380500  1
  O  O69  1  0.97121300  0.17291100  0.21171200  1
  O  O70  1  0.98702700  0.86786700  0.95209900  1
  O  O71  1  0.04629000  0.95948700  0.26368800  1
  O  O72  1  0.09966700  0.16807500  0.98928800  1
