# generated using pymatgen
data_Na8Al6Si6O25
_symmetry_space_group_name_H-M   'P 1'
_cell_length_a   8.95776446
_cell_length_b   8.95776446
_cell_length_c   8.95776412
_cell_angle_alpha   90.30195922
_cell_angle_beta   90.30195922
_cell_angle_gamma   90.30196099
_symmetry_Int_Tables_number   1
_chemical_formula_structural   Na8Al6Si6O25
_chemical_formula_sum   'Na8 Al6 Si6 O25'
_cell_volume   718.75477237
_cell_formula_units_Z   1
loop_
 _symmetry_equiv_pos_site_id
 _symmetry_equiv_pos_as_xyz
  1  'x, y, z'
loop_
 _atom_site_type_symbol
 _atom_site_label
 _atom_site_symmetry_multiplicity
 _atom_site_fract_x
 _atom_site_fract_y
 _atom_site_fract_z
 _atom_site_occupancy
  Na  Na0  1  0.84402400  0.15604500  0.15584700  1
  Na  Na1  1  0.87359500  0.87359500  0.87359500  1
  Na  Na2  1  0.70045900  0.30634400  0.69843100  1
  Na  Na3  1  0.69843100  0.70045900  0.30634400  1
  Na  Na4  1  0.30634400  0.69843100  0.70045900  1
  Na  Na5  1  0.19039200  0.19039200  0.19039200  1
  Na  Na6  1  0.15604500  0.15584700  0.84402400  1
  Na  Na7  1  0.15584700  0.84402400  0.15604500  1
  Al  Al8  1  0.00562000  0.25281500  0.50208600  1
  Al  Al9  1  0.75281800  0.50369500  0.00178200  1
  Al  Al10  1  0.50369500  0.00178200  0.75281800  1
  Al  Al11  1  0.50208600  0.00562000  0.25281500  1
  Al  Al12  1  0.25281500  0.50208600  0.00562000  1
  Al  Al13  1  0.00178200  0.75281800  0.50369500  1
  Si  Si14  1  0.00194800  0.50078300  0.25196200  1
  Si  Si15  1  0.75401300  0.00335400  0.50430400  1
  Si  Si16  1  0.50430400  0.75401300  0.00335400  1
  Si  Si17  1  0.50078300  0.25196200  0.00194800  1
  Si  Si18  1  0.25196200  0.00194800  0.50078300  1
  Si  Si19  1  0.00335400  0.50430400  0.75401300  1
  O  O20  1  0.93805200  0.63680700  0.35694600  1
  O  O21  1  0.94100600  0.36598600  0.64932000  1
  O  O22  1  0.86091700  0.43854200  0.15136200  1
  O  O23  1  0.86380800  0.56606700  0.85363600  1
  O  O24  1  0.85285000  0.14318700  0.44128200  1
  O  O25  1  0.85363600  0.86380800  0.56606700  1
  O  O26  1  0.65391400  0.06584000  0.64403800  1
  O  O27  1  0.64932000  0.94100600  0.36598600  1
  O  O28  1  0.63680700  0.35694600  0.93805200  1
  O  O29  1  0.64403800  0.65391400  0.06584000  1
  O  O30  1  0.56799900  0.14935200  0.13709600  1
  O  O31  1  0.56606700  0.85363600  0.86380800  1
  O  O32  1  0.43854200  0.15136200  0.86091700  1
  O  O33  1  0.44128200  0.85285000  0.14318700  1
  O  O34  1  0.35865800  0.34810200  0.06430300  1
  O  O35  1  0.36598600  0.64932000  0.94100600  1
  O  O36  1  0.34810200  0.06430300  0.35865800  1
  O  O37  1  0.35694600  0.93805200  0.63680700  1
  O  O38  1  0.14935200  0.13709600  0.56799900  1
  O  O39  1  0.15136200  0.86091700  0.43854200  1
  O  O40  1  0.13709600  0.56799900  0.14935200  1
  O  O41  1  0.14318700  0.44128200  0.85285000  1
  O  O42  1  0.06430300  0.35865800  0.34810200  1
  O  O43  1  0.06584000  0.64403800  0.65391400  1
  O  O44  1  0.03103900  0.03103900  0.03103900  1
