# generated using pymatgen
data_Na3PrTi2Nb2O12
_symmetry_space_group_name_H-M   'P 1'
_cell_length_a   5.53899000
_cell_length_b   5.61941600
_cell_length_c   15.64710300
_cell_angle_alpha   90.00000000
_cell_angle_beta   90.00000000
_cell_angle_gamma   90.00000000
_symmetry_Int_Tables_number   1
_chemical_formula_structural   Na3PrTi2Nb2O12
_chemical_formula_sum   'Na6 Pr2 Ti4 Nb4 O24'
_cell_volume   487.02999162
_cell_formula_units_Z   2
loop_
 _symmetry_equiv_pos_site_id
 _symmetry_equiv_pos_as_xyz
  1  'x, y, z'
loop_
 _atom_site_type_symbol
 _atom_site_label
 _atom_site_symmetry_multiplicity
 _atom_site_fract_x
 _atom_site_fract_y
 _atom_site_fract_z
 _atom_site_occupancy
  Na  Na0  1  0.99956000  0.99242400  0.37162900  1
  Na  Na1  1  0.99956000  0.99242400  0.87837100  1
  Na  Na2  1  0.50044000  0.49242400  0.87837100  1
  Na  Na3  1  0.50044000  0.49242400  0.37162900  1
  Na  Na4  1  0.50496700  0.52982600  0.62500000  1
  Na  Na5  1  0.99503300  0.02982600  0.62500000  1
  Pr  Pr6  1  0.50537100  0.53796200  0.12500000  1
  Pr  Pr7  1  0.99462900  0.03796200  0.12500000  1
  Ti  Ti8  1  0.00661900  0.52001900  0.99562900  1
  Ti  Ti9  1  0.00661900  0.52001900  0.25437100  1
  Ti  Ti10  1  0.49338100  0.02001900  0.25437100  1
  Ti  Ti11  1  0.49338100  0.02001900  0.99562900  1
  Nb  Nb12  1  0.00514700  0.52093100  0.75117900  1
  Nb  Nb13  1  0.49485300  0.02093100  0.75117900  1
  Nb  Nb14  1  0.49485300  0.02093100  0.49882100  1
  Nb  Nb15  1  0.00514700  0.52093100  0.49882100  1
  O  O16  1  0.06891400  0.47420300  0.12500000  1
  O  O17  1  0.06642700  0.47500600  0.62500000  1
  O  O18  1  0.20765100  0.20225600  0.48147000  1
  O  O19  1  0.21994700  0.20713500  0.99013800  1
  O  O20  1  0.21994700  0.20713500  0.25986200  1
  O  O21  1  0.20765100  0.20225600  0.76853000  1
  O  O22  1  0.28005300  0.70713500  0.25986200  1
  O  O23  1  0.29234900  0.70225600  0.48147000  1
  O  O24  1  0.29234900  0.70225600  0.76853000  1
  O  O25  1  0.28005300  0.70713500  0.99013800  1
  O  O26  1  0.43108600  0.97420300  0.12500000  1
  O  O27  1  0.43357300  0.97500600  0.62500000  1
  O  O28  1  0.56619600  0.00315000  0.37222100  1
  O  O29  1  0.56619600  0.00315000  0.87777900  1
  O  O30  1  0.71938400  0.26466900  0.02445300  1
  O  O31  1  0.71938400  0.26466900  0.22554700  1
  O  O32  1  0.70961300  0.28091700  0.51631100  1
  O  O33  1  0.70961300  0.28091700  0.73368900  1
  O  O34  1  0.78061600  0.76466900  0.22554700  1
  O  O35  1  0.79038700  0.78091700  0.73368900  1
  O  O36  1  0.78061600  0.76466900  0.02445300  1
  O  O37  1  0.79038700  0.78091700  0.51631100  1
  O  O38  1  0.93380400  0.50315000  0.37222100  1
  O  O39  1  0.93380400  0.50315000  0.87777900  1
