# generated using pymatgen
data_Na3H12Ru2(C2O9)2
_symmetry_space_group_name_H-M   'P 1'
_cell_length_a   9.68834100
_cell_length_b   9.69187779
_cell_length_c   9.95843977
_cell_angle_alpha   106.74019745
_cell_angle_beta   109.31129843
_cell_angle_gamma   88.33462583
_symmetry_Int_Tables_number   1
_chemical_formula_structural   Na3H12Ru2(C2O9)2
_chemical_formula_sum   'Na6 H24 Ru4 C8 O36'
_cell_volume   842.80017206
_cell_formula_units_Z   2
loop_
 _symmetry_equiv_pos_site_id
 _symmetry_equiv_pos_as_xyz
  1  'x, y, z'
loop_
 _atom_site_type_symbol
 _atom_site_label
 _atom_site_symmetry_multiplicity
 _atom_site_fract_x
 _atom_site_fract_y
 _atom_site_fract_z
 _atom_site_occupancy
  Na  Na0  1  0.60512500  0.00514700  0.38679500  1
  Na  Na1  1  0.83988000  0.37062600  0.79367200  1
  Na  Na2  1  0.99985200  0.50095500  0.50020300  1
  Na  Na3  1  0.16059100  0.62902600  0.20559000  1
  Na  Na4  1  0.55754400  0.96688300  0.99511900  1
  Na  Na5  1  0.39238500  0.99533400  0.61370400  1
  H  H6  1  0.86192500  0.08066600  0.64285200  1
  H  H7  1  0.12937900  0.15329200  0.56076700  1
  H  H8  1  0.23101800  0.21503300  0.72448600  1
  H  H9  1  0.88023400  0.16041300  0.53248500  1
  H  H10  1  0.34227400  0.16054900  0.41189200  1
  H  H11  1  0.49349200  0.25116800  0.51757800  1
  H  H12  1  0.57038000  0.22334900  0.22754300  1
  H  H13  1  0.72547800  0.16821700  0.23272800  1
  H  H14  1  0.10512000  0.48123100  0.77633600  1
  H  H15  1  0.57719300  0.48676600  0.64901700  1
  H  H16  1  0.65885700  0.44626000  0.52805600  1
  H  H17  1  0.01901000  0.61540500  0.81350400  1
  H  H18  1  0.98106900  0.38479800  0.18743600  1
  H  H19  1  0.34081600  0.55272600  0.47084900  1
  H  H20  1  0.42298400  0.51280600  0.35041700  1
  H  H21  1  0.89473900  0.51894000  0.22362300  1
  H  H22  1  0.28121000  0.84681400  0.78204900  1
  H  H23  1  0.40995500  0.75869500  0.74664900  1
  H  H24  1  0.50682600  0.74927200  0.48272300  1
  H  H25  1  0.65869300  0.83923200  0.58744000  1
  H  H26  1  0.11963700  0.83954800  0.46765700  1
  H  H27  1  0.76792600  0.78107100  0.27731600  1
  H  H28  1  0.87029000  0.84858200  0.43918900  1
  H  H29  1  0.13866100  0.91933200  0.35746300  1
  Ru  Ru30  1  0.88868300  0.04252500  0.95308600  1
  Ru  Ru31  1  0.59688900  0.55606500  0.99031100  1
  Ru  Ru32  1  0.40271600  0.44266100  0.00867500  1
  Ru  Ru33  1  0.11435200  0.96107200  0.04767200  1
  C  C34  1  0.59985700  0.23925600  0.90605600  1
  C  C35  1  0.00256800  0.13751400  0.28239100  1
  C  C36  1  0.13282700  0.24534500  0.00775500  1
  C  C37  1  0.33803700  0.49837400  0.71662300  1
  C  C38  1  0.66128900  0.50085300  0.28257600  1
  C  C39  1  0.86771600  0.75727900  0.99400500  1
  C  C40  1  0.99923200  0.86404800  0.71784200  1
  C  C41  1  0.40015500  0.76031800  0.09646200  1
  O  O42  1  0.64826900  0.11485000  0.86817200  1
  O  O43  1  0.19091100  0.12356500  0.64815200  1
  O  O44  1  0.47613700  0.24630500  0.93380300  1
  O  O45  1  0.98796000  0.22450500  0.95365300  1
  O  O46  1  0.11334700  0.06200600  0.26041300  1
  O  O47  1  0.82131400  0.15542700  0.59453500  1
  O  O48  1  0.43941200  0.15462300  0.48120300  1
  O  O49  1  0.67059000  0.35696800  0.91655100  1
  O  O50  1  0.62730700  0.13845500  0.22856700  1
  O  O51  1  0.00210600  0.20108800  0.41226600  1
  O  O52  1  0.21291200  0.14513900  0.04953600  1
  O  O53  1  0.89221800  0.14725200  0.16538500  1
  O  O54  1  0.28392600  0.43932600  0.79472300  1
  O  O55  1  0.62525300  0.40941000  0.59638000  1
  O  O56  1  0.00500000  0.51600900  0.74866900  1
  O  O57  1  0.26091000  0.50109300  0.58816400  1
  O  O58  1  0.47460600  0.55683800  0.77789300  1
  O  O59  1  0.18830600  0.36729700  0.01846900  1
  O  O60  1  0.81103700  0.63562200  0.98170400  1
  O  O61  1  0.52493800  0.44208900  0.22095900  1
  O  O62  1  0.73837300  0.49933700  0.41137800  1
  O  O63  1  0.99507500  0.48464000  0.25121300  1
  O  O64  1  0.37548400  0.59030400  0.40366600  1
  O  O65  1  0.71559500  0.55984900  0.20428400  1
  O  O66  1  0.11181900  0.85823600  0.83483700  1
  O  O67  1  0.78735000  0.86024300  0.95667000  1
  O  O68  1  0.99787800  0.79923800  0.58760700  1
  O  O69  1  0.37744600  0.85653800  0.76991200  1
  O  O70  1  0.32962100  0.64146500  0.08335900  1
  O  O71  1  0.56042400  0.84618200  0.52077900  1
  O  O72  1  0.17803400  0.84363000  0.40483200  1
  O  O73  1  0.88730800  0.93770600  0.74028800  1
  O  O74  1  0.01209700  0.77605900  0.04208900  1
  O  O75  1  0.52371700  0.75288800  0.06651800  1
  O  O76  1  0.80675800  0.87476200  0.35022200  1
  O  O77  1  0.35399700  0.88401000  0.13885900  1
