# generated using pymatgen
data_Na7La7Th2Ti18O54
_symmetry_space_group_name_H-M   'P 1'
_cell_length_a   35.75072650
_cell_length_b   35.75068560
_cell_length_c   5.47095164
_cell_angle_alpha   85.61213457
_cell_angle_beta   85.61128035
_cell_angle_gamma   8.77658508
_symmetry_Int_Tables_number   1
_chemical_formula_structural   Na7La7Th2Ti18O54
_chemical_formula_sum   'Na7 La7 Th2 Ti18 O54'
_cell_volume   1063.78228436
_cell_formula_units_Z   1
loop_
 _symmetry_equiv_pos_site_id
 _symmetry_equiv_pos_as_xyz
  1  'x, y, z'
loop_
 _atom_site_type_symbol
 _atom_site_label
 _atom_site_symmetry_multiplicity
 _atom_site_fract_x
 _atom_site_fract_y
 _atom_site_fract_z
 _atom_site_occupancy
  Na  Na0  1  0.02941800  0.02941800  0.97058200  1
  Na  Na1  1  0.13866600  0.13866600  0.86133400  1
  Na  Na2  1  0.69404500  0.69404500  0.30595500  1
  Na  Na3  1  0.24976500  0.24976500  0.75023500  1
  Na  Na4  1  0.80519900  0.80519900  0.19480100  1
  Na  Na5  1  0.41542200  0.41542200  0.58457800  1
  Na  Na6  1  0.97270800  0.97270800  0.02729200  1
  La  La7  1  0.52998400  0.52998400  0.47001600  1
  La  La8  1  0.08402900  0.08402900  0.91597100  1
  La  La9  1  0.63832600  0.63832600  0.36167400  1
  La  La10  1  0.19427700  0.19427700  0.80572300  1
  La  La11  1  0.74978100  0.74978100  0.25021900  1
  La  La12  1  0.30579300  0.30579300  0.69420700  1
  La  La13  1  0.85942100  0.85942100  0.14057900  1
  Th  Th14  1  0.91512700  0.91512700  0.08487300  1
  Th  Th15  1  0.47306400  0.47306400  0.52693600  1
  Ti  Ti16  1  0.05709800  0.05709800  0.44290200  1
  Ti  Ti17  1  0.61112000  0.61112000  0.88888000  1
  Ti  Ti18  1  0.55709800  0.55709800  0.94290200  1
  Ti  Ti19  1  0.16635800  0.16635800  0.33364200  1
  Ti  Ti20  1  0.11112000  0.11112000  0.38888000  1
  Ti  Ti21  1  0.72185900  0.72185900  0.77814100  1
  Ti  Ti22  1  0.66635800  0.66635800  0.83364200  1
  Ti  Ti23  1  0.27738400  0.27738400  0.22261600  1
  Ti  Ti24  1  0.22185900  0.22185900  0.27814100  1
  Ti  Ti25  1  0.83271600  0.83271600  0.66728400  1
  Ti  Ti26  1  0.77738400  0.77738400  0.72261600  1
  Ti  Ti27  1  0.38745300  0.38745300  0.11254700  1
  Ti  Ti28  1  0.33271600  0.33271600  0.16728400  1
  Ti  Ti29  1  0.94421100  0.94421100  0.55578900  1
  Ti  Ti30  1  0.88745300  0.88745300  0.61254700  1
  Ti  Ti31  1  0.50081100  0.50081100  0.99918900  1
  Ti  Ti32  1  0.44421100  0.44421100  0.05578900  1
  Ti  Ti33  1  0.00081100  0.00081100  0.49918900  1
  O  O34  1  0.02691700  0.02691700  0.47308300  1
  O  O35  1  0.84156100  0.26881800  0.73118200  1
  O  O36  1  0.77410100  0.33402200  0.22589900  1
  O  O37  1  0.58333000  0.58333000  0.91667000  1
  O  O38  1  0.52691700  0.52691700  0.97308300  1
  O  O39  1  0.39951000  0.82549900  0.17450100  1
  O  O40  1  0.33402200  0.77410100  0.66597800  1
  O  O41  1  0.31626400  0.90508800  0.68373600  1
  O  O42  1  0.26881800  0.84156100  0.15843900  1
  O  O43  1  0.13907800  0.13907800  0.36092200  1
  O  O44  1  0.08333000  0.08333000  0.41667000  1
  O  O45  1  0.96467300  0.37027800  0.62972200  1
  O  O46  1  0.90508800  0.31626400  0.09491200  1
  O  O47  1  0.86852400  0.46360000  0.13147600  1
  O  O48  1  0.82549900  0.39951000  0.60049000  1
  O  O49  1  0.69457500  0.69457500  0.80542500  1
  O  O50  1  0.63907800  0.63907800  0.86092200  1
  O  O51  1  0.51951900  0.92635300  0.07364700  1
  O  O52  1  0.46360000  0.86852400  0.53640000  1
  O  O53  1  0.42483600  0.01864700  0.57516400  1
  O  O54  1  0.37027800  0.96467300  0.03532700  1
  O  O55  1  0.25011600  0.25011600  0.24988400  1
  O  O56  1  0.19457500  0.19457500  0.30542500  1
  O  O57  1  0.07665900  0.48067300  0.51932700  1
  O  O58  1  0.01864700  0.42483600  0.98135300  1
  O  O59  1  0.97927700  0.57516100  0.02072300  1
  O  O60  1  0.92635300  0.51951900  0.48048100  1
  O  O61  1  0.80560200  0.80560200  0.69439800  1
  O  O62  1  0.75011600  0.75011600  0.74988400  1
  O  O63  1  0.62550800  0.04209100  0.95790900  1
  O  O64  1  0.57516100  0.97927700  0.42483900  1
  O  O65  1  0.54801400  0.11704700  0.45198600  1
  O  O66  1  0.48067300  0.07665900  0.92334100  1
  O  O67  1  0.36160800  0.36160800  0.13839200  1
  O  O68  1  0.30560200  0.30560200  0.19439800  1
  O  O69  1  0.15290700  0.62992100  0.37007900  1
  O  O70  1  0.11704700  0.54801400  0.88295300  1
  O  O71  1  0.09669600  0.68365300  0.90330400  1
  O  O72  1  0.04209100  0.62550800  0.37449200  1
  O  O73  1  0.91745600  0.91745600  0.58254400  1
  O  O74  1  0.86160800  0.86160800  0.63839200  1
  O  O75  1  0.75887700  0.12732400  0.87267600  1
  O  O76  1  0.68365300  0.09669600  0.31634700  1
  O  O77  1  0.63003900  0.26202900  0.36996100  1
  O  O78  1  0.62992100  0.15290700  0.84709300  1
  O  O79  1  0.47166400  0.47166400  0.02833600  1
  O  O80  1  0.41745600  0.41745600  0.08254400  1
  O  O81  1  0.30211100  0.69548600  0.30451400  1
  O  O82  1  0.26202900  0.63003900  0.73797100  1
  O  O83  1  0.22080600  0.77588200  0.77919400  1
  O  O84  1  0.12732400  0.75887700  0.24112300  1
  O  O85  1  0.97166400  0.97166400  0.52833600  1
  O  O86  1  0.77588200  0.22080600  0.22411800  1
  O  O87  1  0.69548600  0.30211100  0.69788900  1
