# generated using pymatgen
data_NaCaMg3Fe6(PO4)9
_symmetry_space_group_name_H-M   'P 1'
_cell_length_a   8.64978728
_cell_length_b   8.64978728
_cell_length_c   18.20096438
_cell_angle_alpha   80.73825209
_cell_angle_beta   80.73825209
_cell_angle_gamma   93.02908403
_symmetry_Int_Tables_number   1
_chemical_formula_structural   NaCaMg3Fe6(PO4)9
_chemical_formula_sum   'Na2 Ca2 Mg6 Fe12 P18 O72'
_cell_volume   1322.15872682
_cell_formula_units_Z   2
loop_
 _symmetry_equiv_pos_site_id
 _symmetry_equiv_pos_as_xyz
  1  'x, y, z'
loop_
 _atom_site_type_symbol
 _atom_site_label
 _atom_site_symmetry_multiplicity
 _atom_site_fract_x
 _atom_site_fract_y
 _atom_site_fract_z
 _atom_site_occupancy
  Na  Na0  1  0.25687000  0.74313000  0.25000000  1
  Na  Na1  1  0.74313000  0.25687000  0.75000000  1
  Ca  Ca2  1  0.50000000  0.00000000  0.50000000  1
  Ca  Ca3  1  0.00000000  0.50000000  0.00000000  1
  Mg  Mg4  1  0.65315700  0.67827100  0.58564600  1
  Mg  Mg5  1  0.34684300  0.32172900  0.41435400  1
  Mg  Mg6  1  0.96833000  0.03167000  0.25000000  1
  Mg  Mg7  1  0.67827100  0.65315700  0.08564600  1
  Mg  Mg8  1  0.32172900  0.34684300  0.91435400  1
  Mg  Mg9  1  0.03167000  0.96833000  0.75000000  1
  Fe  Fe10  1  0.01972800  0.82484500  0.54364500  1
  Fe  Fe11  1  0.50194000  0.31711100  0.62360200  1
  Fe  Fe12  1  0.49806000  0.68288900  0.37639800  1
  Fe  Fe13  1  0.98027200  0.17515500  0.45635500  1
  Fe  Fe14  1  0.35849200  0.16102700  0.20876100  1
  Fe  Fe15  1  0.83897300  0.64150800  0.29123900  1
  Fe  Fe16  1  0.82484500  0.01972800  0.04364500  1
  Fe  Fe17  1  0.31711100  0.50194000  0.12360200  1
  Fe  Fe18  1  0.68288900  0.49806000  0.87639800  1
  Fe  Fe19  1  0.17515500  0.98027200  0.95635500  1
  Fe  Fe20  1  0.16102700  0.35849200  0.70876100  1
  Fe  Fe21  1  0.64150800  0.83897300  0.79123900  1
  P  P22  1  0.31013500  0.59202400  0.54064200  1
  P  P23  1  0.20250500  0.12766800  0.58322300  1
  P  P24  1  0.74847800  0.02770800  0.62451300  1
  P  P25  1  0.25152200  0.97229200  0.37548700  1
  P  P26  1  0.79749500  0.87233200  0.41677700  1
  P  P27  1  0.68986500  0.40797600  0.45935800  1
  P  P28  1  0.64045400  0.91999700  0.20889900  1
  P  P29  1  0.54439600  0.45560400  0.25000000  1
  P  P30  1  0.08000300  0.35954600  0.29110100  1
  P  P31  1  0.59202400  0.31013500  0.04064200  1
  P  P32  1  0.12766800  0.20250500  0.08322300  1
  P  P33  1  0.02770800  0.74847800  0.12451300  1
  P  P34  1  0.97229200  0.25152200  0.87548700  1
  P  P35  1  0.87233200  0.79749500  0.91677700  1
  P  P36  1  0.40797600  0.68986500  0.95935800  1
  P  P37  1  0.91999700  0.64045400  0.70889900  1
  P  P38  1  0.45560400  0.54439600  0.75000000  1
  P  P39  1  0.35954600  0.08000300  0.79110100  1
  O  O40  1  0.86322300  0.69664500  0.63142200  1
  O  O41  1  0.29925800  0.44448900  0.60539400  1
  O  O42  1  0.10518300  0.16452700  0.65708700  1
  O  O43  1  0.18441400  0.95126600  0.57843900  1
  O  O44  1  0.14531900  0.64904600  0.54019500  1
  O  O45  1  0.62747200  0.91360700  0.60410300  1
  O  O46  1  0.43182100  0.71700800  0.55190800  1
  O  O47  1  0.68620800  0.19178700  0.62858900  1
  O  O48  1  0.38186800  0.15915200  0.58288300  1
  O  O49  1  0.36498600  0.53405600  0.46364400  1
  O  O50  1  0.16591100  0.22981200  0.50992700  1
  O  O51  1  0.89955600  0.04121400  0.56248200  1
  O  O52  1  0.10044400  0.95878600  0.43751800  1
  O  O53  1  0.83408900  0.77018800  0.49007300  1
  O  O54  1  0.63501400  0.46594400  0.53635600  1
  O  O55  1  0.61813200  0.84084800  0.41711700  1
  O  O56  1  0.31379200  0.80821300  0.37141100  1
  O  O57  1  0.56817900  0.28299200  0.44809200  1
  O  O58  1  0.37252800  0.08639300  0.39589700  1
  O  O59  1  0.85468100  0.35095400  0.45980500  1
  O  O60  1  0.81558600  0.04873400  0.42156100  1
  O  O61  1  0.20260700  0.03009200  0.29700000  1
  O  O62  1  0.89481700  0.83547300  0.34291300  1
  O  O63  1  0.70074200  0.55551100  0.39460600  1
  O  O64  1  0.62794200  0.77074700  0.27323800  1
  O  O65  1  0.44027800  0.50056400  0.32202200  1
  O  O66  1  0.13677700  0.30335500  0.36857800  1
  O  O67  1  0.50865200  0.27960000  0.25128900  1
  O  O68  1  0.47050200  0.97040600  0.20791600  1
  O  O69  1  0.95593800  0.24375200  0.27863100  1
  O  O70  1  0.75624800  0.04406200  0.22136900  1
  O  O71  1  0.02959400  0.52949800  0.29208400  1
  O  O72  1  0.72040000  0.49134800  0.24871100  1
  O  O73  1  0.69664500  0.86322300  0.13142200  1
  O  O74  1  0.49943600  0.55972200  0.17797800  1
  O  O75  1  0.22925300  0.37205800  0.22676200  1
  O  O76  1  0.44448900  0.29925800  0.10539400  1
  O  O77  1  0.16452700  0.10518300  0.15708700  1
  O  O78  1  0.96990800  0.79739300  0.20300000  1
  O  O79  1  0.95126600  0.18441400  0.07843900  1
  O  O80  1  0.64904600  0.14531900  0.04019500  1
  O  O81  1  0.91360700  0.62747200  0.10410300  1
  O  O82  1  0.71700800  0.43182100  0.05190800  1
  O  O83  1  0.19178700  0.68620800  0.12858900  1
  O  O84  1  0.15915200  0.38186800  0.08288300  1
  O  O85  1  0.53405600  0.36498600  0.96364400  1
  O  O86  1  0.22981200  0.16591100  0.00992700  1
  O  O87  1  0.04121400  0.89955600  0.06248200  1
  O  O88  1  0.95878600  0.10044400  0.93751800  1
  O  O89  1  0.77018800  0.83408900  0.99007300  1
  O  O90  1  0.46594400  0.63501400  0.03635600  1
  O  O91  1  0.84084800  0.61813200  0.91711700  1
  O  O92  1  0.80821300  0.31379200  0.87141100  1
  O  O93  1  0.28299200  0.56817900  0.94809200  1
  O  O94  1  0.08639300  0.37252800  0.89589700  1
  O  O95  1  0.35095400  0.85468100  0.95980500  1
  O  O96  1  0.04873400  0.81558600  0.92156100  1
  O  O97  1  0.03009200  0.20260700  0.79700000  1
  O  O98  1  0.83547300  0.89481700  0.84291300  1
  O  O99  1  0.55551100  0.70074200  0.89460600  1
  O  O100  1  0.77074700  0.62794200  0.77323800  1
  O  O101  1  0.50056400  0.44027800  0.82202200  1
  O  O102  1  0.30335500  0.13677700  0.86857800  1
  O  O103  1  0.27960000  0.50865200  0.75128900  1
  O  O104  1  0.97040600  0.47050200  0.70791600  1
  O  O105  1  0.24375200  0.95593800  0.77863100  1
  O  O106  1  0.04406200  0.75624800  0.72136900  1
  O  O107  1  0.52949800  0.02959400  0.79208400  1
  O  O108  1  0.49134800  0.72040000  0.74871100  1
  O  O109  1  0.55972200  0.49943600  0.67797800  1
  O  O110  1  0.37205800  0.22925300  0.72676200  1
  O  O111  1  0.79739300  0.96990800  0.70300000  1
