# generated using pymatgen
data_Na3La5Cl18
_symmetry_space_group_name_H-M   'P 1'
_cell_length_a   7.60494066
_cell_length_b   7.60494066
_cell_length_c   13.24043800
_cell_angle_alpha   90.00000000
_cell_angle_beta   90.00000000
_cell_angle_gamma   120.00000577
_symmetry_Int_Tables_number   1
_chemical_formula_structural   Na3La5Cl18
_chemical_formula_sum   'Na3 La5 Cl18'
_cell_volume   663.16961289
_cell_formula_units_Z   1
loop_
 _symmetry_equiv_pos_site_id
 _symmetry_equiv_pos_as_xyz
  1  'x, y, z'
loop_
 _atom_site_type_symbol
 _atom_site_label
 _atom_site_symmetry_multiplicity
 _atom_site_fract_x
 _atom_site_fract_y
 _atom_site_fract_z
 _atom_site_occupancy
  Na  Na0  1  0.00000000  0.00000000  0.50000000  1
  Na  Na1  1  0.66666700  0.33333300  0.37011500  1
  Na  Na2  1  0.66666700  0.33333300  0.62988500  1
  La  La3  1  0.00000000  0.00000000  0.83475000  1
  La  La4  1  0.00000000  0.00000000  0.16525000  1
  La  La5  1  0.33333300  0.66666700  0.33277300  1
  La  La6  1  0.33333300  0.66666700  0.00000000  1
  La  La7  1  0.33333300  0.66666700  0.66722700  1
  Cl  Cl8  1  0.97190800  0.24654400  0.00000000  1
  Cl  Cl9  1  0.97553900  0.25540800  0.32595400  1
  Cl  Cl10  1  0.97553900  0.25540800  0.67404600  1
  Cl  Cl11  1  0.75345600  0.72536500  0.00000000  1
  Cl  Cl12  1  0.74459200  0.72013100  0.32595400  1
  Cl  Cl13  1  0.74459200  0.72013100  0.67404600  1
  Cl  Cl14  1  0.05882800  0.63937900  0.83577200  1
  Cl  Cl15  1  0.05882800  0.63937900  0.16422800  1
  Cl  Cl16  1  0.04819300  0.62184200  0.50000000  1
  Cl  Cl17  1  0.27463500  0.02809200  0.00000000  1
  Cl  Cl18  1  0.27986900  0.02446100  0.32595400  1
  Cl  Cl19  1  0.27986900  0.02446100  0.67404600  1
  Cl  Cl20  1  0.58055100  0.94117200  0.83577200  1
  Cl  Cl21  1  0.58055100  0.94117200  0.16422800  1
  Cl  Cl22  1  0.57364900  0.95180700  0.50000000  1
  Cl  Cl23  1  0.36062100  0.41944900  0.83577200  1
  Cl  Cl24  1  0.36062100  0.41944900  0.16422800  1
  Cl  Cl25  1  0.37815800  0.42635100  0.50000000  1
