# generated using pymatgen
data_Na4Al3Si3NO15
_symmetry_space_group_name_H-M   'P 1'
_cell_length_a   9.13354700
_cell_length_b   9.23132267
_cell_length_c   9.23683492
_cell_angle_alpha   90.17942146
_cell_angle_beta   90.03324790
_cell_angle_gamma   90.24247673
_symmetry_Int_Tables_number   1
_chemical_formula_structural   Na4Al3Si3NO15
_chemical_formula_sum   'Na8 Al6 Si6 N2 O30'
_cell_volume   778.79021468
_cell_formula_units_Z   2
loop_
 _symmetry_equiv_pos_site_id
 _symmetry_equiv_pos_as_xyz
  1  'x, y, z'
loop_
 _atom_site_type_symbol
 _atom_site_label
 _atom_site_symmetry_multiplicity
 _atom_site_fract_x
 _atom_site_fract_y
 _atom_site_fract_z
 _atom_site_occupancy
  Na  Na0  1  0.21361800  0.78970400  0.20811100  1
  Na  Na1  1  0.78898300  0.20778500  0.20788500  1
  Na  Na2  1  0.22253000  0.21993200  0.21898900  1
  Na  Na3  1  0.77863900  0.78147900  0.21646800  1
  Na  Na4  1  0.20582900  0.79840600  0.79611600  1
  Na  Na5  1  0.79338600  0.20558100  0.79002500  1
  Na  Na6  1  0.20820300  0.18596800  0.79204200  1
  Na  Na7  1  0.79150500  0.82037900  0.79430000  1
  Al  Al8  1  0.24669600  0.49596100  0.00484500  1
  Al  Al9  1  0.75054000  0.50181100  0.00266500  1
  Al  Al10  1  0.50004600  0.00076800  0.25082200  1
  Al  Al11  1  0.99929600  0.74852700  0.49656000  1
  Al  Al12  1  0.99946100  0.25347000  0.49965200  1
  Al  Al13  1  0.49822400  0.99877300  0.74980200  1
  Si  Si14  1  0.50307900  0.24900300  0.99960300  1
  Si  Si15  1  0.49571500  0.74981200  0.00081400  1
  Si  Si16  1  0.99925300  0.49936000  0.25110600  1
  Si  Si17  1  0.75118200  0.00216200  0.49952100  1
  Si  Si18  1  0.24727300  0.99869900  0.49846300  1
  Si  Si19  1  0.99945200  0.50404000  0.75049400  1
  N  N20  1  0.00370600  0.99766200  0.01134800  1
  N  N21  1  0.49924400  0.49970900  0.50091400  1
  O  O22  1  0.36000800  0.34772900  0.03865500  1
  O  O23  1  0.64059200  0.65221700  0.03790400  1
  O  O24  1  0.14525100  0.54431200  0.15841900  1
  O  O25  1  0.85690900  0.45325100  0.15250400  1
  O  O26  1  0.53918700  0.15209700  0.14337800  1
  O  O27  1  0.46179900  0.84774400  0.14480300  1
  O  O28  1  0.34510200  0.03975100  0.35556800  1
  O  O29  1  0.65617700  0.96249100  0.35410200  1
  O  O30  1  0.04208100  0.35699000  0.34697300  1
  O  O31  1  0.95318800  0.64188100  0.34605700  1
  O  O32  1  0.15455300  0.85305100  0.45556700  1
  O  O33  1  0.84263000  0.14971000  0.46190500  1
  O  O34  1  0.14698800  0.13927300  0.53938100  1
  O  O35  1  0.85234000  0.86237900  0.53877400  1
  O  O36  1  0.03586900  0.64630500  0.65157500  1
  O  O37  1  0.96436500  0.35815800  0.65469900  1
  O  O38  1  0.65541100  0.03341900  0.64645100  1
  O  O39  1  0.34135400  0.96387200  0.64565600  1
  O  O40  1  0.46247100  0.15174600  0.85700700  1
  O  O41  1  0.53452600  0.84684300  0.85792400  1
  O  O42  1  0.17933700  0.47214100  0.81025500  1
  O  O43  1  0.81629800  0.53221400  0.81018200  1
  O  O44  1  0.08094700  0.37855200  0.91238100  1
  O  O45  1  0.92495600  0.62162000  0.90664600  1
  O  O46  1  0.12871900  0.99552900  0.93596800  1
  O  O47  1  0.88269000  0.01453700  0.93098300  1
  O  O48  1  0.99298700  0.87449600  0.10193300  1
  O  O49  1  0.00924700  0.09995200  0.12563000  1
  O  O50  1  0.34626700  0.65689100  0.96749600  1
  O  O51  1  0.65188900  0.34185400  0.96307500  1
