# generated using pymatgen
data_Na2MoO4
_symmetry_space_group_name_H-M   'P 1'
_cell_length_a   5.88169700
_cell_length_b   6.11419373
_cell_length_c   7.37182800
_cell_angle_alpha   90.00000000
_cell_angle_beta   90.00000000
_cell_angle_gamma   118.74988762
_symmetry_Int_Tables_number   1
_chemical_formula_structural   Na2MoO4
_chemical_formula_sum   'Na4 Mo2 O8'
_cell_volume   232.42442460
_cell_formula_units_Z   2
loop_
 _symmetry_equiv_pos_site_id
 _symmetry_equiv_pos_as_xyz
  1  'x, y, z'
loop_
 _atom_site_type_symbol
 _atom_site_label
 _atom_site_symmetry_multiplicity
 _atom_site_fract_x
 _atom_site_fract_y
 _atom_site_fract_z
 _atom_site_occupancy
  Na  Na0  1  0.31300600  0.68629900  0.75000000  1
  Na  Na1  1  0.03057000  0.00000000  0.00000000  1
  Na  Na2  1  0.03057000  0.00000000  0.50000000  1
  Na  Na3  1  0.62670800  0.31370100  0.25000000  1
  Mo  Mo4  1  0.33649200  0.62505400  0.25000000  1
  Mo  Mo5  1  0.71144000  0.37494600  0.75000000  1
  O  O6  1  0.23796900  0.72865200  0.44698300  1
  O  O7  1  0.23796900  0.72865200  0.05301700  1
  O  O8  1  0.17685800  0.28774100  0.25000000  1
  O  O9  1  0.68456900  0.75147100  0.25000000  1
  O  O10  1  0.50931700  0.27134800  0.55301700  1
  O  O11  1  0.50931700  0.27134800  0.94698300  1
  O  O12  1  0.88911700  0.71225900  0.75000000  1
  O  O13  1  0.93309900  0.24852900  0.75000000  1
