# generated using pymatgen
data_NaLa2Ti2MnO9
_symmetry_space_group_name_H-M   'P 1'
_cell_length_a   5.53987047
_cell_length_b   5.53987047
_cell_length_c   13.58668554
_cell_angle_alpha   89.61971560
_cell_angle_beta   89.61971560
_cell_angle_gamma   60.12839309
_symmetry_Int_Tables_number   1
_chemical_formula_structural   NaLa2Ti2MnO9
_chemical_formula_sum   'Na2 La4 Ti4 Mn2 O18'
_cell_volume   361.56886940
_cell_formula_units_Z   2
loop_
 _symmetry_equiv_pos_site_id
 _symmetry_equiv_pos_as_xyz
  1  'x, y, z'
loop_
 _atom_site_type_symbol
 _atom_site_label
 _atom_site_symmetry_multiplicity
 _atom_site_fract_x
 _atom_site_fract_y
 _atom_site_fract_z
 _atom_site_occupancy
  Na  Na0  1  0.16748100  0.16748100  0.91719500  1
  Na  Na1  1  0.83385900  0.83385900  0.58470300  1
  La  La2  1  0.49723600  0.49723600  0.74773700  1
  La  La3  1  0.16361300  0.16361300  0.41771600  1
  La  La4  1  0.82992300  0.82992300  0.07706200  1
  La  La5  1  0.50299300  0.50299300  0.25078500  1
  Ti  Ti6  1  0.50204000  0.50204000  0.99742600  1
  Ti  Ti7  1  0.50444300  0.50444300  0.50274000  1
  Ti  Ti8  1  0.16830300  0.16830300  0.66747800  1
  Ti  Ti9  1  0.83597300  0.83597300  0.83241900  1
  Mn  Mn10  1  0.83188500  0.83188500  0.33619200  1
  Mn  Mn11  1  0.16461100  0.16461100  0.16427700  1
  O  O12  1  0.64211500  0.64211500  0.89160100  1
  O  O13  1  0.02742100  0.51886900  0.73957100  1
  O  O14  1  0.13884600  0.64688300  0.92823100  1
  O  O15  1  0.30850400  0.30850400  0.56073200  1
  O  O16  1  0.69067400  0.20498200  0.40349200  1
  O  O17  1  0.80861900  0.31164400  0.59716600  1
  O  O18  1  0.51886900  0.02742100  0.73957100  1
  O  O19  1  0.64688300  0.13884600  0.92823100  1
  O  O20  1  0.97447800  0.97447800  0.22515800  1
  O  O21  1  0.01870300  0.01870300  0.77057400  1
  O  O22  1  0.36932300  0.84201300  0.07230800  1
  O  O23  1  0.47228200  0.97718300  0.26393300  1
  O  O24  1  0.20498200  0.69067400  0.40349200  1
  O  O25  1  0.31164400  0.80861900  0.59716600  1
  O  O26  1  0.68453700  0.68453700  0.44138200  1
  O  O27  1  0.84201300  0.36932300  0.07230800  1
  O  O28  1  0.97718300  0.47228200  0.26393300  1
  O  O29  1  0.36034800  0.36034800  0.10560300  1
