# generated using pymatgen
data_Na2V9MoH35(N2O19)2
_symmetry_space_group_name_H-M   'P 1'
_cell_length_a   9.09821900
_cell_length_b   10.68341572
_cell_length_c   11.25718284
_cell_angle_alpha   107.41847193
_cell_angle_beta   92.59811766
_cell_angle_gamma   115.14567674
_symmetry_Int_Tables_number   1
_chemical_formula_structural   Na2V9MoH35(N2O19)2
_chemical_formula_sum   'Na2 V9 Mo1 H35 N4 O38'
_cell_volume   926.03468068
_cell_formula_units_Z   1
loop_
 _symmetry_equiv_pos_site_id
 _symmetry_equiv_pos_as_xyz
  1  'x, y, z'
loop_
 _atom_site_type_symbol
 _atom_site_label
 _atom_site_symmetry_multiplicity
 _atom_site_fract_x
 _atom_site_fract_y
 _atom_site_fract_z
 _atom_site_occupancy
  Na  Na0  1  0.90027400  0.33539200  0.37528600  1
  Na  Na1  1  0.09700800  0.66474300  0.62402000  1
  V  V2  1  0.66107100  0.78425000  0.99875100  1
  V  V3  1  0.47975300  0.50549300  0.24666300  1
  V  V4  1  0.19346900  0.22089800  0.73228200  1
  V  V5  1  0.46528700  0.78626700  0.22281500  1
  V  V6  1  0.31987900  0.50134500  0.97956700  1
  V  V7  1  0.67802800  0.49886100  0.01926700  1
  V  V8  1  0.53924200  0.21844200  0.77480800  1
  V  V9  1  0.81153000  0.78663700  0.26010300  1
  V  V10  1  0.52792500  0.50244500  0.75628800  1
  Mo  Mo11  1  0.32977900  0.21030000  0.00061300  1
  H  H12  1  0.60473800  0.74832400  0.61042100  1
  H  H13  1  0.67855800  0.85008300  0.51581400  1
  H  H14  1  0.63166600  0.92615400  0.65328100  1
  H  H15  1  0.48046600  0.79521000  0.53316200  1
  H  H16  1  0.14038500  0.24248500  0.26372400  1
  H  H17  1  0.25555600  0.49328700  0.45147900  1
  H  H18  1  0.22186900  0.43797900  0.56486700  1
  H  H19  1  0.97695400  0.09599700  0.20324200  1
  H  H20  1  0.38878900  0.76464100  0.83440200  1
  H  H21  1  0.39697100  0.91809600  0.84266400  1
  H  H22  1  0.24904200  0.80848300  0.43350900  1
  H  H23  1  0.10972100  0.51330600  0.22892400  1
  H  H24  1  0.83462100  0.09971200  0.95198200  1
  H  H25  1  0.85306300  0.22343700  0.08829400  1
  H  H26  1  0.03305100  0.45290300  0.78237900  1
  H  H27  1  0.15426100  0.73148600  0.04092700  1
  H  H28  1  0.28760900  0.92571100  0.56842000  1
  H  H29  1  0.72135900  0.08004600  0.42935500  1
  H  H30  1  0.85331800  0.26199500  0.95795100  1
  H  H31  1  0.96346000  0.55137800  0.22499400  1
  H  H32  1  0.15342700  0.77448100  0.90922400  1
  H  H33  1  0.16105500  0.89592600  0.04842500  1
  H  H34  1  0.87117200  0.46560500  0.75521200  1
  H  H35  1  0.73931600  0.17650700  0.56872700  1
  H  H36  1  0.60458600  0.07873500  0.16218600  1
  H  H37  1  0.98523900  0.73666400  0.97741800  1
  H  H38  1  0.61708900  0.23252400  0.16860400  1
  H  H39  1  0.02684300  0.92185100  0.78829300  1
  H  H40  1  0.78288100  0.56447900  0.43414200  1
  H  H41  1  0.73930600  0.50759300  0.54580300  1
  H  H42  1  0.86621900  0.77180800  0.75123000  1
  H  H43  1  0.52000700  0.20987400  0.46905800  1
  H  H44  1  0.38122400  0.08027400  0.34222200  1
  H  H45  1  0.31693100  0.14550100  0.47403200  1
  H  H46  1  0.39898900  0.25508300  0.38694900  1
  N  N47  1  0.60018200  0.82888000  0.57839400  1
  N  N48  1  0.89337400  0.21014700  0.00437800  1
  N  N49  1  0.11276800  0.78455200  0.99477800  1
  N  N50  1  0.40286600  0.17351500  0.41813900  1
  O  O51  1  0.84028600  0.86348500  0.12788600  1
  O  O52  1  0.60366500  0.60815400  0.66999800  1
  O  O53  1  0.55278000  0.61559900  0.10143700  1
  O  O54  1  0.71955900  0.87734900  0.90334600  1
  O  O55  1  0.67653000  0.87487700  0.32079000  1
  O  O56  1  0.31581500  0.37047300  0.66787300  1
  O  O57  1  0.28555000  0.38156900  0.08622600  1
  O  O58  1  0.44213900  0.61877200  0.88217800  1
  O  O59  1  0.54513500  0.86496000  0.09746900  1
  O  O60  1  0.39625700  0.63526200  0.29476200  1
  O  O61  1  0.02689700  0.19067300  0.27417700  1
  O  O62  1  0.01893900  0.11989500  0.63218100  1
  O  O63  1  0.26802200  0.62915800  0.07659800  1
  O  O64  1  0.18585800  0.48553900  0.51507900  1
  O  O65  1  0.15276700  0.37545500  0.85483700  1
  O  O66  1  0.37669700  0.88638100  0.29321200  1
  O  O67  1  0.32702300  0.81048100  0.80658500  1
  O  O68  1  0.27376700  0.82560400  0.52414700  1
  O  O69  1  0.01968100  0.51496200  0.27223500  1
  O  O70  1  0.98896800  0.50984600  0.75208100  1
  O  O71  1  0.73190400  0.17667000  0.48177700  1
  O  O72  1  0.64414400  0.18162800  0.21865100  1
  O  O73  1  0.62445100  0.11546100  0.70357900  1
  O  O74  1  0.85005800  0.62385700  0.13949500  1
  O  O75  1  0.81645100  0.51908300  0.48768500  1
  O  O76  1  0.72612800  0.36975900  0.91989900  1
  O  O77  1  0.98749600  0.88475500  0.35848800  1
  O  O78  1  0.98426000  0.81427200  0.74983500  1
  O  O79  1  0.60867700  0.36771800  0.70390600  1
  O  O80  1  0.45184300  0.13066900  0.90033500  1
  O  O81  1  0.55608700  0.37545300  0.11617700  1
  O  O82  1  0.71411200  0.61668600  0.91325800  1
  O  O83  1  0.69114600  0.63281400  0.32826700  1
  O  O84  1  0.32657400  0.12771700  0.67828000  1
  O  O85  1  0.26006400  0.09991000  0.09247100  1
  O  O86  1  0.44198300  0.37664200  0.89559100  1
  O  O87  1  0.40190700  0.39663600  0.33082800  1
  O  O88  1  0.15530300  0.13168900  0.86411400  1
