# generated using pymatgen
data_Na7(WO3)20
_symmetry_space_group_name_H-M   'P 1'
_cell_length_a   3.89200200
_cell_length_b   3.89200200
_cell_length_c   78.26379300
_cell_angle_alpha   90.00000000
_cell_angle_beta   90.00000000
_cell_angle_gamma   90.00000000
_symmetry_Int_Tables_number   1
_chemical_formula_structural   Na7(WO3)20
_chemical_formula_sum   'Na7 W20 O60'
_cell_volume   1185.51485814
_cell_formula_units_Z   1
loop_
 _symmetry_equiv_pos_site_id
 _symmetry_equiv_pos_as_xyz
  1  'x, y, z'
loop_
 _atom_site_type_symbol
 _atom_site_label
 _atom_site_symmetry_multiplicity
 _atom_site_fract_x
 _atom_site_fract_y
 _atom_site_fract_z
 _atom_site_occupancy
  Na  Na0  1  0.00000000  0.00000000  0.05014400  1
  Na  Na1  1  0.00000000  0.00000000  0.59985500  1
  Na  Na2  1  0.00000000  0.00000000  0.69937500  1
  Na  Na3  1  0.00000000  0.00000000  0.75057900  1
  Na  Na4  1  0.00000000  0.00000000  0.84907800  1
  Na  Na5  1  0.00000000  0.00000000  0.90020200  1
  Na  Na6  1  0.00000000  0.00000000  0.95080000  1
  W  W7  1  0.50000000  0.50000000  0.02498300  1
  W  W8  1  0.50000000  0.50000000  0.07632700  1
  W  W9  1  0.50000000  0.50000000  0.12633700  1
  W  W10  1  0.50000000  0.50000000  0.17613600  1
  W  W11  1  0.50000000  0.50000000  0.22586200  1
  W  W12  1  0.50000000  0.50000000  0.32501700  1
  W  W13  1  0.50000000  0.50000000  0.27549300  1
  W  W14  1  0.50000000  0.50000000  0.42413500  1
  W  W15  1  0.50000000  0.50000000  0.37452900  1
  W  W16  1  0.50000000  0.50000000  0.52361100  1
  W  W17  1  0.50000000  0.50000000  0.47383300  1
  W  W18  1  0.50000000  0.50000000  0.62515000  1
  W  W19  1  0.50000000  0.50000000  0.57364700  1
  W  W20  1  0.50000000  0.50000000  0.72494300  1
  W  W21  1  0.50000000  0.50000000  0.67417900  1
  W  W22  1  0.50000000  0.50000000  0.77569900  1
  W  W23  1  0.50000000  0.50000000  0.87480100  1
  W  W24  1  0.50000000  0.50000000  0.82432300  1
  W  W25  1  0.50000000  0.50000000  0.92523300  1
  W  W26  1  0.50000000  0.50000000  0.97595900  1
  O  O27  1  0.00000000  0.50000000  0.02569900  1
  O  O28  1  0.00000000  0.50000000  0.07426500  1
  O  O29  1  0.00000000  0.50000000  0.12472100  1
  O  O30  1  0.00000000  0.50000000  0.17476600  1
  O  O31  1  0.00000000  0.50000000  0.22481200  1
  O  O32  1  0.00000000  0.50000000  0.27489300  1
  O  O33  1  0.00000000  0.50000000  0.32499400  1
  O  O34  1  0.00000000  0.50000000  0.37509800  1
  O  O35  1  0.00000000  0.50000000  0.42518300  1
  O  O36  1  0.00000000  0.50000000  0.47523300  1
  O  O37  1  0.00000000  0.50000000  0.52529000  1
  O  O38  1  0.00000000  0.50000000  0.57578800  1
  O  O39  1  0.00000000  0.50000000  0.62416500  1
  O  O40  1  0.00000000  0.50000000  0.67556400  1
  O  O41  1  0.00000000  0.50000000  0.72517200  1
  O  O42  1  0.00000000  0.50000000  0.77418200  1
  O  O43  1  0.00000000  0.50000000  0.82573600  1
  O  O44  1  0.00000000  0.50000000  0.87491400  1
  O  O45  1  0.00000000  0.50000000  0.92475300  1
  O  O46  1  0.50000000  0.00000000  0.02569900  1
  O  O47  1  0.50000000  0.00000000  0.07426500  1
  O  O48  1  0.50000000  0.50000000  0.00032800  1
  O  O49  1  0.50000000  0.50000000  0.05025500  1
  O  O50  1  0.50000000  0.00000000  0.12472100  1
  O  O51  1  0.50000000  0.00000000  0.17476600  1
  O  O52  1  0.50000000  0.50000000  0.09981500  1
  O  O53  1  0.50000000  0.50000000  0.14993000  1
  O  O54  1  0.50000000  0.00000000  0.22481200  1
  O  O55  1  0.50000000  0.50000000  0.19993200  1
  O  O56  1  0.50000000  0.00000000  0.27489300  1
  O  O57  1  0.50000000  0.00000000  0.32499400  1
  O  O58  1  0.50000000  0.50000000  0.24991200  1
  O  O59  1  0.50000000  0.50000000  0.29994900  1
  O  O60  1  0.50000000  0.00000000  0.37509800  1
  O  O61  1  0.50000000  0.00000000  0.42518300  1
  O  O62  1  0.50000000  0.50000000  0.35003800  1
  O  O63  1  0.50000000  0.50000000  0.40008600  1
  O  O64  1  0.50000000  0.00000000  0.52529000  1
  O  O65  1  0.50000000  0.00000000  0.47523300  1
  O  O66  1  0.50000000  0.50000000  0.45006500  1
  O  O67  1  0.50000000  0.00000000  0.57578800  1
  O  O68  1  0.50000000  0.00000000  0.62416500  1
  O  O69  1  0.50000000  0.50000000  0.50005300  1
  O  O70  1  0.50000000  0.00000000  0.67556400  1
  O  O71  1  0.50000000  0.00000000  0.72517200  1
  O  O72  1  0.50000000  0.50000000  0.55018500  1
  O  O73  1  0.50000000  0.50000000  0.59983400  1
  O  O74  1  0.50000000  0.00000000  0.77418200  1
  O  O75  1  0.50000000  0.00000000  0.82573600  1
  O  O76  1  0.50000000  0.50000000  0.64926900  1
  O  O77  1  0.50000000  0.50000000  0.70052900  1
  O  O78  1  0.50000000  0.50000000  0.74980100  1
  O  O79  1  0.50000000  0.00000000  0.87491400  1
  O  O80  1  0.50000000  0.00000000  0.92475300  1
  O  O81  1  0.50000000  0.50000000  0.79975700  1
  O  O82  1  0.50000000  0.50000000  0.85029400  1
  O  O83  1  0.50000000  0.00000000  0.97470200  1
  O  O84  1  0.50000000  0.50000000  0.89942800  1
  O  O85  1  0.50000000  0.50000000  0.95045300  1
  O  O86  1  0.00000000  0.50000000  0.97470200  1
