# generated using pymatgen
data_Na7Zn3Ga(SiO4)4
_symmetry_space_group_name_H-M   'P 1'
_cell_length_a   5.20813958
_cell_length_b   10.43855400
_cell_length_c   15.16826035
_cell_angle_alpha   90.00000000
_cell_angle_beta   90.51702939
_cell_angle_gamma   90.00000000
_symmetry_Int_Tables_number   1
_chemical_formula_structural   Na7Zn3Ga(SiO4)4
_chemical_formula_sum   'Na14 Zn6 Ga2 Si8 O32'
_cell_volume   824.59566731
_cell_formula_units_Z   2
loop_
 _symmetry_equiv_pos_site_id
 _symmetry_equiv_pos_as_xyz
  1  'x, y, z'
loop_
 _atom_site_type_symbol
 _atom_site_label
 _atom_site_symmetry_multiplicity
 _atom_site_fract_x
 _atom_site_fract_y
 _atom_site_fract_z
 _atom_site_occupancy
  Na  Na0  1  0.04799000  0.00883500  0.44068200  1
  Na  Na1  1  0.04799000  0.49116500  0.94068200  1
  Na  Na2  1  0.07075700  0.22938600  0.31446000  1
  Na  Na3  1  0.07075700  0.27061400  0.81446000  1
  Na  Na4  1  0.48275700  0.56376300  0.08811100  1
  Na  Na5  1  0.48275700  0.93623700  0.58811100  1
  Na  Na6  1  0.51888100  0.98071700  0.07565600  1
  Na  Na7  1  0.51888100  0.51928300  0.57565600  1
  Na  Na8  1  0.53227200  0.25788800  0.17790400  1
  Na  Na9  1  0.53227200  0.24211200  0.67790400  1
  Na  Na10  1  0.91891800  0.70830300  0.30030400  1
  Na  Na11  1  0.91891800  0.79169700  0.80030400  1
  Na  Na12  1  0.94884500  0.98470200  0.94144600  1
  Na  Na13  1  0.94884500  0.51529800  0.44144600  1
  Zn  Zn14  1  0.03310100  0.22556400  0.06077200  1
  Zn  Zn15  1  0.03310100  0.27443600  0.56077200  1
  Zn  Zn16  1  0.97596000  0.73218000  0.06160600  1
  Zn  Zn17  1  0.97596000  0.76782000  0.56160600  1
  Zn  Zn18  1  0.97703800  0.03471400  0.68644300  1
  Zn  Zn19  1  0.97703800  0.46528600  0.18644300  1
  Ga  Ga20  1  0.04332800  0.52539600  0.68993600  1
  Ga  Ga21  1  0.04332800  0.97460400  0.18993600  1
  Si  Si22  1  0.44062900  0.73036500  0.42980400  1
  Si  Si23  1  0.44062900  0.76963500  0.92980400  1
  Si  Si24  1  0.43046100  0.48109000  0.31228400  1
  Si  Si25  1  0.43046100  0.01891000  0.81228400  1
  Si  Si26  1  0.55963200  0.50959200  0.81543900  1
  Si  Si27  1  0.55963200  0.99040800  0.31543900  1
  Si  Si28  1  0.56415900  0.23326800  0.43891700  1
  Si  Si29  1  0.56415900  0.26673200  0.93891700  1
  O  O30  1  0.02476600  0.80374600  0.17808600  1
  O  O31  1  0.02476600  0.69625400  0.67808600  1
  O  O32  1  0.02291500  0.54967100  0.07630600  1
  O  O33  1  0.02291500  0.95032900  0.57630600  1
  O  O34  1  0.13020500  0.72904000  0.43679800  1
  O  O35  1  0.13020500  0.77096000  0.93679800  1
  O  O36  1  0.12306800  0.50434700  0.30855900  1
  O  O37  1  0.12306800  0.99565300  0.80855900  1
  O  O38  1  0.39643800  0.02108800  0.22403100  1
  O  O39  1  0.39643800  0.47891200  0.72403100  1
  O  O40  1  0.42730700  0.23193500  0.03143400  1
  O  O41  1  0.42730700  0.26806500  0.53143400  1
  O  O42  1  0.45954300  0.08884400  0.39754300  1
  O  O43  1  0.45954300  0.41115600  0.89754300  1
  O  O44  1  0.47863900  0.33448600  0.35740300  1
  O  O45  1  0.47863900  0.16551400  0.85740300  1
  O  O46  1  0.52261400  0.65718400  0.85447900  1
  O  O47  1  0.52261400  0.84281600  0.35447900  1
  O  O48  1  0.54933700  0.58944300  0.38646500  1
  O  O49  1  0.54933700  0.91055700  0.88646500  1
  O  O50  1  0.58687300  0.75595200  0.02438500  1
  O  O51  1  0.58687300  0.74404800  0.52438500  1
  O  O52  1  0.57825900  0.48279900  0.21915800  1
  O  O53  1  0.57825900  0.01720100  0.71915800  1
  O  O54  1  0.86566600  0.01698200  0.30132600  1
  O  O55  1  0.86566600  0.48301800  0.80132600  1
  O  O56  1  0.87571900  0.22719400  0.44412400  1
  O  O57  1  0.87571900  0.27280600  0.94412400  1
  O  O58  1  0.96558500  0.04007900  0.08083400  1
  O  O59  1  0.96558500  0.45992100  0.58083400  1
  O  O60  1  0.00533700  0.21830800  0.67930500  1
  O  O61  1  0.00533700  0.28169200  0.17930500  1
