# generated using pymatgen
data_Na4Al3Si3B(O3F)4
_symmetry_space_group_name_H-M   'P 1'
_cell_length_a   8.97014600
_cell_length_b   9.14994420
_cell_length_c   9.43814696
_cell_angle_alpha   91.18641722
_cell_angle_beta   90.26595656
_cell_angle_gamma   90.42876690
_symmetry_Int_Tables_number   1
_chemical_formula_structural   Na4Al3Si3B(O3F)4
_chemical_formula_sum   'Na8 Al6 Si6 B2 O24 F8'
_cell_volume   774.45184627
_cell_formula_units_Z   2
loop_
 _symmetry_equiv_pos_site_id
 _symmetry_equiv_pos_as_xyz
  1  'x, y, z'
loop_
 _atom_site_type_symbol
 _atom_site_label
 _atom_site_symmetry_multiplicity
 _atom_site_fract_x
 _atom_site_fract_y
 _atom_site_fract_z
 _atom_site_occupancy
  Na  Na0  1  0.77698200  0.75493700  0.77082900  1
  Na  Na1  1  0.25523300  0.74614600  0.26023500  1
  Na  Na2  1  0.27413900  0.71974300  0.69637500  1
  Na  Na3  1  0.70756400  0.69697400  0.24919000  1
  Na  Na4  1  0.28448700  0.29454000  0.29466900  1
  Na  Na5  1  0.72071500  0.29276300  0.71390300  1
  Na  Na6  1  0.23713300  0.24451800  0.72767500  1
  Na  Na7  1  0.75974100  0.25420700  0.22906100  1
  Al  Al8  1  0.23652900  0.00109300  0.48487900  1
  Al  Al9  1  0.72831200  0.99679900  0.49281800  1
  Al  Al10  1  0.49159000  0.74657600  0.97265000  1
  Al  Al11  1  0.02694900  0.48966700  0.72177200  1
  Al  Al12  1  0.02196000  0.51196900  0.26027300  1
  Al  Al13  1  0.49264000  0.25398500  0.00462200  1
  Si  Si14  1  0.49101300  0.98852600  0.23448600  1
  Si  Si15  1  0.48497100  0.01220900  0.74279900  1
  Si  Si16  1  0.97776900  0.74962200  0.50517100  1
  Si  Si17  1  0.75722600  0.49970800  0.97783100  1
  Si  Si18  1  0.23698100  0.49666200  0.98966600  1
  Si  Si19  1  0.98448200  0.24951600  0.47038900  1
  B  B20  1  0.97941700  0.05746900  0.97481800  1
  B  B21  1  0.51614600  0.53942800  0.51998800  1
  O  O22  1  0.62887800  0.94502600  0.33843100  1
  O  O23  1  0.33734200  0.97727200  0.64353900  1
  O  O24  1  0.45774700  0.84389400  0.13230100  1
  O  O25  1  0.52274100  0.86389200  0.82938000  1
  O  O26  1  0.12528300  0.84575400  0.46161200  1
  O  O27  1  0.83024500  0.84607500  0.54599700  1
  O  O28  1  0.01586500  0.67051700  0.65530300  1
  O  O29  1  0.93236500  0.64734000  0.36725600  1
  O  O30  1  0.33933200  0.63145500  0.92767300  1
  O  O31  1  0.65969900  0.65098400  0.99197000  1
  O  O32  1  0.12966200  0.57290700  0.11063600  1
  O  O33  1  0.85280300  0.51322200  0.83216100  1
  O  O34  1  0.12774000  0.42151400  0.87132400  1
  O  O35  1  0.86751500  0.49286600  0.11918400  1
  O  O36  1  0.34154100  0.36657200  0.05464100  1
  O  O37  1  0.65860000  0.34792600  0.95976400  1
  O  O38  1  0.00084100  0.32916400  0.31745300  1
  O  O39  1  0.94738100  0.35127400  0.60966000  1
  O  O40  1  0.14172500  0.16570500  0.50378600  1
  O  O41  1  0.84112800  0.14213100  0.44507400  1
  O  O42  1  0.52957300  0.13645600  0.14703600  1
  O  O43  1  0.44614900  0.15282700  0.84694400  1
  O  O44  1  0.34043100  0.01794800  0.32849000  1
  O  O45  1  0.62604100  0.05766600  0.64295600  1
  F  F46  1  0.55097800  0.59961300  0.64661300  1
  F  F47  1  0.52771900  0.39580700  0.50407800  1
  F  F48  1  0.20362200  0.52602600  0.35432500  1
  F  F49  1  0.47942800  0.63044200  0.41828100  1
  F  F50  1  0.63896100  0.46113100  0.24591300  1
  F  F51  1  0.22678900  0.47805600  0.63637500  1
  F  F52  1  0.85172900  0.00187300  0.01932300  1
  F  F53  1  0.02087900  0.03472800  0.84113100  1
