# generated using pymatgen
data_Na2MnCdFe(PO4)3
_symmetry_space_group_name_H-M   'P 1'
_cell_length_a   8.88997052
_cell_length_b   8.88997052
_cell_length_c   6.64713826
_cell_angle_alpha   73.39023832
_cell_angle_beta   73.39023832
_cell_angle_gamma   92.57370365
_symmetry_Int_Tables_number   1
_chemical_formula_structural   Na2MnCdFe(PO4)3
_chemical_formula_sum   'Na4 Mn2 Cd2 Fe2 P6 O24'
_cell_volume   477.80052263
_cell_formula_units_Z   2
loop_
 _symmetry_equiv_pos_site_id
 _symmetry_equiv_pos_as_xyz
  1  'x, y, z'
loop_
 _atom_site_type_symbol
 _atom_site_label
 _atom_site_symmetry_multiplicity
 _atom_site_fract_x
 _atom_site_fract_y
 _atom_site_fract_z
 _atom_site_occupancy
  Na  Na0  1  0.98007000  0.01993000  0.50000000  1
  Na  Na1  1  0.02463700  0.97536300  0.00000000  1
  Na  Na2  1  0.50183700  0.49827900  0.25069800  1
  Na  Na3  1  0.50172100  0.49816300  0.74930200  1
  Mn  Mn4  1  0.37534800  0.07090900  0.61103700  1
  Mn  Mn5  1  0.92909100  0.62465200  0.38896300  1
  Cd  Cd6  1  0.27089600  0.72910400  0.50000000  1
  Cd  Cd7  1  0.73011700  0.26988300  0.00000000  1
  Fe  Fe8  1  0.61756000  0.93306300  0.88378500  1
  Fe  Fe9  1  0.06693700  0.38244000  0.11621500  1
  P  P10  1  0.65918700  0.87209600  0.37555100  1
  P  P11  1  0.12790400  0.34081300  0.62444900  1
  P  P12  1  0.34282900  0.13247100  0.12171400  1
  P  P13  1  0.86752900  0.65717100  0.87828600  1
  P  P14  1  0.71972600  0.28027400  0.50000000  1
  P  P15  1  0.28453000  0.71547000  0.00000000  1
  O  O16  1  0.15416100  0.16571200  0.65662200  1
  O  O17  1  0.83428800  0.84583900  0.34337800  1
  O  O18  1  0.81536500  0.82534900  0.87425400  1
  O  O19  1  0.17465100  0.18463500  0.12574600  1
  O  O20  1  0.25638100  0.82703700  0.79200300  1
  O  O21  1  0.17296300  0.74361900  0.20799700  1
  O  O22  1  0.73970100  0.15314700  0.70964700  1
  O  O23  1  0.84685300  0.26029900  0.29035300  1
  O  O24  1  0.31654800  0.00834000  0.35088500  1
  O  O25  1  0.99166000  0.68345200  0.64911500  1
  O  O26  1  0.65534200  0.99182800  0.14923400  1
  O  O27  1  0.00817200  0.34465800  0.85076600  1
  O  O28  1  0.28028400  0.45548100  0.57138000  1
  O  O29  1  0.54451900  0.71971600  0.42862000  1
  O  O30  1  0.72088100  0.53752600  0.92458300  1
  O  O31  1  0.46247400  0.27911900  0.07541700  1
  O  O32  1  0.55763200  0.26019800  0.46603500  1
  O  O33  1  0.73980200  0.44236800  0.53396500  1
  O  O34  1  0.45947900  0.74081300  0.00139700  1
  O  O35  1  0.25918700  0.54052100  0.99860300  1
  O  O36  1  0.60501200  0.94635300  0.56657500  1
  O  O37  1  0.05364700  0.39498800  0.43342500  1
  O  O38  1  0.40327600  0.05219700  0.93804400  1
  O  O39  1  0.94780300  0.59672400  0.06195600  1
