# generated using pymatgen
data_Cs3As2Cl9
_symmetry_space_group_name_H-M   'P 1'
_cell_length_a   7.56753340
_cell_length_b   7.56753340
_cell_length_c   9.13853300
_cell_angle_alpha   90.00000000
_cell_angle_beta   90.00000000
_cell_angle_gamma   119.99999479
_symmetry_Int_Tables_number   1
_chemical_formula_structural   Cs3As2Cl9
_chemical_formula_sum   'Cs3 As2 Cl9'
_cell_volume   453.22706072
_cell_formula_units_Z   1
loop_
 _symmetry_equiv_pos_site_id
 _symmetry_equiv_pos_as_xyz
  1  'x, y, z'
loop_
 _atom_site_type_symbol
 _atom_site_label
 _atom_site_symmetry_multiplicity
 _atom_site_fract_x
 _atom_site_fract_y
 _atom_site_fract_z
 _atom_site_occupancy
  Cs  Cs0  1  0.00000000  0.00000000  0.00000000  1
  Cs  Cs1  1  0.66666700  0.33333300  0.67999800  1
  Cs  Cs2  1  0.33333300  0.66666700  0.32000200  1
  As  As3  1  0.66666700  0.33333300  0.18288100  1
  As  As4  1  0.33333300  0.66666700  0.81711900  1
  Cl  Cl5  1  0.48425200  0.00000000  0.00000000  1
  Cl  Cl6  1  0.51574800  0.51574800  0.00000000  1
  Cl  Cl7  1  0.00000000  0.48425200  0.00000000  1
  Cl  Cl8  1  0.17320800  0.80524100  0.67578500  1
  Cl  Cl9  1  0.63203300  0.82679200  0.67578500  1
  Cl  Cl10  1  0.19475900  0.36796700  0.67578500  1
  Cl  Cl11  1  0.82679200  0.63203300  0.32421500  1
  Cl  Cl12  1  0.80524100  0.17320800  0.32421500  1
  Cl  Cl13  1  0.36796700  0.19475900  0.32421500  1
