data_image0
_chemical_formula_structural       H8Li2Na6O32Si8Ti4
_chemical_formula_sum              "H8 Li2 Na6 O32 Si8 Ti4"
_cell_length_a       14.7144
_cell_length_b       14.7144
_cell_length_c       5.12236
_cell_angle_alpha    88.3969
_cell_angle_beta     91.6031
_cell_angle_gamma    146.629

_space_group_name_H-M_alt    "P 1"
_space_group_IT_number       1

loop_
  _space_group_symop_operation_xyz
  'x, y, z'

loop_
  _atom_site_type_symbol
  _atom_site_label
  _atom_site_symmetry_multiplicity
  _atom_site_fract_x
  _atom_site_fract_y
  _atom_site_fract_z
  _atom_site_occupancy
  H   H1        1.0  0.47700  0.32200  0.08650  1.0000
  H   H2        1.0  0.32200  0.47700  0.41400  1.0000
  H   H3        1.0  0.52300  0.67800  0.91400  1.0000
  H   H4        1.0  0.67800  0.52300  0.58600  1.0000
  H   H5        1.0  0.35100  0.26700  0.26900  1.0000
  H   H6        1.0  0.26700  0.35100  0.23100  1.0000
  H   H7        1.0  0.64900  0.73300  0.73100  1.0000
  H   H8        1.0  0.73300  0.64900  0.76900  1.0000
  Li  Li1       1.0  0.00900  0.00900  0.25000  1.0000
  Li  Li2       1.0  0.99100  0.99100  0.75000  1.0000
  Na  Na1       1.0  0.36600  0.36600  0.75000  1.0000
  Na  Na2       1.0  0.63400  0.63400  0.25000  1.0000
  Na  Na3       1.0  0.35000  0.01990  0.11700  1.0000
  Na  Na4       1.0  0.01990  0.35000  0.38300  1.0000
  Na  Na5       1.0  0.65000  0.98000  0.88300  1.0000
  Na  Na6       1.0  0.98000  0.65000  0.61700  1.0000
  O   O1        1.0  0.43600  0.34900  0.13500  1.0000
  O   O2        1.0  0.34900  0.43600  0.36500  1.0000
  O   O3        1.0  0.56400  0.65100  0.86500  1.0000
  O   O4        1.0  0.65100  0.56400  0.63500  1.0000
  O   O5        1.0  0.61900  0.20700  0.29100  1.0000
  O   O6        1.0  0.20700  0.61900  0.20900  1.0000
  O   O7        1.0  0.38100  0.79300  0.70900  1.0000
  O   O8        1.0  0.79300  0.38100  0.79100  1.0000
  O   O9        1.0  0.15200  0.94100  0.85900  1.0000
  O   O10       1.0  0.94100  0.15200  0.64100  1.0000
  O   O11       1.0  0.84800  0.05920  0.14100  1.0000
  O   O12       1.0  0.05920  0.84800  0.35900  1.0000
  O   O13       1.0  0.55800  0.29300  0.93800  1.0000
  O   O14       1.0  0.29300  0.55800  0.56200  1.0000
  O   O15       1.0  0.44200  0.70700  0.06250  1.0000
  O   O16       1.0  0.70700  0.44200  0.43800  1.0000
  O   O17       1.0  0.17100  0.10300  0.51700  1.0000
  O   O18       1.0  0.10300  0.17100  0.98300  1.0000
  O   O19       1.0  0.82900  0.89700  0.48300  1.0000
  O   O20       1.0  0.89700  0.82900  0.01680  1.0000
  O   O21       1.0  0.37000  0.12100  0.48400  1.0000
  O   O22       1.0  0.12100  0.37000  0.01630  1.0000
  O   O23       1.0  0.63000  0.87900  0.51600  1.0000
  O   O24       1.0  0.87900  0.63000  0.98400  1.0000
  O   O25       1.0  0.48000  0.05150  0.75900  1.0000
  O   O26       1.0  0.05150  0.48000  0.74100  1.0000
  O   O27       1.0  0.52000  0.94900  0.24100  1.0000
  O   O28       1.0  0.94900  0.52000  0.25900  1.0000
  O   O29       1.0  0.23700  0.80800  0.43000  1.0000
  O   O30       1.0  0.80800  0.23700  0.06970  1.0000
  O   O31       1.0  0.76300  0.19200  0.57000  1.0000
  O   O32       1.0  0.19200  0.76300  0.93000  1.0000
  Si  Si1       1.0  0.19000  0.01090  0.55700  1.0000
  Si  Si2       1.0  0.01090  0.19000  0.94300  1.0000
  Si  Si3       1.0  0.81000  0.98900  0.44300  1.0000
  Si  Si4       1.0  0.98900  0.81000  0.05690  1.0000
  Si  Si5       1.0  0.66900  0.14200  0.29400  1.0000
  Si  Si6       1.0  0.14200  0.66900  0.20600  1.0000
  Si  Si7       1.0  0.33100  0.85800  0.70600  1.0000
  Si  Si8       1.0  0.85800  0.33100  0.79400  1.0000
  Ti  Ti1       1.0  0.56900  0.24200  0.62700  1.0000
  Ti  Ti2       1.0  0.24200  0.56900  0.87300  1.0000
  Ti  Ti3       1.0  0.43100  0.75800  0.37300  1.0000
  Ti  Ti4       1.0  0.75800  0.43100  0.12700  1.0000
