# generated using pymatgen
data_Li4MnCo2O7
_symmetry_space_group_name_H-M   'P 1'
_cell_length_a   5.13149392
_cell_length_b   7.74670648
_cell_length_c   7.66963985
_cell_angle_alpha   119.38281022
_cell_angle_beta   108.66666905
_cell_angle_gamma   83.75339265
_symmetry_Int_Tables_number   1
_chemical_formula_structural   Li4MnCo2O7
_chemical_formula_sum   'Li8 Mn2 Co4 O14'
_cell_volume   251.26007039
_cell_formula_units_Z   2
loop_
 _symmetry_equiv_pos_site_id
 _symmetry_equiv_pos_as_xyz
  1  'x, y, z'
loop_
 _atom_site_type_symbol
 _atom_site_label
 _atom_site_symmetry_multiplicity
 _atom_site_fract_x
 _atom_site_fract_y
 _atom_site_fract_z
 _atom_site_occupancy
  Li  Li0  1  0.49873500  0.21812800  0.07461900  1
  Li  Li1  1  0.50653600  0.50690100  0.50411800  1
  Li  Li2  1  0.49346800  0.63595500  0.21016500  1
  Li  Li3  1  0.50126200  0.92472900  0.63966700  1
  Li  Li4  1  0.50000100  0.07142700  0.35714600  1
  Li  Li5  1  0.49212100  0.36821300  0.78755800  1
  Li  Li6  1  0.50787500  0.77464300  0.92672600  1
  Li  Li7  1  0.99999900  0.57142900  0.85714100  1
  Mn  Mn8  1  0.99420800  0.99682500  0.99843300  1
  Mn  Mn9  1  0.00580900  0.14603300  0.71585800  1
  Co  Co10  1  0.99549300  0.29364800  0.43314300  1
  Co  Co11  1  0.00452100  0.84922400  0.28116300  1
  Co  Co12  1  0.99226200  0.43865000  0.13744700  1
  Co  Co13  1  0.00771500  0.70421000  0.57683800  1
  O  O14  1  0.21957600  0.97282200  0.82416100  1
  O  O15  1  0.21048300  0.24160600  0.23950100  1
  O  O16  1  0.22714100  0.37310700  0.94956300  1
  O  O17  1  0.23826700  0.67293800  0.38288200  1
  O  O18  1  0.22362200  0.83966900  0.11384500  1
  O  O19  1  0.22967000  0.10860400  0.54334800  1
  O  O20  1  0.24174500  0.53969000  0.66474800  1
  O  O21  1  0.76172200  0.46992000  0.33141700  1
  O  O22  1  0.77286100  0.76975500  0.76471700  1
  O  O23  1  0.78952800  0.90125900  0.47479500  1
  O  O24  1  0.78041800  0.17003900  0.89013100  1
  O  O25  1  0.77636800  0.30319000  0.60042300  1
  O  O26  1  0.75827300  0.60314800  0.04951800  1
  O  O27  1  0.77032100  0.03424000  0.17093200  1
