# generated using pymatgen
data_Li7Mn2(CoO4)3
_symmetry_space_group_name_H-M   'P 1'
_cell_length_a   5.16466478
_cell_length_b   10.62106129
_cell_length_c   8.54556563
_cell_angle_alpha   66.29622803
_cell_angle_beta   90.01168838
_cell_angle_gamma   96.93442787
_symmetry_Int_Tables_number   1
_chemical_formula_structural   Li7Mn2(CoO4)3
_chemical_formula_sum   'Li14 Mn4 Co6 O24'
_cell_volume   425.47141922
_cell_formula_units_Z   2
loop_
 _symmetry_equiv_pos_site_id
 _symmetry_equiv_pos_as_xyz
  1  'x, y, z'
loop_
 _atom_site_type_symbol
 _atom_site_label
 _atom_site_symmetry_multiplicity
 _atom_site_fract_x
 _atom_site_fract_y
 _atom_site_fract_z
 _atom_site_occupancy
  Li  Li0  1  0.25008600  0.50018000  0.91657300  1
  Li  Li1  1  0.74991600  0.49981600  0.41676000  1
  Li  Li2  1  0.36918200  0.25846500  0.53730300  1
  Li  Li3  1  0.86761300  0.25899600  0.03803400  1
  Li  Li4  1  0.13234700  0.74098200  0.29716800  1
  Li  Li5  1  0.63085000  0.74155200  0.79575500  1
  Li  Li6  1  0.37786100  0.25462100  0.20159600  1
  Li  Li7  1  0.87321000  0.25389800  0.70224500  1
  Li  Li8  1  0.12673200  0.74606000  0.95613600  1
  Li  Li9  1  0.62200800  0.74541500  0.45626700  1
  Li  Li10  1  0.87258000  0.25333200  0.37671200  1
  Li  Li11  1  0.37666300  0.25531500  0.87684700  1
  Li  Li12  1  0.62347600  0.74464200  0.13222500  1
  Li  Li13  1  0.12745000  0.74670200  0.62998900  1
  Mn  Mn14  1  0.99993300  0.00004800  0.99858000  1
  Mn  Mn15  1  0.00007400  0.99997800  0.33675800  1
  Mn  Mn16  1  0.50003300  0.00007500  0.83257800  1
  Mn  Mn17  1  0.49992200  0.99990100  0.49937000  1
  Co  Co18  1  0.24989400  0.50007200  0.24500000  1
  Co  Co19  1  0.75013000  0.49992600  0.74505500  1
  Co  Co20  1  0.00000100  0.00000400  0.66727800  1
  Co  Co21  1  0.49997100  0.99997400  0.16426100  1
  Co  Co22  1  0.25003400  0.50007200  0.58832700  1
  Co  Co23  1  0.74999400  0.49993300  0.08838300  1
  O  O24  1  0.17389500  0.11662600  0.10862000  1
  O  O25  1  0.66589500  0.11974700  0.60648500  1
  O  O26  1  0.33407400  0.88022800  0.72640500  1
  O  O27  1  0.82611300  0.88339500  0.22520100  1
  O  O28  1  0.41079000  0.60803000  0.36260500  1
  O  O29  1  0.91045700  0.60770400  0.86293700  1
  O  O30  1  0.08958100  0.39231400  0.47057600  1
  O  O31  1  0.58924700  0.39197500  0.97061000  1
  O  O32  1  0.16288200  0.11639200  0.77270700  1
  O  O33  1  0.66550500  0.12038900  0.27347500  1
  O  O34  1  0.15965700  0.11738400  0.44540400  1
  O  O35  1  0.66587800  0.12042700  0.93755200  1
  O  O36  1  0.33420300  0.87937800  0.39445600  1
  O  O37  1  0.83719000  0.88362000  0.88916300  1
  O  O38  1  0.33437700  0.87982400  0.05832500  1
  O  O39  1  0.84028900  0.88262600  0.56283900  1
  O  O40  1  0.45474400  0.60786300  0.04478400  1
  O  O41  1  0.95352400  0.60800700  0.54496100  1
  O  O42  1  0.95350400  0.60824700  0.18030700  1
  O  O43  1  0.45496600  0.60778100  0.68079400  1
  O  O44  1  0.04644100  0.39196400  0.15297100  1
  O  O45  1  0.54520700  0.39213900  0.65261600  1
  O  O46  1  0.54505700  0.39220000  0.28852600  1
  O  O47  1  0.04656500  0.39178000  0.78847800  1
