data_image0
_chemical_formula_structural       Ca12Fe2N10
_chemical_formula_sum              "Ca12 Fe2 N10"
_cell_length_a       6.19569
_cell_length_b       6.1953
_cell_length_c       12.1226
_cell_angle_alpha    90
_cell_angle_beta     90
_cell_angle_gamma    120.045

_space_group_name_H-M_alt    "P 1"
_space_group_IT_number       1

loop_
  _space_group_symop_operation_xyz
  'x, y, z'

loop_
  _atom_site_type_symbol
  _atom_site_label
  _atom_site_symmetry_multiplicity
  _atom_site_fract_x
  _atom_site_fract_y
  _atom_site_fract_z
  _atom_site_occupancy
  Ca  Ca1       1.0  0.60500  0.00008  0.12000  1.0000
  Ca  Ca2       1.0  0.39500  0.00000  0.62000  1.0000
  Ca  Ca3       1.0  0.00030  0.60500  0.12000  1.0000
  Ca  Ca4       1.0  0.39500  0.39500  0.12000  1.0000
  Ca  Ca5       1.0  0.60500  0.60500  0.62000  1.0000
  Ca  Ca6       1.0  0.00000  0.39500  0.62000  1.0000
  Ca  Ca7       1.0  0.60500  0.00008  0.38000  1.0000
  Ca  Ca8       1.0  0.39500  0.39500  0.38000  1.0000
  Ca  Ca9       1.0  0.00030  0.60500  0.38000  1.0000
  Ca  Ca10      1.0  0.00000  0.39500  0.88000  1.0000
  Ca  Ca11      1.0  0.60500  0.60500  0.88000  1.0000
  Ca  Ca12      1.0  0.39500  0.00000  0.88000  1.0000
  Fe  Fe1       1.0  0.00043  0.00005  0.25000  1.0000
  Fe  Fe2       1.0  0.00000  0.00000  0.75000  1.0000
  N   N1        1.0  0.66700  0.33300  0.00004  1.0000
  N   N2        1.0  0.33300  0.66700  0.50000  1.0000
  N   N3        1.0  0.33300  0.66700  0.00000  1.0000
  N   N4        1.0  0.66700  0.33300  0.50000  1.0000
  N   N5        1.0  0.29000  0.00000  0.25000  1.0000
  N   N6        1.0  0.71000  0.00019  0.75000  1.0000
  N   N7        1.0  0.00000  0.28900  0.25000  1.0000
  N   N8        1.0  0.71000  0.71000  0.25000  1.0000
  N   N9        1.0  0.29000  0.29000  0.75000  1.0000
  N   N10       1.0  0.00012  0.71100  0.75000  1.0000
