data_image0
_chemical_formula_structural       Cs8O16Ru4
_chemical_formula_sum              "Cs8 O16 Ru4"
_cell_length_a       8.23802
_cell_length_b       6.10445
_cell_length_c       10.824
_cell_angle_alpha    90
_cell_angle_beta     90
_cell_angle_gamma    90

_space_group_name_H-M_alt    "P 1"
_space_group_IT_number       1

loop_
  _space_group_symop_operation_xyz
  'x, y, z'

loop_
  _atom_site_type_symbol
  _atom_site_label
  _atom_site_symmetry_multiplicity
  _atom_site_fract_x
  _atom_site_fract_y
  _atom_site_fract_z
  _atom_site_occupancy
  Cs  Cs1       1.0  0.65700  0.25000  0.40800  1.0000
  Cs  Cs2       1.0  0.84300  0.75000  0.90800  1.0000
  Cs  Cs3       1.0  0.15700  0.25000  0.09230  1.0000
  Cs  Cs4       1.0  0.34300  0.75000  0.59200  1.0000
  Cs  Cs5       1.0  0.48200  0.25000  0.80700  1.0000
  Cs  Cs6       1.0  0.01780  0.75000  0.30700  1.0000
  Cs  Cs7       1.0  0.98200  0.25000  0.69300  1.0000
  Cs  Cs8       1.0  0.51800  0.75000  0.19300  1.0000
  O   O1        1.0  0.31500  0.48900  0.34800  1.0000
  O   O2        1.0  0.18500  0.51100  0.84800  1.0000
  O   O3        1.0  0.81500  0.01140  0.15200  1.0000
  O   O4        1.0  0.68500  0.98900  0.65200  1.0000
  O   O5        1.0  0.68500  0.51100  0.65200  1.0000
  O   O6        1.0  0.81500  0.48900  0.15200  1.0000
  O   O7        1.0  0.18500  0.98900  0.84800  1.0000
  O   O8        1.0  0.31500  0.01140  0.34800  1.0000
  O   O9        1.0  0.01180  0.25000  0.40700  1.0000
  O   O10       1.0  0.48800  0.75000  0.90700  1.0000
  O   O11       1.0  0.51200  0.25000  0.09340  1.0000
  O   O12       1.0  0.98800  0.75000  0.59300  1.0000
  O   O13       1.0  0.30200  0.25000  0.57500  1.0000
  O   O14       1.0  0.19800  0.75000  0.07500  1.0000
  O   O15       1.0  0.80200  0.25000  0.92500  1.0000
  O   O16       1.0  0.69800  0.75000  0.42500  1.0000
  Ru  Ru1       1.0  0.22900  0.25000  0.41800  1.0000
  Ru  Ru2       1.0  0.27100  0.75000  0.91800  1.0000
  Ru  Ru3       1.0  0.72900  0.25000  0.08160  1.0000
  Ru  Ru4       1.0  0.77100  0.75000  0.58200  1.0000
