# generated using pymatgen
data_Li4MnCo2O7
_symmetry_space_group_name_H-M   'P 1'
_cell_length_a   2.90958300
_cell_length_b   10.66501930
_cell_length_c   8.41677112
_cell_angle_alpha   78.26577356
_cell_angle_beta   90.00000000
_cell_angle_gamma   82.15997043
_symmetry_Int_Tables_number   1
_chemical_formula_structural   Li4MnCo2O7
_chemical_formula_sum   'Li8 Mn2 Co4 O14'
_cell_volume   253.22663815
_cell_formula_units_Z   2
loop_
 _symmetry_equiv_pos_site_id
 _symmetry_equiv_pos_as_xyz
  1  'x, y, z'
loop_
 _atom_site_type_symbol
 _atom_site_label
 _atom_site_symmetry_multiplicity
 _atom_site_fract_x
 _atom_site_fract_y
 _atom_site_fract_z
 _atom_site_occupancy
  Li  Li0  1  0.42850700  0.14298600  0.21917400  1
  Li  Li1  1  0.28960800  0.42078400  0.63616900  1
  Li  Li2  1  0.14441900  0.71116200  0.07581700  1
  Li  Li3  1  0.99569400  0.00861100  0.51445400  1
  Li  Li4  1  0.86059000  0.27882100  0.91452800  1
  Li  Li5  1  0.71453200  0.57093700  0.35790700  1
  Li  Li6  1  0.56489700  0.87020600  0.78184100  1
  Li  Li7  1  0.43008600  0.13982700  0.71228000  1
  Mn  Mn8  1  0.99854500  0.00291000  0.98743700  1
  Mn  Mn9  1  0.71464500  0.57071200  0.85922000  1
  Co  Co10  1  0.86098700  0.27802500  0.45568400  1
  Co  Co11  1  0.57055700  0.85888600  0.28365100  1
  Co  Co12  1  0.28989400  0.42021100  0.15533900  1
  Co  Co13  1  0.14111300  0.71777400  0.56952100  1
  O  O14  1  0.43644300  0.12711400  0.96848600  1
  O  O15  1  0.28822400  0.42355200  0.38742900  1
  O  O16  1  0.15203200  0.69593700  0.83227400  1
  O  O17  1  0.00510500  0.98979100  0.23499100  1
  O  O18  1  0.85515600  0.28968600  0.66637100  1
  O  O19  1  0.71926200  0.56147600  0.09226900  1
  O  O20  1  0.57676700  0.84646600  0.53198300  1
  O  O21  1  0.42488100  0.15023800  0.45973000  1
  O  O22  1  0.27775300  0.44449500  0.88708500  1
  O  O23  1  0.13760200  0.72479700  0.31604800  1
  O  O24  1  0.00137400  0.99725100  0.77054800  1
  O  O25  1  0.85145300  0.29709400  0.17574900  1
  O  O26  1  0.70623000  0.58754000  0.62173300  1
  O  O27  1  0.56364500  0.87270900  0.03228400  1
