# generated using pymatgen
data_Li4MnCo2O7
_symmetry_space_group_name_H-M   'P 1'
_cell_length_a   2.91364700
_cell_length_b   10.67374555
_cell_length_c   8.44569777
_cell_angle_alpha   78.51718750
_cell_angle_beta   90.00000000
_cell_angle_gamma   82.15540433
_symmetry_Int_Tables_number   1
_chemical_formula_structural   Li4MnCo2O7
_chemical_formula_sum   'Li8 Mn2 Co4 O14'
_cell_volume   254.89131751
_cell_formula_units_Z   2
loop_
 _symmetry_equiv_pos_site_id
 _symmetry_equiv_pos_as_xyz
  1  'x, y, z'
loop_
 _atom_site_type_symbol
 _atom_site_label
 _atom_site_symmetry_multiplicity
 _atom_site_fract_x
 _atom_site_fract_y
 _atom_site_fract_z
 _atom_site_occupancy
  Li  Li0  1  0.42372600  0.15254800  0.22543400  1
  Li  Li1  1  0.28999300  0.42001200  0.63744800  1
  Li  Li2  1  0.14678900  0.70642300  0.07184300  1
  Li  Li3  1  0.99814900  0.00370300  0.50468700  1
  Li  Li4  1  0.85502400  0.28995200  0.92647900  1
  Li  Li5  1  0.71629700  0.56740800  0.35246900  1
  Li  Li6  1  0.57136000  0.85728200  0.78424500  1
  Li  Li7  1  0.85724400  0.28551300  0.42286400  1
  Mn  Mn8  1  0.99784100  0.00431800  0.99167200  1
  Mn  Mn9  1  0.57286500  0.85427100  0.28626300  1
  Co  Co10  1  0.71445800  0.57108500  0.86729500  1
  Co  Co11  1  0.42308400  0.15383100  0.68351200  1
  Co  Co12  1  0.28817800  0.42364300  0.15621900  1
  Co  Co13  1  0.14446100  0.71107900  0.57917000  1
  O  O14  1  0.43629800  0.12740400  0.97216300  1
  O  O15  1  0.28453500  0.43093100  0.36089400  1
  O  O16  1  0.14951000  0.70098100  0.82760100  1
  O  O17  1  0.00717800  0.98564600  0.23786700  1
  O  O18  1  0.85898900  0.28202200  0.68232800  1
  O  O19  1  0.71800600  0.56398700  0.10539300  1
  O  O20  1  0.58083400  0.83833100  0.54498500  1
  O  O21  1  0.43183100  0.13633700  0.47577800  1
  O  O22  1  0.28127400  0.43745300  0.91696600  1
  O  O23  1  0.13648600  0.72702900  0.31589300  1
  O  O24  1  0.99378300  0.01243400  0.76502100  1
  O  O25  1  0.85168000  0.29664000  0.17228500  1
  O  O26  1  0.70884700  0.58230600  0.61238900  1
  O  O27  1  0.56128300  0.87743400  0.02083700  1
