# generated using pymatgen
data_Li4MnCo2O7
_symmetry_space_group_name_H-M   'P 1'
_cell_length_a   2.91228800
_cell_length_b   10.69645671
_cell_length_c   8.32644668
_cell_angle_alpha   78.32209511
_cell_angle_beta   90.00000000
_cell_angle_gamma   82.17584150
_symmetry_Int_Tables_number   1
_chemical_formula_structural   Li4MnCo2O7
_chemical_formula_sum   'Li8 Mn2 Co4 O14'
_cell_volume   251.54339272
_cell_formula_units_Z   2
loop_
 _symmetry_equiv_pos_site_id
 _symmetry_equiv_pos_as_xyz
  1  'x, y, z'
loop_
 _atom_site_type_symbol
 _atom_site_label
 _atom_site_symmetry_multiplicity
 _atom_site_fract_x
 _atom_site_fract_y
 _atom_site_fract_z
 _atom_site_occupancy
  Li  Li0  1  0.42099500  0.15800900  0.23599400  1
  Li  Li1  1  0.28265300  0.43469200  0.62590800  1
  Li  Li2  1  0.14970400  0.70059200  0.07292900  1
  Li  Li3  1  0.99975200  0.00049600  0.50261600  1
  Li  Li4  1  0.85075800  0.29848400  0.93239000  1
  Li  Li5  1  0.71819900  0.56360300  0.35895300  1
  Li  Li6  1  0.57791300  0.84417500  0.78288100  1
  Li  Li7  1  0.85563900  0.28872200  0.42444300  1
  Mn  Mn8  1  0.99956200  0.00087500  0.99701100  1
  Mn  Mn9  1  0.42689300  0.14621400  0.70137200  1
  Co  Co10  1  0.71741700  0.56516700  0.86110800  1
  Co  Co11  1  0.57096600  0.85806800  0.28821700  1
  Co  Co12  1  0.28844700  0.42310500  0.16789500  1
  Co  Co13  1  0.14289200  0.71421600  0.57410600  1
  O  O14  1  0.43686600  0.12626700  0.95590700  1
  O  O15  1  0.28464300  0.43071400  0.38249800  1
  O  O16  1  0.14794300  0.70411600  0.82127800  1
  O  O17  1  0.00475800  0.99048400  0.23198700  1
  O  O18  1  0.86715900  0.26568100  0.68487700  1
  O  O19  1  0.71846700  0.56306400  0.10212000  1
  O  O20  1  0.57533400  0.84933300  0.53982600  1
  O  O21  1  0.43137400  0.13725300  0.48681300  1
  O  O22  1  0.28153700  0.43692700  0.88810800  1
  O  O23  1  0.13375700  0.73248800  0.32095800  1
  O  O24  1  0.99284200  0.01431600  0.75838600  1
  O  O25  1  0.85362100  0.29275800  0.17372800  1
  O  O26  1  0.70860100  0.58279800  0.60497400  1
  O  O27  1  0.56130900  0.87738200  0.02271900  1
