data_image0
_chemical_formula_structural       Ca4Mn8O16
_chemical_formula_sum              "Ca4 Mn8 O16"
_cell_length_a       9.66405
_cell_length_b       9.95374
_cell_length_c       3.11429
_cell_angle_alpha    90
_cell_angle_beta     90
_cell_angle_gamma    90

_space_group_name_H-M_alt    "P 1"
_space_group_IT_number       1

loop_
  _space_group_symop_operation_xyz
  'x, y, z'

loop_
  _atom_site_type_symbol
  _atom_site_label
  _atom_site_symmetry_multiplicity
  _atom_site_fract_x
  _atom_site_fract_y
  _atom_site_fract_z
  _atom_site_occupancy
  Ca  Ca1       1.0  0.75000  0.14600  0.69200  1.0000
  Ca  Ca2       1.0  0.25000  0.85400  0.30800  1.0000
  Ca  Ca3       1.0  0.25000  0.35400  0.69200  1.0000
  Ca  Ca4       1.0  0.75000  0.64600  0.30800  1.0000
  Mn  Mn1       1.0  0.06900  0.11200  0.21300  1.0000
  Mn  Mn2       1.0  0.56900  0.88800  0.78700  1.0000
  Mn  Mn3       1.0  0.93100  0.38800  0.21300  1.0000
  Mn  Mn4       1.0  0.43100  0.61200  0.78700  1.0000
  Mn  Mn5       1.0  0.93100  0.88800  0.78700  1.0000
  Mn  Mn6       1.0  0.43100  0.11200  0.21300  1.0000
  Mn  Mn7       1.0  0.06900  0.61200  0.78700  1.0000
  Mn  Mn8       1.0  0.56900  0.38800  0.21300  1.0000
  O   O1        1.0  0.11000  0.97400  0.79000  1.0000
  O   O2        1.0  0.61000  0.02610  0.21000  1.0000
  O   O3        1.0  0.89000  0.52600  0.79000  1.0000
  O   O4        1.0  0.39000  0.47400  0.21000  1.0000
  O   O5        1.0  0.89000  0.02610  0.21000  1.0000
  O   O6        1.0  0.39000  0.97400  0.79000  1.0000
  O   O7        1.0  0.11000  0.47400  0.21000  1.0000
  O   O8        1.0  0.61000  0.52600  0.79000  1.0000
  O   O9        1.0  0.25000  0.18900  0.19500  1.0000
  O   O10       1.0  0.75000  0.81100  0.80500  1.0000
  O   O11       1.0  0.75000  0.31100  0.19500  1.0000
  O   O12       1.0  0.25000  0.68900  0.80500  1.0000
  O   O13       1.0  0.00000  0.25000  0.62100  1.0000
  O   O14       1.0  0.50000  0.75000  0.37900  1.0000
  O   O15       1.0  0.00000  0.75000  0.37900  1.0000
  O   O16       1.0  0.50000  0.25000  0.62100  1.0000
