# generated using pymatgen
data_Li7Mn4CoO12
_symmetry_space_group_name_H-M   'P 1'
_cell_length_a   5.91736416
_cell_length_b   10.18354803
_cell_length_c   7.65433055
_cell_angle_alpha   77.08046343
_cell_angle_beta   98.13429845
_cell_angle_gamma   103.57090802
_symmetry_Int_Tables_number   1
_chemical_formula_structural   Li7Mn4CoO12
_chemical_formula_sum   'Li14 Mn8 Co2 O24'
_cell_volume   435.08607755
_cell_formula_units_Z   2
loop_
 _symmetry_equiv_pos_site_id
 _symmetry_equiv_pos_as_xyz
  1  'x, y, z'
loop_
 _atom_site_type_symbol
 _atom_site_label
 _atom_site_symmetry_multiplicity
 _atom_site_fract_x
 _atom_site_fract_y
 _atom_site_fract_z
 _atom_site_occupancy
  Li  Li0  1  0.33333000  0.00000100  0.33333300  1
  Li  Li1  1  0.83333000  0.99999900  0.33333400  1
  Li  Li2  1  0.17433100  0.24096800  0.18557300  1
  Li  Li3  1  0.67644600  0.24116000  0.18593100  1
  Li  Li4  1  0.49233600  0.75903000  0.48109300  1
  Li  Li5  1  0.99021900  0.75884000  0.48073700  1
  Li  Li6  1  0.67776000  0.75327600  0.17674000  1
  Li  Li7  1  0.17705000  0.75397100  0.17590600  1
  Li  Li8  1  0.48961700  0.24602800  0.49075900  1
  Li  Li9  1  0.98891000  0.24672200  0.48992500  1
  Li  Li10  1  0.33225100  0.25324400  0.83466500  1
  Li  Li11  1  0.83139000  0.25302600  0.83407600  1
  Li  Li12  1  0.83527800  0.74697500  0.83259200  1
  Li  Li13  1  0.33441700  0.74675600  0.83200000  1
  Mn  Mn14  1  0.49479800  0.99555800  0.01093800  1
  Mn  Mn15  1  0.17187000  0.00444300  0.65572800  1
  Mn  Mn16  1  0.50305500  0.49870000  0.00296000  1
  Mn  Mn17  1  0.16361400  0.50129400  0.66371100  1
  Mn  Mn18  1  0.99483600  0.99585800  0.01076400  1
  Mn  Mn19  1  0.67182700  0.00414900  0.65589500  1
  Mn  Mn20  1  0.00298300  0.49773300  0.00295100  1
  Mn  Mn21  1  0.66368300  0.50226400  0.66371900  1
  Co  Co22  1  0.33333400  0.49999900  0.33333500  1
  Co  Co23  1  0.83333500  0.50000000  0.33333500  1
  O  O24  1  0.30174200  0.10838600  0.06745500  1
  O  O25  1  0.80160800  0.10847200  0.06737800  1
  O  O26  1  0.86505600  0.89153200  0.59929000  1
  O  O27  1  0.36492100  0.89161500  0.59920900  1
  O  O28  1  0.34927000  0.61390700  0.09630400  1
  O  O29  1  0.84995600  0.61318600  0.09762500  1
  O  O30  1  0.31739900  0.38609100  0.57036600  1
  O  O31  1  0.81671300  0.38681400  0.56904400  1
  O  O32  1  0.17285300  0.11806400  0.43661300  1
  O  O33  1  0.67284400  0.11779400  0.43661900  1
  O  O34  1  0.49381500  0.88193800  0.23005200  1
  O  O35  1  0.99381900  0.88220900  0.23004300  1
  O  O36  1  0.67937600  0.61769500  0.42231600  1
  O  O37  1  0.17937900  0.61714200  0.42150600  1
  O  O38  1  0.48729000  0.38285600  0.24516400  1
  O  O39  1  0.98729300  0.38230400  0.24435200  1
  O  O40  1  0.48324200  0.10589400  0.74996600  1
  O  O41  1  0.98299200  0.10594100  0.74992900  1
  O  O42  1  0.68367100  0.89406200  0.91673600  1
  O  O43  1  0.18342100  0.89410900  0.91669700  1
  O  O44  1  0.51897200  0.62020900  0.76232400  1
  O  O45  1  0.01914500  0.61961500  0.76210600  1
  O  O46  1  0.64752500  0.38038300  0.90456200  1
  O  O47  1  0.14769700  0.37978800  0.90434600  1
