# generated using pymatgen
data_RbCoCl3O2
_symmetry_space_group_name_H-M   'P 1'
_cell_length_a   8.19761016
_cell_length_b   8.19761016
_cell_length_c   8.53286578
_cell_angle_alpha   62.97381140
_cell_angle_beta   62.97381140
_cell_angle_gamma   42.58081146
_symmetry_Int_Tables_number   1
_chemical_formula_structural   RbCoCl3O2
_chemical_formula_sum   'Rb2 Co2 Cl6 O4'
_cell_volume   338.72360589
_cell_formula_units_Z   2
loop_
 _symmetry_equiv_pos_site_id
 _symmetry_equiv_pos_as_xyz
  1  'x, y, z'
loop_
 _atom_site_type_symbol
 _atom_site_label
 _atom_site_symmetry_multiplicity
 _atom_site_fract_x
 _atom_site_fract_y
 _atom_site_fract_z
 _atom_site_occupancy
  Rb  Rb0  1  0.00000000  0.50000000  0.00000000  1
  Rb  Rb1  1  0.50000000  0.00000000  0.50000000  1
  Co  Co2  1  0.00000000  0.00000000  0.50000000  1
  Co  Co3  1  0.00000000  0.00000000  0.00000000  1
  Cl  Cl4  1  0.19570700  0.80429300  0.75000000  1
  Cl  Cl5  1  0.80429300  0.19570700  0.25000000  1
  Cl  Cl6  1  0.08762600  0.64306400  0.54643000  1
  Cl  Cl7  1  0.35693600  0.91237400  0.95357000  1
  Cl  Cl8  1  0.91237400  0.35693600  0.45357000  1
  Cl  Cl9  1  0.64306400  0.08762600  0.04643000  1
  O  O10  1  0.71630000  0.12300400  0.61969600  1
  O  O11  1  0.87699600  0.28370000  0.88030400  1
  O  O12  1  0.28370000  0.87699600  0.38030400  1
  O  O13  1  0.12300400  0.71630000  0.11969600  1
