# generated using pymatgen
data_As4N2Cl2O7
_symmetry_space_group_name_H-M   'P 1'
_cell_length_a   5.32695444
_cell_length_b   5.32695444
_cell_length_c   12.19745800
_cell_angle_alpha   90.00000000
_cell_angle_beta   90.00000000
_cell_angle_gamma   120.00000550
_symmetry_Int_Tables_number   1
_chemical_formula_structural   As4N2Cl2O7
_chemical_formula_sum   'As4 N2 Cl2 O7'
_cell_volume   299.74911134
_cell_formula_units_Z   1
loop_
 _symmetry_equiv_pos_site_id
 _symmetry_equiv_pos_as_xyz
  1  'x, y, z'
loop_
 _atom_site_type_symbol
 _atom_site_label
 _atom_site_symmetry_multiplicity
 _atom_site_fract_x
 _atom_site_fract_y
 _atom_site_fract_z
 _atom_site_occupancy
  As  As0  1  0.66666700  0.33333300  0.78856700  1
  As  As1  1  0.33333300  0.66666700  0.78856700  1
  As  As2  1  0.33333300  0.66666700  0.21143300  1
  As  As3  1  0.66666700  0.33333300  0.21143300  1
  N  N4  1  0.66666700  0.33333300  0.50000000  1
  N  N5  1  0.33333300  0.66666700  0.50000000  1
  Cl  Cl6  1  0.00000000  0.00000000  0.67778000  1
  Cl  Cl7  1  0.00000000  0.00000000  0.32222000  1
  O  O8  1  0.50000000  0.50000000  0.86649600  1
  O  O9  1  0.50000000  0.00000000  0.86649600  1
  O  O10  1  0.00000000  0.50000000  0.86649600  1
  O  O11  1  0.50000000  0.50000000  0.13350400  1
  O  O12  1  0.50000000  0.00000000  0.13350400  1
  O  O13  1  0.00000000  0.50000000  0.13350400  1
  O  O14  1  0.00000000  0.00000000  0.00000000  1
