# generated using pymatgen
data_ScAsO5
_symmetry_space_group_name_H-M   'P 1'
_cell_length_a   5.55131900
_cell_length_b   6.02242467
_cell_length_c   6.91537780
_cell_angle_alpha   100.42866369
_cell_angle_beta   91.36035389
_cell_angle_gamma   111.02437809
_symmetry_Int_Tables_number   1
_chemical_formula_structural   ScAsO5
_chemical_formula_sum   'Sc2 As2 O10'
_cell_volume   211.24883810
_cell_formula_units_Z   2
loop_
 _symmetry_equiv_pos_site_id
 _symmetry_equiv_pos_as_xyz
  1  'x, y, z'
loop_
 _atom_site_type_symbol
 _atom_site_label
 _atom_site_symmetry_multiplicity
 _atom_site_fract_x
 _atom_site_fract_y
 _atom_site_fract_z
 _atom_site_occupancy
  Sc  Sc0  1  0.61334900  0.73360400  0.20793600  1
  Sc  Sc1  1  0.38665100  0.26639600  0.79206400  1
  As  As2  1  0.75095700  0.87530900  0.74387400  1
  As  As3  1  0.24904300  0.12469100  0.25612600  1
  O  O4  1  0.60693200  0.65381800  0.88109800  1
  O  O5  1  0.39306800  0.34618200  0.11890200  1
  O  O6  1  0.67070000  0.12544100  0.82124100  1
  O  O7  1  0.32930000  0.87455900  0.17875900  1
  O  O8  1  0.63440000  0.75291000  0.50179800  1
  O  O9  1  0.36560000  0.24709000  0.49820200  1
  O  O10  1  0.07636300  0.95604800  0.77913200  1
  O  O11  1  0.92363700  0.04395200  0.22086800  1
  O  O12  1  0.91619000  0.57794700  0.24911400  1
  O  O13  1  0.08381000  0.42205300  0.75088600  1
