# generated using pymatgen
data_Ag(MoSe)3
_symmetry_space_group_name_H-M   'P 1'
_cell_length_a   4.53127800
_cell_length_b   8.42153076
_cell_length_c   8.42411178
_cell_angle_alpha   120.00971171
_cell_angle_beta   90.00000000
_cell_angle_gamma   90.00000000
_symmetry_Int_Tables_number   1
_chemical_formula_structural   Ag(MoSe)3
_chemical_formula_sum   'Ag2 Mo6 Se6'
_cell_volume   278.37100057
_cell_formula_units_Z   2
loop_
 _symmetry_equiv_pos_site_id
 _symmetry_equiv_pos_as_xyz
  1  'x, y, z'
loop_
 _atom_site_type_symbol
 _atom_site_label
 _atom_site_symmetry_multiplicity
 _atom_site_fract_x
 _atom_site_fract_y
 _atom_site_fract_z
 _atom_site_occupancy
  Ag  Ag0  1  0.75000000  0.33344100  0.66666000  1
  Ag  Ag1  1  0.25000000  0.66655900  0.33334000  1
  Mo  Mo2  1  0.75000000  0.05144100  0.84732300  1
  Mo  Mo3  1  0.75000000  0.15277700  0.20418500  1
  Mo  Mo4  1  0.75000000  0.79576200  0.94852600  1
  Mo  Mo5  1  0.25000000  0.94855900  0.15267700  1
  Mo  Mo6  1  0.25000000  0.84722300  0.79581500  1
  Mo  Mo7  1  0.25000000  0.20423800  0.05147400  1
  Se  Se8  1  0.75000000  0.69660500  0.60132000  1
  Se  Se9  1  0.75000000  0.39875100  0.09543400  1
  Se  Se10  1  0.75000000  0.90463900  0.30330200  1
  Se  Se11  1  0.25000000  0.30339500  0.39868000  1
  Se  Se12  1  0.25000000  0.60124900  0.90456600  1
  Se  Se13  1  0.25000000  0.09536100  0.69669800  1
