# generated using pymatgen
data_Li7Mn5O12
_symmetry_space_group_name_H-M   'P 1'
_cell_length_a   5.99229585
_cell_length_b   8.22378355
_cell_length_c   10.14286337
_cell_angle_alpha   113.19221543
_cell_angle_beta   76.67666120
_cell_angle_gamma   89.41359184
_symmetry_Int_Tables_number   1
_chemical_formula_structural   Li7Mn5O12
_chemical_formula_sum   'Li14 Mn10 O24'
_cell_volume   444.21697193
_cell_formula_units_Z   2
loop_
 _symmetry_equiv_pos_site_id
 _symmetry_equiv_pos_as_xyz
  1  'x, y, z'
loop_
 _atom_site_type_symbol
 _atom_site_label
 _atom_site_symmetry_multiplicity
 _atom_site_fract_x
 _atom_site_fract_y
 _atom_site_fract_z
 _atom_site_occupancy
  Li  Li0  1  0.16669100  0.33330000  0.16669900  1
  Li  Li1  1  0.66674600  0.83327800  0.16664200  1
  Li  Li2  1  0.66669400  0.83340900  0.66673100  1
  Li  Li3  1  0.16671300  0.33335100  0.66665600  1
  Li  Li4  1  0.16669400  0.83340000  0.16665800  1
  Li  Li5  1  0.66669300  0.33338100  0.16667700  1
  Li  Li6  1  0.83894600  0.65553000  0.31819700  1
  Li  Li7  1  0.33910500  0.15523100  0.31823600  1
  Li  Li8  1  0.99414300  0.51149400  0.01508700  1
  Li  Li9  1  0.49437100  0.01118000  0.01513700  1
  Li  Li10  1  0.51377300  0.99234400  0.48973200  1
  Li  Li11  1  0.01304400  0.49260700  0.48967400  1
  Li  Li12  1  0.81955200  0.67424600  0.84362100  1
  Li  Li13  1  0.32031200  0.17390000  0.84364800  1
  Mn  Mn14  1  0.16645600  0.83324200  0.66651400  1
  Mn  Mn15  1  0.66672500  0.33336900  0.66686800  1
  Mn  Mn16  1  0.49555500  0.50610700  0.00613500  1
  Mn  Mn17  1  0.99610600  0.00555400  0.00573000  1
  Mn  Mn18  1  0.33717700  0.66104400  0.32756900  1
  Mn  Mn19  1  0.83742700  0.16059800  0.32729500  1
  Mn  Mn20  1  0.00167600  0.99600800  0.49678200  1
  Mn  Mn21  1  0.50114400  0.49710200  0.49656900  1
  Mn  Mn22  1  0.83238900  0.16968800  0.83670200  1
  Mn  Mn23  1  0.33148000  0.67065300  0.83653900  1
  O  O24  1  0.53873700  0.25133900  0.97550800  1
  O  O25  1  0.03811900  0.75118300  0.97569500  1
  O  O26  1  0.79468000  0.41531400  0.35778100  1
  O  O27  1  0.29521300  0.91546500  0.35759000  1
  O  O28  1  0.17399100  0.57952000  0.17783800  1
  O  O29  1  0.67344700  0.07973600  0.17815300  1
  O  O30  1  0.65974700  0.58690600  0.15521500  1
  O  O31  1  0.15929600  0.08712400  0.15554200  1
  O  O32  1  0.83872000  0.92888000  0.34746200  1
  O  O33  1  0.33851100  0.42919100  0.34755300  1
  O  O34  1  0.49454000  0.73779800  0.98584800  1
  O  O35  1  0.99491700  0.23747100  0.98576400  1
  O  O36  1  0.99593600  0.77022300  0.51613300  1
  O  O37  1  0.49584800  0.27158500  0.51700200  1
  O  O38  1  0.33738800  0.89640200  0.81714800  1
  O  O39  1  0.83766400  0.39519000  0.81643200  1
  O  O40  1  0.69820600  0.08767000  0.65929400  1
  O  O41  1  0.19614300  0.58894800  0.66014300  1
  O  O42  1  0.63522200  0.57899600  0.67407100  1
  O  O43  1  0.13733900  0.07766600  0.67307900  1
  O  O44  1  0.83525900  0.93862300  0.84402800  1
  O  O45  1  0.33619400  0.43884700  0.84354500  1
  O  O46  1  0.49811700  0.72813900  0.48928800  1
  O  O47  1  0.99715700  0.22777300  0.48978600  1
