# generated using pymatgen
data_Li9Mn2Co5O16
_symmetry_space_group_name_H-M   'P 1'
_cell_length_a   5.12031465
_cell_length_b   7.74537911
_cell_length_c   7.74537941
_cell_angle_alpha   96.13062803
_cell_angle_beta   76.07349489
_cell_angle_gamma   76.07350196
_symmetry_Int_Tables_number   1
_chemical_formula_structural   Li9Mn2Co5O16
_chemical_formula_sum   'Li9 Mn2 Co5 O16'
_cell_volume   284.92137599
_cell_formula_units_Z   1
loop_
 _symmetry_equiv_pos_site_id
 _symmetry_equiv_pos_as_xyz
  1  'x, y, z'
loop_
 _atom_site_type_symbol
 _atom_site_label
 _atom_site_symmetry_multiplicity
 _atom_site_fract_x
 _atom_site_fract_y
 _atom_site_fract_z
 _atom_site_occupancy
  Li  Li0  1  0.99337200  0.11191700  0.36899200  1
  Li  Li1  1  0.00662800  0.63100800  0.88808300  1
  Li  Li2  1  0.51753400  0.98540600  0.48864000  1
  Li  Li3  1  0.48246600  0.51136000  0.01459400  1
  Li  Li4  1  0.00860900  0.86835100  0.61288600  1
  Li  Li5  1  0.99139100  0.38711400  0.13164900  1
  Li  Li6  1  0.49541200  0.74838800  0.74493500  1
  Li  Li7  1  0.50458800  0.25506500  0.25161200  1
  Li  Li8  1  0.00000000  0.74804500  0.25195500  1
  Mn  Mn9  1  0.00000000  0.99755700  0.00244300  1
  Mn  Mn10  1  0.50000000  0.37766700  0.62233300  1
  Co  Co11  1  0.00000000  0.50506700  0.49493300  1
  Co  Co12  1  0.50000000  0.86384800  0.13615200  1
  Co  Co13  1  0.00000000  0.25075800  0.74924200  1
  Co  Co14  1  0.50000000  0.62224400  0.37775600  1
  Co  Co15  1  0.50000000  0.12571400  0.87428600  1
  O  O16  1  0.75378200  0.00168900  0.22779000  1
  O  O17  1  0.75735400  0.47666000  0.72701400  1
  O  O18  1  0.27656700  0.86377500  0.37349900  1
  O  O19  1  0.27365300  0.37231500  0.86276900  1
  O  O20  1  0.74830900  0.72283000  0.49063100  1
  O  O21  1  0.76731100  0.23641900  0.98061400  1
  O  O22  1  0.27792800  0.61340000  0.61869800  1
  O  O23  1  0.24102000  0.11324300  0.10882400  1
  O  O24  1  0.24264600  0.27298600  0.52334000  1
  O  O25  1  0.24621800  0.77221000  0.99831100  1
  O  O26  1  0.72634700  0.13723100  0.62768500  1
  O  O27  1  0.72343300  0.62650100  0.13622500  1
  O  O28  1  0.23268900  0.01938600  0.76358100  1
  O  O29  1  0.25169100  0.50936900  0.27717000  1
  O  O30  1  0.75898000  0.89117600  0.88675700  1
  O  O31  1  0.72207200  0.38130200  0.38660000  1
