# generated using pymatgen
data_Li9Mn2Co5O16
_symmetry_space_group_name_H-M   'P 1'
_cell_length_a   5.05388690
_cell_length_b   7.75686151
_cell_length_c   7.75686150
_cell_angle_alpha   96.60632054
_cell_angle_beta   76.55978196
_cell_angle_gamma   76.55978873
_symmetry_Int_Tables_number   1
_chemical_formula_structural   Li9Mn2Co5O16
_chemical_formula_sum   'Li9 Mn2 Co5 O16'
_cell_volume   283.02719384
_cell_formula_units_Z   1
loop_
 _symmetry_equiv_pos_site_id
 _symmetry_equiv_pos_as_xyz
  1  'x, y, z'
loop_
 _atom_site_type_symbol
 _atom_site_label
 _atom_site_symmetry_multiplicity
 _atom_site_fract_x
 _atom_site_fract_y
 _atom_site_fract_z
 _atom_site_occupancy
  Li  Li0  1  0.01636500  0.11605100  0.36552700  1
  Li  Li1  1  0.98363500  0.63447300  0.88394900  1
  Li  Li2  1  0.49381600  0.99065300  0.48576200  1
  Li  Li3  1  0.50618400  0.51423800  0.00934700  1
  Li  Li4  1  0.99823900  0.86953800  0.62286000  1
  Li  Li5  1  0.00176100  0.37714000  0.13046200  1
  Li  Li6  1  0.50063900  0.74948900  0.75268900  1
  Li  Li7  1  0.49936100  0.24731100  0.25051100  1
  Li  Li8  1  0.50000000  0.87615600  0.12384400  1
  Mn  Mn9  1  0.00000000  0.99867400  0.00132600  1
  Mn  Mn10  1  0.00000000  0.25080300  0.74919700  1
  Co  Co11  1  0.00000000  0.50288400  0.49711600  1
  Co  Co12  1  0.50000000  0.37409100  0.62590900  1
  Co  Co13  1  0.00000000  0.75338000  0.24662000  1
  Co  Co14  1  0.50000000  0.63155500  0.36844500  1
  Co  Co15  1  0.50000000  0.12406800  0.87593200  1
  O  O16  1  0.77567000  0.99827100  0.23449100  1
  O  O17  1  0.77320700  0.48549900  0.74963500  1
  O  O18  1  0.24757900  0.86148700  0.37560900  1
  O  O19  1  0.25644100  0.35425500  0.85495500  1
  O  O20  1  0.75864800  0.74097700  0.49479100  1
  O  O21  1  0.75388500  0.23371600  0.98126200  1
  O  O22  1  0.26745100  0.60204900  0.61620300  1
  O  O23  1  0.24303500  0.12035500  0.10016700  1
  O  O24  1  0.22679300  0.25036500  0.51450100  1
  O  O25  1  0.22433000  0.76550900  0.00172900  1
  O  O26  1  0.74355900  0.14504500  0.64574500  1
  O  O27  1  0.75242100  0.62439100  0.13851300  1
  O  O28  1  0.24611500  0.01873800  0.76628400  1
  O  O29  1  0.24135200  0.50520900  0.25902300  1
  O  O30  1  0.75696500  0.89983300  0.87964500  1
  O  O31  1  0.73254900  0.38379700  0.39795100  1
