# generated using pymatgen
data_Li9Mn2Co5O16
_symmetry_space_group_name_H-M   'P 1'
_cell_length_a   5.91326124
_cell_length_b   10.17394198
_cell_length_c   5.93526576
_cell_angle_alpha   88.98563126
_cell_angle_beta   120.16363592
_cell_angle_gamma   107.63320216
_symmetry_Int_Tables_number   1
_chemical_formula_structural   Li9Mn2Co5O16
_chemical_formula_sum   'Li9 Mn2 Co5 O16'
_cell_volume   290.27090282
_cell_formula_units_Z   1
loop_
 _symmetry_equiv_pos_site_id
 _symmetry_equiv_pos_as_xyz
  1  'x, y, z'
loop_
 _atom_site_type_symbol
 _atom_site_label
 _atom_site_symmetry_multiplicity
 _atom_site_fract_x
 _atom_site_fract_y
 _atom_site_fract_z
 _atom_site_occupancy
  Li  Li0  1  0.00000000  0.00000000  0.50000000  1
  Li  Li1  1  0.00199100  0.25636100  0.25556300  1
  Li  Li2  1  0.00000000  0.50000000  0.00000000  1
  Li  Li3  1  0.50000000  0.00000000  0.00000000  1
  Li  Li4  1  0.50587900  0.25488100  0.76188500  1
  Li  Li5  1  0.50000000  0.50000000  0.50000000  1
  Li  Li6  1  0.49412100  0.74511900  0.23811500  1
  Li  Li7  1  0.99800900  0.74363900  0.74443700  1
  Li  Li8  1  0.00000000  0.50000000  0.50000000  1
  Mn  Mn9  1  0.00000000  0.00000000  0.00000000  1
  Mn  Mn10  1  0.50000000  0.50000000  0.00000000  1
  Co  Co11  1  0.99914200  0.25682900  0.75014800  1
  Co  Co12  1  0.00085800  0.74317100  0.24985200  1
  Co  Co13  1  0.50000000  0.00000000  0.50000000  1
  Co  Co14  1  0.51311100  0.25495300  0.25713800  1
  Co  Co15  1  0.48688900  0.74504700  0.74286200  1
  O  O16  1  0.77437400  0.87566700  0.11655300  1
  O  O17  1  0.76438900  0.11471400  0.87719600  1
  O  O18  1  0.75300100  0.35960800  0.62702600  1
  O  O19  1  0.26053800  0.87706400  0.61148900  1
  O  O20  1  0.24375700  0.12076200  0.34397700  1
  O  O21  1  0.26646600  0.38179300  0.11833400  1
  O  O22  1  0.28028600  0.62505800  0.87425100  1
  O  O23  1  0.73578900  0.61969900  0.34047000  1
  O  O24  1  0.22562600  0.12433300  0.88344700  1
  O  O25  1  0.26421100  0.38030100  0.65953000  1
  O  O26  1  0.24699900  0.64039200  0.37297400  1
  O  O27  1  0.73946200  0.12293600  0.38851100  1
  O  O28  1  0.71971400  0.37494200  0.12574900  1
  O  O29  1  0.73353400  0.61820700  0.88166600  1
  O  O30  1  0.75624300  0.87923800  0.65602300  1
  O  O31  1  0.23561100  0.88528600  0.12280400  1
