# generated using pymatgen
data_Ca(IO2)2
_symmetry_space_group_name_H-M   'P 1'
_cell_length_a   8.12101300
_cell_length_b   4.71865400
_cell_length_c   7.50369336
_cell_angle_alpha   69.98695994
_cell_angle_beta   90.00000000
_cell_angle_gamma   90.00000000
_symmetry_Int_Tables_number   1
_chemical_formula_structural   Ca(IO2)2
_chemical_formula_sum   'Ca2 I4 O8'
_cell_volume   270.18002992
_cell_formula_units_Z   2
loop_
 _symmetry_equiv_pos_site_id
 _symmetry_equiv_pos_as_xyz
  1  'x, y, z'
loop_
 _atom_site_type_symbol
 _atom_site_label
 _atom_site_symmetry_multiplicity
 _atom_site_fract_x
 _atom_site_fract_y
 _atom_site_fract_z
 _atom_site_occupancy
  Ca  Ca0  1  0.50000000  0.00000000  0.50000000  1
  Ca  Ca1  1  0.00000000  0.00000000  0.00000000  1
  I  I2  1  0.87830500  0.68516400  0.63499600  1
  I  I3  1  0.37830500  0.31483600  0.86500400  1
  I  I4  1  0.12169500  0.31483600  0.36500400  1
  I  I5  1  0.62169500  0.68516400  0.13499600  1
  O  O6  1  0.33442200  0.55790400  0.60649300  1
  O  O7  1  0.83442200  0.44209600  0.89350700  1
  O  O8  1  0.66557800  0.44209600  0.39350700  1
  O  O9  1  0.16557800  0.55790400  0.10649300  1
  O  O10  1  0.00228600  0.99013000  0.69236100  1
  O  O11  1  0.50228600  0.00987000  0.80763900  1
  O  O12  1  0.99771400  0.00987000  0.30763900  1
  O  O13  1  0.49771400  0.99013000  0.19236100  1
