# generated using pymatgen
data_Na4Sn2C4SO16
_symmetry_space_group_name_H-M   'P 1'
_cell_length_a   10.02273200
_cell_length_b   10.08529159
_cell_length_c   17.94128870
_cell_angle_alpha   91.38875839
_cell_angle_beta   104.59687773
_cell_angle_gamma   119.64470938
_symmetry_Int_Tables_number   1
_chemical_formula_structural   Na4Sn2C4SO16
_chemical_formula_sum   'Na16 Sn8 C16 S4 O64'
_cell_volume   1501.20401304
_cell_formula_units_Z   4
loop_
 _symmetry_equiv_pos_site_id
 _symmetry_equiv_pos_as_xyz
  1  'x, y, z'
loop_
 _atom_site_type_symbol
 _atom_site_label
 _atom_site_symmetry_multiplicity
 _atom_site_fract_x
 _atom_site_fract_y
 _atom_site_fract_z
 _atom_site_occupancy
  Na  Na0  1  0.32554700  0.41443000  0.83424500  1
  Na  Na1  1  0.07566800  0.79201400  0.96420000  1
  Na  Na2  1  0.28556200  0.65352800  0.53992000  1
  Na  Na3  1  0.29017900  0.11664700  0.54228900  1
  Na  Na4  1  0.92310500  0.42801500  0.84088800  1
  Na  Na5  1  0.91710200  0.99689000  0.83872800  1
  Na  Na6  1  0.92095100  0.49434800  0.34491800  1
  Na  Na7  1  0.34335200  0.22220800  0.03783100  1
  Na  Na8  1  0.67862300  0.08993500  0.66034300  1
  Na  Na9  1  0.32381800  0.91331700  0.33066900  1
  Na  Na10  1  0.67821700  0.88844100  0.46389000  1
  Na  Na11  1  0.91041900  0.68478000  0.54062600  1
  Na  Na12  1  0.91806300  0.21641700  0.04213200  1
  Na  Na13  1  0.92182300  0.92283900  0.33694600  1
  Na  Na14  1  0.33400300  0.62690000  0.03987400  1
  Na  Na15  1  0.68238600  0.59889700  0.16218400  1
  Sn  Sn16  1  0.51347000  0.00437800  0.99877100  1
  Sn  Sn17  1  0.49744800  0.24968100  0.75186400  1
  Sn  Sn18  1  0.00878400  0.75561400  0.74364500  1
  Sn  Sn19  1  0.49519300  0.47777300  0.49595100  1
  Sn  Sn20  1  0.00454800  0.25378100  0.24967600  1
  Sn  Sn21  1  0.49634300  0.74785900  0.75066100  1
  Sn  Sn22  1  0.48689200  0.74811200  0.24409000  1
  Sn  Sn23  1  0.50218800  0.25068400  0.24995300  1
  C  C24  1  0.29026700  0.09342100  0.86315900  1
  C  C25  1  0.66578800  0.08383500  0.84930200  1
  C  C26  1  0.35006800  0.42359400  0.65169600  1
  C  C27  1  0.70651800  0.60384200  0.82499900  1
  C  C28  1  0.71828600  0.11915000  0.32645000  1
  C  C29  1  0.69515900  0.40939000  0.64085900  1
  C  C30  1  0.71332000  0.79650500  0.64524900  1
  C  C31  1  0.73484300  0.30333100  0.15017000  1
  C  C32  1  0.26725500  0.19200900  0.35171900  1
  C  C33  1  0.27619000  0.68814000  0.85745100  1
  C  C34  1  0.26460800  0.57677100  0.35624900  1
  C  C35  1  0.66845500  0.57555300  0.35803500  1
  C  C36  1  0.29518200  0.89933000  0.66731600  1
  C  C37  1  0.28423500  0.37816900  0.16978300  1
  C  C38  1  0.34904400  0.93674300  0.13903000  1
  C  C39  1  0.73936800  0.93493900  0.14881100  1
  S  S40  1  0.87858100  0.18952000  0.56186200  1
  S  S41  1  0.12239400  0.31170300  0.93861500  1
  S  S42  1  0.87435100  0.68394800  0.06149500  1
  S  S43  1  0.12227000  0.81201200  0.43834600  1
  O  O44  1  0.40995800  0.15967900  0.92480400  1
  O  O45  1  0.93348500  0.21704000  0.64983700  1
  O  O46  1  0.69398500  0.08845000  0.53659800  1
  O  O47  1  0.30289600  0.14529400  0.79466900  1
  O  O48  1  0.70199800  0.06011700  0.91792100  1
  O  O49  1  0.92969300  0.33674900  0.53184700  1
  O  O50  1  0.93644100  0.09586000  0.52929600  1
  O  O51  1  0.38180700  0.01396200  0.20944800  1
  O  O52  1  0.58045900  0.46600500  0.81938000  1
  O  O53  1  0.35710300  0.50585100  0.71245700  1
  O  O54  1  0.65443600  0.20661200  0.83622700  1
  O  O55  1  0.35287200  0.29595100  0.66192300  1
  O  O56  1  0.68604000  0.72289500  0.82008300  1
  O  O57  1  0.69934400  0.23891900  0.31930100  1
  O  O58  1  0.42283300  0.04024400  0.67828400  1
  O  O59  1  0.06033900  0.40255200  0.96864400  1
  O  O60  1  0.07188300  0.16612400  0.97208600  1
  O  O61  1  0.84681200  0.62555500  0.83571600  1
  O  O62  1  0.33926600  0.46292100  0.58509800  1
  O  O63  1  0.85156400  0.13213900  0.31966300  1
  O  O64  1  0.69517200  0.35047000  0.70775700  1
  O  O65  1  0.57882300  0.79002100  0.65224100  1
  O  O66  1  0.61111600  0.31232300  0.15894900  1
  O  O67  1  0.30264400  0.40656400  0.96216500  1
  O  O68  1  0.05676500  0.27260800  0.85097300  1
  O  O69  1  0.13804700  0.43122500  0.34591100  1
  O  O70  1  0.27377500  0.22709200  0.42127400  1
  O  O71  1  0.15132400  0.97807900  0.86040600  1
  O  O72  1  0.28145200  0.73802000  0.92568200  1
  O  O73  1  0.57109800  0.33461800  0.58068500  1
  O  O74  1  0.83657900  0.85277100  0.70641200  1
  O  O75  1  0.86265800  0.35578300  0.21173000  1
  O  O76  1  0.36879800  0.63191100  0.42408200  1
  O  O77  1  0.14721000  0.60931200  0.80120500  1
  O  O78  1  0.13763100  0.14663200  0.29219200  1
  O  O79  1  0.86245700  0.07822900  0.15334600  1
  O  O80  1  0.70774400  0.74702100  0.57787200  1
  O  O81  1  0.81948000  0.53786500  0.64131700  1
  O  O82  1  0.72574500  0.24801900  0.08418700  1
  O  O83  1  0.69318900  0.59083100  0.03706200  1
  O  O84  1  0.93406400  0.71170300  0.14938700  1
  O  O85  1  0.41912300  0.72240000  0.84859100  1
  O  O86  1  0.39163600  0.19200400  0.33892500  1
  O  O87  1  0.27142500  0.65219800  0.29947100  1
  O  O88  1  0.15397000  0.87533800  0.64481500  1
  O  O89  1  0.68684600  0.52072300  0.42039400  1
  O  O90  1  0.15148900  0.36544100  0.17723200  1
  O  O91  1  0.93158600  0.83540600  0.03230000  1
  O  O92  1  0.93818700  0.59817300  0.02735500  1
  O  O93  1  0.61192600  0.99280700  0.33996500  1
  O  O94  1  0.31680000  0.78142600  0.67721900  1
  O  O95  1  0.68051600  0.70770500  0.35519500  1
  O  O96  1  0.30696700  0.26133000  0.17870700  1
  O  O97  1  0.33569600  0.80382700  0.13759400  1
  O  O98  1  0.38452700  0.50086200  0.15057800  1
  O  O99  1  0.63677200  0.49147600  0.28860000  1
  O  O100  1  0.64819900  0.99298700  0.78807400  1
  O  O101  1  0.06575800  0.65922900  0.46597600  1
  O  O102  1  0.05095200  0.89349900  0.46813900  1
  O  O103  1  0.33725700  0.99743500  0.07744300  1
  O  O104  1  0.74332900  0.86285900  0.20651500  1
  O  O105  1  0.30130700  0.90751800  0.46713000  1
  O  O106  1  0.06403700  0.78165700  0.35044100  1
  O  O107  1  0.61930400  0.87675300  0.08632700  1
