# generated using pymatgen
data_Na2MnPCO7
_symmetry_space_group_name_H-M   'P 1'
_cell_length_a   5.23745100
_cell_length_b   11.18286830
_cell_length_c   11.20505664
_cell_angle_alpha   73.60558113
_cell_angle_beta   88.78881455
_cell_angle_gamma   89.07436813
_symmetry_Int_Tables_number   1
_chemical_formula_structural   Na2MnPCO7
_chemical_formula_sum   'Na8 Mn4 P4 C4 O28'
_cell_volume   629.41764156
_cell_formula_units_Z   4
loop_
 _symmetry_equiv_pos_site_id
 _symmetry_equiv_pos_as_xyz
  1  'x, y, z'
loop_
 _atom_site_type_symbol
 _atom_site_label
 _atom_site_symmetry_multiplicity
 _atom_site_fract_x
 _atom_site_fract_y
 _atom_site_fract_z
 _atom_site_occupancy
  Na  Na0  1  0.75762000  0.87581200  0.88545500  1
  Na  Na1  1  0.24617300  0.62568300  0.62592600  1
  Na  Na2  1  0.24647600  0.87684900  0.37383100  1
  Na  Na3  1  0.24463100  0.36404800  0.87752900  1
  Na  Na4  1  0.77205700  0.64286100  0.42081800  1
  Na  Na5  1  0.75765000  0.62707500  0.12129500  1
  Na  Na6  1  0.76265700  0.14588600  0.60474400  1
  Na  Na7  1  0.24394700  0.12598500  0.11608400  1
  Mn  Mn8  1  0.21774000  0.94978500  0.69648300  1
  Mn  Mn9  1  0.78050700  0.54874100  0.80659300  1
  Mn  Mn10  1  0.22191900  0.44248700  0.20441500  1
  Mn  Mn11  1  0.77818200  0.05507800  0.29943200  1
  P  P12  1  0.28764900  0.66064600  0.91876400  1
  P  P13  1  0.70934100  0.83581100  0.58323600  1
  P  P14  1  0.29357900  0.16614000  0.41091400  1
  P  P15  1  0.70351400  0.33644500  0.08810600  1
  C  C16  1  0.72753900  0.91278500  0.16306800  1
  C  C17  1  0.72622200  0.41410700  0.66616900  1
  C  C18  1  0.27989200  0.59613500  0.33829400  1
  C  C19  1  0.27260300  0.08511300  0.83444500  1
  O  O20  1  0.21050700  0.79899600  0.87230000  1
  O  O21  1  0.58692400  0.64905500  0.89818900  1
  O  O22  1  0.84827500  0.91113200  0.65880800  1
  O  O23  1  0.15264700  0.58427300  0.84175700  1
  O  O24  1  0.41141000  0.85205300  0.60143100  1
  O  O25  1  0.76472200  0.37887300  0.94696300  1
  O  O26  1  0.77653800  0.87934000  0.44240900  1
  O  O27  1  0.77666800  0.69511800  0.62702600  1
  O  O28  1  0.52826600  0.46254200  0.71139900  1
  O  O29  1  0.52408100  0.95628300  0.20612500  1
  O  O30  1  0.94305400  0.95291100  0.19915100  1
  O  O31  1  0.94564000  0.45058500  0.70330700  1
  O  O32  1  0.28279700  0.15341700  0.90471100  1
  O  O33  1  0.25805600  0.66445000  0.41376100  1
  O  O34  1  0.71693800  0.34699700  0.59619700  1
  O  O35  1  0.72936200  0.83963800  0.09666000  1
  O  O36  1  0.07052500  0.55247400  0.30289600  1
  O  O37  1  0.05361800  0.04945000  0.79825700  1
  O  O38  1  0.49345800  0.56656500  0.29691300  1
  O  O39  1  0.47005500  0.03934900  0.78712300  1
  O  O40  1  0.21333700  0.12143400  0.54932900  1
  O  O41  1  0.22500200  0.60772800  0.05926700  1
  O  O42  1  0.24056400  0.30694000  0.36031200  1
  O  O43  1  0.58903600  0.13747700  0.40289600  1
  O  O44  1  0.83797700  0.41645600  0.15777700  1
  O  O45  1  0.15522400  0.09067800  0.33449000  1
  O  O46  1  0.40067000  0.34866200  0.10362800  1
  O  O47  1  0.77476500  0.19648200  0.13604900  1
