# generated using pymatgen
data_Na3Ni2P2(CO7)2
_symmetry_space_group_name_H-M   'P 1'
_cell_length_a   8.31067400
_cell_length_b   8.31824619
_cell_length_c   10.22145403
_cell_angle_alpha   107.61280397
_cell_angle_beta   107.54584120
_cell_angle_gamma   102.98308941
_symmetry_Int_Tables_number   1
_chemical_formula_structural   Na3Ni2P2(CO7)2
_chemical_formula_sum   'Na6 Ni4 P4 C4 O28'
_cell_volume   602.11394279
_cell_formula_units_Z   2
loop_
 _symmetry_equiv_pos_site_id
 _symmetry_equiv_pos_as_xyz
  1  'x, y, z'
loop_
 _atom_site_type_symbol
 _atom_site_label
 _atom_site_symmetry_multiplicity
 _atom_site_fract_x
 _atom_site_fract_y
 _atom_site_fract_z
 _atom_site_occupancy
  Na  Na0  1  0.01836200  0.47831200  0.25811600  1
  Na  Na1  1  0.26862200  0.22777000  0.74001600  1
  Na  Na2  1  0.74453600  0.75746800  0.25189700  1
  Na  Na3  1  0.49638000  0.99531300  0.24776900  1
  Na  Na4  1  0.75767400  0.75680500  0.75424100  1
  Na  Na5  1  0.99219700  0.50329800  0.74567300  1
  Ni  Ni6  1  0.18896600  0.94326300  0.34738800  1
  Ni  Ni7  1  0.30926600  0.56347000  0.65158700  1
  Ni  Ni8  1  0.68520800  0.44071200  0.34644700  1
  Ni  Ni9  1  0.80667100  0.06278000  0.65525700  1
  P  P10  1  0.05022600  0.80200800  0.57262500  1
  P  P11  1  0.55523100  0.30737100  0.57562600  1
  P  P12  1  0.44768900  0.70169800  0.42779500  1
  P  P13  1  0.94243500  0.19321300  0.42433700  1
  C  C14  1  0.02101400  0.76648500  0.07271300  1
  C  C15  1  0.47714800  0.72991600  0.92638200  1
  C  C16  1  0.51940200  0.26969000  0.07328300  1
  C  C17  1  0.98715200  0.23052000  0.92731200  1
  O  O18  1  0.07453800  0.32124900  0.06445700  1
  O  O19  1  0.01361800  0.07555700  0.32385800  1
  O  O20  1  0.41261800  0.15635300  0.42878600  1
  O  O21  1  0.31493400  0.57300900  0.46257100  1
  O  O22  1  0.17817200  0.93490400  0.53724200  1
  O  O23  1  0.09294000  0.33669400  0.57385000  1
  O  O24  1  0.15017100  0.71483700  0.66843300  1
  O  O25  1  0.47231300  0.41241800  0.67377900  1
  O  O26  1  0.67361200  0.23842400  0.67901200  1
  O  O27  1  0.03032300  0.27320100  0.82585400  1
  O  O28  1  0.52334700  0.77497100  0.82853400  1
  O  O29  1  0.33303500  0.58778700  0.86608900  1
  O  O30  1  0.84579200  0.08828400  0.87170000  1
  O  O31  1  0.43379000  0.18207900  0.93540800  1
  O  O32  1  0.56340300  0.81495900  0.06539500  1
  O  O33  1  0.16339000  0.90787100  0.13081400  1
  O  O34  1  0.66131700  0.41416500  0.13194800  1
  O  O35  1  0.47448600  0.22468800  0.17187000  1
  O  O36  1  0.97661400  0.72108700  0.17222300  1
  O  O37  1  0.34262000  0.78267500  0.32793300  1
  O  O38  1  0.53165100  0.59859800  0.32923200  1
  O  O39  1  0.83906200  0.27864800  0.32822100  1
  O  O40  1  0.90499400  0.65687800  0.42071100  1
  O  O41  1  0.80679600  0.06621100  0.46039800  1
  O  O42  1  0.68425100  0.44219200  0.54085900  1
  O  O43  1  0.59475500  0.84477600  0.57741400  1
  O  O44  1  0.96707600  0.90684500  0.67085900  1
  O  O45  1  0.93204800  0.68070600  0.93408900  1
