# generated using pymatgen
data_Na3Mn2P2(CO7)2
_symmetry_space_group_name_H-M   'P 1'
_cell_length_a   6.58609100
_cell_length_b   10.28257500
_cell_length_c   10.39041279
_cell_angle_alpha   61.19413847
_cell_angle_beta   90.00000000
_cell_angle_gamma   90.00000000
_symmetry_Int_Tables_number   1
_chemical_formula_structural   Na3Mn2P2(CO7)2
_chemical_formula_sum   'Na6 Mn4 P4 C4 O28'
_cell_volume   616.58663740
_cell_formula_units_Z   2
loop_
 _symmetry_equiv_pos_site_id
 _symmetry_equiv_pos_as_xyz
  1  'x, y, z'
loop_
 _atom_site_type_symbol
 _atom_site_label
 _atom_site_symmetry_multiplicity
 _atom_site_fract_x
 _atom_site_fract_y
 _atom_site_fract_z
 _atom_site_occupancy
  Na  Na0  1  0.98818600  0.75968500  0.99512700  1
  Na  Na1  1  0.50750700  0.76194700  0.98903600  1
  Na  Na2  1  0.52889300  0.75813700  0.49249400  1
  Na  Na3  1  0.48818600  0.24031500  0.00487300  1
  Na  Na4  1  0.00750700  0.23805300  0.01096400  1
  Na  Na5  1  0.02889300  0.24186300  0.50750600  1
  Mn  Mn6  1  0.24285300  0.65142400  0.81237900  1
  Mn  Mn7  1  0.24387700  0.65129200  0.32091700  1
  Mn  Mn8  1  0.74285300  0.34857600  0.18762100  1
  Mn  Mn9  1  0.74387700  0.34870800  0.67908300  1
  P  P10  1  0.74593900  0.57135300  0.82118500  1
  P  P11  1  0.74939000  0.57691100  0.31758500  1
  P  P12  1  0.24593900  0.42864700  0.17881500  1
  P  P13  1  0.24939000  0.42308900  0.68241500  1
  C  C14  1  0.25290300  0.92224300  0.65203000  1
  C  C15  1  0.25252500  0.92172300  0.15581300  1
  C  C16  1  0.75290300  0.07775700  0.34797000  1
  C  C17  1  0.75252500  0.07827700  0.84418700  1
  O  O18  1  0.75416100  0.94213300  0.42567100  1
  O  O19  1  0.75050500  0.94093000  0.92543800  1
  O  O20  1  0.24470700  0.85317300  0.79861900  1
  O  O21  1  0.25537700  0.85553400  0.29945700  1
  O  O22  1  0.25866500  0.82386500  0.60494400  1
  O  O23  1  0.25085900  0.82486200  0.10627700  1
  O  O24  1  0.93212600  0.66609600  0.81408000  1
  O  O25  1  0.55883000  0.66684300  0.81212800  1
  O  O26  1  0.93569300  0.67703400  0.29221000  1
  O  O27  1  0.56076400  0.67009300  0.30851700  1
  O  O28  1  0.74041500  0.54047500  0.18598200  1
  O  O29  1  0.24586400  0.57920600  0.03329500  1
  O  O30  1  0.74020700  0.53496100  0.69152900  1
  O  O31  1  0.26185300  0.57113200  0.53728700  1
  O  O32  1  0.74586400  0.42079400  0.96670500  1
  O  O33  1  0.24041500  0.45952500  0.81401800  1
  O  O34  1  0.76185300  0.42886800  0.46271300  1
  O  O35  1  0.24020700  0.46503900  0.30847100  1
  O  O36  1  0.43212600  0.33390400  0.18592000  1
  O  O37  1  0.05883000  0.33315700  0.18787200  1
  O  O38  1  0.43569300  0.32296600  0.70779000  1
  O  O39  1  0.06076400  0.32990700  0.69148300  1
  O  O40  1  0.75866500  0.17613500  0.39505600  1
  O  O41  1  0.75085900  0.17513800  0.89372300  1
  O  O42  1  0.74470700  0.14682700  0.20138100  1
  O  O43  1  0.75537700  0.14446600  0.70054300  1
  O  O44  1  0.25416100  0.05786700  0.57432900  1
  O  O45  1  0.25050500  0.05907000  0.07456200  1
