# generated using pymatgen
data_Na2FePCO7
_symmetry_space_group_name_H-M   'P 1'
_cell_length_a   8.40473800
_cell_length_b   8.40572043
_cell_length_c   8.94887075
_cell_angle_alpha   89.71194513
_cell_angle_beta   88.64219495
_cell_angle_gamma   77.87389895
_symmetry_Int_Tables_number   1
_chemical_formula_structural   Na2FePCO7
_chemical_formula_sum   'Na8 Fe4 P4 C4 O28'
_cell_volume   617.93887909
_cell_formula_units_Z   4
loop_
 _symmetry_equiv_pos_site_id
 _symmetry_equiv_pos_as_xyz
  1  'x, y, z'
loop_
 _atom_site_type_symbol
 _atom_site_label
 _atom_site_symmetry_multiplicity
 _atom_site_fract_x
 _atom_site_fract_y
 _atom_site_fract_z
 _atom_site_occupancy
  Na  Na0  1  0.76737600  0.49501800  0.91708100  1
  Na  Na1  1  0.22159300  0.03755900  0.90811600  1
  Na  Na2  1  0.62098700  0.87870900  0.74138600  1
  Na  Na3  1  0.36948500  0.62592100  0.74238500  1
  Na  Na4  1  0.61903800  0.36860500  0.26587300  1
  Na  Na5  1  0.12091600  0.86833000  0.26327500  1
  Na  Na6  1  0.23505200  0.47446400  0.08084900  1
  Na  Na7  1  0.75444700  0.99181100  0.08221300  1
  Fe  Fe8  1  0.98456600  0.76470700  0.65384900  1
  Fe  Fe9  1  0.48481400  0.26517800  0.65416700  1
  Fe  Fe10  1  0.02259100  0.23924000  0.35146300  1
  Fe  Fe11  1  0.52207900  0.74114300  0.33992400  1
  P  P12  1  0.76296400  0.48593600  0.57298100  1
  P  P13  1  0.27106000  0.97770200  0.57637600  1
  P  P14  1  0.73557800  0.01831600  0.42483300  1
  P  P15  1  0.23635600  0.51904900  0.42448400  1
  C  C16  1  0.51482500  0.24348700  0.93469900  1
  C  C17  1  0.00916800  0.73932800  0.93441100  1
  C  C18  1  0.98827700  0.25497600  0.07223600  1
  C  C19  1  0.48499800  0.75947100  0.05988600  1
  O  O20  1  0.97777000  0.26493400  0.93197800  1
  O  O21  1  0.46728900  0.77636100  0.91869500  1
  O  O22  1  0.40297500  0.35649400  0.87329400  1
  O  O23  1  0.88753100  0.84070200  0.87295800  1
  O  O24  1  0.60079500  0.13884700  0.84024100  1
  O  O25  1  0.10470100  0.64214300  0.84000600  1
  O  O26  1  0.82453400  0.61293800  0.66983200  1
  O  O27  1  0.34354200  0.09677300  0.67274100  1
  O  O28  1  0.63683900  0.42571100  0.67778700  1
  O  O29  1  0.15337900  0.90671000  0.68143500  1
  O  O30  1  0.31924800  0.43969500  0.56652700  1
  O  O31  1  0.81034700  0.93159700  0.56702700  1
  O  O32  1  0.90232400  0.34449900  0.52415000  1
  O  O33  1  0.41468000  0.83290400  0.53065300  1
  O  O34  1  0.60041500  0.16755800  0.47224900  1
  O  O35  1  0.09947600  0.66680400  0.47233000  1
  O  O36  1  0.18666700  0.05588300  0.43570600  1
  O  O37  1  0.67867300  0.56423300  0.43026400  1
  O  O38  1  0.86469400  0.07694100  0.32443900  1
  O  O39  1  0.16843200  0.39705500  0.32924400  1
  O  O40  1  0.35885900  0.58341000  0.31880900  1
  O  O41  1  0.66302900  0.90291000  0.32397800  1
  O  O42  1  0.89122900  0.35327800  0.16558600  1
  O  O43  1  0.39102900  0.85457600  0.15572400  1
  O  O44  1  0.60031400  0.64861300  0.11801100  1
  O  O45  1  0.10235800  0.14630000  0.13765900  1
  O  O46  1  0.53770200  0.23556800  0.07424800  1
  O  O47  1  0.03253200  0.73515000  0.07394100  1
