# generated using pymatgen
data_Na2Sb4O11
_symmetry_space_group_name_H-M   'P 1'
_cell_length_a   10.62051619
_cell_length_b   10.62051619
_cell_length_c   7.28032889
_cell_angle_alpha   84.83384052
_cell_angle_beta   84.83384052
_cell_angle_gamma   42.17221134
_symmetry_Int_Tables_number   1
_chemical_formula_structural   Na2Sb4O11
_chemical_formula_sum   'Na4 Sb8 O22'
_cell_volume   548.74001054
_cell_formula_units_Z   2
loop_
 _symmetry_equiv_pos_site_id
 _symmetry_equiv_pos_as_xyz
  1  'x, y, z'
loop_
 _atom_site_type_symbol
 _atom_site_label
 _atom_site_symmetry_multiplicity
 _atom_site_fract_x
 _atom_site_fract_y
 _atom_site_fract_z
 _atom_site_occupancy
  Na  Na0  1  0.96866900  0.96866900  0.28114400  1
  Na  Na1  1  0.26534100  0.26534100  0.07609200  1
  Na  Na2  1  0.73465900  0.73465900  0.92390800  1
  Na  Na3  1  0.03133100  0.03133100  0.71885600  1
  Sb  Sb4  1  0.42403900  0.42403900  0.61712000  1
  Sb  Sb5  1  0.42896900  0.42896900  0.09691800  1
  Sb  Sb6  1  0.58408100  0.06761600  0.43605700  1
  Sb  Sb7  1  0.06761600  0.58408100  0.43605700  1
  Sb  Sb8  1  0.41591900  0.93238400  0.56394300  1
  Sb  Sb9  1  0.93238400  0.41591900  0.56394300  1
  Sb  Sb10  1  0.57103100  0.57103100  0.90308200  1
  Sb  Sb11  1  0.57596100  0.57596100  0.38288000  1
  O  O12  1  0.47686100  0.47686100  0.34400000  1
  O  O13  1  0.66908200  0.15636700  0.56475900  1
  O  O14  1  0.15636700  0.66908200  0.56475900  1
  O  O15  1  0.38079600  0.38079600  0.86915800  1
  O  O16  1  0.56126700  0.17522200  0.18550700  1
  O  O17  1  0.17522200  0.56126700  0.18550700  1
  O  O18  1  0.33252900  0.33252900  0.51451400  1
  O  O19  1  0.84569500  0.84569500  0.35307700  1
  O  O20  1  0.96904400  0.55725800  0.66690200  1
  O  O21  1  0.55725800  0.96904400  0.66690200  1
  O  O22  1  0.03095600  0.44274200  0.33309800  1
  O  O23  1  0.44274200  0.03095600  0.33309800  1
  O  O24  1  0.15430500  0.15430500  0.64692300  1
  O  O25  1  0.66747100  0.66747100  0.48548600  1
  O  O26  1  0.43873300  0.82477800  0.81449300  1
  O  O27  1  0.82477800  0.43873300  0.81449300  1
  O  O28  1  0.61920400  0.61920400  0.13084200  1
  O  O29  1  0.84363300  0.33091800  0.43524100  1
  O  O30  1  0.33091800  0.84363300  0.43524100  1
  O  O31  1  0.52313900  0.52313900  0.65600000  1
  O  O32  1  0.67445900  0.32554100  0.00000000  1
  O  O33  1  0.32554100  0.67445900  0.00000000  1
