# generated using pymatgen
data_Na3Ni2P2(CO7)2
_symmetry_space_group_name_H-M   'P 1'
_cell_length_a   9.03867149
_cell_length_b   8.25132198
_cell_length_c   8.29416700
_cell_angle_alpha   77.67669761
_cell_angle_beta   89.88308631
_cell_angle_gamma   91.59613605
_symmetry_Int_Tables_number   1
_chemical_formula_structural   Na3Ni2P2(CO7)2
_chemical_formula_sum   'Na6 Ni4 P4 C4 O28'
_cell_volume   604.07953767
_cell_formula_units_Z   2
loop_
 _symmetry_equiv_pos_site_id
 _symmetry_equiv_pos_as_xyz
  1  'x, y, z'
loop_
 _atom_site_type_symbol
 _atom_site_label
 _atom_site_symmetry_multiplicity
 _atom_site_fract_x
 _atom_site_fract_y
 _atom_site_fract_z
 _atom_site_occupancy
  Na  Na0  1  0.75732800  0.11994400  0.88455300  1
  Na  Na1  1  0.74126400  0.59906100  0.35591500  1
  Na  Na2  1  0.74923200  0.88189600  0.63276100  1
  Na  Na3  1  0.25076800  0.61810400  0.86723900  1
  Na  Na4  1  0.24267200  0.38005600  0.61544700  1
  Na  Na5  1  0.25873600  0.90093900  0.14408500  1
  Ni  Ni6  1  0.65066700  0.02114500  0.23515600  1
  Ni  Ni7  1  0.65251500  0.51750600  0.73551900  1
  Ni  Ni8  1  0.34748500  0.98249400  0.76448100  1
  Ni  Ni9  1  0.34933300  0.47885500  0.26484400  1
  P  P10  1  0.57231400  0.22972000  0.52081000  1
  P  P11  1  0.57160700  0.73792100  0.01554800  1
  P  P12  1  0.42768600  0.27028000  0.97919000  1
  P  P13  1  0.42839300  0.76207900  0.48445200  1
  C  C14  1  0.92293500  0.48675600  0.76699300  1
  C  C15  1  0.92282900  0.97982900  0.26776500  1
  C  C16  1  0.07706500  0.01324400  0.73300700  1
  C  C17  1  0.07717100  0.52017100  0.23223500  1
  O  O18  1  0.94024900  0.03391600  0.72219000  1
  O  O19  1  0.94092100  0.54275400  0.21311900  1
  O  O20  1  0.86290900  0.60255600  0.65669800  1
  O  O21  1  0.86855400  0.09670800  0.15656200  1
  O  O22  1  0.82595500  0.39458000  0.86303100  1
  O  O23  1  0.82428400  0.88548600  0.36076500  1
  O  O24  1  0.66253000  0.68669900  0.87785300  1
  O  O25  1  0.67228000  0.16282500  0.39983800  1
  O  O26  1  0.67506400  0.36106900  0.57722800  1
  O  O27  1  0.67259200  0.86997200  0.07240700  1
  O  O28  1  0.57253300  0.19746500  0.05406400  1
  O  O29  1  0.57962300  0.69031200  0.54861700  1
  O  O30  1  0.53867000  0.08507500  0.67409000  1
  O  O31  1  0.53681100  0.59122900  0.16406500  1
  O  O32  1  0.46133000  0.41492500  0.82591000  1
  O  O33  1  0.46318900  0.90877100  0.33593500  1
  O  O34  1  0.42037700  0.80968800  0.95138300  1
  O  O35  1  0.42746700  0.30253500  0.44593600  1
  O  O36  1  0.32493600  0.13893100  0.92277200  1
  O  O37  1  0.33747000  0.81330100  0.62214700  1
  O  O38  1  0.32772000  0.33717500  0.10016200  1
  O  O39  1  0.32740800  0.63002800  0.42759300  1
  O  O40  1  0.17404500  0.10542000  0.63696900  1
  O  O41  1  0.17571600  0.61451400  0.13923500  1
  O  O42  1  0.13144600  0.40329200  0.34343800  1
  O  O43  1  0.13709100  0.89744400  0.84330200  1
  O  O44  1  0.05975100  0.46608400  0.77781000  1
  O  O45  1  0.05907900  0.95724600  0.28688100  1
