# generated using pymatgen
data_Na5Fe2P2(CO7)2
_symmetry_space_group_name_H-M   'P 1'
_cell_length_a   6.61882400
_cell_length_b   9.03177291
_cell_length_c   10.52712526
_cell_angle_alpha   90.54551346
_cell_angle_beta   90.19356930
_cell_angle_gamma   90.50865273
_symmetry_Int_Tables_number   1
_chemical_formula_structural   Na5Fe2P2(CO7)2
_chemical_formula_sum   'Na10 Fe4 P4 C4 O28'
_cell_volume   629.25145684
_cell_formula_units_Z   2
loop_
 _symmetry_equiv_pos_site_id
 _symmetry_equiv_pos_as_xyz
  1  'x, y, z'
loop_
 _atom_site_type_symbol
 _atom_site_label
 _atom_site_symmetry_multiplicity
 _atom_site_fract_x
 _atom_site_fract_y
 _atom_site_fract_z
 _atom_site_occupancy
  Na  Na0  1  0.73057600  0.92151500  0.12354000  1
  Na  Na1  1  0.73753300  0.91531200  0.64042100  1
  Na  Na2  1  0.98944000  0.74016100  0.87038100  1
  Na  Na3  1  0.99923000  0.73302200  0.38216800  1
  Na  Na4  1  0.50529800  0.73046300  0.38847600  1
  Na  Na5  1  0.01056000  0.25983900  0.12961900  1
  Na  Na6  1  0.49470200  0.26953700  0.61152400  1
  Na  Na7  1  0.00077000  0.26697800  0.61783200  1
  Na  Na8  1  0.26942400  0.07848500  0.87646000  1
  Na  Na9  1  0.26246700  0.08468800  0.35957900  1
  Fe  Fe10  1  0.25772800  0.64302700  0.13701900  1
  Fe  Fe11  1  0.25483800  0.65899400  0.64680700  1
  Fe  Fe12  1  0.74227200  0.35697300  0.86298100  1
  Fe  Fe13  1  0.74516200  0.34100600  0.35319300  1
  P  P14  1  0.75401800  0.57668600  0.10315500  1
  P  P15  1  0.75198200  0.58401800  0.60529300  1
  P  P16  1  0.24598200  0.42331400  0.89684500  1
  P  P17  1  0.24801800  0.41598200  0.39470700  1
  C  C18  1  0.24163200  0.92346300  0.11785600  1
  C  C19  1  0.24351800  0.94978900  0.61075200  1
  C  C20  1  0.75836800  0.07653700  0.88214400  1
  C  C21  1  0.75648200  0.05021100  0.38924800  1
  O  O22  1  0.77414900  0.93734300  0.89325500  1
  O  O23  1  0.75183400  0.90779600  0.40167700  1
  O  O24  1  0.25684000  0.85928600  0.22953800  1
  O  O25  1  0.23457500  0.89020300  0.72249700  1
  O  O26  1  0.24708900  0.83316200  0.01996700  1
  O  O27  1  0.25004100  0.86337200  0.51032000  1
  O  O28  1  0.94094700  0.67888600  0.13482800  1
  O  O29  1  0.56516900  0.67179500  0.13827900  1
  O  O30  1  0.93704100  0.68120900  0.64384900  1
  O  O31  1  0.56308600  0.67938200  0.63046000  1
  O  O32  1  0.24040100  0.56973900  0.82740900  1
  O  O33  1  0.25256200  0.56404800  0.31656300  1
  O  O34  1  0.75732800  0.54436400  0.95603400  1
  O  O35  1  0.76147400  0.54496200  0.46158700  1
  O  O36  1  0.24267200  0.45563600  0.04396600  1
  O  O37  1  0.23852600  0.45503800  0.53841300  1
  O  O38  1  0.75959900  0.43026100  0.17259100  1
  O  O39  1  0.74743800  0.43595200  0.68343700  1
  O  O40  1  0.43483100  0.32820500  0.86172100  1
  O  O41  1  0.05905300  0.32111400  0.86517200  1
  O  O42  1  0.43691400  0.32061800  0.36954000  1
  O  O43  1  0.06295900  0.31879100  0.35615100  1
  O  O44  1  0.75291100  0.16683800  0.98003300  1
  O  O45  1  0.74995900  0.13662800  0.48968000  1
  O  O46  1  0.74316000  0.14071400  0.77046200  1
  O  O47  1  0.76542500  0.10979700  0.27750300  1
  O  O48  1  0.22585100  0.06265700  0.10674500  1
  O  O49  1  0.24816600  0.09220400  0.59832300  1
