# generated using pymatgen
data_Na2NiPCO7
_symmetry_space_group_name_H-M   'P 1'
_cell_length_a   8.38616400
_cell_length_b   8.41843445
_cell_length_c   10.19548231
_cell_angle_alpha   107.37373769
_cell_angle_beta   107.81931283
_cell_angle_gamma   103.96963956
_symmetry_Int_Tables_number   1
_chemical_formula_structural   Na2NiPCO7
_chemical_formula_sum   'Na8 Ni4 P4 C4 O28'
_cell_volume   608.54527942
_cell_formula_units_Z   4
loop_
 _symmetry_equiv_pos_site_id
 _symmetry_equiv_pos_as_xyz
  1  'x, y, z'
loop_
 _atom_site_type_symbol
 _atom_site_label
 _atom_site_symmetry_multiplicity
 _atom_site_fract_x
 _atom_site_fract_y
 _atom_site_fract_z
 _atom_site_occupancy
  Na  Na0  1  0.49985700  0.98250900  0.73397600  1
  Na  Na1  1  0.74915300  0.75523300  0.74568000  1
  Na  Na2  1  0.77990200  0.75230200  0.26771900  1
  Na  Na3  1  0.57784100  0.30986100  0.09023000  1
  Na  Na4  1  0.23329200  0.25042000  0.73686400  1
  Na  Na5  1  0.00751000  0.49742400  0.74627700  1
  Na  Na6  1  0.24200200  0.24191800  0.25109100  1
  Na  Na7  1  0.49197300  0.00361100  0.25726500  1
  Ni  Ni8  1  0.06240900  0.81112400  0.65018800  1
  Ni  Ni9  1  0.43648900  0.68926100  0.34784600  1
  Ni  Ni10  1  0.55866000  0.30957900  0.65107400  1
  Ni  Ni11  1  0.93783800  0.19439800  0.34817400  1
  P  P12  1  0.19562500  0.94682900  0.42144900  1
  P  P13  1  0.68846500  0.43989900  0.42015900  1
  P  P14  1  0.30320300  0.55512400  0.57692900  1
  P  P15  1  0.80540900  0.05421800  0.57866000  1
  C  C16  1  0.23714100  0.98678700  0.93065100  1
  C  C17  1  0.26672500  0.51841100  0.07035100  1
  C  C18  1  0.73016600  0.48279100  0.92799700  1
  C  C19  1  0.76705400  0.01283600  0.06824400  1
  O  O20  1  0.67692600  0.92612300  0.92828000  1
  O  O21  1  0.91302600  0.97270700  0.67473400  1
  O  O22  1  0.83808300  0.58519800  0.57006700  1
  O  O23  1  0.43941700  0.68588300  0.54420700  1
  O  O24  1  0.06444500  0.81981500  0.45960800  1
  O  O25  1  0.66153600  0.90640900  0.42484400  1
  O  O26  1  0.28538000  0.84796800  0.33187900  1
  O  O27  1  0.58480800  0.52062500  0.31953600  1
  O  O28  1  0.75753800  0.32092500  0.32066700  1
  O  O29  1  0.72139700  0.96910300  0.16795900  1
  O  O30  1  0.22092200  0.47247900  0.16801700  1
  O  O31  1  0.41005700  0.66307500  0.13153900  1
  O  O32  1  0.90863900  0.15627200  0.12615900  1
  O  O33  1  0.80826500  0.56876100  0.06759100  1
  O  O34  1  0.18392100  0.43039600  0.93009800  1
  O  O35  1  0.09385000  0.84264600  0.86781600  1
  O  O36  1  0.58743900  0.33576000  0.86695900  1
  O  O37  1  0.77881400  0.52741100  0.83006900  1
  O  O38  1  0.29091200  0.03894400  0.83776100  1
  O  O39  1  0.22346400  0.66359800  0.67307400  1
  O  O40  1  0.40837700  0.47404200  0.67532400  1
  O  O41  1  0.71805100  0.15447400  0.67122300  1
  O  O42  1  0.33973100  0.09471100  0.57586000  1
  O  O43  1  0.93741800  0.18957500  0.54649200  1
  O  O44  1  0.55215500  0.31210400  0.45517100  1
  O  O45  1  0.15776400  0.40793800  0.42621200  1
  O  O46  1  0.08779300  0.02785900  0.32588000  1
  O  O47  1  0.32221000  0.07386700  0.07247200  1
