# generated using pymatgen
data_BH2S3N3F4
_symmetry_space_group_name_H-M   'P 1'
_cell_length_a   5.88920536
_cell_length_b   7.12454131
_cell_length_c   10.33134454
_cell_angle_alpha   87.80658818
_cell_angle_beta   83.75050865
_cell_angle_gamma   84.55705056
_symmetry_Int_Tables_number   1
_chemical_formula_structural   BH2S3N3F4
_chemical_formula_sum   'B1 H2 S3 N3 F4'
_cell_volume   428.79134384
_cell_formula_units_Z   1
loop_
 _symmetry_equiv_pos_site_id
 _symmetry_equiv_pos_as_xyz
  1  'x, y, z'
loop_
 _atom_site_type_symbol
 _atom_site_label
 _atom_site_symmetry_multiplicity
 _atom_site_fract_x
 _atom_site_fract_y
 _atom_site_fract_z
 _atom_site_occupancy
  B  B0  1  0.56631600  0.77745900  0.24062500  1
  H  H1  1  0.76512300  0.42861900  0.11641600  1
  H  H2  1  0.79578000  0.25651100  0.99330700  1
  S  S3  1  0.86888400  0.13741300  0.35145900  1
  S  S4  1  0.03683900  0.17477500  0.14617600  1
  S  S5  1  0.17753700  0.40671300  0.32927500  1
  N  N6  1  0.22183400  0.30759100  0.19105900  1
  N  N7  1  0.98311200  0.30495100  0.41290300  1
  N  N8  1  0.85151800  0.30891000  0.07348600  1
  F  F9  1  0.36243400  0.79584500  0.18067000  1
  F  F10  1  0.66925000  0.58513100  0.22655500  1
  F  F11  1  0.52600800  0.81379200  0.37379000  1
  F  F12  1  0.72456500  0.89999000  0.17757800  1
