# generated using pymatgen
data_Na3Mn2P2(CO7)2
_symmetry_space_group_name_H-M   'P 1'
_cell_length_a   6.57979400
_cell_length_b   10.25605500
_cell_length_c   10.39814296
_cell_angle_alpha   61.14871885
_cell_angle_beta   90.00000000
_cell_angle_gamma   90.00000000
_symmetry_Int_Tables_number   1
_chemical_formula_structural   Na3Mn2P2(CO7)2
_chemical_formula_sum   'Na6 Mn4 P4 C4 O28'
_cell_volume   614.59726869
_cell_formula_units_Z   2
loop_
 _symmetry_equiv_pos_site_id
 _symmetry_equiv_pos_as_xyz
  1  'x, y, z'
loop_
 _atom_site_type_symbol
 _atom_site_label
 _atom_site_symmetry_multiplicity
 _atom_site_fract_x
 _atom_site_fract_y
 _atom_site_fract_z
 _atom_site_occupancy
  Na  Na0  1  0.22209300  0.75650100  0.24501300  1
  Na  Na1  1  0.77790700  0.75650100  0.74501300  1
  Na  Na2  1  0.74017400  0.23930500  0.25729200  1
  Na  Na3  1  0.25915300  0.23857300  0.25963400  1
  Na  Na4  1  0.74084700  0.23857300  0.75963400  1
  Na  Na5  1  0.25982600  0.23930500  0.75729200  1
  Mn  Mn6  1  0.50240000  0.65523700  0.06664000  1
  Mn  Mn7  1  0.49760000  0.65523700  0.56664000  1
  Mn  Mn8  1  0.99842200  0.35166700  0.43271000  1
  Mn  Mn9  1  0.00157800  0.35166700  0.93271000  1
  P  P10  1  0.99994900  0.57574200  0.06826700  1
  P  P11  1  0.00005100  0.57574200  0.56826700  1
  P  P12  1  0.49793300  0.42758400  0.42904600  1
  P  P13  1  0.50206700  0.42758400  0.92904600  1
  C  C14  1  0.49836000  0.92359600  0.90302100  1
  C  C15  1  0.50164000  0.92359600  0.40302100  1
  C  C16  1  0.00018200  0.07858500  0.59533900  1
  C  C17  1  0.99981800  0.07858500  0.09533900  1
  O  O18  1  0.00028800  0.94255900  0.67347800  1
  O  O19  1  0.99971200  0.94255900  0.17347800  1
  O  O20  1  0.48766300  0.85922900  0.04687400  1
  O  O21  1  0.51233700  0.85922900  0.54687400  1
  O  O22  1  0.50872900  0.82517100  0.85670000  1
  O  O23  1  0.49127100  0.82517100  0.35670000  1
  O  O24  1  0.18762400  0.66840500  0.06230800  1
  O  O25  1  0.81187700  0.67204800  0.05137300  1
  O  O26  1  0.18812300  0.67204800  0.55137300  1
  O  O27  1  0.81237600  0.66840500  0.56230800  1
  O  O28  1  0.00040100  0.53679600  0.43963000  1
  O  O29  1  0.49060600  0.57579800  0.28384500  1
  O  O30  1  0.99959900  0.53679600  0.93963000  1
  O  O31  1  0.50939400  0.57579800  0.78384500  1
  O  O32  1  0.99704600  0.42413000  0.21410300  1
  O  O33  1  0.50137700  0.46096200  0.06207000  1
  O  O34  1  0.00295400  0.42413000  0.71410300  1
  O  O35  1  0.49862300  0.46096200  0.56207000  1
  O  O36  1  0.68592900  0.33180200  0.44015600  1
  O  O37  1  0.31189000  0.32817700  0.44392000  1
  O  O38  1  0.68811000  0.32817700  0.94392000  1
  O  O39  1  0.31407100  0.33180200  0.94015600  1
  O  O40  1  0.99955500  0.17652400  0.64462300  1
  O  O41  1  0.00044500  0.17652400  0.14462300  1
  O  O42  1  0.99977100  0.14892600  0.44925500  1
  O  O43  1  0.00022900  0.14892600  0.94925500  1
  O  O44  1  0.49968600  0.06182600  0.82084200  1
  O  O45  1  0.50031400  0.06182600  0.32084200  1
