# generated using pymatgen
data_Na6Fe3(PO4)4
_symmetry_space_group_name_H-M   'P 1'
_cell_length_a   11.09882699
_cell_length_b   11.09882699
_cell_length_c   10.79372615
_cell_angle_alpha   89.76628289
_cell_angle_beta   89.76628289
_cell_angle_gamma   33.91291586
_symmetry_Int_Tables_number   1
_chemical_formula_structural   Na6Fe3(PO4)4
_chemical_formula_sum   'Na12 Fe6 P8 O32'
_cell_volume   741.82768205
_cell_formula_units_Z   2
loop_
 _symmetry_equiv_pos_site_id
 _symmetry_equiv_pos_as_xyz
  1  'x, y, z'
loop_
 _atom_site_type_symbol
 _atom_site_label
 _atom_site_symmetry_multiplicity
 _atom_site_fract_x
 _atom_site_fract_y
 _atom_site_fract_z
 _atom_site_occupancy
  Na  Na0  1  0.87221800  0.28716400  0.52991700  1
  Na  Na1  1  0.99996100  0.11079600  0.27305600  1
  Na  Na2  1  0.01342400  0.51714900  0.46713600  1
  Na  Na3  1  0.92606600  0.91418500  0.31732800  1
  Na  Na4  1  0.91418500  0.92606600  0.81732800  1
  Na  Na5  1  0.71801700  0.15123700  0.06617300  1
  Na  Na6  1  0.51714900  0.01342400  0.96713600  1
  Na  Na7  1  0.11079600  0.99996100  0.77305600  1
  Na  Na8  1  0.28716400  0.87221800  0.02991700  1
  Na  Na9  1  0.54827000  0.45336200  0.77645200  1
  Na  Na10  1  0.45336200  0.54827000  0.27645200  1
  Na  Na11  1  0.15123700  0.71801700  0.56617300  1
  Fe  Fe12  1  0.66387900  0.64195800  0.24055800  1
  Fe  Fe13  1  0.64195800  0.66387900  0.74055800  1
  Fe  Fe14  1  0.47655800  0.97671700  0.48129300  1
  Fe  Fe15  1  0.32249100  0.33617500  0.20386400  1
  Fe  Fe16  1  0.33617500  0.32249100  0.70386400  1
  Fe  Fe17  1  0.97671700  0.47655800  0.98129300  1
  P  P18  1  0.76216600  0.39589100  0.98776300  1
  P  P19  1  0.78863800  0.79288700  0.23025400  1
  P  P20  1  0.79288700  0.78863800  0.73025400  1
  P  P21  1  0.39589100  0.76216600  0.48776300  1
  P  P22  1  0.70209300  0.17170700  0.54189400  1
  P  P23  1  0.20918100  0.18360900  0.23061300  1
  P  P24  1  0.18360900  0.20918100  0.73061300  1
  P  P25  1  0.17170700  0.70209300  0.04189400  1
  O  O26  1  0.97891800  0.28664000  0.99141600  1
  O  O27  1  0.97912600  0.33491400  0.26285900  1
  O  O28  1  0.95602600  0.34633600  0.70555100  1
  O  O29  1  0.02495800  0.64950400  0.71185700  1
  O  O30  1  0.66126500  0.47224200  0.12163500  1
  O  O31  1  0.77298400  0.72238500  0.11426200  1
  O  O32  1  0.59666500  0.59943800  0.90241500  1
  O  O33  1  0.71001200  0.77635300  0.34026700  1
  O  O34  1  0.59943800  0.59666500  0.40241500  1
  O  O35  1  0.77635300  0.71001200  0.84026700  1
  O  O36  1  0.72238500  0.77298400  0.61426200  1
  O  O37  1  0.47224200  0.66126500  0.62163500  1
  O  O38  1  0.64950400  0.02495800  0.21185700  1
  O  O39  1  0.80112800  0.96648600  0.50969600  1
  O  O40  1  0.84280800  0.11841200  0.64528900  1
  O  O41  1  0.81060500  0.22808700  0.93453500  1
  O  O42  1  0.63823900  0.02280500  0.76583400  1
  O  O43  1  0.34633600  0.95602600  0.20555100  1
  O  O44  1  0.33491400  0.97912600  0.76285900  1
  O  O45  1  0.69751200  0.25480300  0.42211800  1
  O  O46  1  0.28664000  0.97891800  0.49141600  1
  O  O47  1  0.29068100  0.20049100  0.33682200  1
  O  O48  1  0.22569700  0.25671500  0.11423100  1
  O  O49  1  0.35594000  0.46449700  0.09997500  1
  O  O50  1  0.46449700  0.35594000  0.59997500  1
  O  O51  1  0.25671500  0.22569700  0.61423100  1
  O  O52  1  0.20049100  0.29068100  0.83682200  1
  O  O53  1  0.25480300  0.69751200  0.92211800  1
  O  O54  1  0.02280500  0.63823900  0.26583400  1
  O  O55  1  0.22808700  0.81060500  0.43453500  1
  O  O56  1  0.11841200  0.84280800  0.14528900  1
  O  O57  1  0.96648600  0.80112800  0.00969600  1
