# generated using pymatgen
data_Na3V24O58
_symmetry_space_group_name_H-M   'P 1'
_cell_length_a   7.35985300
_cell_length_b   10.39204188
_cell_length_c   14.60588406
_cell_angle_alpha   102.09810217
_cell_angle_beta   97.24339022
_cell_angle_gamma   89.97639701
_symmetry_Int_Tables_number   1
_chemical_formula_structural   Na3V24O58
_chemical_formula_sum   'Na3 V24 O58'
_cell_volume   1083.19718487
_cell_formula_units_Z   1
loop_
 _symmetry_equiv_pos_site_id
 _symmetry_equiv_pos_as_xyz
  1  'x, y, z'
loop_
 _atom_site_type_symbol
 _atom_site_label
 _atom_site_symmetry_multiplicity
 _atom_site_fract_x
 _atom_site_fract_y
 _atom_site_fract_z
 _atom_site_occupancy
  Na  Na0  1  0.00043200  0.62845000  0.99040800  1
  Na  Na1  1  0.12884800  0.54695400  0.51327100  1
  Na  Na2  1  0.50374300  0.37202300  0.01088600  1
  V  V3  1  0.20839000  0.14014100  0.82587700  1
  V  V4  1  0.70683900  0.14156900  0.82852800  1
  V  V5  1  0.46964900  0.91906400  0.87604700  1
  V  V6  1  0.96741200  0.91499900  0.87030000  1
  V  V7  1  0.19412200  0.46088000  0.77857200  1
  V  V8  1  0.69580300  0.46443300  0.78100300  1
  V  V9  1  0.42881600  0.66216700  0.70918300  1
  V  V10  1  0.92581300  0.66457900  0.70983700  1
  V  V11  1  0.15100200  0.20978800  0.60450600  1
  V  V12  1  0.65201900  0.21126100  0.61019900  1
  V  V13  1  0.41274600  0.97512000  0.64508000  1
  V  V14  1  0.90991900  0.97579900  0.64150200  1
  V  V15  1  0.08927400  0.02459400  0.35723700  1
  V  V16  1  0.58917800  0.02844500  0.35609500  1
  V  V17  1  0.34826500  0.78815300  0.39221300  1
  V  V18  1  0.84780400  0.79365000  0.39337800  1
  V  V19  1  0.07221600  0.33118300  0.28727700  1
  V  V20  1  0.57332600  0.34105900  0.29529700  1
  V  V21  1  0.30453000  0.53670000  0.21993300  1
  V  V22  1  0.80552200  0.53578100  0.21999400  1
  V  V23  1  0.03108500  0.08143800  0.11978400  1
  V  V24  1  0.52952000  0.07560000  0.12346100  1
  V  V25  1  0.29221600  0.85696400  0.17228900  1
  V  V26  1  0.79597300  0.86102800  0.17544000  1
  O  O27  1  0.24002200  0.23606600  0.92969000  1
  O  O28  1  0.72124800  0.24086400  0.93198100  1
  O  O29  1  0.00046700  0.00261500  0.00157500  1
  O  O30  1  0.50001100  0.00033800  0.00210800  1
  O  O31  1  0.22143600  0.49778500  0.89306100  1
  O  O32  1  0.72617600  0.49878400  0.89529000  1
  O  O33  1  0.44210600  0.09856800  0.79683900  1
  O  O34  1  0.95741200  0.09092900  0.79859100  1
  O  O35  1  0.46926500  0.76273000  0.87847000  1
  O  O36  1  0.96993200  0.75597400  0.87490700  1
  O  O37  1  0.22313500  0.96559200  0.86043400  1
  O  O38  1  0.70655300  0.96356000  0.86026200  1
  O  O39  1  0.18656700  0.27967700  0.75248000  1
  O  O40  1  0.68853400  0.28278400  0.74902700  1
  O  O41  1  0.43841700  0.48753700  0.75172400  1
  O  O42  1  0.93756900  0.48809400  0.75199000  1
  O  O43  1  0.17259400  0.02323500  0.66206300  1
  O  O44  1  0.66059100  0.01645100  0.67001200  1
  O  O45  1  0.18552300  0.63339600  0.73486900  1
  O  O46  1  0.68325700  0.63644500  0.74021500  1
  O  O47  1  0.42689700  0.84369100  0.72114100  1
  O  O48  1  0.93207600  0.84080500  0.72160000  1
  O  O49  1  0.41250000  0.15530600  0.61162500  1
  O  O50  1  0.89319700  0.15514200  0.61234100  1
  O  O51  1  0.15001700  0.36651300  0.59829900  1
  O  O52  1  0.64759600  0.35885300  0.59174200  1
  O  O53  1  0.40641700  0.61722800  0.59566400  1
  O  O54  1  0.89292500  0.61681800  0.59607300  1
  O  O55  1  0.11777100  0.11896300  0.46868800  1
  O  O56  1  0.61606500  0.11775100  0.46692200  1
  O  O57  1  0.38549800  0.88250300  0.53535600  1
  O  O58  1  0.88271100  0.88042500  0.53012200  1
  O  O59  1  0.60256400  0.38787900  0.40778700  1
  O  O60  1  0.09933000  0.37342300  0.40108100  1
  O  O61  1  0.33920700  0.63642600  0.40756700  1
  O  O62  1  0.86025100  0.64189200  0.40652100  1
  O  O63  1  0.08871900  0.84530200  0.38702000  1
  O  O64  1  0.60462900  0.84288900  0.38782500  1
  O  O65  1  0.06962800  0.15616500  0.27480500  1
  O  O66  1  0.56964700  0.15770600  0.28318500  1
  O  O67  1  0.31710400  0.36436800  0.26203300  1
  O  O68  1  0.81361300  0.36407900  0.26108400  1
  O  O69  1  0.34292600  0.97520400  0.33432700  1
  O  O70  1  0.82465900  0.98196000  0.33427800  1
  O  O71  1  0.05965300  0.51167400  0.24705900  1
  O  O72  1  0.56443100  0.51293100  0.25038900  1
  O  O73  1  0.31326500  0.71554400  0.24872600  1
  O  O74  1  0.81110200  0.72103500  0.24979500  1
  O  O75  1  0.78507400  0.03698800  0.14232700  1
  O  O76  1  0.28665800  0.03809800  0.14296700  1
  O  O77  1  0.03005200  0.23935900  0.11977700  1
  O  O78  1  0.53072700  0.23452600  0.12339100  1
  O  O79  1  0.55578700  0.90547200  0.19708700  1
  O  O80  1  0.04458400  0.90536500  0.20544500  1
  O  O81  1  0.28081800  0.49993400  0.10535200  1
  O  O82  1  0.77250600  0.50235300  0.10558900  1
  O  O83  1  0.77978000  0.76453900  0.07180000  1
  O  O84  1  0.25373900  0.76094400  0.06765100  1
