# generated using pymatgen
data_Na2FeO3
_symmetry_space_group_name_H-M   'P 1'
_cell_length_a   6.25721500
_cell_length_b   6.27427000
_cell_length_c   10.10586300
_cell_angle_alpha   90.00000000
_cell_angle_beta   90.00000000
_cell_angle_gamma   90.00000000
_symmetry_Int_Tables_number   1
_chemical_formula_structural   Na2FeO3
_chemical_formula_sum   'Na8 Fe4 O12'
_cell_volume   396.75068741
_cell_formula_units_Z   4
loop_
 _symmetry_equiv_pos_site_id
 _symmetry_equiv_pos_as_xyz
  1  'x, y, z'
loop_
 _atom_site_type_symbol
 _atom_site_label
 _atom_site_symmetry_multiplicity
 _atom_site_fract_x
 _atom_site_fract_y
 _atom_site_fract_z
 _atom_site_occupancy
  Na  Na0  1  0.01082500  0.50082300  0.75540000  1
  Na  Na1  1  0.01082500  0.99917700  0.75540000  1
  Na  Na2  1  0.48917500  0.49917700  0.25540000  1
  Na  Na3  1  0.48917500  0.00082300  0.25540000  1
  Na  Na4  1  0.51082500  0.50082300  0.74460000  1
  Na  Na5  1  0.51082500  0.99917700  0.74460000  1
  Na  Na6  1  0.98917500  0.00082300  0.24460000  1
  Na  Na7  1  0.98917500  0.49917700  0.24460000  1
  Fe  Fe8  1  0.16091100  0.75000000  0.00147900  1
  Fe  Fe9  1  0.33908900  0.25000000  0.50147900  1
  Fe  Fe10  1  0.66091100  0.75000000  0.49852100  1
  Fe  Fe11  1  0.83908900  0.25000000  0.99852100  1
  O  O12  1  0.00000000  0.00000000  0.00000000  1
  O  O13  1  0.00000000  0.50000000  0.00000000  1
  O  O14  1  0.22342600  0.25000000  0.34051800  1
  O  O15  1  0.24260700  0.25000000  0.66687600  1
  O  O16  1  0.25739300  0.75000000  0.16687600  1
  O  O17  1  0.27657400  0.75000000  0.84051800  1
  O  O18  1  0.50000000  0.50000000  0.50000000  1
  O  O19  1  0.50000000  0.00000000  0.50000000  1
  O  O20  1  0.72342600  0.25000000  0.15948200  1
  O  O21  1  0.74260700  0.25000000  0.83312400  1
  O  O22  1  0.75739300  0.75000000  0.33312400  1
  O  O23  1  0.77657400  0.75000000  0.65948200  1
