# generated using pymatgen
data_LuHO2
_symmetry_space_group_name_H-M   'P 1'
_cell_length_a   5.38300900
_cell_length_b   5.83349800
_cell_length_c   5.83955137
_cell_angle_alpha   71.30869085
_cell_angle_beta   90.00000000
_cell_angle_gamma   90.00000000
_symmetry_Int_Tables_number   1
_chemical_formula_structural   LuHO2
_chemical_formula_sum   'Lu4 H4 O8'
_cell_volume   173.70100704
_cell_formula_units_Z   4
loop_
 _symmetry_equiv_pos_site_id
 _symmetry_equiv_pos_as_xyz
  1  'x, y, z'
loop_
 _atom_site_type_symbol
 _atom_site_label
 _atom_site_symmetry_multiplicity
 _atom_site_fract_x
 _atom_site_fract_y
 _atom_site_fract_z
 _atom_site_occupancy
  Lu  Lu0  1  0.48468800  0.23414400  0.25367100  1
  Lu  Lu1  1  0.01531200  0.23414400  0.75367100  1
  Lu  Lu2  1  0.98468800  0.76585600  0.24632900  1
  Lu  Lu3  1  0.51531200  0.76585600  0.74632900  1
  H  H4  1  0.97177600  0.27757800  0.26779700  1
  H  H5  1  0.47177600  0.72242200  0.23220300  1
  H  H6  1  0.52822400  0.27757800  0.76779700  1
  H  H7  1  0.02822400  0.72242200  0.73220300  1
  O  O8  1  0.13778700  0.13259600  0.12696200  1
  O  O9  1  0.36221300  0.13259600  0.62696200  1
  O  O10  1  0.86483200  0.36643700  0.35858900  1
  O  O11  1  0.36483200  0.63356300  0.14141100  1
  O  O12  1  0.63516800  0.36643700  0.85858900  1
  O  O13  1  0.13516800  0.63356300  0.64141100  1
  O  O14  1  0.63778700  0.86740400  0.37303800  1
  O  O15  1  0.86221300  0.86740400  0.87303800  1
