# generated using pymatgen
data_MnV3Co2(PO4)6
_symmetry_space_group_name_H-M   'P 1'
_cell_length_a   8.50450198
_cell_length_b   8.50450198
_cell_length_c   8.50450115
_cell_angle_alpha   61.14813231
_cell_angle_beta   61.14813231
_cell_angle_gamma   61.14813315
_symmetry_Int_Tables_number   1
_chemical_formula_structural   MnV3Co2(PO4)6
_chemical_formula_sum   'Mn1 V3 Co2 P6 O24'
_cell_volume   446.17922067
_cell_formula_units_Z   1
loop_
 _symmetry_equiv_pos_site_id
 _symmetry_equiv_pos_as_xyz
  1  'x, y, z'
loop_
 _atom_site_type_symbol
 _atom_site_label
 _atom_site_symmetry_multiplicity
 _atom_site_fract_x
 _atom_site_fract_y
 _atom_site_fract_z
 _atom_site_occupancy
  Mn  Mn0  1  0.85601900  0.85601900  0.85601900  1
  V  V1  1  0.35642000  0.35642000  0.35642000  1
  V  V2  1  0.14258800  0.14258800  0.14258800  1
  V  V3  1  0.64392300  0.64392300  0.64392300  1
  Co  Co4  1  0.99762600  0.99762600  0.99762600  1
  Co  Co5  1  0.49939100  0.49939100  0.49939100  1
  P  P6  1  0.45205700  0.75183200  0.04606100  1
  P  P7  1  0.75183200  0.04606100  0.45205700  1
  P  P8  1  0.04606100  0.45205700  0.75183200  1
  P  P9  1  0.95800200  0.54135900  0.25408200  1
  P  P10  1  0.25408200  0.95800200  0.54135900  1
  P  P11  1  0.54135900  0.25408200  0.95800200  1
  O  O12  1  0.69156600  0.87918100  0.49484100  1
  O  O13  1  0.87918100  0.49484100  0.69156600  1
  O  O14  1  0.49484100  0.69156600  0.87918100  1
  O  O15  1  0.25345400  0.91295100  0.05969800  1
  O  O16  1  0.60262200  0.81236200  0.02062200  1
  O  O17  1  0.42737700  0.58772500  0.24147800  1
  O  O18  1  0.91295100  0.05969800  0.25345400  1
  O  O19  1  0.58772500  0.24147800  0.42737700  1
  O  O20  1  0.99763200  0.38080700  0.18778300  1
  O  O21  1  0.24147800  0.42737700  0.58772500  1
  O  O22  1  0.95182600  0.73486300  0.09937200  1
  O  O23  1  0.18778300  0.99763200  0.38080700  1
  O  O24  1  0.81236200  0.02062200  0.60262200  1
  O  O25  1  0.05969800  0.25345400  0.91295100  1
  O  O26  1  0.76148900  0.55301200  0.41704000  1
  O  O27  1  0.02062200  0.60262200  0.81236200  1
  O  O28  1  0.41704000  0.76148900  0.55301200  1
  O  O29  1  0.09937200  0.95182600  0.73486300  1
  O  O30  1  0.55301200  0.41704000  0.76148900  1
  O  O31  1  0.38080700  0.18778300  0.99763200  1
  O  O32  1  0.73486300  0.09937200  0.95182600  1
  O  O33  1  0.48812300  0.33148300  0.11330800  1
  O  O34  1  0.11330800  0.48812300  0.33148300  1
  O  O35  1  0.33148300  0.11330800  0.48812300  1
