# generated using pymatgen
data_Lu2TiO5
_symmetry_space_group_name_H-M   'P 1'
_cell_length_a   5.23219100
_cell_length_b   6.27222379
_cell_length_c   7.46548245
_cell_angle_alpha   68.90544793
_cell_angle_beta   90.00000000
_cell_angle_gamma   65.34886467
_symmetry_Int_Tables_number   1
_chemical_formula_structural   Lu2TiO5
_chemical_formula_sum   'Lu4 Ti2 O10'
_cell_volume   204.46721433
_cell_formula_units_Z   2
loop_
 _symmetry_equiv_pos_site_id
 _symmetry_equiv_pos_as_xyz
  1  'x, y, z'
loop_
 _atom_site_type_symbol
 _atom_site_label
 _atom_site_symmetry_multiplicity
 _atom_site_fract_x
 _atom_site_fract_y
 _atom_site_fract_z
 _atom_site_occupancy
  Lu  Lu0  1  0.63177700  0.72585500  0.74553100  1
  Lu  Lu1  1  0.64236800  0.72585500  0.24553100  1
  Lu  Lu2  1  0.35763200  0.27414500  0.75446900  1
  Lu  Lu3  1  0.36822300  0.27414500  0.25446900  1
  Ti  Ti4  1  0.00000000  0.00000000  0.50000000  1
  Ti  Ti5  1  0.00000000  0.00000000  0.00000000  1
  O  O6  1  0.75084000  0.85496400  0.95404300  1
  O  O7  1  0.39419600  0.85496400  0.45404300  1
  O  O8  1  0.02895200  0.65616900  0.64254200  1
  O  O9  1  0.68512200  0.34383100  0.85745800  1
  O  O10  1  0.31487800  0.65616900  0.14254200  1
  O  O11  1  0.97104800  0.34383100  0.35745800  1
  O  O12  1  0.60580400  0.14503600  0.54595700  1
  O  O13  1  0.17453000  0.00000000  0.75000000  1
  O  O14  1  0.24916000  0.14503600  0.04595700  1
  O  O15  1  0.82547000  0.00000000  0.25000000  1
