# generated using pymatgen
data_Mn3NbO8
_symmetry_space_group_name_H-M   'P 1'
_cell_length_a   5.89764473
_cell_length_b   5.89764473
_cell_length_c   9.39282084
_cell_angle_alpha   89.14069370
_cell_angle_beta   89.14069370
_cell_angle_gamma   118.98642316
_symmetry_Int_Tables_number   1
_chemical_formula_structural   Mn3NbO8
_chemical_formula_sum   'Mn6 Nb2 O16'
_cell_volume   285.65375413
_cell_formula_units_Z   2
loop_
 _symmetry_equiv_pos_site_id
 _symmetry_equiv_pos_as_xyz
  1  'x, y, z'
loop_
 _atom_site_type_symbol
 _atom_site_label
 _atom_site_symmetry_multiplicity
 _atom_site_fract_x
 _atom_site_fract_y
 _atom_site_fract_z
 _atom_site_occupancy
  Mn  Mn0  1  0.33105300  0.16422600  0.21201800  1
  Mn  Mn1  1  0.83018500  0.66230000  0.21320300  1
  Mn  Mn2  1  0.82529600  0.16467000  0.21498600  1
  Mn  Mn3  1  0.16467000  0.82529600  0.71498600  1
  Mn  Mn4  1  0.16422600  0.33105300  0.71201800  1
  Mn  Mn5  1  0.66230000  0.83018500  0.71320300  1
  Nb  Nb6  1  0.66425200  0.33859900  0.49769800  1
  Nb  Nb7  1  0.33859900  0.66425200  0.99769800  1
  O  O8  1  0.33225000  0.15861400  0.59529500  1
  O  O9  1  0.54478200  0.50373600  0.34248200  1
  O  O10  1  0.66677600  0.33747000  0.11212600  1
  O  O11  1  0.99506800  0.99237900  0.30786000  1
  O  O12  1  0.99237900  0.99506800  0.80786000  1
  O  O13  1  0.83908200  0.66563200  0.60455600  1
  O  O14  1  0.53127700  0.04447100  0.33784200  1
  O  O15  1  0.96044700  0.47535100  0.32734100  1
  O  O16  1  0.15481100  0.81707500  0.09245000  1
  O  O17  1  0.81707500  0.15481100  0.59245000  1
  O  O18  1  0.04447100  0.53127700  0.83784200  1
  O  O19  1  0.47535100  0.96044700  0.82734100  1
  O  O20  1  0.33747000  0.66677600  0.61212600  1
  O  O21  1  0.15861400  0.33225000  0.09529500  1
  O  O22  1  0.50373600  0.54478200  0.84248200  1
  O  O23  1  0.66563200  0.83908200  0.10455600  1
