# generated using pymatgen
data_LiV2(SO4)3
_symmetry_space_group_name_H-M   'P 1'
_cell_length_a   8.56340686
_cell_length_b   8.89327100
_cell_length_c   12.18312238
_cell_angle_alpha   90.00000000
_cell_angle_beta   89.40005073
_cell_angle_gamma   90.00000000
_symmetry_Int_Tables_number   1
_chemical_formula_structural   LiV2(SO4)3
_chemical_formula_sum   'Li4 V8 S12 O48'
_cell_volume   927.77550605
_cell_formula_units_Z   4
loop_
 _symmetry_equiv_pos_site_id
 _symmetry_equiv_pos_as_xyz
  1  'x, y, z'
loop_
 _atom_site_type_symbol
 _atom_site_label
 _atom_site_symmetry_multiplicity
 _atom_site_fract_x
 _atom_site_fract_y
 _atom_site_fract_z
 _atom_site_occupancy
  Li  Li0  1  0.19018500  0.71938500  0.81998500  1
  Li  Li1  1  0.30981500  0.21938500  0.68001500  1
  Li  Li2  1  0.69018500  0.78061500  0.31998500  1
  Li  Li3  1  0.80981500  0.28061500  0.18001500  1
  V  V4  1  0.24559600  0.96579200  0.38327500  1
  V  V5  1  0.24627800  0.53737900  0.61029000  1
  V  V6  1  0.25440400  0.46579200  0.11672500  1
  V  V7  1  0.25372200  0.03737900  0.88971000  1
  V  V8  1  0.74627800  0.96262100  0.11029000  1
  V  V9  1  0.74559600  0.53420800  0.88327500  1
  V  V10  1  0.75372200  0.46262100  0.38971000  1
  V  V11  1  0.75440400  0.03420800  0.61672500  1
  S  S12  1  0.03828400  0.24545100  0.50782500  1
  S  S13  1  0.10322300  0.12176700  0.15275800  1
  S  S14  1  0.10898900  0.39306200  0.85595300  1
  S  S15  1  0.39101100  0.89306200  0.64404700  1
  S  S16  1  0.39677700  0.62176700  0.34724200  1
  S  S17  1  0.46171600  0.74545100  0.99217500  1
  S  S18  1  0.53828400  0.25454900  0.00782500  1
  S  S19  1  0.60322300  0.37823300  0.65275800  1
  S  S20  1  0.60898900  0.10693800  0.35595300  1
  S  S21  1  0.89101100  0.60693800  0.14404700  1
  S  S22  1  0.89677700  0.87823300  0.84724200  1
  S  S23  1  0.96171600  0.75454900  0.49217500  1
  O  O24  1  0.03723300  0.63839000  0.55767300  1
  O  O25  1  0.06171600  0.61509400  0.12204700  1
  O  O26  1  0.06429600  0.90893100  0.82096200  1
  O  O27  1  0.06974000  0.81398900  0.40433600  1
  O  O28  1  0.08989400  0.12378600  0.43322100  1
  O  O29  1  0.12206200  0.28672000  0.17217800  1
  O  O30  1  0.13898300  0.08208100  0.03902700  1
  O  O31  1  0.14315000  0.51205400  0.77315600  1
  O  O32  1  0.17644700  0.30933300  0.56553500  1
  O  O33  1  0.16664400  0.24583100  0.81458100  1
  O  O34  1  0.19460200  0.43404400  0.95690200  1
  O  O35  1  0.20540200  0.03176800  0.22650100  1
  O  O36  1  0.29459800  0.53176800  0.27349900  1
  O  O37  1  0.30539800  0.93404400  0.54309800  1
  O  O38  1  0.33335600  0.74583100  0.68541900  1
  O  O39  1  0.32355300  0.80933300  0.93446500  1
  O  O40  1  0.36101700  0.58208100  0.46097300  1
  O  O41  1  0.35685000  0.01205400  0.72684400  1
  O  O42  1  0.37793800  0.78672000  0.32782200  1
  O  O43  1  0.41010600  0.62378600  0.06677900  1
  O  O44  1  0.43026000  0.31398900  0.09566400  1
  O  O45  1  0.43828400  0.11509400  0.37795300  1
  O  O46  1  0.43570400  0.40893100  0.67903800  1
  O  O47  1  0.46276700  0.13839000  0.94232700  1
  O  O48  1  0.53723300  0.86161000  0.05767300  1
  O  O49  1  0.56429600  0.59106900  0.32096200  1
  O  O50  1  0.56171600  0.88490600  0.62204700  1
  O  O51  1  0.56974000  0.68601100  0.90433600  1
  O  O52  1  0.58989400  0.37621400  0.93322100  1
  O  O53  1  0.62206200  0.21328000  0.67217800  1
  O  O54  1  0.64315000  0.98794600  0.27315600  1
  O  O55  1  0.63898300  0.41791900  0.53902700  1
  O  O56  1  0.67644700  0.19066700  0.06553500  1
  O  O57  1  0.66664400  0.25416900  0.31458100  1
  O  O58  1  0.69460200  0.06595600  0.45690200  1
  O  O59  1  0.70540200  0.46823200  0.72650100  1
  O  O60  1  0.79459800  0.96823200  0.77349900  1
  O  O61  1  0.80539800  0.56595600  0.04309800  1
  O  O62  1  0.83335600  0.75416900  0.18541900  1
  O  O63  1  0.82355300  0.69066700  0.43446500  1
  O  O64  1  0.85685000  0.48794600  0.22684400  1
  O  O65  1  0.86101700  0.91791900  0.96097300  1
  O  O66  1  0.87793800  0.71328000  0.82782200  1
  O  O67  1  0.91010600  0.87621400  0.56677900  1
  O  O68  1  0.93026000  0.18601100  0.59566400  1
  O  O69  1  0.93570400  0.09106900  0.17903800  1
  O  O70  1  0.93828400  0.38490600  0.87795300  1
  O  O71  1  0.96276700  0.36161000  0.44232700  1
