# generated using pymatgen
data_LiMn2F7
_symmetry_space_group_name_H-M   'P 1'
_cell_length_a   8.10370144
_cell_length_b   8.09998600
_cell_length_c   8.30155857
_cell_angle_alpha   90.00000000
_cell_angle_beta   80.22921723
_cell_angle_gamma   90.00000000
_symmetry_Int_Tables_number   1
_chemical_formula_structural   LiMn2F7
_chemical_formula_sum   'Li4 Mn8 F28'
_cell_volume   537.00900809
_cell_formula_units_Z   4
loop_
 _symmetry_equiv_pos_site_id
 _symmetry_equiv_pos_as_xyz
  1  'x, y, z'
loop_
 _atom_site_type_symbol
 _atom_site_label
 _atom_site_symmetry_multiplicity
 _atom_site_fract_x
 _atom_site_fract_y
 _atom_site_fract_z
 _atom_site_occupancy
  Li  Li0  1  0.12778500  0.09164600  0.65197000  1
  Li  Li1  1  0.37221500  0.59164600  0.84803000  1
  Li  Li2  1  0.62778500  0.40835400  0.15197000  1
  Li  Li3  1  0.87221500  0.90835400  0.34803000  1
  Mn  Mn4  1  0.03511800  0.71820800  0.70684500  1
  Mn  Mn5  1  0.30150400  0.38188500  0.41889600  1
  Mn  Mn6  1  0.19849600  0.88188500  0.08110400  1
  Mn  Mn7  1  0.46488200  0.21820800  0.79315500  1
  Mn  Mn8  1  0.53511800  0.78179200  0.20684500  1
  Mn  Mn9  1  0.80150400  0.11811500  0.91889600  1
  Mn  Mn10  1  0.69849600  0.61811500  0.58110400  1
  Mn  Mn11  1  0.96488200  0.28179200  0.29315500  1
  F  F12  1  0.05228900  0.06247000  0.14424000  1
  F  F13  1  0.14484300  0.42348000  0.22933000  1
  F  F14  1  0.05064900  0.76513900  0.22946600  1
  F  F15  1  0.11212100  0.21318800  0.44575400  1
  F  F16  1  0.15188000  0.69240800  0.88736900  1
  F  F17  1  0.19267800  0.86570200  0.61065500  1
  F  F18  1  0.17231900  0.51485900  0.57745500  1
  F  F19  1  0.38787900  0.71318800  0.05424600  1
  F  F20  1  0.44935100  0.26513900  0.27053400  1
  F  F21  1  0.35515700  0.92348000  0.27067000  1
  F  F22  1  0.32768100  0.01485900  0.92254500  1
  F  F23  1  0.30732200  0.36570200  0.88934500  1
  F  F24  1  0.34812000  0.19240800  0.61263100  1
  F  F25  1  0.44771100  0.56247000  0.35576000  1
  F  F26  1  0.55228900  0.43753000  0.64424000  1
  F  F27  1  0.65188000  0.80759200  0.38736900  1
  F  F28  1  0.69267800  0.63429800  0.11065500  1
  F  F29  1  0.67231900  0.98514100  0.07745500  1
  F  F30  1  0.64484300  0.07652000  0.72933000  1
  F  F31  1  0.55064900  0.73486100  0.72946600  1
  F  F32  1  0.61212100  0.28681200  0.94575400  1
  F  F33  1  0.82768100  0.48514100  0.42254500  1
  F  F34  1  0.80732200  0.13429800  0.38934500  1
  F  F35  1  0.84812000  0.30759200  0.11263100  1
  F  F36  1  0.88787900  0.78681200  0.55424600  1
  F  F37  1  0.94935100  0.23486100  0.77053400  1
  F  F38  1  0.85515700  0.57652000  0.77067000  1
  F  F39  1  0.94771100  0.93753000  0.85576000  1
