# generated using pymatgen
data_Li9Mn5O12
_symmetry_space_group_name_H-M   'P 1'
_cell_length_a   6.52817237
_cell_length_b   6.52814334
_cell_length_c   12.57544140
_cell_angle_alpha   101.81128197
_cell_angle_beta   78.19119390
_cell_angle_gamma   78.25868026
_symmetry_Int_Tables_number   1
_chemical_formula_structural   Li9Mn5O12
_chemical_formula_sum   'Li18 Mn10 O24'
_cell_volume   496.35062530
_cell_formula_units_Z   2
loop_
 _symmetry_equiv_pos_site_id
 _symmetry_equiv_pos_as_xyz
  1  'x, y, z'
loop_
 _atom_site_type_symbol
 _atom_site_label
 _atom_site_symmetry_multiplicity
 _atom_site_fract_x
 _atom_site_fract_y
 _atom_site_fract_z
 _atom_site_occupancy
  Li  Li0  1  0.54174500  0.20841800  0.91663800  1
  Li  Li1  1  0.74100400  0.00116000  0.57274900  1
  Li  Li2  1  0.91270800  0.41352900  0.75439700  1
  Li  Li3  1  0.33456300  0.40758500  0.76059800  1
  Li  Li4  1  0.65720700  0.32380800  0.66666400  1
  Li  Li5  1  0.54165000  0.20829800  0.41668100  1
  Li  Li6  1  0.42616400  0.09269800  0.16666300  1
  Li  Li7  1  0.74894000  0.00948900  0.07280400  1
  Li  Li8  1  0.17059800  0.00326100  0.07888600  1
  Li  Li9  1  0.08242700  0.34010700  0.89781500  1
  Li  Li10  1  0.74671500  0.57936600  0.57888700  1
  Li  Li11  1  0.34269900  0.41547500  0.26055700  1
  Li  Li12  1  0.04173800  0.70840600  0.91670700  1
  Li  Li13  1  0.00082600  0.07660000  0.93538200  1
  Li  Li14  1  0.40986200  0.66760500  0.39791700  1
  Li  Li15  1  0.04159100  0.70812000  0.41663700  1
  Li  Li16  1  0.67335200  0.74924200  0.43545700  1
  Li  Li17  1  0.33647100  0.83727800  0.25446200  1
  Mn  Mn18  1  0.22637100  0.06344600  0.58457900  1
  Mn  Mn19  1  0.04176500  0.20839400  0.41665100  1
  Mn  Mn20  1  0.85694800  0.35327600  0.24877500  1
  Mn  Mn21  1  0.21058300  0.53763900  0.58223100  1
  Mn  Mn22  1  0.54168400  0.70836700  0.91667800  1
  Mn  Mn23  1  0.68651200  0.52358800  0.08458200  1
  Mn  Mn24  1  0.21235800  0.53948700  0.08224700  1
  Mn  Mn25  1  0.87094900  0.87717100  0.75110500  1
  Mn  Mn26  1  0.39674800  0.89301800  0.74876200  1
  Mn  Mn27  1  0.87288700  0.87909000  0.25109900  1
  O  O28  1  0.63392200  0.09602400  0.74209300  1
  O  O29  1  0.14430300  0.12139000  0.75176000  1
  O  O30  1  0.65390600  0.11611600  0.24213500  1
  O  O31  1  0.12147600  0.13839200  0.25009700  1
  O  O32  1  0.96184100  0.27823500  0.58322600  1
  O  O33  1  0.42941500  0.30059400  0.59124300  1
  O  O34  1  0.78093700  0.47861900  0.92241800  1
  O  O35  1  0.29539900  0.47429600  0.92152100  1
  O  O36  1  0.81213600  0.44779100  0.41091000  1
  O  O37  1  0.27569400  0.45455400  0.42153000  1
  O  O38  1  0.93879400  0.29508300  0.08158900  1
  O  O39  1  0.61158900  0.62847200  0.75009400  1
  O  O40  1  0.10131600  0.62633000  0.74663300  1
  O  O41  1  0.44935500  0.32049500  0.09121900  1
  O  O42  1  0.78783300  0.94227200  0.91181600  1
  O  O43  1  0.30225000  0.93788000  0.91089400  1
  O  O44  1  0.62845900  0.60561400  0.25176700  1
  O  O45  1  0.12364700  0.64865300  0.24662200  1
  O  O46  1  0.95967800  0.76791600  0.58671300  1
  O  O47  1  0.45474400  0.81099900  0.58157200  1
  O  O48  1  0.98209400  0.79041300  0.08673000  1
  O  O49  1  0.47168600  0.78807400  0.08323600  1
  O  O50  1  0.80769600  0.96214800  0.41182800  1
  O  O51  1  0.27136200  0.96905100  0.42242300  1
