# generated using pymatgen
data_Li7V3P8O29
_symmetry_space_group_name_H-M   'P 1'
_cell_length_a   9.84361800
_cell_length_b   9.87130808
_cell_length_c   13.95911838
_cell_angle_alpha   89.18432617
_cell_angle_beta   89.22478445
_cell_angle_gamma   60.23476264
_symmetry_Int_Tables_number   1
_chemical_formula_structural   Li7V3P8O29
_chemical_formula_sum   'Li14 V6 P16 O58'
_cell_volume   1177.29298496
_cell_formula_units_Z   2
loop_
 _symmetry_equiv_pos_site_id
 _symmetry_equiv_pos_as_xyz
  1  'x, y, z'
loop_
 _atom_site_type_symbol
 _atom_site_label
 _atom_site_symmetry_multiplicity
 _atom_site_fract_x
 _atom_site_fract_y
 _atom_site_fract_z
 _atom_site_occupancy
  Li  Li0  1  0.31898400  0.90980700  0.43502000  1
  Li  Li1  1  0.67371600  0.67892900  0.61311300  1
  Li  Li2  1  0.67551700  0.67904300  0.11086500  1
  Li  Li3  1  0.31498500  0.76921800  0.93594700  1
  Li  Li4  1  0.90733400  0.32366200  0.93704500  1
  Li  Li5  1  0.24580600  0.65049700  0.55946800  1
  Li  Li6  1  0.76563700  0.31862400  0.43656900  1
  Li  Li7  1  0.10544200  0.66548900  0.06461000  1
  Li  Li8  1  0.65669300  0.24338200  0.05980000  1
  Li  Li9  1  0.67043100  0.10284100  0.56663500  1
  Li  Li10  1  0.09196000  0.22703300  0.55431200  1
  Li  Li11  1  0.22902900  0.09479600  0.05831000  1
  Li  Li12  1  0.91338200  0.99109800  0.97465500  1
  Li  Li13  1  0.99063700  0.91017100  0.47696300  1
  V  V14  1  0.43695700  0.56585400  0.75183800  1
  V  V15  1  0.56486300  0.43497100  0.25106500  1
  V  V16  1  0.99695900  0.56746300  0.25295600  1
  V  V17  1  0.00215800  0.43803300  0.75191600  1
  V  V18  1  0.56817200  0.99796700  0.75300700  1
  V  V19  1  0.43788300  0.00029500  0.25095700  1
  P  P20  1  0.78203100  0.91399000  0.16327100  1
  P  P21  1  0.91615800  0.77908700  0.66289000  1
  P  P22  1  0.32135000  0.90791600  0.65535400  1
  P  P23  1  0.66839700  0.66093600  0.87165500  1
  P  P24  1  0.66647000  0.66020100  0.37253800  1
  P  P25  1  0.32597300  0.77000200  0.15586100  1
  P  P26  1  0.22753900  0.68520300  0.34022300  1
  P  P27  1  0.90806200  0.32299900  0.15535000  1
  P  P28  1  0.08379100  0.68689100  0.84907900  1
  P  P29  1  0.77274400  0.32675800  0.65723000  1
  P  P30  1  0.68704600  0.22811100  0.84101100  1
  P  P31  1  0.33254300  0.33912200  0.62961300  1
  P  P32  1  0.33192500  0.33801400  0.12937300  1
  P  P33  1  0.68614400  0.08489300  0.34941800  1
  P  P34  1  0.08370600  0.22890000  0.34034300  1
  P  P35  1  0.22575400  0.08575500  0.84041000  1
  O  O36  1  0.77270400  0.01487800  0.44183100  1
  O  O37  1  0.75200400  0.92092100  0.65521200  1
  O  O38  1  0.01187900  0.77102700  0.94143800  1
  O  O39  1  0.92639700  0.74826200  0.15786900  1
  O  O40  1  0.63464700  0.89665200  0.16715700  1
  O  O41  1  0.67561600  0.80248500  0.83299200  1
  O  O42  1  0.48631300  0.88545000  0.66864500  1
  O  O43  1  0.22067800  0.99699700  0.92901200  1
  O  O44  1  0.33855500  0.91839300  0.15130600  1
  O  O45  1  0.81167100  0.66464000  0.32587700  1
  O  O46  1  0.90110100  0.62912200  0.67192900  1
  O  O47  1  0.51432300  0.80510400  0.33693500  1
  O  O48  1  0.67277100  0.64040400  0.97885500  1
  O  O49  1  0.67510000  0.64784900  0.47975400  1
  O  O50  1  0.51172100  0.67008300  0.83345200  1
  O  O51  1  0.88892200  0.48735300  0.16979700  1
  O  O52  1  0.81220300  0.50801900  0.82728800  1
  O  O53  1  0.33430700  0.74495600  0.65570200  1
  O  O54  1  0.21626400  0.79077300  0.24776000  1
  O  O55  1  0.21542300  0.77884700  0.42918000  1
  O  O56  1  0.25064600  0.74832700  0.06845400  1
  O  O57  1  0.49147800  0.62729300  0.17436200  1
  O  O58  1  0.67538300  0.50692200  0.33149900  1
  O  O59  1  0.25058400  0.66292200  0.83906600  1
  O  O60  1  0.62888900  0.49180400  0.67391300  1
  O  O61  1  0.92150500  0.34163600  0.65229400  1
  O  O62  1  0.98547100  0.80030200  0.76201400  1
  O  O63  1  0.02316200  0.77237200  0.58293700  1
  O  O64  1  0.99095800  0.23420400  0.42898800  1
  O  O65  1  0.08651100  0.66111200  0.33589600  1
  O  O66  1  0.38500300  0.53285400  0.33497600  1
  O  O67  1  0.74444600  0.33814800  0.15414500  1
  O  O68  1  0.33911200  0.48340400  0.67424700  1
  O  O69  1  0.53312400  0.38397400  0.83254700  1
  O  O70  1  0.77794000  0.22125200  0.93085500  1
  O  O71  1  0.75427200  0.24937400  0.56997400  1
  O  O72  1  0.79518700  0.21879900  0.74951800  1
  O  O73  1  0.66738400  0.24997600  0.33744100  1
  O  O74  1  0.17963200  0.48694000  0.16788400  1
  O  O75  1  0.08108200  0.53317500  0.83830500  1
  O  O76  1  0.47858400  0.34042300  0.17676000  1
  O  O77  1  0.34781900  0.34645700  0.02326700  1
  O  O78  1  0.30347000  0.36894000  0.52467800  1
  O  O79  1  0.48194900  0.18785600  0.65857300  1
  O  O80  1  0.09287700  0.37959400  0.32748900  1
  O  O81  1  0.18606200  0.33795100  0.67967900  1
  O  O82  1  0.66828000  0.08564200  0.83703900  1
  O  O83  1  0.80137300  0.98190300  0.26335800  1
  O  O84  1  0.78338300  0.01924500  0.08430400  1
  O  O85  1  0.53128700  0.08803600  0.33885200  1
  O  O86  1  0.32860300  0.19125700  0.16651700  1
  O  O87  1  0.37336300  0.09676800  0.82954000  1
  O  O88  1  0.07684100  0.24897200  0.83833200  1
  O  O89  1  0.00150900  0.24426100  0.06627700  1
  O  O90  1  0.99516800  0.21475000  0.24679300  1
  O  O91  1  0.24477400  0.08229100  0.34020600  1
  O  O92  1  0.23958400  0.00026900  0.56601600  1
  O  O93  1  0.21172100  0.99725000  0.74645800  1
