# generated using pymatgen
data_Li8Mn3Cr(PO4)6
_symmetry_space_group_name_H-M   'P 1'
_cell_length_a   9.22579827
_cell_length_b   8.50691152
_cell_length_c   8.38362429
_cell_angle_alpha   60.85958287
_cell_angle_beta   63.69801558
_cell_angle_gamma   91.41887083
_symmetry_Int_Tables_number   1
_chemical_formula_structural   Li8Mn3Cr(PO4)6
_chemical_formula_sum   'Li8 Mn3 Cr1 P6 O24'
_cell_volume   490.28431390
_cell_formula_units_Z   1
loop_
 _symmetry_equiv_pos_site_id
 _symmetry_equiv_pos_as_xyz
  1  'x, y, z'
loop_
 _atom_site_type_symbol
 _atom_site_label
 _atom_site_symmetry_multiplicity
 _atom_site_fract_x
 _atom_site_fract_y
 _atom_site_fract_z
 _atom_site_occupancy
  Li  Li0  1  0.86137000  0.26389500  0.81352700  1
  Li  Li1  1  0.89889400  0.93596700  0.37062400  1
  Li  Li2  1  0.85298000  0.66731100  0.06667300  1
  Li  Li3  1  0.58965400  0.78255300  0.67151100  1
  Li  Li4  1  0.41386400  0.19858500  0.32029100  1
  Li  Li5  1  0.15558200  0.34578200  0.92788000  1
  Li  Li6  1  0.10024700  0.06192800  0.62497200  1
  Li  Li7  1  0.13569500  0.72786800  0.19756000  1
  Mn  Mn8  1  0.96442700  0.64794100  0.69042200  1
  Mn  Mn9  1  0.56124100  0.84839600  0.29009000  1
  Mn  Mn10  1  0.03209200  0.35098100  0.31224300  1
  Cr  Cr11  1  0.44078500  0.14871500  0.70634000  1
  P  P12  1  0.74816400  0.95953800  0.78222000  1
  P  P13  1  0.74733600  0.53797900  0.50821200  1
  P  P14  1  0.75778700  0.25242600  0.20737400  1
  P  P15  1  0.24070800  0.75524200  0.80577200  1
  P  P16  1  0.24724400  0.44472800  0.50044200  1
  P  P17  1  0.25597100  0.05316900  0.19961900  1
  O  O18  1  0.89821100  0.15197100  0.63816300  1
  O  O19  1  0.80105400  0.48352000  0.67379300  1
  O  O20  1  0.79633000  0.84382500  0.67907400  1
  O  O21  1  0.89812800  0.56059700  0.30240800  1
  O  O22  1  0.90504000  0.21281200  0.25924500  1
  O  O23  1  0.72026300  0.73645800  0.43771600  1
  O  O24  1  0.58104500  0.99437600  0.79951400  1
  O  O25  1  0.58483800  0.39332600  0.59723500  1
  O  O26  1  0.80641400  0.46365500  0.03927700  1
  O  O27  1  0.74952500  0.12931000  0.12298600  1
  O  O28  1  0.58413000  0.18588500  0.41164100  1
  O  O29  1  0.73738000  0.85671100  0.99893700  1
  O  O30  1  0.28277000  0.15911500  0.97002100  1
  O  O31  1  0.40862100  0.79599000  0.61387900  1
  O  O32  1  0.26696000  0.88077100  0.88424000  1
  O  O33  1  0.18057000  0.54107500  0.98600900  1
  O  O34  1  0.40481400  0.60601300  0.37919400  1
  O  O35  1  0.41942000  0.03129700  0.19964500  1
  O  O36  1  0.28399100  0.24809600  0.57224000  1
  O  O37  1  0.09803800  0.80137700  0.75390400  1
  O  O38  1  0.10104000  0.42464400  0.70468900  1
  O  O39  1  0.19461100  0.17077600  0.30033400  1
  O  O40  1  0.18199900  0.48317300  0.34368300  1
  O  O41  1  0.11076900  0.86222200  0.33640300  1
