# generated using pymatgen
data_Li7V3(SiO6)2
_symmetry_space_group_name_H-M   'P 1'
_cell_length_a   4.96028325
_cell_length_b   10.67690892
_cell_length_c   8.59940922
_cell_angle_alpha   66.24926834
_cell_angle_beta   89.99566570
_cell_angle_gamma   94.82368602
_symmetry_Int_Tables_number   1
_chemical_formula_structural   Li7V3(SiO6)2
_chemical_formula_sum   'Li14 V6 Si4 O24'
_cell_volume   415.09281037
_cell_formula_units_Z   2
loop_
 _symmetry_equiv_pos_site_id
 _symmetry_equiv_pos_as_xyz
  1  'x, y, z'
loop_
 _atom_site_type_symbol
 _atom_site_label
 _atom_site_symmetry_multiplicity
 _atom_site_fract_x
 _atom_site_fract_y
 _atom_site_fract_z
 _atom_site_occupancy
  Li  Li0  1  0.12502200  0.75000000  0.95836000  1
  Li  Li1  1  0.62502200  0.74998800  0.45837400  1
  Li  Li2  1  0.25615000  0.50741000  0.57970700  1
  Li  Li3  1  0.75615800  0.50738900  0.07968900  1
  Li  Li4  1  0.49398000  0.99264900  0.83705000  1
  Li  Li5  1  0.99394800  0.99261900  0.33709700  1
  Li  Li6  1  0.50327200  0.99324000  0.17356300  1
  Li  Li7  1  0.00327800  0.99330800  0.67352400  1
  Li  Li8  1  0.24674000  0.50678200  0.24321300  1
  Li  Li9  1  0.74670300  0.50675300  0.74324200  1
  Li  Li10  1  0.24677500  0.50674900  0.91675500  1
  Li  Li11  1  0.74681700  0.50677900  0.41678200  1
  Li  Li12  1  0.00324000  0.99327700  0.99994600  1
  Li  Li13  1  0.50326300  0.99330500  0.49997900  1
  V  V14  1  0.87504400  0.25011600  0.70838000  1
  V  V15  1  0.87498800  0.24998400  0.37460200  1
  V  V16  1  0.87496600  0.25007200  0.04209900  1
  V  V17  1  0.37512800  0.25005500  0.20838000  1
  V  V18  1  0.37479500  0.24994200  0.87453800  1
  V  V19  1  0.37503600  0.25015100  0.54216500  1
  Si  Si20  1  0.12492500  0.74997000  0.29164700  1
  Si  Si21  1  0.62494000  0.74996500  0.79164700  1
  Si  Si22  1  0.62504500  0.74995900  0.12506900  1
  Si  Si23  1  0.12504100  0.74995000  0.62506700  1
  O  O24  1  0.26899700  0.85267000  0.40676100  1
  O  O25  1  0.76898900  0.85266600  0.90676300  1
  O  O26  1  0.48124100  0.64715400  0.00943200  1
  O  O27  1  0.98124500  0.64716200  0.50942900  1
  O  O28  1  0.19322100  0.12652000  0.77018600  1
  O  O29  1  0.69317300  0.12648200  0.27027800  1
  O  O30  1  0.05648900  0.37331700  0.14689900  1
  O  O31  1  0.55636300  0.37337100  0.64693800  1
  O  O32  1  0.91949800  0.64754800  0.19651600  1
  O  O33  1  0.41953200  0.64754100  0.69652700  1
  O  O34  1  0.33032900  0.85230200  0.09422200  1
  O  O35  1  0.83044300  0.85225200  0.59422000  1
  O  O36  1  0.41948600  0.64752700  0.32227300  1
  O  O37  1  0.91941500  0.64749900  0.82228900  1
  O  O38  1  0.33073900  0.85240400  0.72004000  1
  O  O39  1  0.83075600  0.85241300  0.22004300  1
  O  O40  1  0.05690400  0.37008300  0.48177400  1
  O  O41  1  0.55675500  0.36986000  0.98158400  1
  O  O42  1  0.19349000  0.13010500  0.43497900  1
  O  O43  1  0.69349800  0.12995300  0.93493700  1
  O  O44  1  0.19274600  0.13022600  0.10184000  1
  O  O45  1  0.69280400  0.13024500  0.60184100  1
  O  O46  1  0.55689500  0.37009400  0.31474300  1
  O  O47  1  0.05671700  0.37019500  0.81460900  1
