# generated using pymatgen
data_Li5Mn2(PO4)3
_symmetry_space_group_name_H-M   'P 1'
_cell_length_a   8.78525781
_cell_length_b   9.10066323
_cell_length_c   8.62060106
_cell_angle_alpha   116.23933123
_cell_angle_beta   60.67160924
_cell_angle_gamma   113.47262240
_symmetry_Int_Tables_number   1
_chemical_formula_structural   Li5Mn2(PO4)3
_chemical_formula_sum   'Li10 Mn4 P6 O24'
_cell_volume   524.21168712
_cell_formula_units_Z   2
loop_
 _symmetry_equiv_pos_site_id
 _symmetry_equiv_pos_as_xyz
  1  'x, y, z'
loop_
 _atom_site_type_symbol
 _atom_site_label
 _atom_site_symmetry_multiplicity
 _atom_site_fract_x
 _atom_site_fract_y
 _atom_site_fract_z
 _atom_site_occupancy
  Li  Li0  1  0.95698600  0.91405200  0.28885300  1
  Li  Li1  1  0.44284200  0.63858100  0.02407700  1
  Li  Li2  1  0.38035800  0.36504000  0.30435100  1
  Li  Li3  1  0.28996700  0.86763800  0.65625400  1
  Li  Li4  1  0.86468100  0.60456600  0.24385800  1
  Li  Li5  1  0.14483400  0.39126200  0.76156200  1
  Li  Li6  1  0.62811800  0.63170400  0.70161700  1
  Li  Li7  1  0.56728400  0.36013600  0.98178500  1
  Li  Li8  1  0.72018700  0.13046900  0.34993900  1
  Li  Li9  1  0.05065500  0.08206900  0.72210600  1
  Mn  Mn10  1  0.10738300  0.38631300  0.13405300  1
  Mn  Mn11  1  0.35446300  0.02366500  0.32736300  1
  Mn  Mn12  1  0.65461900  0.97448300  0.67922700  1
  Mn  Mn13  1  0.90256500  0.61232900  0.87262200  1
  P  P14  1  0.03539300  0.25467400  0.47670600  1
  P  P15  1  0.57627400  0.74190500  0.27103100  1
  P  P16  1  0.26291700  0.75506500  0.95535900  1
  P  P17  1  0.74585900  0.24262200  0.05145400  1
  P  P18  1  0.43325700  0.25565100  0.73508900  1
  P  P19  1  0.97353900  0.74329300  0.52993000  1
  O  O20  1  0.20418800  0.88454200  0.15257400  1
  O  O21  1  0.20403200  0.57558100  0.97618800  1
  O  O22  1  0.01289100  0.58675800  0.35997400  1
  O  O23  1  0.14588900  0.88196900  0.54553100  1
  O  O24  1  0.14804900  0.29390400  0.28820500  1
  O  O25  1  0.53262700  0.85110400  0.20749200  1
  O  O26  1  0.16825900  0.75321800  0.84257800  1
  O  O27  1  0.47489500  0.55556400  0.20199900  1
  O  O28  1  0.16071700  0.19344500  0.50644200  1
  O  O29  1  0.51993000  0.80584600  0.48541200  1
  O  O30  1  0.78419400  0.75114600  0.17205700  1
  O  O31  1  0.47044200  0.79012600  0.84926400  1
  O  O32  1  0.53842000  0.20745900  0.15785800  1
  O  O33  1  0.22533900  0.24635900  0.83443700  1
  O  O34  1  0.48941500  0.19115900  0.52077100  1
  O  O35  1  0.84844900  0.80527400  0.50066000  1
  O  O36  1  0.53444600  0.44215500  0.80360500  1
  O  O37  1  0.84121700  0.24573200  0.16423500  1
  O  O38  1  0.47719000  0.14700400  0.79897600  1
  O  O39  1  0.86067500  0.70371400  0.71814200  1
  O  O40  1  0.86320400  0.11559200  0.46120000  1
  O  O41  1  0.99541100  0.41138300  0.64627300  1
  O  O42  1  0.80427300  0.42167500  0.02965600  1
  O  O43  1  0.80436600  0.11247000  0.85473500  1
