# generated using pymatgen
data_Li6V3P8O29
_symmetry_space_group_name_H-M   'P 1'
_cell_length_a   9.82977170
_cell_length_b   9.82887321
_cell_length_c   13.96479057
_cell_angle_alpha   90.13104620
_cell_angle_beta   90.20971808
_cell_angle_gamma   60.00044161
_symmetry_Int_Tables_number   1
_chemical_formula_structural   Li6V3P8O29
_chemical_formula_sum   'Li12 V6 P16 O58'
_cell_volume   1168.45283238
_cell_formula_units_Z   2
loop_
 _symmetry_equiv_pos_site_id
 _symmetry_equiv_pos_as_xyz
  1  'x, y, z'
loop_
 _atom_site_type_symbol
 _atom_site_label
 _atom_site_symmetry_multiplicity
 _atom_site_fract_x
 _atom_site_fract_y
 _atom_site_fract_z
 _atom_site_occupancy
  Li  Li0  1  0.77576800  0.91726200  0.55813100  1
  Li  Li1  1  0.91345700  0.31258900  0.55619200  1
  Li  Li2  1  0.66974100  0.66269900  0.38170100  1
  Li  Li3  1  0.67077200  0.66593600  0.88718600  1
  Li  Li4  1  0.77188300  0.31467100  0.06645400  1
  Li  Li5  1  0.31425500  0.90901200  0.06372300  1
  Li  Li6  1  0.31617400  0.77192400  0.55955300  1
  Li  Li7  1  0.68432600  0.08980700  0.94310100  1
  Li  Li8  1  0.22382600  0.67778000  0.94413600  1
  Li  Li9  1  0.09408800  0.67671000  0.43524600  1
  Li  Li10  1  0.22788900  0.09570300  0.43742600  1
  Li  Li11  1  0.09301500  0.22539600  0.94304800  1
  V  V12  1  0.56595700  0.42929700  0.25474900  1
  V  V13  1  0.43153700  0.56684600  0.74775100  1
  V  V14  1  0.56950600  0.00190900  0.74753000  1
  V  V15  1  0.43535200  0.00144800  0.24878100  1
  V  V16  1  0.00083200  0.57124000  0.24437500  1
  V  V17  1  0.00236200  0.43336200  0.75097900  1
  P  P18  1  0.91181900  0.77150500  0.84038800  1
  P  P19  1  0.77044600  0.90956100  0.34182500  1
  P  P20  1  0.91183400  0.32196500  0.34115100  1
  P  P21  1  0.66342500  0.66612500  0.12748000  1
  P  P22  1  0.66871700  0.66625500  0.62606400  1
  P  P23  1  0.76813100  0.32142200  0.84527700  1
  P  P24  1  0.68514200  0.23236700  0.65899700  1
  P  P25  1  0.32354700  0.90801500  0.84160800  1
  P  P26  1  0.68181900  0.08706300  0.15771300  1
  P  P27  1  0.32012900  0.77091000  0.34239200  1
  P  P28  1  0.23388600  0.67841400  0.15860800  1
  P  P29  1  0.33096000  0.33429500  0.37272300  1
  P  P30  1  0.33330800  0.33484300  0.87299700  1
  P  P31  1  0.08583500  0.68005800  0.65581700  1
  P  P32  1  0.23227200  0.08619900  0.65770700  1
  P  P33  1  0.08835800  0.23162400  0.15769000  1
  O  O34  1  0.00076400  0.75582100  0.56456700  1
  O  O35  1  0.92058300  0.74442500  0.33964500  1
  O  O36  1  0.75454600  0.00449900  0.06662700  1
  O  O37  1  0.74333700  0.92025900  0.83884800  1
  O  O38  1  0.88734800  0.62725700  0.82684700  1
  O  O39  1  0.80693600  0.67067700  0.16916200  1
  O  O40  1  0.89558700  0.48652800  0.32514700  1
  O  O41  1  0.99644200  0.24311500  0.06832500  1
  O  O42  1  0.91939200  0.33249600  0.84423500  1
  O  O43  1  0.67467800  0.81455900  0.66356500  1
  O  O44  1  0.62611500  0.88494300  0.32475400  1
  O  O45  1  0.81706100  0.51499000  0.66835800  1
  O  O46  1  0.65688300  0.66574700  0.01968900  1
  O  O47  1  0.67255700  0.66157700  0.51849800  1
  O  O48  1  0.66412100  0.51579200  0.16737100  1
  O  O49  1  0.48948400  0.88431200  0.82527600  1
  O  O50  1  0.50927700  0.81766400  0.16595500  1
  O  O51  1  0.74713800  0.34354100  0.34188800  1
  O  O52  1  0.78436400  0.21038300  0.75622400  1
  O  O53  1  0.76988000  0.24166600  0.57452200  1
  O  O54  1  0.75208400  0.24698500  0.93495300  1
  O  O55  1  0.62703400  0.48824500  0.82533700  1
  O  O56  1  0.51468800  0.67257200  0.66361900  1
  O  O57  1  0.66849000  0.25050900  0.16306700  1
  O  O58  1  0.48775800  0.62836600  0.32730300  1
  O  O59  1  0.33150600  0.92136400  0.34393200  1
  O  O60  1  0.78899200  0.99637700  0.25008800  1
  O  O61  1  0.75790800  0.99451000  0.43241600  1
  O  O62  1  0.24668100  0.99622800  0.56777600  1
  O  O63  1  0.66456000  0.08577900  0.65912000  1
  O  O64  1  0.52288700  0.38367500  0.67693400  1
  O  O65  1  0.33693400  0.74350500  0.84016400  1
  O  O66  1  0.47834700  0.33663700  0.32855100  1
  O  O67  1  0.38250400  0.51955300  0.17296700  1
  O  O68  1  0.23897700  0.76076800  0.06930700  1
  O  O69  1  0.24336500  0.75387500  0.43126200  1
  O  O70  1  0.21382300  0.78842100  0.25042800  1
  O  O71  1  0.24896500  0.66925400  0.65997800  1
  O  O72  1  0.48342300  0.18827500  0.83213800  1
  O  O73  1  0.51896400  0.10230500  0.17559800  1
  O  O74  1  0.32667400  0.48731400  0.83289400  1
  O  O75  1  0.32416200  0.33463100  0.97936600  1
  O  O76  1  0.33171700  0.33010500  0.47931000  1
  O  O77  1  0.18279900  0.48545400  0.33343700  1
  O  O78  1  0.38321000  0.09499900  0.67803100  1
  O  O79  1  0.33367700  0.18118300  0.33125900  1
  O  O80  1  0.08616800  0.66075900  0.16259100  1
  O  O81  1  0.98933300  0.79327100  0.74379700  1
  O  O82  1  0.00589000  0.76452300  0.92475000  1
  O  O83  1  0.10121300  0.51892800  0.67397600  1
  O  O84  1  0.18165200  0.33261400  0.82925000  1
  O  O85  1  0.10433800  0.37614100  0.17668300  1
  O  O86  1  0.25039600  0.08101900  0.15714400  1
  O  O87  1  0.24399200  0.99851400  0.93046000  1
  O  O88  1  0.21514600  0.99634700  0.74971500  1
  O  O89  1  0.08496400  0.24926400  0.65827700  1
  O  O90  1  0.00592100  0.24408900  0.42992100  1
  O  O91  1  0.99995800  0.21257300  0.24987800  1
