# generated using pymatgen
data_Ho5(MoO6)2
_symmetry_space_group_name_H-M   'P 1'
_cell_length_a   6.85065082
_cell_length_b   6.85065082
_cell_length_c   7.31160993
_cell_angle_alpha   74.42725108
_cell_angle_beta   74.42725108
_cell_angle_gamma   51.85393986
_symmetry_Int_Tables_number   1
_chemical_formula_structural   Ho5(MoO6)2
_chemical_formula_sum   'Ho5 Mo2 O12'
_cell_volume   257.55831803
_cell_formula_units_Z   1
loop_
 _symmetry_equiv_pos_site_id
 _symmetry_equiv_pos_as_xyz
  1  'x, y, z'
loop_
 _atom_site_type_symbol
 _atom_site_label
 _atom_site_symmetry_multiplicity
 _atom_site_fract_x
 _atom_site_fract_y
 _atom_site_fract_z
 _atom_site_occupancy
  Ho  Ho0  1  0.30016200  0.30016200  0.36388000  1
  Ho  Ho1  1  0.69983800  0.69983800  0.63612000  1
  Ho  Ho2  1  0.30897500  0.30897500  0.82287000  1
  Ho  Ho3  1  0.69102500  0.69102500  0.17713000  1
  Ho  Ho4  1  0.00000000  0.00000000  0.50000000  1
  Mo  Mo5  1  0.75274200  0.24725800  0.00000000  1
  Mo  Mo6  1  0.24725800  0.75274200  0.00000000  1
  O  O7  1  0.89925200  0.43399600  0.91308700  1
  O  O8  1  0.43399600  0.89925200  0.91308700  1
  O  O9  1  0.10074800  0.56600400  0.08691300  1
  O  O10  1  0.56600400  0.10074800  0.08691300  1
  O  O11  1  0.09645600  0.59715900  0.57241100  1
  O  O12  1  0.59715900  0.09645600  0.57241100  1
  O  O13  1  0.90354400  0.40284100  0.42758900  1
  O  O14  1  0.40284100  0.90354400  0.42758900  1
  O  O15  1  0.99653900  0.99653900  0.81318100  1
  O  O16  1  0.00346100  0.00346100  0.18681900  1
  O  O17  1  0.49858800  0.49858800  0.80265800  1
  O  O18  1  0.50141200  0.50141200  0.19734200  1
