# generated using pymatgen
data_RbLaMnWO6
_symmetry_space_group_name_H-M   'P 1'
_cell_length_a   5.76768884
_cell_length_b   5.78833100
_cell_length_c   8.35964225
_cell_angle_alpha   90.00031604
_cell_angle_beta   90.51922948
_cell_angle_gamma   90.00017701
_symmetry_Int_Tables_number   1
_chemical_formula_structural   RbLaMnWO6
_chemical_formula_sum   'Rb2 La2 Mn2 W2 O12'
_cell_volume   279.07763871
_cell_formula_units_Z   2
loop_
 _symmetry_equiv_pos_site_id
 _symmetry_equiv_pos_as_xyz
  1  'x, y, z'
loop_
 _atom_site_type_symbol
 _atom_site_label
 _atom_site_symmetry_multiplicity
 _atom_site_fract_x
 _atom_site_fract_y
 _atom_site_fract_z
 _atom_site_occupancy
  Rb  Rb0  1  0.24319800  0.76200600  0.00074600  1
  Rb  Rb1  1  0.75681300  0.26200900  0.99926600  1
  La  La2  1  0.24543200  0.80330100  0.49984800  1
  La  La3  1  0.75456600  0.30330600  0.50014700  1
  Mn  Mn4  1  0.25450800  0.27441800  0.75289400  1
  Mn  Mn5  1  0.74546500  0.77441700  0.24711800  1
  W  W6  1  0.75720500  0.76907200  0.74453700  1
  W  W7  1  0.24279300  0.26906900  0.25546300  1
  O  O8  1  0.53672900  0.02204800  0.69183100  1
  O  O9  1  0.46328900  0.52202900  0.30816500  1
  O  O10  1  0.50474800  0.05317300  0.30850400  1
  O  O11  1  0.49524800  0.55317200  0.69149000  1
  O  O12  1  0.98621500  0.47992800  0.25632100  1
  O  O13  1  0.01380100  0.97990400  0.74367800  1
  O  O14  1  0.95962900  0.50125700  0.74665900  1
  O  O15  1  0.04035600  0.00126800  0.25333800  1
  O  O16  1  0.81988000  0.74798800  0.50357800  1
  O  O17  1  0.18012000  0.24797700  0.49642100  1
  O  O18  1  0.71915300  0.77022400  0.96757200  1
  O  O19  1  0.28085200  0.27021800  0.03242600  1
