# generated using pymatgen
data_Ba5In4Te4S7
_symmetry_space_group_name_H-M   'P 1'
_cell_length_a   20.39703509
_cell_length_b   20.39703509
_cell_length_c   20.39703509
_cell_angle_alpha   167.48533087
_cell_angle_beta   158.89842676
_cell_angle_gamma   24.60714215
_symmetry_Int_Tables_number   1
_chemical_formula_structural   Ba5In4Te4S7
_chemical_formula_sum   'Ba5 In4 Te4 S7'
_cell_volume   661.87821756
_cell_formula_units_Z   1
loop_
 _symmetry_equiv_pos_site_id
 _symmetry_equiv_pos_as_xyz
  1  'x, y, z'
loop_
 _atom_site_type_symbol
 _atom_site_label
 _atom_site_symmetry_multiplicity
 _atom_site_fract_x
 _atom_site_fract_y
 _atom_site_fract_z
 _atom_site_occupancy
  Ba  Ba0  1  0.34357700  0.50000000  0.84357700  1
  Ba  Ba1  1  0.17943900  0.68476800  0.49467100  1
  Ba  Ba2  1  0.80990300  0.31523200  0.49467100  1
  Ba  Ba3  1  0.60849400  0.61379400  0.99470100  1
  Ba  Ba4  1  0.38090700  0.38620600  0.99470100  1
  In  In5  1  0.90642200  0.05401500  0.85240700  1
  In  In6  1  0.79839100  0.94598500  0.85240700  1
  In  In7  1  0.67324200  0.19823700  0.47500500  1
  In  In8  1  0.27676800  0.80176300  0.47500500  1
  Te  Te9  1  0.08479200  0.58918600  0.49560600  1
  Te  Te10  1  0.90642000  0.41081400  0.49560600  1
  Te  Te11  1  0.65424200  0.74064700  0.91359500  1
  Te  Te12  1  0.17294900  0.25935300  0.91359500  1
  S  S13  1  0.02643700  0.00000000  0.02643700  1
  S  S14  1  0.57223000  0.05265700  0.51957300  1
  S  S15  1  0.46691600  0.94734300  0.51957300  1
  S  S16  1  0.39549700  0.15339100  0.24210500  1
  S  S17  1  0.08871400  0.84660900  0.24210500  1
  S  S18  1  0.88655600  0.15849100  0.72806500  1
  S  S19  1  0.56957300  0.84150900  0.72806500  1
