# generated using pymatgen
data_Li4V3CoCu2(PO4)6
_symmetry_space_group_name_H-M   'P 1'
_cell_length_a   8.58219700
_cell_length_b   8.60370503
_cell_length_c   8.62168274
_cell_angle_alpha   61.88426856
_cell_angle_beta   61.83815438
_cell_angle_gamma   62.11069278
_symmetry_Int_Tables_number   1
_chemical_formula_structural   Li4V3CoCu2(PO4)6
_chemical_formula_sum   'Li4 V3 Co1 Cu2 P6 O24'
_cell_volume   469.73362639
_cell_formula_units_Z   1
loop_
 _symmetry_equiv_pos_site_id
 _symmetry_equiv_pos_as_xyz
  1  'x, y, z'
loop_
 _atom_site_type_symbol
 _atom_site_label
 _atom_site_symmetry_multiplicity
 _atom_site_fract_x
 _atom_site_fract_y
 _atom_site_fract_z
 _atom_site_occupancy
  Li  Li0  1  0.35229900  0.75207100  0.14547200  1
  Li  Li1  1  0.65685900  0.22160900  0.84459900  1
  Li  Li2  1  0.84653400  0.65600600  0.22176200  1
  Li  Li3  1  0.21864000  0.84920600  0.65670300  1
  V  V4  1  0.35677000  0.35730500  0.35836600  1
  V  V5  1  0.14045200  0.14262700  0.14369200  1
  V  V6  1  0.64989400  0.64554300  0.64437000  1
  Co  Co7  1  0.85228400  0.85380300  0.84632700  1
  Cu  Cu8  1  0.98786600  0.01604600  0.99758100  1
  Cu  Cu9  1  0.49929100  0.47931500  0.51373500  1
  P  P10  1  0.45042800  0.05186400  0.75059400  1
  P  P11  1  0.75321900  0.45095100  0.05099500  1
  P  P12  1  0.05269300  0.75052200  0.45216500  1
  P  P13  1  0.95948900  0.25224400  0.53964400  1
  P  P14  1  0.25409400  0.54656700  0.95938300  1
  P  P15  1  0.54113800  0.95458900  0.24981700  1
  O  O16  1  0.69860300  0.48820900  0.88675300  1
  O  O17  1  0.89179000  0.68919600  0.49242800  1
  O  O18  1  0.49144300  0.88882100  0.69332300  1
  O  O19  1  0.26313600  0.05314600  0.91804700  1
  O  O20  1  0.60512600  0.03220500  0.80756900  1
  O  O21  1  0.42370300  0.24177100  0.59291100  1
  O  O22  1  0.90920100  0.25879700  0.07027900  1
  O  O23  1  0.58450100  0.43920900  0.23649000  1
  O  O24  1  0.99591500  0.18696600  0.38559900  1
  O  O25  1  0.24790800  0.59688100  0.42303500  1
  O  O26  1  0.94647200  0.09292400  0.73164000  1
  O  O27  1  0.20545900  0.37828600  0.00468600  1
  O  O28  1  0.81097200  0.60600400  0.02867100  1
  O  O29  1  0.07203900  0.90270100  0.25578400  1
  O  O30  1  0.76152100  0.40562400  0.56573100  1
  O  O31  1  0.03045800  0.81097100  0.60389500  1
  O  O32  1  0.41278600  0.56753200  0.76260300  1
  O  O33  1  0.09288900  0.73491400  0.93567700  1
  O  O34  1  0.57454200  0.76121200  0.40705300  1
  O  O35  1  0.38687800  0.96752100  0.19554100  1
  O  O36  1  0.73298200  0.94434800  0.08856800  1
  O  O37  1  0.48755300  0.11774600  0.30883700  1
  O  O38  1  0.11007400  0.32651900  0.49639700  1
  O  O39  1  0.31510100  0.52823000  0.11027600  1
