# generated using pymatgen
data_Li2V2(PO4)3
_symmetry_space_group_name_H-M   'P 1'
_cell_length_a   8.70492974
_cell_length_b   8.66157414
_cell_length_c   8.67615767
_cell_angle_alpha   60.26528175
_cell_angle_beta   91.07157493
_cell_angle_gamma   60.71830865
_symmetry_Int_Tables_number   1
_chemical_formula_structural   Li2V2(PO4)3
_chemical_formula_sum   'Li4 V4 P6 O24'
_cell_volume   465.03652108
_cell_formula_units_Z   2
loop_
 _symmetry_equiv_pos_site_id
 _symmetry_equiv_pos_as_xyz
  1  'x, y, z'
loop_
 _atom_site_type_symbol
 _atom_site_label
 _atom_site_symmetry_multiplicity
 _atom_site_fract_x
 _atom_site_fract_y
 _atom_site_fract_z
 _atom_site_occupancy
  Li  Li0  1  0.68040500  0.77397300  0.55396500  1
  Li  Li1  1  0.17842500  0.87147000  0.94024200  1
  Li  Li2  1  0.82142500  0.12890600  0.05963400  1
  Li  Li3  1  0.31949500  0.22612200  0.44601700  1
  V  V4  1  0.63561000  0.72145100  0.91630000  1
  V  V5  1  0.86054700  0.28370400  0.57702200  1
  V  V6  1  0.13935400  0.71633400  0.42291800  1
  V  V7  1  0.36443100  0.27839100  0.08380300  1
  P  P8  1  0.96809900  0.78267000  0.74978800  1
  P  P9  1  0.54337500  0.49208200  0.74945000  1
  P  P10  1  0.25165600  0.21332100  0.74613800  1
  P  P11  1  0.74819000  0.78693100  0.25362800  1
  P  P12  1  0.45656200  0.50767100  0.25073600  1
  P  P13  1  0.03236800  0.21703100  0.25038200  1
  O  O14  1  0.95095000  0.97219000  0.74647900  1
  O  O15  1  0.00965300  0.79059800  0.57276700  1
  O  O16  1  0.78255900  0.80259000  0.73655700  1
  O  O17  1  0.73355900  0.32550600  0.75001200  1
  O  O18  1  0.53641600  0.35086300  0.94340400  1
  O  O19  1  0.56139000  0.66927100  0.73068000  1
  O  O20  1  0.30060900  0.20733600  0.91768200  1
  O  O21  1  0.41380200  0.03558900  0.73403800  1
  O  O22  1  0.81121600  0.57380100  0.44775800  1
  O  O23  1  0.90740100  0.82489200  0.24518500  1
  O  O24  1  0.13299700  0.57763500  0.93013300  1
  O  O25  1  0.62288800  0.39558400  0.41998200  1
  O  O26  1  0.37710400  0.60431500  0.57998800  1
  O  O27  1  0.86731000  0.42222300  0.06985000  1
  O  O28  1  0.09230400  0.17562500  0.75464600  1
  O  O29  1  0.18848800  0.42646100  0.55190900  1
  O  O30  1  0.58617600  0.96450800  0.26594700  1
  O  O31  1  0.69930500  0.79307100  0.08200600  1
  O  O32  1  0.43848200  0.33065700  0.26959800  1
  O  O33  1  0.46325700  0.64931700  0.05673700  1
  O  O34  1  0.26627300  0.67420600  0.25027600  1
  O  O35  1  0.21786700  0.19677200  0.26359800  1
  O  O36  1  0.99070500  0.20933000  0.42722200  1
  O  O37  1  0.04934300  0.02760700  0.25352400  1
