# generated using pymatgen
data_Li3Cr4P5O24
_symmetry_space_group_name_H-M   'P 1'
_cell_length_a   8.27305708
_cell_length_b   9.17597258
_cell_length_c   13.76880814
_cell_angle_alpha   93.30232323
_cell_angle_beta   107.49381190
_cell_angle_gamma   63.21718256
_symmetry_Int_Tables_number   1
_chemical_formula_structural   Li3Cr4P5O24
_chemical_formula_sum   'Li6 Cr8 P10 O48'
_cell_volume   886.21986462
_cell_formula_units_Z   2
loop_
 _symmetry_equiv_pos_site_id
 _symmetry_equiv_pos_as_xyz
  1  'x, y, z'
loop_
 _atom_site_type_symbol
 _atom_site_label
 _atom_site_symmetry_multiplicity
 _atom_site_fract_x
 _atom_site_fract_y
 _atom_site_fract_z
 _atom_site_occupancy
  Li  Li0  1  0.94699800  0.99330400  0.26469100  1
  Li  Li1  1  0.32536900  0.49331300  0.77083800  1
  Li  Li2  1  0.67706700  0.51062300  0.24073200  1
  Li  Li3  1  0.98382100  0.54196200  0.04401100  1
  Li  Li4  1  0.05907100  0.00532800  0.74094900  1
  Li  Li5  1  0.51748100  0.04569800  0.54509100  1
  Cr  Cr6  1  0.52882600  0.98685600  0.18016600  1
  Cr  Cr7  1  0.18445100  0.71482900  0.97711200  1
  Cr  Cr8  1  0.92534800  0.77998100  0.52154300  1
  Cr  Cr9  1  0.66390600  0.48600200  0.68053800  1
  Cr  Cr10  1  0.34315600  0.51149800  0.32097300  1
  Cr  Cr11  1  0.07701400  0.21437500  0.47710700  1
  Cr  Cr12  1  0.81534500  0.28070500  0.02082300  1
  Cr  Cr13  1  0.46583200  0.01236900  0.82010900  1
  P  P14  1  0.28967900  0.87348200  0.60614300  1
  P  P15  1  0.80196200  0.94389500  0.04002300  1
  P  P16  1  0.84550500  0.75150100  0.74879000  1
  P  P17  1  0.55919200  0.62315300  0.89523400  1
  P  P18  1  0.71118100  0.55270200  0.46130500  1
  P  P19  1  0.29482800  0.44326200  0.54070500  1
  P  P20  1  0.44365100  0.37443300  0.10696600  1
  P  P21  1  0.15072400  0.25164100  0.24856500  1
  P  P22  1  0.19604800  0.05300500  0.96032300  1
  P  P23  1  0.71359400  0.12196600  0.39560000  1
  O  O24  1  0.10641300  0.93492100  0.91675900  1
  O  O25  1  0.29314500  0.98920400  0.52802300  1
  O  O26  1  0.30457000  0.94614700  0.71301300  1
  O  O27  1  0.67475100  0.90043900  0.76856600  1
  O  O28  1  0.37565200  0.96221700  0.05163600  1
  O  O29  1  0.09129100  0.88023500  0.58355100  1
  O  O30  1  0.54659600  0.79235800  0.89352100  1
  O  O31  1  0.75394000  0.89687000  0.12985100  1
  O  O32  1  0.87458200  0.81969500  0.65875500  1
  O  O33  1  0.59727900  0.80691400  0.23156200  1
  O  O34  1  0.95851700  0.76018400  0.41127800  1
  O  O35  1  0.03176800  0.68918100  0.83896900  1
  O  O36  1  0.44826500  0.70414300  0.60854400  1
  O  O37  1  0.94994400  0.77835700  0.01506800  1
  O  O38  1  0.72738300  0.71218800  0.48934500  1
  O  O39  1  0.38658600  0.61533800  0.91430900  1
  O  O40  1  0.30524200  0.74056800  0.08662300  1
  O  O41  1  0.17783500  0.68926100  0.26736100  1
  O  O42  1  0.80893500  0.60093100  0.72662900  1
  O  O43  1  0.54605000  0.54818600  0.78974600  1
  O  O44  1  0.75106100  0.51143100  0.97832400  1
  O  O45  1  0.52456400  0.60207300  0.37207300  1
  O  O46  1  0.12810300  0.56029400  0.58227900  1
  O  O47  1  0.28662900  0.53375900  0.44754900  1
  O  O48  1  0.71547600  0.46072400  0.55272200  1
  O  O49  1  0.87426800  0.43492400  0.41705100  1
  O  O50  1  0.48151100  0.39363500  0.62964300  1
  O  O51  1  0.24599500  0.48951800  0.02866300  1
  O  O52  1  0.46465400  0.44755900  0.21360400  1
  O  O53  1  0.19544600  0.39867300  0.26909300  1
  O  O54  1  0.82732100  0.30705300  0.73309900  1
  O  O55  1  0.68949900  0.26253000  0.91067800  1
  O  O56  1  0.61170200  0.38042900  0.08284800  1
  O  O57  1  0.28547900  0.27851200  0.51528100  1
  O  O58  1  0.04839900  0.21280400  0.98821100  1
  O  O59  1  0.55519800  0.29137500  0.39360200  1
  O  O60  1  0.96320200  0.32173900  0.15837600  1
  O  O61  1  0.03988900  0.23936800  0.58664000  1
  O  O62  1  0.39859700  0.19147200  0.76787900  1
  O  O63  1  0.11642900  0.18962100  0.33854500  1
  O  O64  1  0.24327000  0.10115300  0.87034800  1
  O  O65  1  0.45573500  0.20549700  0.11009800  1
  O  O66  1  0.91269100  0.11437200  0.41440000  1
  O  O67  1  0.62645400  0.03459000  0.94699400  1
  O  O68  1  0.31373300  0.10011600  0.22526900  1
  O  O69  1  0.69508600  0.04670300  0.29030200  1
  O  O70  1  0.71667200  0.01078400  0.47913900  1
  O  O71  1  0.89470000  0.06031700  0.08098200  1
