# generated using pymatgen
data_Li3V5P7O29
_symmetry_space_group_name_H-M   'P 1'
_cell_length_a   6.36032032
_cell_length_b   10.41595513
_cell_length_c   19.27307592
_cell_angle_alpha   89.28212977
_cell_angle_beta   84.76948590
_cell_angle_gamma   72.67397610
_symmetry_Int_Tables_number   1
_chemical_formula_structural   Li3V5P7O29
_chemical_formula_sum   'Li6 V10 P14 O58'
_cell_volume   1213.66454215
_cell_formula_units_Z   2
loop_
 _symmetry_equiv_pos_site_id
 _symmetry_equiv_pos_as_xyz
  1  'x, y, z'
loop_
 _atom_site_type_symbol
 _atom_site_label
 _atom_site_symmetry_multiplicity
 _atom_site_fract_x
 _atom_site_fract_y
 _atom_site_fract_z
 _atom_site_occupancy
  Li  Li0  1  0.31369600  0.09465300  0.49638200  1
  Li  Li1  1  0.34741300  0.38715000  0.75129100  1
  Li  Li2  1  0.18149000  0.66927100  0.84513700  1
  Li  Li3  1  0.89685000  0.88422900  0.07023100  1
  Li  Li4  1  0.86118800  0.32745500  0.13673400  1
  Li  Li5  1  0.65649200  0.60539400  0.24800100  1
  V  V6  1  0.07849200  0.04298500  0.65268300  1
  V  V7  1  0.32933300  0.31224500  0.01709000  1
  V  V8  1  0.40426700  0.14101600  0.16405500  1
  V  V9  1  0.08720100  0.75349400  0.19984000  1
  V  V10  1  0.20920700  0.36433400  0.39330500  1
  V  V11  1  0.79807000  0.64111500  0.60333600  1
  V  V12  1  0.91445200  0.24511300  0.80585000  1
  V  V13  1  0.60508400  0.85960400  0.83134900  1
  V  V14  1  0.65742000  0.69262400  0.98345300  1
  V  V15  1  0.92479900  0.96038200  0.35013800  1
  P  P16  1  0.14351800  0.43396100  0.22723300  1
  P  P17  1  0.04429800  0.68348600  0.45263800  1
  P  P18  1  0.17298800  0.64351700  0.02693700  1
  P  P19  1  0.38793500  0.04609700  0.33716700  1
  P  P20  1  0.25880100  0.72201800  0.57560000  1
  P  P21  1  0.42473800  0.20222100  0.84880700  1
  P  P22  1  0.08455300  0.91866900  0.80658000  1
  P  P23  1  0.91715800  0.08166500  0.19263600  1
  P  P24  1  0.57560700  0.79568200  0.15332500  1
  P  P25  1  0.75153200  0.28182300  0.42129800  1
  P  P26  1  0.61935500  0.95490500  0.65991800  1
  P  P27  1  0.82207900  0.36274600  0.97517000  1
  P  P28  1  0.96344200  0.31794300  0.54455800  1
  P  P29  1  0.86538900  0.56365300  0.76958700  1
  O  O30  1  0.01230300  0.30097200  0.02212400  1
  O  O31  1  0.08593600  0.15582000  0.16556200  1
  O  O32  1  0.00533000  0.06110600  0.83699200  1
  O  O33  1  0.06667400  0.17307400  0.56867100  1
  O  O34  1  0.17950400  0.49560700  0.04081800  1
  O  O35  1  0.14315200  0.34502300  0.49022300  1
  O  O36  1  0.38686200  0.10219900  0.26260900  1
  O  O37  1  0.30124900  0.33458300  0.17270300  1
  O  O38  1  0.41049400  0.16654700  0.06654900  1
  O  O39  1  0.15406500  0.71840400  0.09673800  1
  O  O40  1  0.01270000  0.81816700  0.28366600  1
  O  O41  1  0.31694800  0.15838000  0.39414300  1
  O  O42  1  0.12844300  0.56844900  0.39943800  1
  O  O43  1  0.20519900  0.56559800  0.22052800  1
  O  O44  1  0.22776200  0.37721500  0.29924000  1
  O  O45  1  0.21881600  0.25788500  0.80725200  1
  O  O46  1  0.10362800  0.65176600  0.61362800  1
  O  O47  1  0.10845200  0.55147000  0.77605700  1
  O  O48  1  0.38826500  0.04579300  0.64618100  1
  O  O49  1  0.25014900  0.69381800  0.49249800  1
  O  O50  1  0.49308300  0.05091800  0.85845900  1
  O  O51  1  0.37768600  0.27417800  0.92094800  1
  O  O52  1  0.11336100  0.91332100  0.72670000  1
  O  O53  1  0.19416400  0.87574700  0.58510400  1
  O  O54  1  0.60936600  0.35559800  0.01877300  1
  O  O55  1  0.69845200  0.16939000  0.16458000  1
  O  O56  1  0.22655500  0.95986700  0.35042300  1
  O  O57  1  0.51378600  0.35451200  0.40678200  1
  O  O58  1  0.39995400  0.75809100  0.20295300  1
  O  O59  1  0.59680000  0.25317600  0.80267700  1
  O  O60  1  0.49648900  0.64361500  0.58842800  1
  O  O61  1  0.77593800  0.04112400  0.64570200  1
  O  O62  1  0.30656500  0.83407700  0.83367700  1
  O  O63  1  0.37644600  0.64887700  0.97848600  1
  O  O64  1  0.82149400  0.12752900  0.41352900  1
  O  O65  1  0.88585700  0.08437700  0.27245600  1
  O  O66  1  0.60119500  0.72686300  0.08128800  1
  O  O67  1  0.53873500  0.94679100  0.13997000  1
  O  O68  1  0.75526500  0.31364000  0.50372300  1
  O  O69  1  0.62108000  0.95478600  0.34934900  1
  O  O70  1  0.90152800  0.44600200  0.22052000  1
  O  O71  1  0.90524700  0.35219400  0.38256400  1
  O  O72  1  0.78815800  0.73305100  0.19055500  1
  O  O73  1  0.78328200  0.61696000  0.69736500  1
  O  O74  1  0.81247800  0.42882100  0.77739700  1
  O  O75  1  0.88717400  0.42787800  0.59899100  1
  O  O76  1  0.68875800  0.83365200  0.60995000  1
  O  O77  1  0.98868100  0.17637100  0.71519100  1
  O  O78  1  0.85541400  0.29169300  0.90438400  1
  O  O79  1  0.58957700  0.83119100  0.93186200  1
  O  O80  1  0.70349800  0.66337000  0.82298600  1
  O  O81  1  0.61634900  0.90202100  0.73694400  1
  O  O82  1  0.87061100  0.65099200  0.50609900  1
  O  O83  1  0.81367400  0.51194700  0.96107000  1
  O  O84  1  0.94924000  0.82368500  0.42310200  1
  O  O85  1  0.98464000  0.94062600  0.15884100  1
  O  O86  1  0.92447900  0.83823300  0.83423200  1
  O  O87  1  0.96232900  0.72103900  0.99151300  1
