# generated using pymatgen
data_Li2Ni3WO8
_symmetry_space_group_name_H-M   'P 1'
_cell_length_a   8.50065727
_cell_length_b   8.56339501
_cell_length_c   8.22028025
_cell_angle_alpha   90.00566454
_cell_angle_beta   89.97176493
_cell_angle_gamma   90.00026895
_symmetry_Int_Tables_number   1
_chemical_formula_structural   Li2Ni3WO8
_chemical_formula_sum   'Li8 Ni12 W4 O32'
_cell_volume   598.39100028
_cell_formula_units_Z   4
loop_
 _symmetry_equiv_pos_site_id
 _symmetry_equiv_pos_as_xyz
  1  'x, y, z'
loop_
 _atom_site_type_symbol
 _atom_site_label
 _atom_site_symmetry_multiplicity
 _atom_site_fract_x
 _atom_site_fract_y
 _atom_site_fract_z
 _atom_site_occupancy
  Li  Li0  1  0.99047000  0.99709100  0.99390700  1
  Li  Li1  1  0.25264300  0.25788600  0.25659200  1
  Li  Li2  1  0.24759700  0.74248800  0.75680300  1
  Li  Li3  1  0.50962400  0.00255000  0.49373400  1
  Li  Li4  1  0.49092300  0.50192800  0.00645500  1
  Li  Li5  1  0.75224200  0.24221600  0.74340600  1
  Li  Li6  1  0.74712600  0.75818700  0.24355600  1
  Li  Li7  1  0.00927700  0.49752300  0.50623100  1
  Ni  Ni8  1  0.11978500  0.12946200  0.62510000  1
  Ni  Ni9  1  0.12796000  0.37769400  0.87720800  1
  Ni  Ni10  1  0.12695000  0.62296600  0.12766200  1
  Ni  Ni11  1  0.37315400  0.37729200  0.62757300  1
  Ni  Ni12  1  0.37241600  0.62275000  0.37738400  1
  Ni  Ni13  1  0.38026100  0.87048400  0.12531100  1
  Ni  Ni14  1  0.62000200  0.37037500  0.37484400  1
  Ni  Ni15  1  0.62792900  0.12312400  0.12228200  1
  Ni  Ni16  1  0.62674100  0.87770500  0.87224400  1
  Ni  Ni17  1  0.87331100  0.12262500  0.37223900  1
  Ni  Ni18  1  0.87195200  0.87728800  0.62249200  1
  Ni  Ni19  1  0.88000200  0.62960700  0.87497400  1
  W  W20  1  0.12825800  0.87813700  0.37499500  1
  W  W21  1  0.37107300  0.12139300  0.87476800  1
  W  W22  1  0.62830400  0.62175400  0.62559900  1
  W  W23  1  0.87227700  0.37818700  0.12528900  1
  O  O24  1  0.11294000  0.10488300  0.37486900  1
  O  O25  1  0.11629300  0.87544400  0.61004200  1
  O  O26  1  0.11844100  0.60595700  0.89803400  1
  O  O27  1  0.14458300  0.13251300  0.87513400  1
  O  O28  1  0.10745600  0.37759300  0.11092900  1
  O  O29  1  0.14618800  0.36724900  0.64750000  1
  O  O30  1  0.12758600  0.64415800  0.36196500  1
  O  O31  1  0.12426300  0.86724200  0.14050600  1
  O  O32  1  0.37557800  0.13222900  0.64048500  1
  O  O33  1  0.37155700  0.35585300  0.86190800  1
  O  O34  1  0.35453000  0.63275900  0.14785900  1
  O  O35  1  0.39296000  0.62328700  0.61106200  1
  O  O36  1  0.35525300  0.86613400  0.37556800  1
  O  O37  1  0.38148200  0.39523900  0.39765100  1
  O  O38  1  0.38264400  0.12451300  0.10980500  1
  O  O39  1  0.38775200  0.89463800  0.87515200  1
  O  O40  1  0.61296000  0.39503900  0.62504100  1
  O  O41  1  0.61653900  0.62441000  0.38998400  1
  O  O42  1  0.61892000  0.89655700  0.10251300  1
  O  O43  1  0.64484600  0.36442500  0.12426300  1
  O  O44  1  0.60652600  0.12374300  0.88865700  1
  O  O45  1  0.64672000  0.13260600  0.35234800  1
  O  O46  1  0.62735100  0.85568600  0.63790000  1
  O  O47  1  0.62422400  0.63202400  0.85953200  1
  O  O48  1  0.87571700  0.36792000  0.35962800  1
  O  O49  1  0.87373000  0.14448600  0.13807000  1
  O  O50  1  0.85311400  0.86747600  0.85237900  1
  O  O51  1  0.89304800  0.87661200  0.38891100  1
  O  O52  1  0.85525000  0.63397900  0.62459700  1
  O  O53  1  0.88114400  0.10471500  0.60215600  1
  O  O54  1  0.88446500  0.37540300  0.88990700  1
  O  O55  1  0.88566300  0.60466300  0.12513900  1
