data_image0
_chemical_formula_structural       Fe2Ge2Yb2
_chemical_formula_sum              "Fe2 Ge2 Yb2"
_cell_length_a       3.91873
_cell_length_b       5.71484
_cell_length_c       6.11986
_cell_angle_alpha    93.0993
_cell_angle_beta     108.673
_cell_angle_gamma    110.051

_space_group_name_H-M_alt    "P 1"
_space_group_IT_number       1

loop_
  _space_group_symop_operation_xyz
  'x, y, z'

loop_
  _atom_site_type_symbol
  _atom_site_label
  _atom_site_symmetry_multiplicity
  _atom_site_fract_x
  _atom_site_fract_y
  _atom_site_fract_z
  _atom_site_occupancy
  Fe  Fe1       1.0  0.64600  0.86700  0.42400  1.0000
  Fe  Fe2       1.0  0.35400  0.13300  0.57600  1.0000
  Ge  Ge1       1.0  0.02990  0.87500  0.18500  1.0000
  Ge  Ge2       1.0  0.97000  0.12500  0.81500  1.0000
  Yb  Yb1       1.0  0.76600  0.32300  0.20800  1.0000
  Yb  Yb2       1.0  0.23400  0.67700  0.79200  1.0000
