# generated using pymatgen
data_KTiF4
_symmetry_space_group_name_H-M   'P 1'
_cell_length_a   8.04886500
_cell_length_b   8.57887900
_cell_length_c   12.43862100
_cell_angle_alpha   90.00000000
_cell_angle_beta   90.00000000
_cell_angle_gamma   90.00000000
_symmetry_Int_Tables_number   1
_chemical_formula_structural   KTiF4
_chemical_formula_sum   'K8 Ti8 F32'
_cell_volume   858.88975191
_cell_formula_units_Z   8
loop_
 _symmetry_equiv_pos_site_id
 _symmetry_equiv_pos_as_xyz
  1  'x, y, z'
loop_
 _atom_site_type_symbol
 _atom_site_label
 _atom_site_symmetry_multiplicity
 _atom_site_fract_x
 _atom_site_fract_y
 _atom_site_fract_z
 _atom_site_occupancy
  K  K0  1  0.12340600  0.25000000  0.94100900  1
  K  K1  1  0.12241300  0.25000000  0.55466200  1
  K  K2  1  0.37758700  0.75000000  0.05466200  1
  K  K3  1  0.37659400  0.75000000  0.44100900  1
  K  K4  1  0.62340600  0.25000000  0.55899100  1
  K  K5  1  0.62241300  0.25000000  0.94533800  1
  K  K6  1  0.87758700  0.75000000  0.44533800  1
  K  K7  1  0.87659400  0.75000000  0.05899100  1
  Ti  Ti8  1  0.12710800  0.05735500  0.24911600  1
  Ti  Ti9  1  0.12710800  0.44264500  0.24911600  1
  Ti  Ti10  1  0.37289200  0.55735500  0.74911600  1
  Ti  Ti11  1  0.37289200  0.94264500  0.74911600  1
  Ti  Ti12  1  0.62710800  0.05735500  0.25088400  1
  Ti  Ti13  1  0.62710800  0.44264500  0.25088400  1
  Ti  Ti14  1  0.87289200  0.55735500  0.75088400  1
  Ti  Ti15  1  0.87289200  0.94264500  0.75088400  1
  F  F16  1  0.12265400  0.25000000  0.34756500  1
  F  F17  1  0.13057800  0.92799500  0.12389500  1
  F  F18  1  0.13057800  0.57200500  0.12389500  1
  F  F19  1  0.12294900  0.55145900  0.75416300  1
  F  F20  1  0.12294900  0.94854100  0.75416300  1
  F  F21  1  0.12344400  0.92755800  0.37407100  1
  F  F22  1  0.12344400  0.57244200  0.37407100  1
  F  F23  1  0.13185300  0.25000000  0.14975800  1
  F  F24  1  0.36814700  0.75000000  0.64975800  1
  F  F25  1  0.37655600  0.42755800  0.87407100  1
  F  F26  1  0.37655600  0.07244200  0.87407100  1
  F  F27  1  0.37705100  0.05145900  0.25416300  1
  F  F28  1  0.37705100  0.44854100  0.25416300  1
  F  F29  1  0.36942200  0.42799500  0.62389500  1
  F  F30  1  0.36942200  0.07200500  0.62389500  1
  F  F31  1  0.37734600  0.75000000  0.84756500  1
  F  F32  1  0.62265400  0.25000000  0.15243500  1
  F  F33  1  0.63057800  0.92799500  0.37610500  1
  F  F34  1  0.63057800  0.57200500  0.37610500  1
  F  F35  1  0.62294900  0.55145900  0.74583700  1
  F  F36  1  0.62294900  0.94854100  0.74583700  1
  F  F37  1  0.62344400  0.92755800  0.12592900  1
  F  F38  1  0.62344400  0.57244200  0.12592900  1
  F  F39  1  0.63185300  0.25000000  0.35024200  1
  F  F40  1  0.86814700  0.75000000  0.85024200  1
  F  F41  1  0.87655600  0.42755800  0.62592900  1
  F  F42  1  0.87655600  0.07244200  0.62592900  1
  F  F43  1  0.87705100  0.05145900  0.24583700  1
  F  F44  1  0.87705100  0.44854100  0.24583700  1
  F  F45  1  0.86942200  0.42799500  0.87610500  1
  F  F46  1  0.86942200  0.07200500  0.87610500  1
  F  F47  1  0.87734600  0.75000000  0.65243500  1
