# generated using pymatgen
data_Ho2TeO2
_symmetry_space_group_name_H-M   'P 1'
_cell_length_a   3.89233166
_cell_length_b   3.89233166
_cell_length_c   14.37815600
_cell_angle_alpha   90.00000000
_cell_angle_beta   90.00000000
_cell_angle_gamma   119.99999423
_symmetry_Int_Tables_number   1
_chemical_formula_structural   Ho2TeO2
_chemical_formula_sum   'Ho4 Te2 O4'
_cell_volume   188.64857367
_cell_formula_units_Z   2
loop_
 _symmetry_equiv_pos_site_id
 _symmetry_equiv_pos_as_xyz
  1  'x, y, z'
loop_
 _atom_site_type_symbol
 _atom_site_label
 _atom_site_symmetry_multiplicity
 _atom_site_fract_x
 _atom_site_fract_y
 _atom_site_fract_z
 _atom_site_occupancy
  Ho  Ho0  1  0.33333300  0.66666700  0.90254900  1
  Ho  Ho1  1  0.33333300  0.66666700  0.59745100  1
  Ho  Ho2  1  0.66666700  0.33333300  0.40254900  1
  Ho  Ho3  1  0.66666700  0.33333300  0.09745100  1
  Te  Te4  1  0.00000000  0.00000000  0.25000000  1
  Te  Te5  1  0.00000000  0.00000000  0.75000000  1
  O  O6  1  0.33333300  0.66666700  0.06025700  1
  O  O7  1  0.33333300  0.66666700  0.43974300  1
  O  O8  1  0.66666700  0.33333300  0.93974300  1
  O  O9  1  0.66666700  0.33333300  0.56025700  1
