# generated using pymatgen
data_FeOF
_symmetry_space_group_name_H-M   'P 1'
_cell_length_a   3.10769000
_cell_length_b   9.45187700
_cell_length_c   14.21210238
_cell_angle_alpha   89.74624584
_cell_angle_beta   90.00000000
_cell_angle_gamma   90.00000000
_symmetry_Int_Tables_number   1
_chemical_formula_structural   FeOF
_chemical_formula_sum   'Fe12 O12 F12'
_cell_volume   417.45514683
_cell_formula_units_Z   12
loop_
 _symmetry_equiv_pos_site_id
 _symmetry_equiv_pos_as_xyz
  1  'x, y, z'
loop_
 _atom_site_type_symbol
 _atom_site_label
 _atom_site_symmetry_multiplicity
 _atom_site_fract_x
 _atom_site_fract_y
 _atom_site_fract_z
 _atom_site_occupancy
  Fe  Fe0  1  0.00000000  0.98690000  0.00710900  1
  Fe  Fe1  1  0.00000000  0.98205200  0.66992700  1
  Fe  Fe2  1  0.00000000  0.98958000  0.33986300  1
  Fe  Fe3  1  0.50000000  0.74274500  0.81757600  1
  Fe  Fe4  1  0.50000000  0.77175200  0.50176500  1
  Fe  Fe5  1  0.50000000  0.77249100  0.17261600  1
  Fe  Fe6  1  0.00000000  0.49166300  0.67480800  1
  Fe  Fe7  1  0.00000000  0.48213400  0.00351400  1
  Fe  Fe8  1  0.00000000  0.48356400  0.33786300  1
  Fe  Fe9  1  0.50000000  0.27088700  0.83450800  1
  Fe  Fe10  1  0.50000000  0.24313700  0.48376600  1
  Fe  Fe11  1  0.50000000  0.27263200  0.17159400  1
  O  O12  1  0.50000000  0.90770800  0.73624000  1
  O  O13  1  0.50000000  0.90019900  0.39734300  1
  O  O14  1  0.50000000  0.90196100  0.06235600  1
  O  O15  1  0.00000000  0.85408700  0.23103500  1
  O  O16  1  0.00000000  0.84696300  0.56731900  1
  O  O17  1  0.00000000  0.64828700  0.76662800  1
  O  O18  1  0.50000000  0.39493600  0.72568700  1
  O  O19  1  0.50000000  0.40302600  0.06496600  1
  O  O20  1  0.50000000  0.40844400  0.40092600  1
  O  O21  1  0.00000000  0.34825000  0.89845600  1
  O  O22  1  0.00000000  0.35019600  0.23276200  1
  O  O23  1  0.00000000  0.15020400  0.43173800  1
  F  F24  1  0.00000000  0.84541300  0.89770000  1
  F  F25  1  0.00000000  0.65398800  0.43384500  1
  F  F26  1  0.00000000  0.65375200  0.10225300  1
  F  F27  1  0.50000000  0.60435600  0.93763400  1
  F  F28  1  0.50000000  0.59128600  0.59623700  1
  F  F29  1  0.50000000  0.60001600  0.26773800  1
  F  F30  1  0.00000000  0.34607200  0.56342100  1
  F  F31  1  0.00000000  0.15109600  0.77080200  1
  F  F32  1  0.00000000  0.15293600  0.09841100  1
  F  F33  1  0.50000000  0.09347800  0.93371000  1
  F  F34  1  0.50000000  0.10397200  0.60518400  1
  F  F35  1  0.50000000  0.09983700  0.26270000  1
