# generated using pymatgen
data_Fe5(OF4)2
_symmetry_space_group_name_H-M   'P 1'
_cell_length_a   4.81529553
_cell_length_b   4.81529553
_cell_length_c   16.02752787
_cell_angle_alpha   89.76954938
_cell_angle_beta   89.76954938
_cell_angle_gamma   89.46130536
_symmetry_Int_Tables_number   1
_chemical_formula_structural   Fe5(OF4)2
_chemical_formula_sum   'Fe10 O4 F16'
_cell_volume   371.60904615
_cell_formula_units_Z   2
loop_
 _symmetry_equiv_pos_site_id
 _symmetry_equiv_pos_as_xyz
  1  'x, y, z'
loop_
 _atom_site_type_symbol
 _atom_site_label
 _atom_site_symmetry_multiplicity
 _atom_site_fract_x
 _atom_site_fract_y
 _atom_site_fract_z
 _atom_site_occupancy
  Fe  Fe0  1  0.97083000  0.97210100  0.39909200  1
  Fe  Fe1  1  0.02789900  0.02917000  0.60090800  1
  Fe  Fe2  1  0.98400000  0.99660700  0.80760000  1
  Fe  Fe3  1  0.96363500  0.03636500  0.00000000  1
  Fe  Fe4  1  0.00339300  0.01600000  0.19240000  1
  Fe  Fe5  1  0.49933800  0.50066200  0.50000000  1
  Fe  Fe6  1  0.51529500  0.48491600  0.90050100  1
  Fe  Fe7  1  0.48535700  0.48898100  0.69279300  1
  Fe  Fe8  1  0.51508400  0.48470500  0.09949900  1
  Fe  Fe9  1  0.51101900  0.51464300  0.30720700  1
  O  O10  1  0.81066600  0.19631700  0.90221600  1
  O  O11  1  0.80368300  0.18933300  0.09778400  1
  O  O12  1  0.32336500  0.32751700  0.59603800  1
  O  O13  1  0.67248300  0.67663500  0.40396200  1
  F  F14  1  0.79573100  0.20426900  0.50000000  1
  F  F15  1  0.79338800  0.21021200  0.69803500  1
  F  F16  1  0.78978800  0.20661200  0.30196500  1
  F  F17  1  0.29337200  0.29664300  0.40189400  1
  F  F18  1  0.30336600  0.30309500  0.78710200  1
  F  F19  1  0.29618600  0.28746000  0.00035300  1
  F  F20  1  0.31078500  0.31020000  0.21710900  1
  F  F21  1  0.70335700  0.70662800  0.59810600  1
  F  F22  1  0.68980000  0.68921500  0.78289100  1
  F  F23  1  0.71254000  0.70381400  0.99964700  1
  F  F24  1  0.69690500  0.69663400  0.21289800  1
  F  F25  1  0.20260500  0.79739500  0.50000000  1
  F  F26  1  0.20835700  0.78844100  0.90369100  1
  F  F27  1  0.20369300  0.79748100  0.70071200  1
  F  F28  1  0.20251900  0.79630700  0.29928800  1
  F  F29  1  0.21155900  0.79164300  0.09630900  1
