# generated using pymatgen
data_Gd4As2O9
_symmetry_space_group_name_H-M   'P 1'
_cell_length_a   7.39936265
_cell_length_b   10.92489200
_cell_length_c   12.30841500
_cell_angle_alpha   90.00000000
_cell_angle_beta   107.13954862
_cell_angle_gamma   90.00000000
_symmetry_Int_Tables_number   1
_chemical_formula_structural   Gd4As2O9
_chemical_formula_sum   'Gd16 As8 O36'
_cell_volume   950.79111179
_cell_formula_units_Z   4
loop_
 _symmetry_equiv_pos_site_id
 _symmetry_equiv_pos_as_xyz
  1  'x, y, z'
loop_
 _atom_site_type_symbol
 _atom_site_label
 _atom_site_symmetry_multiplicity
 _atom_site_fract_x
 _atom_site_fract_y
 _atom_site_fract_z
 _atom_site_occupancy
  Gd  Gd0  1  0.00623100  0.13834000  0.76625600  1
  Gd  Gd1  1  0.00623100  0.36166000  0.26625600  1
  Gd  Gd2  1  0.16987400  0.89872200  0.58893900  1
  Gd  Gd3  1  0.32626200  0.39529400  0.90558900  1
  Gd  Gd4  1  0.16987400  0.60127800  0.08893900  1
  Gd  Gd5  1  0.32626200  0.10470600  0.40558900  1
  Gd  Gd6  1  0.50406400  0.65765800  0.75968400  1
  Gd  Gd7  1  0.49593600  0.15765800  0.74031600  1
  Gd  Gd8  1  0.50406400  0.84234200  0.25968400  1
  Gd  Gd9  1  0.49593600  0.34234200  0.24031600  1
  Gd  Gd10  1  0.67373800  0.89529400  0.59441100  1
  Gd  Gd11  1  0.83012600  0.39872200  0.91106100  1
  Gd  Gd12  1  0.67373800  0.60470600  0.09441100  1
  Gd  Gd13  1  0.83012600  0.10127800  0.41106100  1
  Gd  Gd14  1  0.99376900  0.63834000  0.73374400  1
  Gd  Gd15  1  0.99376900  0.86166000  0.23374400  1
  As  As16  1  0.18697200  0.38681900  0.60317400  1
  As  As17  1  0.33526200  0.88847200  0.89902100  1
  As  As18  1  0.18697200  0.11318100  0.10317400  1
  As  As19  1  0.33526200  0.61152800  0.39902100  1
  As  As20  1  0.66473800  0.38847200  0.60097900  1
  As  As21  1  0.81302800  0.88681900  0.89682600  1
  As  As22  1  0.66473800  0.11152800  0.10097900  1
  As  As23  1  0.81302800  0.61318100  0.39682600  1
  O  O24  1  0.07575100  0.26859800  0.91265000  1
  O  O25  1  0.07569100  0.53851600  0.90429700  1
  O  O26  1  0.24502300  0.76801000  0.79985300  1
  O  O27  1  0.20000500  0.26799400  0.70559500  1
  O  O28  1  0.07575100  0.23140200  0.41265000  1
  O  O29  1  0.07569100  0.96148400  0.40429700  1
  O  O30  1  0.28725200  0.01180300  0.79491900  1
  O  O31  1  0.24633800  0.51016500  0.70933200  1
  O  O32  1  0.24502300  0.73199000  0.29985300  1
  O  O33  1  0.20000500  0.23200600  0.20559500  1
  O  O34  1  0.42571700  0.77491200  0.60571200  1
  O  O35  1  0.28725200  0.48819700  0.29491900  1
  O  O36  1  0.42231900  0.34118500  0.59455900  1
  O  O37  1  0.58462500  0.54025300  0.91486900  1
  O  O38  1  0.24633800  0.98983500  0.20933200  1
  O  O39  1  0.41537500  0.04025300  0.58513100  1
  O  O40  1  0.57768100  0.84118500  0.90544100  1
  O  O41  1  0.57428300  0.27491200  0.89428800  1
  O  O42  1  0.42571700  0.72508800  0.10571200  1
  O  O43  1  0.42231900  0.15881500  0.09455900  1
  O  O44  1  0.58462500  0.95974700  0.41486900  1
  O  O45  1  0.75366200  0.01016500  0.79066800  1
  O  O46  1  0.41537500  0.45974700  0.08513100  1
  O  O47  1  0.57768100  0.65881500  0.40544100  1
  O  O48  1  0.71274800  0.51180300  0.70508100  1
  O  O49  1  0.57428300  0.22508800  0.39428800  1
  O  O50  1  0.79999500  0.76799400  0.79440500  1
  O  O51  1  0.75497700  0.26801000  0.70014700  1
  O  O52  1  0.75366200  0.48983500  0.29066800  1
  O  O53  1  0.71274800  0.98819700  0.20508100  1
  O  O54  1  0.92430900  0.03851600  0.59570300  1
  O  O55  1  0.92424900  0.76859800  0.58735000  1
  O  O56  1  0.79999500  0.73200600  0.29440500  1
  O  O57  1  0.75497700  0.23199000  0.20014700  1
  O  O58  1  0.92430900  0.46148400  0.09570300  1
  O  O59  1  0.92424900  0.73140200  0.08735000  1
