# generated using pymatgen
data_Li13Mn6(PO4)8
_symmetry_space_group_name_H-M   'P 1'
_cell_length_a   8.06687280
_cell_length_b   7.98274151
_cell_length_c   11.53602267
_cell_angle_alpha   105.52950801
_cell_angle_beta   75.59661959
_cell_angle_gamma   74.79025258
_symmetry_Int_Tables_number   1
_chemical_formula_structural   Li13Mn6(PO4)8
_chemical_formula_sum   'Li13 Mn6 P8 O32'
_cell_volume   648.75617638
_cell_formula_units_Z   1
loop_
 _symmetry_equiv_pos_site_id
 _symmetry_equiv_pos_as_xyz
  1  'x, y, z'
loop_
 _atom_site_type_symbol
 _atom_site_label
 _atom_site_symmetry_multiplicity
 _atom_site_fract_x
 _atom_site_fract_y
 _atom_site_fract_z
 _atom_site_occupancy
  Li  Li0  1  0.99498200  0.99841900  0.48611700  1
  Li  Li1  1  0.53300000  0.18803600  0.71155000  1
  Li  Li2  1  0.26245000  0.28643900  0.63140800  1
  Li  Li3  1  0.23891600  0.21159400  0.38084700  1
  Li  Li4  1  0.63242900  0.39517400  0.86121900  1
  Li  Li5  1  0.27073100  0.24358600  0.98582600  1
  Li  Li6  1  0.49589900  0.50213500  0.51316000  1
  Li  Li7  1  0.05721200  0.72808100  0.72195800  1
  Li  Li8  1  0.77842700  0.73934300  0.98013700  1
  Li  Li9  1  0.38280200  0.58264400  0.10906200  1
  Li  Li10  1  0.77185900  0.77631900  0.63377600  1
  Li  Li11  1  0.73809000  0.72671200  0.38045500  1
  Li  Li12  1  0.00198100  0.99326700  0.99201100  1
  Mn  Mn13  1  0.51784900  0.24956500  0.21062900  1
  Mn  Mn14  1  0.95202200  0.28385000  0.28070200  1
  Mn  Mn15  1  0.42616600  0.82497400  0.29782300  1
  Mn  Mn16  1  0.99756300  0.76042300  0.20482600  1
  Mn  Mn17  1  0.00430900  0.23479100  0.78794200  1
  Mn  Mn18  1  0.48208400  0.75406800  0.79102100  1
  P  P19  1  0.72152900  0.02771200  0.90006500  1
  P  P20  1  0.62597900  0.13314000  0.40926100  1
  P  P21  1  0.22040800  0.53114600  0.90249100  1
  P  P22  1  0.87758100  0.38027000  0.60434000  1
  P  P23  1  0.11879000  0.61618800  0.40024900  1
  P  P24  1  0.77467700  0.47431600  0.09580000  1
  P  P25  1  0.38293800  0.87258700  0.59724800  1
  P  P26  1  0.27508300  0.97562000  0.09796500  1
  O  O27  1  0.22446000  0.04362200  0.61064300  1
  O  O28  1  0.91745100  0.02923900  0.83973900  1
  O  O29  1  0.56947300  0.18984700  0.89717600  1
  O  O30  1  0.50441500  0.06654100  0.33371400  1
  O  O31  1  0.22566700  0.33455400  0.82399900  1
  O  O32  1  0.51044000  0.24983300  0.55080900  1
  O  O33  1  0.80645300  0.26054300  0.67990700  1
  O  O34  1  0.27612000  0.16894800  0.17698400  1
  O  O35  1  0.70469100  0.03114100  0.03895200  1
  O  O36  1  0.01505600  0.44251900  0.66341200  1
  O  O37  1  0.79302000  0.46832100  0.95585800  1
  O  O38  1  0.68646100  0.26968000  0.34617700  1
  O  O39  1  0.98156900  0.24994200  0.46098100  1
  O  O40  1  0.41310300  0.53795200  0.84238000  1
  O  O41  1  0.06362800  0.69310400  0.90603900  1
  O  O42  1  0.27916600  0.45041200  0.39114800  1
  O  O43  1  0.97891200  0.55137700  0.34217400  1
  O  O44  1  0.71625900  0.54681200  0.61470800  1
  O  O45  1  0.92703200  0.31129500  0.09673400  1
  O  O46  1  0.01307800  0.75637100  0.53846300  1
  O  O47  1  0.58053900  0.47098300  0.15996000  1
  O  O48  1  0.31549100  0.74302000  0.66274600  1
  O  O49  1  0.20131500  0.53060000  0.04167100  1
  O  O50  1  0.29166300  0.97608700  0.96028200  1
  O  O51  1  0.72064900  0.83399200  0.82403000  1
  O  O52  1  0.19143000  0.72336800  0.31316500  1
  O  O53  1  0.49334000  0.74933700  0.45340000  1
  O  O54  1  0.77757700  0.66788400  0.17268600  1
  O  O55  1  0.51665700  0.93400700  0.66208300  1
  O  O56  1  0.42453000  0.80817000  0.09701700  1
  O  O57  1  0.07567500  0.97583600  0.15636600  1
  O  O58  1  0.78949600  0.96326000  0.39309400  1
