# generated using pymatgen
data_FeCSO7
_symmetry_space_group_name_H-M   'P 1'
_cell_length_a   6.47941500
_cell_length_b   5.15850900
_cell_length_c   8.72501030
_cell_angle_alpha   87.72147301
_cell_angle_beta   90.00000000
_cell_angle_gamma   90.00000000
_symmetry_Int_Tables_number   1
_chemical_formula_structural   FeCSO7
_chemical_formula_sum   'Fe2 C2 S2 O14'
_cell_volume   291.39522682
_cell_formula_units_Z   2
loop_
 _symmetry_equiv_pos_site_id
 _symmetry_equiv_pos_as_xyz
  1  'x, y, z'
loop_
 _atom_site_type_symbol
 _atom_site_label
 _atom_site_symmetry_multiplicity
 _atom_site_fract_x
 _atom_site_fract_y
 _atom_site_fract_z
 _atom_site_occupancy
  Fe  Fe0  1  0.25000000  0.20645900  0.66287200  1
  Fe  Fe1  1  0.75000000  0.79354100  0.33712800  1
  C  C2  1  0.25000000  0.26530900  0.93766500  1
  C  C3  1  0.75000000  0.73469100  0.06233500  1
  S  S4  1  0.75000000  0.28427000  0.57444700  1
  S  S5  1  0.25000000  0.71573000  0.42555300  1
  O  O6  1  0.75000000  0.70415400  0.92075400  1
  O  O7  1  0.25000000  0.03869300  0.87761300  1
  O  O8  1  0.25000000  0.45857600  0.83689500  1
  O  O9  1  0.93372600  0.22342000  0.66822700  1
  O  O10  1  0.56627400  0.22342000  0.66822700  1
  O  O11  1  0.25000000  0.86509700  0.56806100  1
  O  O12  1  0.75000000  0.56627600  0.52685900  1
  O  O13  1  0.25000000  0.43372400  0.47314100  1
  O  O14  1  0.75000000  0.13490300  0.43193900  1
  O  O15  1  0.43372600  0.77658000  0.33177300  1
  O  O16  1  0.06627400  0.77658000  0.33177300  1
  O  O17  1  0.75000000  0.54142400  0.16310500  1
  O  O18  1  0.75000000  0.96130700  0.12238700  1
  O  O19  1  0.25000000  0.29584600  0.07924600  1
