# generated using pymatgen
data_Ho5Ti5O17
_symmetry_space_group_name_H-M   'P 1'
_cell_length_a   3.83330500
_cell_length_b   5.45092700
_cell_length_c   31.74936100
_cell_angle_alpha   90.00000000
_cell_angle_beta   90.00000000
_cell_angle_gamma   90.00000000
_symmetry_Int_Tables_number   1
_chemical_formula_structural   Ho5Ti5O17
_chemical_formula_sum   'Ho10 Ti10 O34'
_cell_volume   663.40498478
_cell_formula_units_Z   2
loop_
 _symmetry_equiv_pos_site_id
 _symmetry_equiv_pos_as_xyz
  1  'x, y, z'
loop_
 _atom_site_type_symbol
 _atom_site_label
 _atom_site_symmetry_multiplicity
 _atom_site_fract_x
 _atom_site_fract_y
 _atom_site_fract_z
 _atom_site_occupancy
  Ho  Ho0  1  0.00000000  0.17837800  0.01797400  1
  Ho  Ho1  1  0.00000000  0.73603200  0.69918600  1
  Ho  Ho2  1  0.00000000  0.26959800  0.79298700  1
  Ho  Ho3  1  0.00000000  0.32296100  0.56988500  1
  Ho  Ho4  1  0.00000000  0.79571900  0.89117900  1
  Ho  Ho5  1  0.50000000  0.26396800  0.19918600  1
  Ho  Ho6  1  0.50000000  0.82162200  0.51797400  1
  Ho  Ho7  1  0.50000000  0.73040200  0.29298700  1
  Ho  Ho8  1  0.50000000  0.67703900  0.06988500  1
  Ho  Ho9  1  0.50000000  0.20428100  0.39117900  1
  Ti  Ti10  1  0.00000000  0.75355000  0.20561300  1
  Ti  Ti11  1  0.00000000  0.25714400  0.29654900  1
  Ti  Ti12  1  0.00000000  0.75777400  0.38224200  1
  Ti  Ti13  1  0.00000000  0.28313000  0.46880700  1
  Ti  Ti14  1  0.50000000  0.77402700  0.61948400  1
  Ti  Ti15  1  0.50000000  0.24645000  0.70561300  1
  Ti  Ti16  1  0.50000000  0.74285600  0.79654900  1
  Ti  Ti17  1  0.50000000  0.24222600  0.88224200  1
  Ti  Ti18  1  0.50000000  0.71687000  0.96880700  1
  Ti  Ti19  1  0.00000000  0.22597300  0.11948400  1
  O  O20  1  0.00000000  0.19837000  0.71721500  1
  O  O21  1  0.00000000  0.69490600  0.79703000  1
  O  O22  1  0.00000000  0.20705300  0.87130100  1
  O  O23  1  0.00000000  0.45273600  0.07036400  1
  O  O24  1  0.00000000  0.95909800  0.08180200  1
  O  O25  1  0.00000000  0.75490400  0.96378300  1
  O  O26  1  0.00000000  0.54582500  0.16138200  1
  O  O27  1  0.00000000  0.07343100  0.17681700  1
  O  O28  1  0.00000000  0.95984200  0.26730300  1
  O  O29  1  0.00000000  0.45306200  0.24166200  1
  O  O30  1  0.50000000  0.88809200  0.85078200  1
  O  O31  1  0.50000000  0.39676600  0.82497200  1
  O  O32  1  0.50000000  0.44905300  0.00777600  1
  O  O33  1  0.50000000  0.94718000  0.01811600  1
  O  O34  1  0.50000000  0.01675900  0.92763100  1
  O  O35  1  0.50000000  0.53745300  0.91267600  1
  O  O36  1  0.50000000  0.27325500  0.12653400  1
  O  O37  1  0.50000000  0.80163000  0.21721500  1
  O  O38  1  0.50000000  0.30509400  0.29703000  1
  O  O39  1  0.50000000  0.79294700  0.37130100  1
  O  O40  1  0.50000000  0.24509600  0.46378300  1
  O  O41  1  0.50000000  0.54726400  0.57036400  1
  O  O42  1  0.50000000  0.04090200  0.58180200  1
  O  O43  1  0.50000000  0.45417500  0.66138200  1
  O  O44  1  0.50000000  0.92656900  0.67681700  1
  O  O45  1  0.50000000  0.54693800  0.74166200  1
  O  O46  1  0.50000000  0.04015800  0.76730300  1
  O  O47  1  0.00000000  0.11190800  0.35078200  1
  O  O48  1  0.00000000  0.60323400  0.32497200  1
  O  O49  1  0.00000000  0.98324100  0.42763100  1
  O  O50  1  0.00000000  0.46254700  0.41267600  1
  O  O51  1  0.00000000  0.55094700  0.50777600  1
  O  O52  1  0.00000000  0.05282000  0.51811600  1
  O  O53  1  0.00000000  0.72674500  0.62653400  1
