# generated using pymatgen
data_Er2TiO5
_symmetry_space_group_name_H-M   'P 1'
_cell_length_a   6.36720242
_cell_length_b   6.36720242
_cell_length_c   7.50825314
_cell_angle_alpha   68.69631759
_cell_angle_beta   68.69631759
_cell_angle_gamma   48.74412791
_symmetry_Int_Tables_number   1
_chemical_formula_structural   Er2TiO5
_chemical_formula_sum   'Er4 Ti2 O10'
_cell_volume   209.84491463
_cell_formula_units_Z   2
loop_
 _symmetry_equiv_pos_site_id
 _symmetry_equiv_pos_as_xyz
  1  'x, y, z'
loop_
 _atom_site_type_symbol
 _atom_site_label
 _atom_site_symmetry_multiplicity
 _atom_site_fract_x
 _atom_site_fract_y
 _atom_site_fract_z
 _atom_site_occupancy
  Er  Er0  1  0.37060500  0.35324700  0.25007600  1
  Er  Er1  1  0.64675300  0.62939500  0.24992400  1
  Er  Er2  1  0.35324700  0.37060500  0.75007600  1
  Er  Er3  1  0.62939500  0.64675300  0.74992400  1
  Ti  Ti4  1  0.00000000  0.00000000  0.00000000  1
  Ti  Ti5  1  0.00000000  0.00000000  0.50000000  1
  O  O6  1  0.97348600  0.68703400  0.14008300  1
  O  O7  1  0.24785500  0.60931800  0.45516200  1
  O  O8  1  0.60931800  0.24785500  0.95516200  1
  O  O9  1  0.31296600  0.02651400  0.35991700  1
  O  O10  1  0.68703400  0.97348600  0.64008300  1
  O  O11  1  0.83149600  0.16850400  0.25000000  1
  O  O12  1  0.39068200  0.75214500  0.04483800  1
  O  O13  1  0.75214500  0.39068200  0.54483800  1
  O  O14  1  0.02651400  0.31296600  0.85991700  1
  O  O15  1  0.16850400  0.83149600  0.75000000  1
