# generated using pymatgen
data_Cr(SbO3)2
_symmetry_space_group_name_H-M   'P 1'
_cell_length_a   5.31675423
_cell_length_b   5.31675423
_cell_length_c   4.70291798
_cell_angle_alpha   88.31513583
_cell_angle_beta   88.31513583
_cell_angle_gamma   121.09284244
_symmetry_Int_Tables_number   1
_chemical_formula_structural   Cr(SbO3)2
_chemical_formula_sum   'Cr1 Sb2 O6'
_cell_volume   113.63830959
_cell_formula_units_Z   1
loop_
 _symmetry_equiv_pos_site_id
 _symmetry_equiv_pos_as_xyz
  1  'x, y, z'
loop_
 _atom_site_type_symbol
 _atom_site_label
 _atom_site_symmetry_multiplicity
 _atom_site_fract_x
 _atom_site_fract_y
 _atom_site_fract_z
 _atom_site_occupancy
  Cr  Cr0  1  0.00000000  0.00000000  0.00000000  1
  Sb  Sb1  1  0.66698800  0.33301200  0.50000000  1
  Sb  Sb2  1  0.33301200  0.66698800  0.50000000  1
  O  O3  1  0.01059400  0.36750300  0.26785200  1
  O  O4  1  0.98940600  0.63249700  0.73214800  1
  O  O5  1  0.65524900  0.65524900  0.26581400  1
  O  O6  1  0.34475100  0.34475100  0.73418600  1
  O  O7  1  0.63249700  0.98940600  0.73214800  1
  O  O8  1  0.36750300  0.01059400  0.26785200  1
