# generated using pymatgen
data_Cs4SiO4
_symmetry_space_group_name_H-M   'P 1'
_cell_length_a   19.42426500
_cell_length_b   6.99277000
_cell_length_c   7.09284418
_cell_angle_alpha   66.90060627
_cell_angle_beta   90.00000000
_cell_angle_gamma   90.00000000
_symmetry_Int_Tables_number   1
_chemical_formula_structural   Cs4SiO4
_chemical_formula_sum   'Cs16 Si4 O16'
_cell_volume   886.17556948
_cell_formula_units_Z   4
loop_
 _symmetry_equiv_pos_site_id
 _symmetry_equiv_pos_as_xyz
  1  'x, y, z'
loop_
 _atom_site_type_symbol
 _atom_site_label
 _atom_site_symmetry_multiplicity
 _atom_site_fract_x
 _atom_site_fract_y
 _atom_site_fract_z
 _atom_site_occupancy
  Cs  Cs0  1  0.80813300  0.82365700  0.67758900  1
  Cs  Cs1  1  0.01388700  0.79068300  0.76555300  1
  Cs  Cs2  1  0.21265200  0.67934100  0.83999400  1
  Cs  Cs3  1  0.42258800  0.66223400  0.79379800  1
  Cs  Cs4  1  0.69186700  0.82365700  0.17758900  1
  Cs  Cs5  1  0.48611300  0.79068300  0.26555300  1
  Cs  Cs6  1  0.28734800  0.67934100  0.33999400  1
  Cs  Cs7  1  0.07741200  0.66223400  0.29379800  1
  Cs  Cs8  1  0.92258800  0.33776600  0.70620200  1
  Cs  Cs9  1  0.71265200  0.32065900  0.66000600  1
  Cs  Cs10  1  0.51388700  0.20931700  0.73444700  1
  Cs  Cs11  1  0.30813300  0.17634300  0.82241100  1
  Cs  Cs12  1  0.57741200  0.33776600  0.20620200  1
  Cs  Cs13  1  0.78734800  0.32065900  0.16000600  1
  Cs  Cs14  1  0.98611300  0.20931700  0.23444700  1
  Cs  Cs15  1  0.19186700  0.17634300  0.32241100  1
  Si  Si16  1  0.62326100  0.73811700  0.71040700  1
  Si  Si17  1  0.87673900  0.73811700  0.21040700  1
  Si  Si18  1  0.12326100  0.26188300  0.78959300  1
  Si  Si19  1  0.37673900  0.26188300  0.28959300  1
  O  O20  1  0.65902800  0.96443100  0.55898500  1
  O  O21  1  0.55948800  0.77658500  0.85081100  1
  O  O22  1  0.84097200  0.96443100  0.05898500  1
  O  O23  1  0.94051200  0.77658500  0.35081100  1
  O  O24  1  0.68264600  0.58495600  0.87402000  1
  O  O25  1  0.59449800  0.61070400  0.56814700  1
  O  O26  1  0.09449800  0.38929600  0.93185300  1
  O  O27  1  0.81735400  0.58495600  0.37402000  1
  O  O28  1  0.18264600  0.41504400  0.62598000  1
  O  O29  1  0.90550200  0.61070400  0.06814700  1
  O  O30  1  0.40550200  0.38929600  0.43185300  1
  O  O31  1  0.31735400  0.41504400  0.12598000  1
  O  O32  1  0.05948800  0.22341500  0.64918900  1
  O  O33  1  0.15902800  0.03556900  0.94101500  1
  O  O34  1  0.44051200  0.22341500  0.14918900  1
  O  O35  1  0.34097200  0.03556900  0.44101500  1
