# generated using pymatgen
data_BaSrI4
_symmetry_space_group_name_H-M   'P 1'
_cell_length_a   10.29408900
_cell_length_b   11.23137400
_cell_length_c   11.25234300
_cell_angle_alpha   90.00000000
_cell_angle_beta   90.00000000
_cell_angle_gamma   90.00000000
_symmetry_Int_Tables_number   1
_chemical_formula_structural   BaSrI4
_chemical_formula_sum   'Ba4 Sr4 I16'
_cell_volume   1300.95948000
_cell_formula_units_Z   4
loop_
 _symmetry_equiv_pos_site_id
 _symmetry_equiv_pos_as_xyz
  1  'x, y, z'
loop_
 _atom_site_type_symbol
 _atom_site_label
 _atom_site_symmetry_multiplicity
 _atom_site_fract_x
 _atom_site_fract_y
 _atom_site_fract_z
 _atom_site_occupancy
  Ba  Ba0  1  0.00176900  0.74455900  0.25000000  1
  Ba  Ba1  1  0.49823100  0.24455900  0.75000000  1
  Ba  Ba2  1  0.50176900  0.75544100  0.25000000  1
  Ba  Ba3  1  0.99823100  0.25544100  0.75000000  1
  Sr  Sr4  1  0.26019400  0.25030100  0.25000000  1
  Sr  Sr5  1  0.23980600  0.75030100  0.75000000  1
  Sr  Sr6  1  0.76019400  0.24969900  0.25000000  1
  Sr  Sr7  1  0.73980600  0.74969900  0.75000000  1
  I  I8  1  0.99040700  0.75665600  0.93879100  1
  I  I9  1  0.99040700  0.75665600  0.56120900  1
  I  I10  1  0.25174000  0.45503400  0.75000000  1
  I  I11  1  0.25569400  0.54526900  0.25000000  1
  I  I12  1  0.24430600  0.04526900  0.75000000  1
  I  I13  1  0.24826000  0.95503400  0.25000000  1
  I  I14  1  0.50959300  0.25665600  0.43879100  1
  I  I15  1  0.50959300  0.25665600  0.06120900  1
  I  I16  1  0.49040700  0.74334400  0.93879100  1
  I  I17  1  0.49040700  0.74334400  0.56120900  1
  I  I18  1  0.75174000  0.04496600  0.75000000  1
  I  I19  1  0.75569400  0.95473100  0.25000000  1
  I  I20  1  0.74430600  0.45473100  0.75000000  1
  I  I21  1  0.74826000  0.54496600  0.25000000  1
  I  I22  1  0.00959300  0.24334400  0.43879100  1
  I  I23  1  0.00959300  0.24334400  0.06120900  1
