# generated using pymatgen
data_Co2O3F
_symmetry_space_group_name_H-M   'P 1'
_cell_length_a   5.39274979
_cell_length_b   5.39211577
_cell_length_c   5.38931093
_cell_angle_alpha   67.42228018
_cell_angle_beta   104.66649707
_cell_angle_gamma   68.69097766
_symmetry_Int_Tables_number   1
_chemical_formula_structural   Co2O3F
_chemical_formula_sum   'Co4 O6 F2'
_cell_volume   119.94132422
_cell_formula_units_Z   2
loop_
 _symmetry_equiv_pos_site_id
 _symmetry_equiv_pos_as_xyz
  1  'x, y, z'
loop_
 _atom_site_type_symbol
 _atom_site_label
 _atom_site_symmetry_multiplicity
 _atom_site_fract_x
 _atom_site_fract_y
 _atom_site_fract_z
 _atom_site_occupancy
  Co  Co0  1  0.46476800  0.25273000  0.21203900  1
  Co  Co1  1  0.53520100  0.74726800  0.78793300  1
  Co  Co2  1  0.99999500  0.50001600  0.49997900  1
  Co  Co3  1  0.00000700  0.99999400  0.00001300  1
  O  O4  1  0.82289100  0.74764000  0.07531200  1
  O  O5  1  0.17711700  0.25235600  0.92470100  1
  O  O6  1  0.29870000  0.20130600  0.50002600  1
  O  O7  1  0.30362200  0.69633900  0.99996200  1
  O  O8  1  0.70130200  0.79868100  0.49999000  1
  O  O9  1  0.69638000  0.30366500  0.00003600  1
  F  F10  1  0.78392300  0.25371000  0.53019200  1
  F  F11  1  0.21609300  0.74629500  0.46981800  1
