# generated using pymatgen
data_BaSrI4
_symmetry_space_group_name_H-M   'P 1'
_cell_length_a   8.21874000
_cell_length_b   8.39143300
_cell_length_c   16.71952700
_cell_angle_alpha   90.00000000
_cell_angle_beta   90.00000000
_cell_angle_gamma   90.00000000
_symmetry_Int_Tables_number   1
_chemical_formula_structural   BaSrI4
_chemical_formula_sum   'Ba4 Sr4 I16'
_cell_volume   1153.09571984
_cell_formula_units_Z   4
loop_
 _symmetry_equiv_pos_site_id
 _symmetry_equiv_pos_as_xyz
  1  'x, y, z'
loop_
 _atom_site_type_symbol
 _atom_site_label
 _atom_site_symmetry_multiplicity
 _atom_site_fract_x
 _atom_site_fract_y
 _atom_site_fract_z
 _atom_site_occupancy
  Ba  Ba0  1  0.30092600  0.73906900  0.00600100  1
  Ba  Ba1  1  0.80092600  0.23906900  0.49399900  1
  Ba  Ba2  1  0.30092600  0.76093100  0.50600100  1
  Ba  Ba3  1  0.80092600  0.26093100  0.99399900  1
  Sr  Sr4  1  0.31505000  0.19563600  0.24600800  1
  Sr  Sr5  1  0.81505000  0.69563600  0.25399200  1
  Sr  Sr6  1  0.31505000  0.30436400  0.74600800  1
  Sr  Sr7  1  0.81505000  0.80436400  0.75399200  1
  I  I8  1  0.54093600  0.02603400  0.10856000  1
  I  I9  1  0.04622600  0.94373100  0.14441500  1
  I  I10  1  0.58381500  0.52552200  0.11620800  1
  I  I11  1  0.07584700  0.44352500  0.14191100  1
  I  I12  1  0.57584700  0.94352500  0.35808900  1
  I  I13  1  0.08381500  0.02552200  0.38379200  1
  I  I14  1  0.54622600  0.44373100  0.35558500  1
  I  I15  1  0.04093600  0.52603400  0.39144000  1
  I  I16  1  0.54093600  0.47396600  0.60856000  1
  I  I17  1  0.04622600  0.55626900  0.64441500  1
  I  I18  1  0.58381500  0.97447800  0.61620800  1
  I  I19  1  0.07584700  0.05647500  0.64191100  1
  I  I20  1  0.57584700  0.55647500  0.85808900  1
  I  I21  1  0.08381500  0.47447800  0.88379200  1
  I  I22  1  0.54622600  0.05626900  0.85558500  1
  I  I23  1  0.04093600  0.97396600  0.89144000  1
