# generated using pymatgen
data_H3CSNOF2
_symmetry_space_group_name_H-M   'P 1'
_cell_length_a   5.80459200
_cell_length_b   7.10520453
_cell_length_c   7.77533028
_cell_angle_alpha   73.63355226
_cell_angle_beta   83.39700536
_cell_angle_gamma   85.54362934
_symmetry_Int_Tables_number   1
_chemical_formula_structural   H3CSNOF2
_chemical_formula_sum   'H6 C2 S2 N2 O2 F4'
_cell_volume   305.29609463
_cell_formula_units_Z   2
loop_
 _symmetry_equiv_pos_site_id
 _symmetry_equiv_pos_as_xyz
  1  'x, y, z'
loop_
 _atom_site_type_symbol
 _atom_site_label
 _atom_site_symmetry_multiplicity
 _atom_site_fract_x
 _atom_site_fract_y
 _atom_site_fract_z
 _atom_site_occupancy
  H  H0  1  0.74964400  0.60525900  0.48814300  1
  H  H1  1  0.25035600  0.39474100  0.51185700  1
  H  H2  1  0.63468500  0.52267100  0.71784600  1
  H  H3  1  0.36531500  0.47732900  0.28215400  1
  H  H4  1  0.55298400  0.76302400  0.58270300  1
  H  H5  1  0.44701600  0.23697600  0.41729700  1
  C  C6  1  0.69550500  0.65115400  0.61054000  1
  C  C7  1  0.30449500  0.34884600  0.38946000  1
  S  S8  1  0.90745900  0.82875700  0.79838800  1
  S  S9  1  0.09254100  0.17124300  0.20161200  1
  N  N10  1  0.89900700  0.72760000  0.65846200  1
  N  N11  1  0.10099300  0.27240000  0.34153800  1
  O  O12  1  0.12235000  0.88979200  0.83091900  1
  O  O13  1  0.87765000  0.11020800  0.16908100  1
  F  F14  1  0.72395700  0.01288500  0.78067200  1
  F  F15  1  0.27604300  0.98711500  0.21932800  1
  F  F16  1  0.78168500  0.71230000  0.99056100  1
  F  F17  1  0.21831500  0.28770000  0.00943900  1
