# generated using pymatgen
data_La24Ni16O55
_symmetry_space_group_name_H-M   'P 1'
_cell_length_a   12.33746425
_cell_length_b   11.84083823
_cell_length_c   11.84083823
_cell_angle_alpha   117.20827932
_cell_angle_beta   108.20831946
_cell_angle_gamma   108.20831946
_symmetry_Int_Tables_number   1
_chemical_formula_structural   La24Ni16O55
_chemical_formula_sum   'La24 Ni16 O55'
_cell_volume   1230.91651070
_cell_formula_units_Z   1
loop_
 _symmetry_equiv_pos_site_id
 _symmetry_equiv_pos_as_xyz
  1  'x, y, z'
loop_
 _atom_site_type_symbol
 _atom_site_label
 _atom_site_symmetry_multiplicity
 _atom_site_fract_x
 _atom_site_fract_y
 _atom_site_fract_z
 _atom_site_occupancy
  La  La0  1  0.13427128  0.86705778  0.86705778  1
  La  La1  1  -0.00000000  0.50000000  0.50000000  1
  La  La2  1  -0.00000000  0.67824967  0.32175033  1
  La  La3  1  -0.00000000  0.32175033  0.67824967  1
  La  La4  1  0.12494047  0.69438907  0.05301598  1
  La  La5  1  0.37013990  0.63030037  0.63030037  1
  La  La6  1  0.12494047  0.05301598  0.69438907  1
  La  La7  1  0.37442461  0.80290620  0.44538653  1
  La  La8  1  0.37442461  0.44538653  0.80290620  1
  La  La9  1  0.50000000  0.17863224  0.82136776  1
  La  La10  1  0.24977017  0.42845843  0.07093468  1
  La  La11  1  0.75022983  0.92906532  0.57154157  1
  La  La12  1  0.27069585  0.27047178  0.27047178  1
  La  La13  1  0.24977017  0.07093468  0.42845843  1
  La  La14  1  0.50000000  0.82136776  0.17863224  1
  La  La15  1  0.72930415  0.72952822  0.72952822  1
  La  La16  1  0.75022983  0.57154157  0.92906532  1
  La  La17  1  0.87505953  0.94698402  0.30561093  1
  La  La18  1  0.62986010  0.36969963  0.36969963  1
  La  La19  1  0.62557539  0.19709380  0.55461347  1
  La  La20  1  0.87505953  0.30561093  0.94698402  1
  La  La21  1  0.62557539  0.55461347  0.19709380  1
  La  La22  1  0.50000000  -0.00000000  -0.00000000  1
  La  La23  1  0.86572872  0.13294222  0.13294222  1
  Ni  Ni24  1  0.25029772  0.64947616  0.85021177  1
  Ni  Ni25  1  0.25029772  0.85021177  0.64947616  1
  Ni  Ni26  1  -0.00000000  0.10260604  0.89739396  1
  Ni  Ni27  1  0.00000000  0.89739396  0.10260604  1
  Ni  Ni28  1  0.12413776  0.47075657  0.27459421  1
  Ni  Ni29  1  0.62729722  0.97398486  0.77766679  1
  Ni  Ni30  1  0.62729722  0.77766679  0.97398486  1
  Ni  Ni31  1  0.12413776  0.27459421  0.47075657  1
  Ni  Ni32  1  0.50000000  0.39992330  0.60007670  1
  Ni  Ni33  1  0.50000000  0.60007670  0.39992330  1
  Ni  Ni34  1  0.37270278  0.02601514  0.22233321  1
  Ni  Ni35  1  0.37270278  0.22233321  0.02601514  1
  Ni  Ni36  1  0.87586224  0.52924343  0.72540579  1
  Ni  Ni37  1  0.87586224  0.72540579  0.52924343  1
  Ni  Ni38  1  0.74970228  0.14978823  0.35052384  1
  Ni  Ni39  1  0.74970228  0.35052384  0.14978823  1
  O  O40  1  0.06295982  0.58989907  0.78610642  1
  O  O41  1  0.06295982  0.78610642  0.58989907  1
  O  O42  1  -0.00000000  0.79497548  0.20502452  1
  O  O43  1  -0.00000000  0.20502452  0.79497548  1
  O  O44  1  0.24947133  0.75020225  0.75020225  1
  O  O45  1  0.24931297  0.54526377  0.95789421  1
  O  O46  1  0.24931297  0.95789421  0.54526377  1
  O  O47  1  0.18297697  0.15055667  0.97103920  1
  O  O48  1  0.43739384  0.71197283  0.91206249  1
  O  O49  1  0.43739384  0.91206249  0.71197283  1
  O  O50  1  0.18752314  0.46227215  0.66279798  1
  O  O51  1  0.18297697  0.97103920  0.15055667  1
  O  O52  1  0.18752314  0.66279798  0.46227215  1
  O  O53  1  0.36671613  0.32731799  0.91735434  1
  O  O54  1  0.12218626  0.16251410  0.57202076  1
  O  O55  1  0.12802527  0.38713668  0.38713668  1
  O  O56  1  0.36671613  0.91735434  0.32731799  1
  O  O57  1  0.61353964  0.87257202  0.87257202  1
  O  O58  1  0.12218626  0.57202076  0.16251410  1
  O  O59  1  0.06054797  0.27288025  0.09293939  1
  O  O60  1  0.31183530  0.83916783  0.03505372  1
  O  O61  1  0.31183530  0.03505372  0.83916783  1
  O  O62  1  0.31230563  0.33868033  0.53498203  1
  O  O63  1  0.56328594  0.58973964  0.78568541  1
  O  O64  1  0.06054797  0.09293939  0.27288025  1
  O  O65  1  0.31230563  0.53498203  0.33868033  1
  O  O66  1  0.56328594  0.78568541  0.58973964  1
  O  O67  1  0.50000000  0.29412567  0.70587433  1
  O  O68  1  0.50000000  0.70587433  0.29412567  1
  O  O69  1  0.50000000  0.50000000  0.50000000  1
  O  O70  1  0.68816470  0.96494628  0.16083217  1
  O  O71  1  0.68769437  0.46501797  0.66131967  1
  O  O72  1  0.43671406  0.41026036  0.21431459  1
  O  O73  1  0.68816470  0.16083217  0.96494628  1
  O  O74  1  0.93945203  0.90706061  0.72711975  1
  O  O75  1  0.68769437  0.66131967  0.46501797  1
  O  O76  1  0.43671406  0.21431459  0.41026036  1
  O  O77  1  0.93945203  0.72711975  0.90706061  1
  O  O78  1  0.38646036  0.12742798  0.12742798  1
  O  O79  1  0.63328387  0.67268201  0.08264566  1
  O  O80  1  0.87197473  0.61286332  0.61286332  1
  O  O81  1  0.87781374  0.42797924  0.83748590  1
  O  O82  1  0.87781374  0.83748590  0.42797924  1
  O  O83  1  0.63328387  0.08264566  0.67268201  1
  O  O84  1  0.56260616  0.08793751  0.28802717  1
  O  O85  1  0.81702303  0.02896080  0.84944333  1
  O  O86  1  0.81247686  0.53772785  0.33720202  1
  O  O87  1  0.81247686  0.33720202  0.53772785  1
  O  O88  1  0.56260616  0.28802717  0.08793751  1
  O  O89  1  0.81702303  0.84944333  0.02896080  1
  O  O90  1  0.75068703  0.04210579  0.45473623  1
  O  O91  1  0.75052867  0.24979775  0.24979775  1
  O  O92  1  0.75068703  0.45473623  0.04210579  1
  O  O93  1  0.93704018  0.41010093  0.21389358  1
  O  O94  1  0.93704018  0.21389358  0.41010093  1
