# generated using pymatgen
data_BaSr2I6
_symmetry_space_group_name_H-M   'P 1'
_cell_length_a   10.27399625
_cell_length_b   10.27399625
_cell_length_c   12.02312820
_cell_angle_alpha   67.83039321
_cell_angle_beta   67.83039321
_cell_angle_gamma   48.51737200
_symmetry_Int_Tables_number   1
_chemical_formula_structural   BaSr2I6
_chemical_formula_sum   'Ba2 Sr4 I12'
_cell_volume   865.49546371
_cell_formula_units_Z   2
loop_
 _symmetry_equiv_pos_site_id
 _symmetry_equiv_pos_as_xyz
  1  'x, y, z'
loop_
 _atom_site_type_symbol
 _atom_site_label
 _atom_site_symmetry_multiplicity
 _atom_site_fract_x
 _atom_site_fract_y
 _atom_site_fract_z
 _atom_site_occupancy
  Ba  Ba0  1  0.94629300  0.05370700  0.25000000  1
  Ba  Ba1  1  0.05370700  0.94629300  0.75000000  1
  Sr  Sr2  1  0.41563700  0.30416000  0.63742100  1
  Sr  Sr3  1  0.69584000  0.58436300  0.86257900  1
  Sr  Sr4  1  0.30416000  0.41563700  0.13742100  1
  Sr  Sr5  1  0.58436300  0.69584000  0.36257900  1
  I  I6  1  0.92092500  0.70766400  0.28327900  1
  I  I7  1  0.78873200  0.27496000  0.51253300  1
  I  I8  1  0.49597600  0.77679400  0.62984200  1
  I  I9  1  0.70766400  0.92092500  0.78327900  1
  I  I10  1  0.27496000  0.78873200  0.01253300  1
  I  I11  1  0.22320600  0.50402400  0.87015800  1
  I  I12  1  0.77679400  0.49597600  0.12984200  1
  I  I13  1  0.72504000  0.21126800  0.98746700  1
  I  I14  1  0.29233600  0.07907500  0.21672100  1
  I  I15  1  0.50402400  0.22320600  0.37015800  1
  I  I16  1  0.21126800  0.72504000  0.48746700  1
  I  I17  1  0.07907500  0.29233600  0.71672100  1
