# generated using pymatgen
data_Fe3OF7
_symmetry_space_group_name_H-M   'P 1'
_cell_length_a   6.10788186
_cell_length_b   6.10788186
_cell_length_c   10.51377050
_cell_angle_alpha   73.32106646
_cell_angle_beta   73.32106646
_cell_angle_gamma   56.99988606
_symmetry_Int_Tables_number   1
_chemical_formula_structural   Fe3OF7
_chemical_formula_sum   'Fe6 O2 F14'
_cell_volume   310.91350126
_cell_formula_units_Z   2
loop_
 _symmetry_equiv_pos_site_id
 _symmetry_equiv_pos_as_xyz
  1  'x, y, z'
loop_
 _atom_site_type_symbol
 _atom_site_label
 _atom_site_symmetry_multiplicity
 _atom_site_fract_x
 _atom_site_fract_y
 _atom_site_fract_z
 _atom_site_occupancy
  Fe  Fe0  1  0.05831000  0.57399100  0.30920800  1
  Fe  Fe1  1  0.33526200  0.77682600  0.06917300  1
  Fe  Fe2  1  0.05839700  0.05742700  0.30589300  1
  Fe  Fe3  1  0.05742700  0.05839700  0.80589300  1
  Fe  Fe4  1  0.57399100  0.05831000  0.80920800  1
  Fe  Fe5  1  0.77682600  0.33526200  0.56917300  1
  O  O6  1  0.99003600  0.90662800  0.19237700  1
  O  O7  1  0.90662800  0.99003600  0.69237700  1
  F  F8  1  0.17106200  0.70168700  0.41801100  1
  F  F9  1  0.41714800  0.44231300  0.18899300  1
  F  F10  1  0.15253000  0.20359600  0.42864100  1
  F  F11  1  0.72752200  0.20122600  0.43680200  1
  F  F12  1  0.40578400  0.92849900  0.18473800  1
  F  F13  1  0.44231300  0.41714800  0.68899300  1
  F  F14  1  0.20122600  0.72752200  0.93680200  1
  F  F15  1  0.70168700  0.17106200  0.91801100  1
  F  F16  1  0.95863300  0.42002900  0.20949700  1
  F  F17  1  0.72686400  0.65808700  0.44084200  1
  F  F18  1  0.42002900  0.95863300  0.70949700  1
  F  F19  1  0.20359600  0.15253000  0.92864100  1
  F  F20  1  0.65808700  0.72686400  0.94084200  1
  F  F21  1  0.92849900  0.40578400  0.68473800  1
