# generated using pymatgen
data_BaLaCl5
_symmetry_space_group_name_H-M   'P 1'
_cell_length_a   7.81522857
_cell_length_b   7.81522857
_cell_length_c   10.80592217
_cell_angle_alpha   69.86561971
_cell_angle_beta   69.86561971
_cell_angle_gamma   71.38420317
_symmetry_Int_Tables_number   1
_chemical_formula_structural   BaLaCl5
_chemical_formula_sum   'Ba2 La2 Cl10'
_cell_volume   566.51379636
_cell_formula_units_Z   2
loop_
 _symmetry_equiv_pos_site_id
 _symmetry_equiv_pos_as_xyz
  1  'x, y, z'
loop_
 _atom_site_type_symbol
 _atom_site_label
 _atom_site_symmetry_multiplicity
 _atom_site_fract_x
 _atom_site_fract_y
 _atom_site_fract_z
 _atom_site_occupancy
  Ba  Ba0  1  0.45488000  0.54512000  0.25000000  1
  Ba  Ba1  1  0.54512000  0.45488000  0.75000000  1
  La  La2  1  0.00000000  0.00000000  0.50000000  1
  La  La3  1  0.00000000  0.00000000  0.00000000  1
  Cl  Cl4  1  0.74245000  0.78460700  0.12215600  1
  Cl  Cl5  1  0.70554300  0.31739500  0.03030300  1
  Cl  Cl6  1  0.78460700  0.74245000  0.62215600  1
  Cl  Cl7  1  0.09685300  0.90314700  0.25000000  1
  Cl  Cl8  1  0.68260500  0.29445700  0.46969700  1
  Cl  Cl9  1  0.31739500  0.70554300  0.53030300  1
  Cl  Cl10  1  0.90314700  0.09685300  0.75000000  1
  Cl  Cl11  1  0.21539300  0.25755000  0.37784400  1
  Cl  Cl12  1  0.29445700  0.68260500  0.96969700  1
  Cl  Cl13  1  0.25755000  0.21539300  0.87784400  1
