data_image0
_chemical_formula_structural       F5U
_chemical_formula_sum              "F5 U1"
_cell_length_a       4.39158
_cell_length_b       4.77592
_cell_length_c       4.77592
_cell_angle_alpha    102.203
_cell_angle_beta     62.6282
_cell_angle_gamma    117.372

_space_group_name_H-M_alt    "P 1"
_space_group_IT_number       1

loop_
  _space_group_symop_operation_xyz
  'x, y, z'

loop_
  _atom_site_type_symbol
  _atom_site_label
  _atom_site_symmetry_multiplicity
  _atom_site_fract_x
  _atom_site_fract_y
  _atom_site_fract_z
  _atom_site_occupancy
  F   F1        1.0  0.50000  0.00000  0.00000  1.0000
  F   F2        1.0  0.11700  0.43300  0.20000  1.0000
  F   F3        1.0  0.68400  0.80000  0.43300  1.0000
  F   F4        1.0  0.31600  0.20000  0.56700  1.0000
  F   F5        1.0  0.88300  0.56700  0.80000  1.0000
  U   U1        1.0  0.00000  0.00000  0.00000  1.0000
