# generated using pymatgen
data_KB2SbO6
_symmetry_space_group_name_H-M   'P 1'
_cell_length_a   6.89307131
_cell_length_b   6.89307131
_cell_length_c   7.26887321
_cell_angle_alpha   94.11116602
_cell_angle_beta   116.00026864
_cell_angle_gamma   117.52428708
_symmetry_Int_Tables_number   1
_chemical_formula_structural   KB2SbO6
_chemical_formula_sum   'K2 B4 Sb2 O12'
_cell_volume   258.47470344
_cell_formula_units_Z   2
loop_
 _symmetry_equiv_pos_site_id
 _symmetry_equiv_pos_as_xyz
  1  'x, y, z'
loop_
 _atom_site_type_symbol
 _atom_site_label
 _atom_site_symmetry_multiplicity
 _atom_site_fract_x
 _atom_site_fract_y
 _atom_site_fract_z
 _atom_site_occupancy
  K  K0  1  0.75172500  0.15480800  0.94183400  1
  K  K1  1  0.28702600  0.19010800  0.44183400  1
  B  B2  1  0.10656000  0.59124600  0.43721600  1
  B  B3  1  0.34597000  0.33065600  0.93721600  1
  B  B4  1  0.82073300  0.28479900  0.52983900  1
  B  B5  1  0.74504000  0.70910700  0.02983900  1
  Sb  Sb6  1  0.02185800  0.77684900  0.76826900  1
  Sb  Sb7  1  0.49142000  0.74641100  0.26826900  1
  O  O8  1  0.34883600  0.84950200  0.02253200  1
  O  O9  1  0.67302900  0.67369500  0.52253200  1
  O  O10  1  0.64008500  0.05579600  0.47462200  1
  O  O11  1  0.91882600  0.83453700  0.97462200  1
  O  O12  1  0.86894700  0.43223500  0.70552500  1
  O  O13  1  0.77328900  0.83657800  0.20552500  1
  O  O14  1  0.17934000  0.78050600  0.58770100  1
  O  O15  1  0.30719500  0.40836200  0.08770100  1
  O  O16  1  0.93934300  0.35962700  0.41257600  1
  O  O17  1  0.55294900  0.47323300  0.91257600  1
  O  O18  1  0.17876500  0.60973400  0.28853700  1
  O  O19  1  0.17880300  0.10977200  0.78853700  1
