# generated using pymatgen
data_BiOF
_symmetry_space_group_name_H-M   'P 1'
_cell_length_a   7.26448658
_cell_length_b   6.87229926
_cell_length_c   6.04304824
_cell_angle_alpha   68.10440854
_cell_angle_beta   61.37480237
_cell_angle_gamma   50.52078909
_symmetry_Int_Tables_number   1
_chemical_formula_structural   BiOF
_chemical_formula_sum   'Bi4 O4 F4'
_cell_volume   203.35811764
_cell_formula_units_Z   4
loop_
 _symmetry_equiv_pos_site_id
 _symmetry_equiv_pos_as_xyz
  1  'x, y, z'
loop_
 _atom_site_type_symbol
 _atom_site_label
 _atom_site_symmetry_multiplicity
 _atom_site_fract_x
 _atom_site_fract_y
 _atom_site_fract_z
 _atom_site_occupancy
  Bi  Bi0  1  0.29839300  0.70160700  0.29839300  1
  Bi  Bi1  1  0.54839300  0.95160700  0.54839300  1
  Bi  Bi2  1  0.70160700  0.29839300  0.70160700  1
  Bi  Bi3  1  0.95160700  0.54839300  0.95160700  1
  O  O4  1  0.63227900  0.63227900  0.36772100  1
  O  O5  1  0.36772100  0.36772100  0.63227900  1
  O  O6  1  0.88227900  0.88227900  0.61772100  1
  O  O7  1  0.61772100  0.61772100  0.88227900  1
  F  F8  1  0.12500000  0.12500000  0.12500000  1
  F  F9  1  0.12500000  0.12500000  0.62500000  1
  F  F10  1  0.62500000  0.12500000  0.12500000  1
  F  F11  1  0.12500000  0.62500000  0.12500000  1
