# generated using pymatgen
data_Co2OF3
_symmetry_space_group_name_H-M   'P 1'
_cell_length_a   4.71616600
_cell_length_b   5.66701773
_cell_length_c   13.31287893
_cell_angle_alpha   78.46959339
_cell_angle_beta   89.92192500
_cell_angle_gamma   89.69228869
_symmetry_Int_Tables_number   1
_chemical_formula_structural   Co2OF3
_chemical_formula_sum   'Co10 O5 F15'
_cell_volume   348.62225387
_cell_formula_units_Z   5
loop_
 _symmetry_equiv_pos_site_id
 _symmetry_equiv_pos_as_xyz
  1  'x, y, z'
loop_
 _atom_site_type_symbol
 _atom_site_label
 _atom_site_symmetry_multiplicity
 _atom_site_fract_x
 _atom_site_fract_y
 _atom_site_fract_z
 _atom_site_occupancy
  Co  Co0  1  0.51650200  0.51179000  0.00192900  1
  Co  Co1  1  0.49512900  0.69307000  0.40174400  1
  Co  Co2  1  0.54878200  0.27538400  0.59604900  1
  Co  Co3  1  0.45929300  0.09530700  0.21563600  1
  Co  Co4  1  0.51103600  0.90762500  0.79242700  1
  Co  Co5  1  0.98664800  0.20958800  0.40202800  1
  Co  Co6  1  0.03847700  0.39817500  0.81583100  1
  Co  Co7  1  0.97041600  0.59873600  0.19084700  1
  Co  Co8  1  0.99818500  0.79712000  0.60189300  1
  Co  Co9  1  0.98978800  0.00096500  0.99923500  1
  O  O10  1  0.78815200  0.67999800  0.05401900  1
  O  O11  1  0.69683100  0.99449800  0.65464900  1
  O  O12  1  0.71183700  0.37442300  0.45798100  1
  O  O13  1  0.29150100  0.02753100  0.33806900  1
  O  O14  1  0.20459600  0.33128600  0.93839300  1
  F  F15  1  0.79461800  0.27729100  0.25901000  1
  F  F16  1  0.80436200  0.09386400  0.85699400  1
  F  F17  1  0.81010400  0.87724000  0.45839400  1
  F  F18  1  0.81259000  0.47536600  0.66974800  1
  F  F19  1  0.67887000  0.17533100  0.06934500  1
  F  F20  1  0.70012700  0.58113100  0.85816600  1
  F  F21  1  0.68933000  0.78856400  0.25900900  1
  F  F22  1  0.29926700  0.22780800  0.73329700  1
  F  F23  1  0.30583200  0.82503600  0.93456300  1
  F  F24  1  0.29843300  0.41464500  0.14165200  1
  F  F25  1  0.31497200  0.59912900  0.54642000  1
  F  F26  1  0.19133500  0.91706400  0.13927300  1
  F  F27  1  0.20634100  0.11847800  0.53559000  1
  F  F28  1  0.19723200  0.71346900  0.74338700  1
  F  F29  1  0.18941300  0.52008600  0.33441900  1
