# generated using pymatgen
data_Ce2Y2O7
_symmetry_space_group_name_H-M   'P 1'
_cell_length_a   3.85038900
_cell_length_b   3.85038900
_cell_length_c   10.89999600
_cell_angle_alpha   90.00000000
_cell_angle_beta   90.00000000
_cell_angle_gamma   90.00000000
_symmetry_Int_Tables_number   1
_chemical_formula_structural   Ce2Y2O7
_chemical_formula_sum   'Ce2 Y2 O7'
_cell_volume   161.59784112
_cell_formula_units_Z   1
loop_
 _symmetry_equiv_pos_site_id
 _symmetry_equiv_pos_as_xyz
  1  'x, y, z'
loop_
 _atom_site_type_symbol
 _atom_site_label
 _atom_site_symmetry_multiplicity
 _atom_site_fract_x
 _atom_site_fract_y
 _atom_site_fract_z
 _atom_site_occupancy
  Ce  Ce0  1  0.50000000  0.00000000  0.37454300  1
  Ce  Ce1  1  0.00000000  0.50000000  0.62545700  1
  Y  Y2  1  0.50000000  0.00000000  0.85959000  1
  Y  Y3  1  0.00000000  0.50000000  0.14041000  1
  O  O4  1  0.50000000  0.50000000  0.00000000  1
  O  O5  1  0.00000000  0.00000000  0.23460000  1
  O  O6  1  0.50000000  0.50000000  0.25993300  1
  O  O7  1  0.50000000  0.50000000  0.50000000  1
  O  O8  1  0.00000000  0.00000000  0.50000000  1
  O  O9  1  0.00000000  0.00000000  0.76540000  1
  O  O10  1  0.50000000  0.50000000  0.74006700  1
