# generated using pymatgen
data_Cs2CeO3
_symmetry_space_group_name_H-M   'P 1'
_cell_length_a   6.89643309
_cell_length_b   7.48297799
_cell_length_c   14.61778750
_cell_angle_alpha   90.04104867
_cell_angle_beta   90.02821577
_cell_angle_gamma   117.35448511
_symmetry_Int_Tables_number   1
_chemical_formula_structural   Cs2CeO3
_chemical_formula_sum   'Cs8 Ce4 O12'
_cell_volume   670.01058587
_cell_formula_units_Z   4
loop_
 _symmetry_equiv_pos_site_id
 _symmetry_equiv_pos_as_xyz
  1  'x, y, z'
loop_
 _atom_site_type_symbol
 _atom_site_label
 _atom_site_symmetry_multiplicity
 _atom_site_fract_x
 _atom_site_fract_y
 _atom_site_fract_z
 _atom_site_occupancy
  Cs  Cs0  1  0.37277400  0.74319700  0.08291300  1
  Cs  Cs1  1  0.05396300  0.10899800  0.13269600  1
  Cs  Cs2  1  0.12632100  0.25179400  0.58438900  1
  Cs  Cs3  1  0.44558900  0.89069400  0.63221500  1
  Cs  Cs4  1  0.55508300  0.10377400  0.36379300  1
  Cs  Cs5  1  0.87844100  0.74793600  0.41725100  1
  Cs  Cs6  1  0.94238000  0.88976100  0.86665900  1
  Cs  Cs7  1  0.62293700  0.24938100  0.91858600  1
  Ce  Ce8  1  0.23801800  0.47711900  0.34106100  1
  Ce  Ce9  1  0.25900600  0.52030700  0.84003200  1
  Ce  Ce10  1  0.75855500  0.52147600  0.66010000  1
  Ce  Ce11  1  0.74032100  0.47832300  0.16115500  1
  O  O12  1  0.02333700  0.54608200  0.25117600  1
  O  O13  1  0.34052600  0.68284900  0.44566900  1
  O  O14  1  0.08266800  0.17684400  0.36862200  1
  O  O15  1  0.16011500  0.32157300  0.94700600  1
  O  O16  1  0.40871700  0.82091900  0.86810000  1
  O  O17  1  0.47642500  0.45346900  0.75101200  1
  O  O18  1  0.51759500  0.53626200  0.25068100  1
  O  O19  1  0.83821700  0.68104600  0.05551400  1
  O  O20  1  0.59518700  0.17830400  0.13133600  1
  O  O21  1  0.90541000  0.82271400  0.63319600  1
  O  O22  1  0.66285100  0.32373700  0.55305300  1
  O  O23  1  0.98095500  0.45934800  0.74820500  1
