# generated using pymatgen
data_BiCO3
_symmetry_space_group_name_H-M   'P 1'
_cell_length_a   5.21368500
_cell_length_b   6.97756918
_cell_length_c   8.63450189
_cell_angle_alpha   99.08810401
_cell_angle_beta   90.02579952
_cell_angle_gamma   90.62654414
_symmetry_Int_Tables_number   1
_chemical_formula_structural   BiCO3
_chemical_formula_sum   'Bi4 C4 O12'
_cell_volume   310.15074918
_cell_formula_units_Z   4
loop_
 _symmetry_equiv_pos_site_id
 _symmetry_equiv_pos_as_xyz
  1  'x, y, z'
loop_
 _atom_site_type_symbol
 _atom_site_label
 _atom_site_symmetry_multiplicity
 _atom_site_fract_x
 _atom_site_fract_y
 _atom_site_fract_z
 _atom_site_occupancy
  Bi  Bi0  1  0.74543100  0.70346600  0.15779900  1
  Bi  Bi1  1  0.24789500  0.86640600  0.66344600  1
  Bi  Bi2  1  0.75210500  0.13359400  0.33655400  1
  Bi  Bi3  1  0.25456900  0.29653400  0.84220100  1
  C  C4  1  0.74619100  0.83456900  0.77929700  1
  C  C5  1  0.23864400  0.65358000  0.27668400  1
  C  C6  1  0.76135600  0.34642000  0.72331600  1
  C  C7  1  0.25380900  0.16543100  0.22070300  1
  O  O8  1  0.53178500  0.80116100  0.84814500  1
  O  O9  1  0.96015200  0.80173500  0.84726900  1
  O  O10  1  0.74514600  0.89830000  0.64644100  1
  O  O11  1  0.23408600  0.69650500  0.13622000  1
  O  O12  1  0.45563100  0.63513000  0.34683500  1
  O  O13  1  0.02347600  0.63369000  0.34980600  1
  O  O14  1  0.97652400  0.36631000  0.65019400  1
  O  O15  1  0.54436900  0.36487000  0.65316500  1
  O  O16  1  0.76591400  0.30349500  0.86378000  1
  O  O17  1  0.25485400  0.10170000  0.35355900  1
  O  O18  1  0.03984800  0.19826500  0.15273100  1
  O  O19  1  0.46821500  0.19883900  0.15185500  1
