# generated using pymatgen
data_ZnP2C4NO8
_symmetry_space_group_name_H-M   'P 1'
_cell_length_a   11.16017973
_cell_length_b   9.26293369
_cell_length_c   9.25945117
_cell_angle_alpha   74.10174524
_cell_angle_beta   52.96339670
_cell_angle_gamma   52.93485807
_symmetry_Int_Tables_number   1
_chemical_formula_structural   ZnP2C4NO8
_chemical_formula_sum   'Zn2 P4 C8 N2 O16'
_cell_volume   603.71081776
_cell_formula_units_Z   2
loop_
 _symmetry_equiv_pos_site_id
 _symmetry_equiv_pos_as_xyz
  1  'x, y, z'
loop_
 _atom_site_type_symbol
 _atom_site_label
 _atom_site_symmetry_multiplicity
 _atom_site_fract_x
 _atom_site_fract_y
 _atom_site_fract_z
 _atom_site_occupancy
  Zn  Zn0  1  0.24958000  0.24958000  0.75042000  1
  Zn  Zn1  1  0.49958000  0.49958000  0.00042000  1
  P  P2  1  0.25297300  0.93749400  0.00856400  1
  P  P3  1  0.93749400  0.25297300  0.80096900  1
  P  P4  1  0.24143600  0.44903100  0.99702700  1
  P  P5  1  0.44903100  0.24143600  0.31250600  1
  C  C6  1  0.64130800  0.60708800  0.27737400  1
  C  C7  1  0.60708800  0.64130800  0.47423000  1
  C  C8  1  0.97262600  0.77577000  0.60869200  1
  C  C9  1  0.77577000  0.97262600  0.64291200  1
  C  C10  1  0.47791300  0.60204600  0.53846000  1
  C  C11  1  0.60204600  0.47791300  0.38158200  1
  C  C12  1  0.71154000  0.86841800  0.77208700  1
  C  C13  1  0.86841800  0.71154000  0.64795400  1
  N  N14  1  0.69126700  0.69126700  0.30873300  1
  N  N15  1  0.94126700  0.94126700  0.55873300  1
  O  O16  1  0.34602600  0.00845900  0.83093300  1
  O  O17  1  0.00845900  0.34602600  0.81458300  1
  O  O18  1  0.41906700  0.43541700  0.90397400  1
  O  O19  1  0.43541700  0.41906700  0.24154100  1
  O  O20  1  0.39884100  0.75831000  0.02574600  1
  O  O21  1  0.75831000  0.39884100  0.81710300  1
  O  O22  1  0.22425400  0.43289700  0.85115900  1
  O  O23  1  0.43289700  0.22425400  0.49169000  1
  O  O24  1  0.12778300  0.90252500  0.01672200  1
  O  O25  1  0.90252500  0.12778300  0.95297000  1
  O  O26  1  0.23327800  0.29703000  0.12221700  1
  O  O27  1  0.29703000  0.23327800  0.34747500  1
  O  O28  1  0.10459400  0.08359400  0.17900500  1
  O  O29  1  0.08359400  0.10459400  0.63280700  1
  O  O30  1  0.07099500  0.61719300  0.14540600  1
  O  O31  1  0.61719300  0.07099500  0.16640600  1
