# generated using pymatgen
data_Y5Ge3C
_symmetry_space_group_name_H-M   'P 1'
_cell_length_a   8.52872935
_cell_length_b   8.52872966
_cell_length_c   6.46213300
_cell_angle_alpha   90.00000000
_cell_angle_beta   90.00000000
_cell_angle_gamma   119.87163178
_symmetry_Int_Tables_number   1
_chemical_formula_structural   Y5Ge3C
_chemical_formula_sum   'Y10 Ge6 C2'
_cell_volume   407.60126509
_cell_formula_units_Z   2
loop_
 _symmetry_equiv_pos_site_id
 _symmetry_equiv_pos_as_xyz
  1  'x, y, z'
loop_
 _atom_site_type_symbol
 _atom_site_label
 _atom_site_symmetry_multiplicity
 _atom_site_fract_x
 _atom_site_fract_y
 _atom_site_fract_z
 _atom_site_occupancy
  Y  Y0  1  0.66616900  0.33384000  0.50000000  1
  Y  Y1  1  0.33384000  0.66616900  0.50000000  1
  Y  Y2  1  0.33383100  0.66616000  0.00000000  1
  Y  Y3  1  0.66616000  0.33383100  0.00000000  1
  Y  Y4  1  0.77732500  0.77732500  0.25000000  1
  Y  Y5  1  0.22132200  0.00032800  0.24999900  1
  Y  Y6  1  0.00032800  0.22132200  0.24999900  1
  Y  Y7  1  0.22267500  0.22267500  0.75000000  1
  Y  Y8  1  0.77867800  0.99967200  0.74999900  1
  Y  Y9  1  0.99967200  0.77867800  0.74999900  1
  Ge  Ge10  1  0.40667100  0.40667100  0.24999200  1
  Ge  Ge11  1  0.59278600  0.99999000  0.25001000  1
  Ge  Ge12  1  0.99999000  0.59278600  0.25001000  1
  Ge  Ge13  1  0.59332900  0.59332900  0.74999200  1
  Ge  Ge14  1  0.40721400  0.00001000  0.75001000  1
  Ge  Ge15  1  0.00001000  0.40721400  0.75001000  1
  C  C16  1  0.00000600  0.00000600  0.49998900  1
  C  C17  1  0.99999400  0.99999400  0.99998900  1
