data_image0
_chemical_formula_structural       As2Ba2Mn2O
_chemical_formula_sum              "As2 Ba2 Mn2 O1"
_cell_length_a       4.29381
_cell_length_b       6.5674
_cell_length_c       7.11626
_cell_angle_alpha    100.732
_cell_angle_beta     107.559
_cell_angle_gamma    109.081

_space_group_name_H-M_alt    "P 1"
_space_group_IT_number       1

loop_
  _space_group_symop_operation_xyz
  'x, y, z'

loop_
  _atom_site_type_symbol
  _atom_site_label
  _atom_site_symmetry_multiplicity
  _atom_site_fract_x
  _atom_site_fract_y
  _atom_site_fract_z
  _atom_site_occupancy
  As  As1       1.0  0.96800  0.65300  0.28300  1.0000
  As  As2       1.0  0.03200  0.34700  0.71700  1.0000
  Ba  Ba1       1.0  0.24800  0.19700  0.29900  1.0000
  Ba  Ba2       1.0  0.75200  0.80300  0.70100  1.0000
  Mn  Mn1       1.0  0.38900  0.70100  0.07700  1.0000
  Mn  Mn2       1.0  0.61100  0.29900  0.92300  1.0000
  O   O1        1.0  0.50000  0.00000  0.00000  1.0000
