# generated using pymatgen
data_VO2
_symmetry_space_group_name_H-M   'P 1'
_cell_length_a   8.60702200
_cell_length_b   8.60702200
_cell_length_c   7.76555600
_cell_angle_alpha   90.00000000
_cell_angle_beta   90.00000000
_cell_angle_gamma   90.00000000
_symmetry_Int_Tables_number   1
_chemical_formula_structural   VO2
_chemical_formula_sum   'V16 O32'
_cell_volume   575.27881610
_cell_formula_units_Z   16
loop_
 _symmetry_equiv_pos_site_id
 _symmetry_equiv_pos_as_xyz
  1  'x, y, z'
loop_
 _atom_site_type_symbol
 _atom_site_label
 _atom_site_symmetry_multiplicity
 _atom_site_fract_x
 _atom_site_fract_y
 _atom_site_fract_z
 _atom_site_occupancy
  V  V0  1  0.98170600  0.20167400  0.87536500  1
  V  V1  1  0.20167400  0.98170600  0.62463500  1
  V  V2  1  0.79832600  0.98170600  0.12463500  1
  V  V3  1  0.51829400  0.29832600  0.12463500  1
  V  V4  1  0.79832600  0.01829400  0.62463500  1
  V  V5  1  0.01829400  0.20167400  0.37536500  1
  V  V6  1  0.48170600  0.29832600  0.62463500  1
  V  V7  1  0.20167400  0.01829400  0.12463500  1
  V  V8  1  0.70167400  0.51829400  0.87536500  1
  V  V9  1  0.70167400  0.48170600  0.37536500  1
  V  V10  1  0.01829400  0.79832600  0.87536500  1
  V  V11  1  0.51829400  0.70167400  0.62463500  1
  V  V12  1  0.29832600  0.51829400  0.37536500  1
  V  V13  1  0.48170600  0.70167400  0.12463500  1
  V  V14  1  0.29832600  0.48170600  0.87536500  1
  V  V15  1  0.98170600  0.79832600  0.37536500  1
  O  O16  1  0.99518200  0.84980800  0.12525000  1
  O  O17  1  0.34980800  0.50481800  0.12525000  1
  O  O18  1  0.50481800  0.65019200  0.87475000  1
  O  O19  1  0.83910100  0.66046200  0.87475300  1
  O  O20  1  0.34980800  0.49518200  0.62525000  1
  O  O21  1  0.16046200  0.33910100  0.37475300  1
  O  O22  1  0.16089900  0.33953800  0.87475300  1
  O  O23  1  0.49518200  0.65019200  0.37475000  1
  O  O24  1  0.33910100  0.83953800  0.62524700  1
  O  O25  1  0.16089900  0.66046200  0.37475300  1
  O  O26  1  0.33910100  0.16046200  0.12524700  1
  O  O27  1  0.00481800  0.15019200  0.12525000  1
  O  O28  1  0.50481800  0.34980800  0.37475000  1
  O  O29  1  0.84980800  0.00481800  0.87475000  1
  O  O30  1  0.66089900  0.16046200  0.62524700  1
  O  O31  1  0.66046200  0.16089900  0.12524700  1
  O  O32  1  0.83910100  0.33953800  0.37475300  1
  O  O33  1  0.65019200  0.50481800  0.62525000  1
  O  O34  1  0.15019200  0.00481800  0.37475000  1
  O  O35  1  0.15019200  0.99518200  0.87475000  1
  O  O36  1  0.66046200  0.83910100  0.62524700  1
  O  O37  1  0.00481800  0.84980800  0.62525000  1
  O  O38  1  0.99518200  0.15019200  0.62525000  1
  O  O39  1  0.65019200  0.49518200  0.12525000  1
  O  O40  1  0.16046200  0.66089900  0.87475300  1
  O  O41  1  0.66089900  0.83953800  0.12524700  1
  O  O42  1  0.84980800  0.99518200  0.37475000  1
  O  O43  1  0.33953800  0.83910100  0.12524700  1
  O  O44  1  0.33953800  0.16089900  0.62524700  1
  O  O45  1  0.83953800  0.33910100  0.87475300  1
  O  O46  1  0.83953800  0.66089900  0.37475300  1
  O  O47  1  0.49518200  0.34980800  0.87475000  1
