# generated using pymatgen
data_Ca9(WO3)20
_symmetry_space_group_name_H-M   'P 1'
_cell_length_a   12.92413229
_cell_length_b   12.92413229
_cell_length_c   17.49290734
_cell_angle_alpha   47.64644146
_cell_angle_beta   47.64644146
_cell_angle_gamma   34.18713304
_symmetry_Int_Tables_number   1
_chemical_formula_structural   Ca9(WO3)20
_chemical_formula_sum   'Ca9 W20 O60'
_cell_volume   1164.64364515
_cell_formula_units_Z   1
loop_
 _symmetry_equiv_pos_site_id
 _symmetry_equiv_pos_as_xyz
  1  'x, y, z'
loop_
 _atom_site_type_symbol
 _atom_site_label
 _atom_site_symmetry_multiplicity
 _atom_site_fract_x
 _atom_site_fract_y
 _atom_site_fract_z
 _atom_site_occupancy
  Ca  Ca0  1  0.16614900  0.16614900  0.37341400  1
  Ca  Ca1  1  0.66237300  0.66237300  0.31574700  1
  Ca  Ca2  1  0.48675600  0.48675600  0.84939700  1
  Ca  Ca3  1  0.03957100  0.03957100  0.79062900  1
  Ca  Ca4  1  0.24994400  0.24994400  0.50358400  1
  Ca  Ca5  1  0.01760900  0.01760900  0.14514300  1
  Ca  Ca6  1  0.47248700  0.47248700  0.21283300  1
  Ca  Ca7  1  0.83486500  0.83486500  0.67920900  1
  Ca  Ca8  1  0.32605200  0.32605200  0.63602900  1
  W  W9  1  0.64477600  0.14182500  0.79812400  1
  W  W10  1  0.14182500  0.64477600  0.79812400  1
  W  W11  1  0.55877200  0.06296900  0.08339000  1
  W  W12  1  0.06296900  0.55877200  0.08339000  1
  W  W13  1  0.36056800  0.85390800  0.57350400  1
  W  W14  1  0.85390800  0.36056800  0.57350400  1
  W  W15  1  0.57114200  0.06579800  0.28899000  1
  W  W16  1  0.06579800  0.57114200  0.28899000  1
  W  W17  1  0.74826800  0.25193400  0.99926000  1
  W  W18  1  0.25193400  0.74826800  0.99926000  1
  W  W19  1  0.92768800  0.43590400  0.71148000  1
  W  W20  1  0.43590400  0.92768800  0.71148000  1
  W  W21  1  0.13882900  0.64760100  0.42560700  1
  W  W22  1  0.64760100  0.13882900  0.42560700  1
  W  W23  1  0.43889000  0.94179800  0.91705000  1
  W  W24  1  0.94179800  0.43889000  0.91705000  1
  W  W25  1  0.35890800  0.85465300  0.20354100  1
  W  W26  1  0.85465300  0.35890800  0.20354100  1
  W  W27  1  0.74788900  0.25028800  0.50122400  1
  W  W28  1  0.25028800  0.74788900  0.50122400  1
  O  O29  1  0.73770700  0.12456400  0.65803200  1
  O  O30  1  0.12456400  0.73770700  0.65803200  1
  O  O31  1  0.89998900  0.50560100  0.15514100  1
  O  O32  1  0.50560100  0.89998900  0.15514100  1
  O  O33  1  0.39094200  0.39094200  0.77622600  1
  O  O34  1  0.90167500  0.90167500  0.81809200  1
  O  O35  1  0.55158400  0.15304200  0.93641800  1
  O  O36  1  0.15304200  0.55158400  0.93641800  1
  O  O37  1  0.79865200  0.38828900  0.47065600  1
  O  O38  1  0.38828900  0.79865200  0.47065600  1
  O  O39  1  0.83155100  0.83155100  0.05460200  1
  O  O40  1  0.28182900  0.28182900  0.12265400  1
  O  O41  1  0.27623400  0.72062000  0.73314500  1
  O  O42  1  0.72062000  0.27623400  0.73314500  1
  O  O43  1  0.55780400  0.98523700  0.23108300  1
  O  O44  1  0.98523700  0.55780400  0.23108300  1
  O  O45  1  0.62359800  0.62359800  0.57258500  1
  O  O46  1  0.08805800  0.08805800  0.57173800  1
  O  O47  1  0.61039100  0.22521500  0.00704900  1
  O  O48  1  0.22521500  0.61039100  0.00704900  1
  O  O49  1  0.02399000  0.41139100  0.42592500  1
  O  O50  1  0.41139100  0.02399000  0.42592500  1
  O  O51  1  0.33185100  0.33185100  0.24988200  1
  O  O52  1  0.80272200  0.80272200  0.32559400  1
  O  O53  1  0.95522400  0.32679400  0.64507600  1
  O  O54  1  0.32679400  0.95522400  0.64507600  1
  O  O55  1  0.11949300  0.73080500  0.15941700  1
  O  O56  1  0.73080500  0.11949300  0.15941700  1
  O  O57  1  0.50081800  0.50081800  0.03928300  1
  O  O58  1  0.99575700  0.99575700  0.96651300  1
  O  O59  1  0.37233400  0.76541100  0.84336200  1
  O  O60  1  0.76541100  0.37233400  0.84336200  1
  O  O61  1  0.54781400  0.17109700  0.35115500  1
  O  O62  1  0.17109700  0.54781400  0.35115500  1
  O  O63  1  0.70033000  0.70033000  0.67477500  1
  O  O64  1  0.16443300  0.16443300  0.75117000  1
  O  O65  1  0.10354600  0.47122900  0.57100200  1
  O  O66  1  0.47122900  0.10354600  0.57100200  1
  O  O67  1  0.88490400  0.28170800  0.98921400  1
  O  O68  1  0.28170800  0.88490400  0.98921400  1
  O  O69  1  0.87504400  0.87504400  0.42655100  1
  O  O70  1  0.41799400  0.41799400  0.41308700  1
  O  O71  1  0.51426100  0.94809600  0.77228600  1
  O  O72  1  0.94809600  0.51426100  0.77228600  1
  O  O73  1  0.21961800  0.78632900  0.26132100  1
  O  O74  1  0.78632900  0.21961800  0.26132100  1
  O  O75  1  0.66938000  0.66938000  0.94395800  1
  O  O76  1  0.21575200  0.21575200  0.87931100  1
  O  O77  1  0.11013000  0.70570900  0.52588300  1
  O  O78  1  0.70570900  0.11013000  0.52588300  1
  O  O79  1  0.94486900  0.35335100  0.05877000  1
  O  O80  1  0.35335100  0.94486900  0.05877000  1
  O  O81  1  0.11222500  0.11222500  0.21976300  1
  O  O82  1  0.59260100  0.59260100  0.18638200  1
  O  O83  1  0.58680500  0.00125600  0.85185600  1
  O  O84  1  0.00125600  0.58680500  0.85185600  1
  O  O85  1  0.37039800  0.75785300  0.34807400  1
  O  O86  1  0.75785300  0.37039800  0.34807400  1
  O  O87  1  0.46233800  0.46233800  0.54597600  1
  O  O88  1  0.03406600  0.03406600  0.46124000  1
