# generated using pymatgen
data_VH6(OF)3
_symmetry_space_group_name_H-M   'P 1'
_cell_length_a   7.55566700
_cell_length_b   7.64263505
_cell_length_c   7.97881594
_cell_angle_alpha   117.48098332
_cell_angle_beta   116.81256794
_cell_angle_gamma   90.76938857
_symmetry_Int_Tables_number   1
_chemical_formula_structural   VH6(OF)3
_chemical_formula_sum   'V1 H6 O3 F3'
_cell_volume   350.22860530
_cell_formula_units_Z   1
loop_
 _symmetry_equiv_pos_site_id
 _symmetry_equiv_pos_as_xyz
  1  'x, y, z'
loop_
 _atom_site_type_symbol
 _atom_site_label
 _atom_site_symmetry_multiplicity
 _atom_site_fract_x
 _atom_site_fract_y
 _atom_site_fract_z
 _atom_site_occupancy
  V  V0  1  0.93028400  0.14091200  0.00109800  1
  H  H1  1  0.50544400  0.83908000  0.94072300  1
  H  H2  1  0.05565900  0.89267600  0.55483200  1
  H  H3  1  0.44854300  0.33601400  0.50582100  1
  H  H4  1  0.49505900  0.33625100  0.44033000  1
  H  H5  1  0.56583900  0.90008200  0.06442200  1
  H  H6  1  0.94602800  0.82946800  0.49274400  1
  O  O7  1  0.82762800  0.32205500  0.00003400  1
  O  O8  1  0.11386800  0.53975300  0.89644700  1
  O  O9  1  0.21116400  0.63854000  0.09940200  1
  F  F10  1  0.75308400  0.90838400  0.76238500  1
  F  F11  1  0.15725800  0.18300500  0.99720900  1
  F  F12  1  0.99014400  0.14798100  0.24455400  1
