# generated using pymatgen
data_WO5
_symmetry_space_group_name_H-M   'P 1'
_cell_length_a   4.00154600
_cell_length_b   8.10859100
_cell_length_c   13.17192509
_cell_angle_alpha   68.45646646
_cell_angle_beta   90.00000000
_cell_angle_gamma   90.00000000
_symmetry_Int_Tables_number   1
_chemical_formula_structural   WO5
_chemical_formula_sum   'W4 O20'
_cell_volume   397.53029977
_cell_formula_units_Z   4
loop_
 _symmetry_equiv_pos_site_id
 _symmetry_equiv_pos_as_xyz
  1  'x, y, z'
loop_
 _atom_site_type_symbol
 _atom_site_label
 _atom_site_symmetry_multiplicity
 _atom_site_fract_x
 _atom_site_fract_y
 _atom_site_fract_z
 _atom_site_occupancy
  W  W0  1  0.43376300  0.83028000  0.31282600  1
  W  W1  1  0.93376300  0.16972000  0.18717400  1
  W  W2  1  0.56623700  0.16972000  0.68717400  1
  W  W3  1  0.06623700  0.83028000  0.81282600  1
  O  O4  1  0.25814300  0.57370600  0.35290500  1
  O  O5  1  0.75814300  0.42629400  0.14709500  1
  O  O6  1  0.74185700  0.42629400  0.64709500  1
  O  O7  1  0.24185700  0.57370600  0.85290500  1
  O  O8  1  0.59553000  0.56934700  0.35563600  1
  O  O9  1  0.09553000  0.43065300  0.14436400  1
  O  O10  1  0.40447000  0.43065300  0.64436400  1
  O  O11  1  0.90447000  0.56934700  0.85563600  1
  O  O12  1  0.44981100  0.81625100  0.44785200  1
  O  O13  1  0.94981100  0.18374900  0.05214800  1
  O  O14  1  0.55018900  0.18374900  0.55214800  1
  O  O15  1  0.05018900  0.81625100  0.94785200  1
  O  O16  1  0.93870500  0.90556800  0.28309900  1
  O  O17  1  0.43870500  0.09443200  0.21690100  1
  O  O18  1  0.06129500  0.09443200  0.71690100  1
  O  O19  1  0.56129500  0.90556800  0.78309900  1
  O  O20  1  0.46098800  0.77085500  0.17367900  1
  O  O21  1  0.96098800  0.22914500  0.32632100  1
  O  O22  1  0.53901200  0.22914500  0.82632100  1
  O  O23  1  0.03901200  0.77085500  0.67367900  1
