# generated using pymatgen
data_ZnC4S4(NO6)2
_symmetry_space_group_name_H-M   'P 1'
_cell_length_a   9.60246546
_cell_length_b   7.80603367
_cell_length_c   9.06523912
_cell_angle_alpha   55.25110556
_cell_angle_beta   74.28614073
_cell_angle_gamma   86.30542490
_symmetry_Int_Tables_number   1
_chemical_formula_structural   ZnC4S4(NO6)2
_chemical_formula_sum   'Zn1 C4 S4 N2 O12'
_cell_volume   533.96847549
_cell_formula_units_Z   1
loop_
 _symmetry_equiv_pos_site_id
 _symmetry_equiv_pos_as_xyz
  1  'x, y, z'
loop_
 _atom_site_type_symbol
 _atom_site_label
 _atom_site_symmetry_multiplicity
 _atom_site_fract_x
 _atom_site_fract_y
 _atom_site_fract_z
 _atom_site_occupancy
  Zn  Zn0  1  0.50000000  0.00000000  0.50000000  1
  C  C1  1  0.26500100  0.38874000  0.73591600  1
  C  C2  1  0.73499900  0.61126000  0.26408400  1
  C  C3  1  0.89310400  0.15018300  0.79962500  1
  C  C4  1  0.10689600  0.84981700  0.20037500  1
  S  S5  1  0.20944900  0.59084500  0.89593500  1
  S  S6  1  0.79055100  0.40915500  0.10406500  1
  S  S7  1  0.49524000  0.13366800  0.76353500  1
  S  S8  1  0.50476000  0.86633200  0.23646500  1
  N  N9  1  0.36325700  0.28779300  0.73518500  1
  N  N10  1  0.63674300  0.71220700  0.26481500  1
  O  O11  1  0.35280800  0.70652400  0.82877200  1
  O  O12  1  0.64719200  0.29347600  0.17122800  1
  O  O13  1  0.17489800  0.39695800  0.08284100  1
  O  O14  1  0.82510200  0.60304200  0.91715900  1
  O  O15  1  0.91487400  0.15917900  0.66466600  1
  O  O16  1  0.08512600  0.84082100  0.33533400  1
  O  O17  1  0.56056000  0.16276800  0.56998000  1
  O  O18  1  0.43944000  0.83723200  0.43002000  1
  O  O19  1  0.26203000  0.11107300  0.52941600  1
  O  O20  1  0.73797000  0.88892700  0.47058400  1
  O  O21  1  0.22737000  0.29073200  0.43245200  1
  O  O22  1  0.77263000  0.70926800  0.56754800  1
