# generated using pymatgen
data_Ba4Ti3O10
_symmetry_space_group_name_H-M   'P 1'
_cell_length_a   4.06435428
_cell_length_b   4.06435428
_cell_length_c   29.56538900
_cell_angle_alpha   90.00000000
_cell_angle_beta   90.00000000
_cell_angle_gamma   90.11598982
_symmetry_Int_Tables_number   1
_chemical_formula_structural   Ba4Ti3O10
_chemical_formula_sum   'Ba8 Ti6 O20'
_cell_volume   488.38894199
_cell_formula_units_Z   2
loop_
 _symmetry_equiv_pos_site_id
 _symmetry_equiv_pos_as_xyz
  1  'x, y, z'
loop_
 _atom_site_type_symbol
 _atom_site_label
 _atom_site_symmetry_multiplicity
 _atom_site_fract_x
 _atom_site_fract_y
 _atom_site_fract_z
 _atom_site_occupancy
  Ba  Ba0  1  0.49683200  0.50316800  0.56715700  1
  Ba  Ba1  1  0.00316800  0.99683200  0.06715700  1
  Ba  Ba2  1  0.49478300  0.50521700  0.70135300  1
  Ba  Ba3  1  0.00521700  0.99478300  0.20135300  1
  Ba  Ba4  1  0.99683200  0.00316800  0.93284300  1
  Ba  Ba5  1  0.50316800  0.49683200  0.43284300  1
  Ba  Ba6  1  0.99478300  0.00521700  0.79864700  1
  Ba  Ba7  1  0.50521700  0.49478300  0.29864700  1
  Ti  Ti8  1  0.50000000  0.50000000  0.00000000  1
  Ti  Ti9  1  0.00000000  0.00000000  0.50000000  1
  Ti  Ti10  1  0.47955600  0.52044400  0.86255200  1
  Ti  Ti11  1  0.02044400  0.97955600  0.36255200  1
  Ti  Ti12  1  0.97955600  0.02044400  0.63744800  1
  Ti  Ti13  1  0.52044400  0.47955600  0.13744800  1
  O  O14  1  0.00467500  0.99532500  0.70365800  1
  O  O15  1  0.49532500  0.50467500  0.20365800  1
  O  O16  1  0.50250200  0.49749800  0.93215800  1
  O  O17  1  0.99749800  0.00250200  0.43215800  1
  O  O18  1  0.50000000  0.00000000  0.00000000  1
  O  O19  1  0.50000000  0.00000000  0.50000000  1
  O  O20  1  0.50405100  0.98730700  0.86312400  1
  O  O21  1  0.48730700  0.00405100  0.36312400  1
  O  O22  1  0.49594900  0.01269300  0.13687600  1
  O  O23  1  0.51269300  0.99594900  0.63687600  1
  O  O24  1  0.98730700  0.50405100  0.13687600  1
  O  O25  1  0.00405100  0.48730700  0.63687600  1
  O  O26  1  0.01269300  0.49594900  0.86312400  1
  O  O27  1  0.99594900  0.51269300  0.36312400  1
  O  O28  1  0.00000000  0.50000000  0.50000000  1
  O  O29  1  0.00000000  0.50000000  0.00000000  1
  O  O30  1  0.50467500  0.49532500  0.79634200  1
  O  O31  1  0.99532500  0.00467500  0.29634200  1
  O  O32  1  0.49749800  0.50250200  0.06784200  1
  O  O33  1  0.00250200  0.99749800  0.56784200  1
