# generated using pymatgen
data_WO5
_symmetry_space_group_name_H-M   'P 1'
_cell_length_a   3.86098000
_cell_length_b   10.50727100
_cell_length_c   12.25019090
_cell_angle_alpha   79.79806999
_cell_angle_beta   90.00000000
_cell_angle_gamma   90.00000000
_symmetry_Int_Tables_number   1
_chemical_formula_structural   WO5
_chemical_formula_sum   'W4 O20'
_cell_volume   489.11291700
_cell_formula_units_Z   4
loop_
 _symmetry_equiv_pos_site_id
 _symmetry_equiv_pos_as_xyz
  1  'x, y, z'
loop_
 _atom_site_type_symbol
 _atom_site_label
 _atom_site_symmetry_multiplicity
 _atom_site_fract_x
 _atom_site_fract_y
 _atom_site_fract_z
 _atom_site_occupancy
  W  W0  1  0.45699500  0.13581100  0.46454800  1
  W  W1  1  0.95699500  0.86418900  0.53545200  1
  W  W2  1  0.50948300  0.86471000  0.03687300  1
  W  W3  1  0.00948300  0.13529000  0.96312700  1
  O  O4  1  0.45841700  0.21520300  0.32761900  1
  O  O5  1  0.95841700  0.78479700  0.67238100  1
  O  O6  1  0.50608100  0.78508400  0.17375300  1
  O  O7  1  0.00608100  0.21491600  0.82624700  1
  O  O8  1  0.95687600  0.07369300  0.48066800  1
  O  O9  1  0.45687600  0.92630700  0.51933200  1
  O  O10  1  0.00958800  0.92708800  0.02086800  1
  O  O11  1  0.50958800  0.07291200  0.97913200  1
  O  O12  1  0.45887500  0.25084300  0.54989700  1
  O  O13  1  0.95887500  0.74915700  0.45010300  1
  O  O14  1  0.50780600  0.74995300  0.95132300  1
  O  O15  1  0.00780600  0.25004700  0.04867700  1
  O  O16  1  0.54919600  0.51061100  0.37685600  1
  O  O17  1  0.04919600  0.48938900  0.62314400  1
  O  O18  1  0.53506700  0.45576700  0.13202600  1
  O  O19  1  0.03506700  0.54423300  0.86797400  1
  O  O20  1  0.23727500  0.48801800  0.37125800  1
  O  O21  1  0.73727500  0.51198200  0.62874200  1
  O  O22  1  0.81434100  0.51306600  0.12971700  1
  O  O23  1  0.31434100  0.48693400  0.87028300  1
