# generated using pymatgen
data_Zr(ClO4)4
_symmetry_space_group_name_H-M   'P 1'
_cell_length_a   8.27100313
_cell_length_b   8.27100313
_cell_length_c   13.87605052
_cell_angle_alpha   75.16549651
_cell_angle_beta   75.16549651
_cell_angle_gamma   63.03230164
_symmetry_Int_Tables_number   1
_chemical_formula_structural   Zr(ClO4)4
_chemical_formula_sum   'Zr2 Cl8 O32'
_cell_volume   806.97748955
_cell_formula_units_Z   2
loop_
 _symmetry_equiv_pos_site_id
 _symmetry_equiv_pos_as_xyz
  1  'x, y, z'
loop_
 _atom_site_type_symbol
 _atom_site_label
 _atom_site_symmetry_multiplicity
 _atom_site_fract_x
 _atom_site_fract_y
 _atom_site_fract_z
 _atom_site_occupancy
  Zr  Zr0  1  0.65008800  0.63633100  0.89950700  1
  Zr  Zr1  1  0.63633100  0.65008800  0.39950700  1
  Cl  Cl2  1  0.99649000  0.25530700  0.13958200  1
  Cl  Cl3  1  0.20992100  0.60653900  0.96324700  1
  Cl  Cl4  1  0.02212300  0.59916100  0.31632700  1
  Cl  Cl5  1  0.59916100  0.02212300  0.81632700  1
  Cl  Cl6  1  0.60653900  0.20992100  0.46324700  1
  Cl  Cl7  1  0.44597700  0.93843500  0.24140100  1
  Cl  Cl8  1  0.25530700  0.99649000  0.63958200  1
  Cl  Cl9  1  0.93843500  0.44597700  0.74140100  1
  O  O10  1  0.89932500  0.58102600  0.26136600  1
  O  O11  1  0.96566900  0.53962200  0.63931200  1
  O  O12  1  0.17531700  0.42830600  0.33745300  1
  O  O13  1  0.71517600  0.23819100  0.96640600  1
  O  O14  1  0.94767500  0.54879000  0.81787100  1
  O  O15  1  0.66092800  0.39263200  0.41439400  1
  O  O16  1  0.23819100  0.71517600  0.46640600  1
  O  O17  1  0.16587500  0.01019700  0.74340700  1
  O  O18  1  0.74799400  0.07130000  0.76726000  1
  O  O19  1  0.42830600  0.17531700  0.83745300  1
  O  O20  1  0.78207700  0.06013700  0.48225700  1
  O  O21  1  0.14566800  0.76073600  0.54579300  1
  O  O22  1  0.13996800  0.11940800  0.56508700  1
  O  O23  1  0.58102600  0.89932500  0.76136600  1
  O  O24  1  0.01019700  0.16587500  0.24340700  1
  O  O25  1  0.07130000  0.74799400  0.26726000  1
  O  O26  1  0.73021700  0.48001300  0.77374900  1
  O  O27  1  0.25875800  0.47720300  0.05609300  1
  O  O28  1  0.64785000  0.89191200  0.91764700  1
  O  O29  1  0.39263200  0.66092800  0.91439400  1
  O  O30  1  0.11940800  0.13996800  0.06508700  1
  O  O31  1  0.50440400  0.72397100  0.52592900  1
  O  O32  1  0.48001300  0.73021700  0.27374900  1
  O  O33  1  0.54879000  0.94767500  0.31787100  1
  O  O34  1  0.76073600  0.14566800  0.04579300  1
  O  O35  1  0.89191200  0.64785000  0.41764700  1
  O  O36  1  0.53962200  0.96566900  0.13931200  1
  O  O37  1  0.47720300  0.25875800  0.55609300  1
  O  O38  1  0.72397100  0.50440400  0.02592900  1
  O  O39  1  0.28532300  0.75656200  0.63301300  1
  O  O40  1  0.75656200  0.28532300  0.13301300  1
  O  O41  1  0.06013700  0.78207700  0.98225700  1
