# generated using pymatgen
data_YbO3
_symmetry_space_group_name_H-M   'P 1'
_cell_length_a   3.68997100
_cell_length_b   4.48476900
_cell_length_c   6.32021390
_cell_angle_alpha   73.91698258
_cell_angle_beta   90.00000000
_cell_angle_gamma   90.00000000
_symmetry_Int_Tables_number   1
_chemical_formula_structural   YbO3
_chemical_formula_sum   'Yb2 O6'
_cell_volume   100.49755919
_cell_formula_units_Z   2
loop_
 _symmetry_equiv_pos_site_id
 _symmetry_equiv_pos_as_xyz
  1  'x, y, z'
loop_
 _atom_site_type_symbol
 _atom_site_label
 _atom_site_symmetry_multiplicity
 _atom_site_fract_x
 _atom_site_fract_y
 _atom_site_fract_z
 _atom_site_occupancy
  Yb  Yb0  1  0.75000000  0.67965400  0.69422000  1
  Yb  Yb1  1  0.25000000  0.32034600  0.30578000  1
  O  O2  1  0.75000000  0.55638500  0.08267500  1
  O  O3  1  0.75000000  0.98948300  0.27536900  1
  O  O4  1  0.75000000  0.24303100  0.55243800  1
  O  O5  1  0.25000000  0.44361500  0.91732500  1
  O  O6  1  0.25000000  0.01051700  0.72463100  1
  O  O7  1  0.25000000  0.75696900  0.44756200  1
