# generated using pymatgen
data_BaLa2Cl8
_symmetry_space_group_name_H-M   'P 1'
_cell_length_a   10.15721724
_cell_length_b   10.15721724
_cell_length_c   10.15721724
_cell_angle_alpha   98.90704533
_cell_angle_beta   98.90704533
_cell_angle_gamma   133.65673285
_symmetry_Int_Tables_number   1
_chemical_formula_structural   BaLa2Cl8
_chemical_formula_sum   'Ba2 La4 Cl16'
_cell_volume   696.99154514
_cell_formula_units_Z   2
loop_
 _symmetry_equiv_pos_site_id
 _symmetry_equiv_pos_as_xyz
  1  'x, y, z'
loop_
 _atom_site_type_symbol
 _atom_site_label
 _atom_site_symmetry_multiplicity
 _atom_site_fract_x
 _atom_site_fract_y
 _atom_site_fract_z
 _atom_site_occupancy
  Ba  Ba0  1  0.75000000  0.25000000  0.50000000  1
  Ba  Ba1  1  0.00000000  0.00000000  0.00000000  1
  La  La2  1  0.31095000  0.65810100  0.07362000  1
  La  La3  1  0.34189900  0.41551900  0.65284900  1
  La  La4  1  0.76267000  0.68905000  0.34715100  1
  La  La5  1  0.58448100  0.23733000  0.92638000  1
  Cl  Cl6  1  0.33953000  0.43424400  0.18694700  1
  Cl  Cl7  1  0.14603300  0.44804600  0.47942100  1
  Cl  Cl8  1  0.33338800  0.85396700  0.30201300  1
  Cl  Cl9  1  0.54809800  0.28367600  0.21099700  1
  Cl  Cl10  1  0.91866900  0.33556200  0.07091300  1
  Cl  Cl11  1  0.07267900  0.33710100  0.78900300  1
  Cl  Cl12  1  0.71632400  0.92732100  0.26442200  1
  Cl  Cl13  1  0.15224400  0.08133100  0.41689300  1
  Cl  Cl14  1  0.26464900  0.84775600  0.92908700  1
  Cl  Cl15  1  0.84741700  0.66047000  0.09471400  1
  Cl  Cl16  1  0.66443800  0.73535100  0.58310700  1
  Cl  Cl17  1  0.56575600  0.75270300  0.90528600  1
  Cl  Cl18  1  0.24729700  0.15258300  0.81305300  1
  Cl  Cl19  1  0.55195400  0.03137500  0.69798700  1
  Cl  Cl20  1  0.96862500  0.66661200  0.52057900  1
  Cl  Cl21  1  0.66289900  0.45190200  0.73557800  1
