# generated using pymatgen
data_ZrCu2(O3F2)4
_symmetry_space_group_name_H-M   'P 1'
_cell_length_a   8.59748037
_cell_length_b   8.59748037
_cell_length_c   12.16821753
_cell_angle_alpha   70.26875427
_cell_angle_beta   70.26875427
_cell_angle_gamma   54.79439108
_symmetry_Int_Tables_number   1
_chemical_formula_structural   ZrCu2(O3F2)4
_chemical_formula_sum   'Zr2 Cu4 O24 F16'
_cell_volume   679.71018709
_cell_formula_units_Z   2
loop_
 _symmetry_equiv_pos_site_id
 _symmetry_equiv_pos_as_xyz
  1  'x, y, z'
loop_
 _atom_site_type_symbol
 _atom_site_label
 _atom_site_symmetry_multiplicity
 _atom_site_fract_x
 _atom_site_fract_y
 _atom_site_fract_z
 _atom_site_occupancy
  Zr  Zr0  1  0.26578000  0.73422000  0.25000000  1
  Zr  Zr1  1  0.73422000  0.26578000  0.75000000  1
  Cu  Cu2  1  0.95486600  0.26858900  0.23824000  1
  Cu  Cu3  1  0.73141100  0.04513400  0.26176000  1
  Cu  Cu4  1  0.04513400  0.73141100  0.76176000  1
  Cu  Cu5  1  0.26858900  0.95486600  0.73824000  1
  O  O6  1  0.15522100  0.27866800  0.11712800  1
  O  O7  1  0.72133200  0.84477900  0.38287200  1
  O  O8  1  0.84477900  0.72133200  0.88287200  1
  O  O9  1  0.27866800  0.15522100  0.61712800  1
  O  O10  1  0.72065200  0.36060400  0.35553600  1
  O  O11  1  0.63939600  0.27934800  0.14446400  1
  O  O12  1  0.27934800  0.63939600  0.64446400  1
  O  O13  1  0.36060500  0.72065200  0.85553600  1
  O  O14  1  0.85500400  0.73596100  0.12795400  1
  O  O15  1  0.26403900  0.14499600  0.37204600  1
  O  O16  1  0.14499600  0.26403900  0.87204600  1
  O  O17  1  0.73596100  0.85500400  0.62795400  1
  O  O18  1  0.66681700  0.24827400  0.44032000  1
  O  O19  1  0.75172600  0.33318300  0.05968000  1
  O  O20  1  0.33318300  0.75172600  0.55968000  1
  O  O21  1  0.24827400  0.66681700  0.94032000  1
  O  O22  1  0.10009800  0.27933400  0.35985900  1
  O  O23  1  0.72066600  0.89990200  0.14014100  1
  O  O24  1  0.89990200  0.72066600  0.64014100  1
  O  O25  1  0.27933400  0.10009800  0.85985900  1
  O  O26  1  0.83775100  0.39535900  0.09198100  1
  O  O27  1  0.60464100  0.16224900  0.40801900  1
  O  O28  1  0.16224900  0.60464100  0.90801900  1
  O  O29  1  0.39535900  0.83775100  0.59198100  1
  F  F30  1  0.00317400  0.93164900  0.17120000  1
  F  F31  1  0.06835100  0.99682600  0.32880000  1
  F  F32  1  0.99682600  0.06835100  0.82880000  1
  F  F33  1  0.93164900  0.00317400  0.67120000  1
  F  F34  1  0.27504900  0.56616000  0.40982300  1
  F  F35  1  0.43384000  0.72495100  0.09017700  1
  F  F36  1  0.72495100  0.43384000  0.59017700  1
  F  F37  1  0.56616000  0.27504900  0.90982300  1
  F  F38  1  0.90079200  0.66857900  0.37081500  1
  F  F39  1  0.33142100  0.09920800  0.12918500  1
  F  F40  1  0.09920800  0.33142100  0.62918500  1
  F  F41  1  0.66857900  0.90079200  0.87081500  1
  F  F42  1  0.25651200  0.52963000  0.21137700  1
  F  F43  1  0.47037000  0.74348800  0.28862300  1
  F  F44  1  0.74348800  0.47037000  0.78862300  1
  F  F45  1  0.52963000  0.25651200  0.71137700  1
