# generated using pymatgen
data_AlVO3
_symmetry_space_group_name_H-M   'P 1'
_cell_length_a   4.96128500
_cell_length_b   9.55295269
_cell_length_c   4.96100508
_cell_angle_alpha   74.95211291
_cell_angle_beta   120.00094533
_cell_angle_gamma   105.04584191
_symmetry_Int_Tables_number   1
_chemical_formula_structural   AlVO3
_chemical_formula_sum   'Al4 V4 O12'
_cell_volume   194.25924051
_cell_formula_units_Z   4
loop_
 _symmetry_equiv_pos_site_id
 _symmetry_equiv_pos_as_xyz
  1  'x, y, z'
loop_
 _atom_site_type_symbol
 _atom_site_label
 _atom_site_symmetry_multiplicity
 _atom_site_fract_x
 _atom_site_fract_y
 _atom_site_fract_z
 _atom_site_occupancy
  Al  Al0  1  0.07477400  0.22455300  0.92517400  1
  Al  Al1  1  0.57479500  0.72456300  0.42517900  1
  Al  Al2  1  0.42509500  0.27544100  0.57485200  1
  Al  Al3  1  0.92506700  0.77543800  0.07484700  1
  V  V4  1  0.17615300  0.52854600  0.82385100  1
  V  V5  1  0.32374400  0.97145800  0.67613800  1
  V  V6  1  0.67612000  0.02846100  0.32382400  1
  V  V7  1  0.82372100  0.47153700  0.17607100  1
  O  O8  1  0.42010100  0.36814000  0.18973700  1
  O  O9  1  0.92007900  0.86813700  0.68972600  1
  O  O10  1  0.68972100  0.13179600  0.63780800  1
  O  O11  1  0.18971500  0.63178100  0.13778200  1
  O  O12  1  0.36226400  0.13195000  0.92000800  1
  O  O13  1  0.86226500  0.63195500  0.41996900  1
  O  O14  1  0.13778900  0.36820800  0.57997300  1
  O  O15  1  0.63778000  0.86818700  0.07997900  1
  O  O16  1  0.81029300  0.36804500  0.86217300  1
  O  O17  1  0.31032800  0.86804100  0.36217200  1
  O  O18  1  0.08007100  0.13187300  0.31036700  1
  O  O19  1  0.58012800  0.63188800  0.81037500  1
