# generated using pymatgen
data_YBr3O8
_symmetry_space_group_name_H-M   'P 1'
_cell_length_a   12.72360100
_cell_length_b   7.28778700
_cell_length_c   10.82097732
_cell_angle_alpha   56.80773999
_cell_angle_beta   90.00000000
_cell_angle_gamma   90.00000000
_symmetry_Int_Tables_number   1
_chemical_formula_structural   YBr3O8
_chemical_formula_sum   'Y4 Br12 O32'
_cell_volume   839.67985739
_cell_formula_units_Z   4
loop_
 _symmetry_equiv_pos_site_id
 _symmetry_equiv_pos_as_xyz
  1  'x, y, z'
loop_
 _atom_site_type_symbol
 _atom_site_label
 _atom_site_symmetry_multiplicity
 _atom_site_fract_x
 _atom_site_fract_y
 _atom_site_fract_z
 _atom_site_occupancy
  Y  Y0  1  0.35758400  0.14468900  0.22438600  1
  Y  Y1  1  0.14241600  0.14468900  0.72438600  1
  Y  Y2  1  0.64241600  0.85531100  0.77561400  1
  Y  Y3  1  0.85758400  0.85531100  0.27561400  1
  Br  Br4  1  0.36444900  0.43177400  0.44177300  1
  Br  Br5  1  0.13555100  0.43177400  0.94177300  1
  Br  Br6  1  0.63555100  0.56822600  0.55822700  1
  Br  Br7  1  0.86444900  0.56822600  0.05822700  1
  Br  Br8  1  0.13261100  0.96187900  0.46801100  1
  Br  Br9  1  0.36738900  0.96187900  0.96801100  1
  Br  Br10  1  0.86738900  0.03812100  0.53198900  1
  Br  Br11  1  0.63261100  0.03812100  0.03198900  1
  Br  Br12  1  0.37797900  0.81005600  0.69222200  1
  Br  Br13  1  0.12202100  0.81005600  0.19222200  1
  Br  Br14  1  0.62202100  0.18994400  0.30777800  1
  Br  Br15  1  0.87797900  0.18994400  0.80777800  1
  O  O16  1  0.22338800  0.89159000  0.25597400  1
  O  O17  1  0.27661200  0.89159000  0.75597400  1
  O  O18  1  0.77661200  0.10841000  0.74402600  1
  O  O19  1  0.72338800  0.10841000  0.24402600  1
  O  O20  1  0.34762100  0.44465100  0.27991100  1
  O  O21  1  0.15237900  0.44465100  0.77991100  1
  O  O22  1  0.65237900  0.55534900  0.72008900  1
  O  O23  1  0.84762100  0.55534900  0.22008900  1
  O  O24  1  0.26912500  0.01199700  0.44781500  1
  O  O25  1  0.23087500  0.01199700  0.94781500  1
  O  O26  1  0.73087500  0.98800300  0.55218500  1
  O  O27  1  0.76912500  0.98800300  0.05218500  1
  O  O28  1  0.24838700  0.40846500  0.03778200  1
  O  O29  1  0.25161300  0.40846500  0.53778200  1
  O  O30  1  0.75161300  0.59153500  0.96221800  1
  O  O31  1  0.74838700  0.59153500  0.46221800  1
  O  O32  1  0.47070000  0.89529300  0.43346400  1
  O  O33  1  0.02930000  0.89529300  0.93346400  1
  O  O34  1  0.52930000  0.10470700  0.56653600  1
  O  O35  1  0.97070000  0.10470700  0.06653600  1
  O  O36  1  0.41563300  0.12306000  0.02927600  1
  O  O37  1  0.08436700  0.12306000  0.52927600  1
  O  O38  1  0.58436700  0.87694000  0.97072400  1
  O  O39  1  0.91563300  0.87694000  0.47072400  1
  O  O40  1  0.45545100  0.81971200  0.34502100  1
  O  O41  1  0.04454900  0.81971200  0.84502100  1
  O  O42  1  0.54454900  0.18028800  0.65497900  1
  O  O43  1  0.95545100  0.18028800  0.15497900  1
  O  O44  1  0.52975700  0.28874200  0.16743200  1
  O  O45  1  0.97024300  0.28874200  0.66743200  1
  O  O46  1  0.47024300  0.71125800  0.83256800  1
  O  O47  1  0.02975700  0.71125800  0.33256800  1
