# generated using pymatgen
data_AlCuO3
_symmetry_space_group_name_H-M   'P 1'
_cell_length_a   5.28744521
_cell_length_b   5.28744521
_cell_length_c   5.28744541
_cell_angle_alpha   55.62803881
_cell_angle_beta   55.62803881
_cell_angle_gamma   55.62803469
_symmetry_Int_Tables_number   1
_chemical_formula_structural   AlCuO3
_chemical_formula_sum   'Al2 Cu2 O6'
_cell_volume   93.92117846
_cell_formula_units_Z   2
loop_
 _symmetry_equiv_pos_site_id
 _symmetry_equiv_pos_as_xyz
  1  'x, y, z'
loop_
 _atom_site_type_symbol
 _atom_site_label
 _atom_site_symmetry_multiplicity
 _atom_site_fract_x
 _atom_site_fract_y
 _atom_site_fract_z
 _atom_site_occupancy
  Al  Al0  1  0.35000000  0.35000000  0.35000000  1
  Al  Al1  1  0.65000000  0.65000000  0.65000000  1
  Cu  Cu2  1  0.14874500  0.14874500  0.14874500  1
  Cu  Cu3  1  0.85125500  0.85125500  0.85125500  1
  O  O4  1  0.94527000  0.26361200  0.55475700  1
  O  O5  1  0.44524300  0.05473000  0.73638800  1
  O  O6  1  0.73638800  0.44524300  0.05473000  1
  O  O7  1  0.26361200  0.55475700  0.94527000  1
  O  O8  1  0.55475700  0.94527000  0.26361200  1
  O  O9  1  0.05473000  0.73638800  0.44524300  1
