# generated using pymatgen
data_UO4
_symmetry_space_group_name_H-M   'P 1'
_cell_length_a   6.19263585
_cell_length_b   6.19263585
_cell_length_c   6.89093300
_cell_angle_alpha   90.00000000
_cell_angle_beta   90.00000000
_cell_angle_gamma   142.69833859
_symmetry_Int_Tables_number   1
_chemical_formula_structural   UO4
_chemical_formula_sum   'U2 O8'
_cell_volume   160.14373534
_cell_formula_units_Z   2
loop_
 _symmetry_equiv_pos_site_id
 _symmetry_equiv_pos_as_xyz
  1  'x, y, z'
loop_
 _atom_site_type_symbol
 _atom_site_label
 _atom_site_symmetry_multiplicity
 _atom_site_fract_x
 _atom_site_fract_y
 _atom_site_fract_z
 _atom_site_occupancy
  U  U0  1  0.50000000  0.50000000  0.50000000  1
  U  U1  1  0.00000000  0.00000000  0.00000000  1
  O  O2  1  0.65263200  0.34736800  0.53877000  1
  O  O3  1  0.34736800  0.65263200  0.46123000  1
  O  O4  1  0.84736800  0.15263200  0.03877000  1
  O  O5  1  0.15263200  0.84736800  0.96123000  1
  O  O6  1  0.98515900  0.01484100  0.66507900  1
  O  O7  1  0.01484100  0.98515900  0.33492100  1
  O  O8  1  0.51484100  0.48515900  0.16507900  1
  O  O9  1  0.48515900  0.51484100  0.83492100  1
