# generated using pymatgen
data_Zr(PO5)2
_symmetry_space_group_name_H-M   'P 1'
_cell_length_a   6.70662700
_cell_length_b   5.44827600
_cell_length_c   12.57373910
_cell_angle_alpha   81.46749336
_cell_angle_beta   90.00000000
_cell_angle_gamma   90.00000000
_symmetry_Int_Tables_number   1
_chemical_formula_structural   Zr(PO5)2
_chemical_formula_sum   'Zr2 P4 O20'
_cell_volume   454.35369002
_cell_formula_units_Z   2
loop_
 _symmetry_equiv_pos_site_id
 _symmetry_equiv_pos_as_xyz
  1  'x, y, z'
loop_
 _atom_site_type_symbol
 _atom_site_label
 _atom_site_symmetry_multiplicity
 _atom_site_fract_x
 _atom_site_fract_y
 _atom_site_fract_z
 _atom_site_occupancy
  Zr  Zr0  1  0.24370900  0.80526300  0.86925500  1
  Zr  Zr1  1  0.74370900  0.19473700  0.13074500  1
  P  P2  1  0.24482600  0.24720100  0.05571200  1
  P  P3  1  0.74482600  0.75279900  0.94428800  1
  P  P4  1  0.31740600  0.35707700  0.68856000  1
  P  P5  1  0.81740600  0.64292300  0.31144000  1
  O  O6  1  0.24703600  0.07233300  0.96976500  1
  O  O7  1  0.74703600  0.92766700  0.03023500  1
  O  O8  1  0.43189600  0.19902800  0.12736800  1
  O  O9  1  0.93189600  0.80097200  0.87263200  1
  O  O10  1  0.05702500  0.19620500  0.12608300  1
  O  O11  1  0.55702500  0.80379500  0.87391700  1
  O  O12  1  0.24440900  0.51866000  0.99956100  1
  O  O13  1  0.74440900  0.48134000  0.00043900  1
  O  O14  1  0.24811400  0.09353100  0.73428900  1
  O  O15  1  0.74811400  0.90646900  0.26571100  1
  O  O16  1  0.25325900  0.54034900  0.76379800  1
  O  O17  1  0.75325900  0.45965100  0.23620200  1
  O  O18  1  0.54355800  0.36586900  0.66526500  1
  O  O19  1  0.04355800  0.63413100  0.33473500  1
  O  O20  1  0.23626100  0.43874200  0.57288100  1
  O  O21  1  0.73626100  0.56125800  0.42711900  1
  O  O22  1  0.30128700  0.07639300  0.44462400  1
  O  O23  1  0.80128700  0.92360700  0.55537600  1
  O  O24  1  0.90631200  0.06333500  0.49568000  1
  O  O25  1  0.40631200  0.93666500  0.50432000  1
