# generated using pymatgen
data_ZnMoO6
_symmetry_space_group_name_H-M   'P 1'
_cell_length_a   10.33378500
_cell_length_b   6.29717800
_cell_length_c   8.56879968
_cell_angle_alpha   89.67519869
_cell_angle_beta   90.00000000
_cell_angle_gamma   90.00000000
_symmetry_Int_Tables_number   1
_chemical_formula_structural   ZnMoO6
_chemical_formula_sum   'Zn4 Mo4 O24'
_cell_volume   557.59439951
_cell_formula_units_Z   4
loop_
 _symmetry_equiv_pos_site_id
 _symmetry_equiv_pos_as_xyz
  1  'x, y, z'
loop_
 _atom_site_type_symbol
 _atom_site_label
 _atom_site_symmetry_multiplicity
 _atom_site_fract_x
 _atom_site_fract_y
 _atom_site_fract_z
 _atom_site_occupancy
  Zn  Zn0  1  0.22160900  0.00777800  0.07014000  1
  Zn  Zn1  1  0.72160900  0.99222200  0.92986000  1
  Zn  Zn2  1  0.21803700  0.96069600  0.43398200  1
  Zn  Zn3  1  0.71803700  0.03930400  0.56601800  1
  Mo  Mo4  1  0.50405100  0.18576800  0.24361900  1
  Mo  Mo5  1  0.00405100  0.81423200  0.75638100  1
  Mo  Mo6  1  0.42749100  0.18143900  0.74653800  1
  Mo  Mo7  1  0.92749100  0.81856100  0.25346200  1
  O  O8  1  0.61028800  0.06547500  0.10385200  1
  O  O9  1  0.11028800  0.93452500  0.89614800  1
  O  O10  1  0.57903400  0.16385600  0.43285500  1
  O  O11  1  0.07903400  0.83614400  0.56714500  1
  O  O12  1  0.48859000  0.45407400  0.20279400  1
  O  O13  1  0.98859000  0.54592600  0.79720600  1
  O  O14  1  0.33925600  0.05572200  0.25702900  1
  O  O15  1  0.83925600  0.94427800  0.74297100  1
  O  O16  1  0.32947300  0.04838800  0.60424400  1
  O  O17  1  0.82947300  0.95161200  0.39575600  1
  O  O18  1  0.35887500  0.13660400  0.93705900  1
  O  O19  1  0.85887500  0.86339600  0.06294100  1
  O  O20  1  0.42353800  0.45255400  0.71278700  1
  O  O21  1  0.92353800  0.54744600  0.28721300  1
  O  O22  1  0.60003300  0.08192200  0.75347100  1
  O  O23  1  0.10003300  0.91807800  0.24652900  1
  O  O24  1  0.16574400  0.43453000  0.07111100  1
  O  O25  1  0.66574400  0.56547000  0.92888900  1
  O  O26  1  0.74994800  0.43094200  0.95334200  1
  O  O27  1  0.24994800  0.56905800  0.04665800  1
  O  O28  1  0.17027900  0.40111100  0.44117100  1
  O  O29  1  0.67027900  0.59888900  0.55882900  1
  O  O30  1  0.75920300  0.46975400  0.57195500  1
  O  O31  1  0.25920300  0.53024600  0.42804500  1
