# generated using pymatgen
data_W3O10
_symmetry_space_group_name_H-M   'P 1'
_cell_length_a   5.38101000
_cell_length_b   5.40001578
_cell_length_c   7.46180798
_cell_angle_alpha   110.81290344
_cell_angle_beta   110.98427639
_cell_angle_gamma   88.36824443
_symmetry_Int_Tables_number   1
_chemical_formula_structural   W3O10
_chemical_formula_sum   'W3 O10'
_cell_volume   188.01602303
_cell_formula_units_Z   1
loop_
 _symmetry_equiv_pos_site_id
 _symmetry_equiv_pos_as_xyz
  1  'x, y, z'
loop_
 _atom_site_type_symbol
 _atom_site_label
 _atom_site_symmetry_multiplicity
 _atom_site_fract_x
 _atom_site_fract_y
 _atom_site_fract_z
 _atom_site_occupancy
  W  W0  1  0.50441700  0.01561400  0.49975400  1
  W  W1  1  0.00047300  0.51225300  0.49214400  1
  W  W2  1  0.96299600  0.94850800  0.99367100  1
  O  O3  1  0.71876900  0.71688900  0.42271400  1
  O  O4  1  0.29123100  0.28875800  0.56978500  1
  O  O5  1  0.71732900  0.06751500  0.78158000  1
  O  O6  1  0.29121500  0.93096400  0.20903400  1
  O  O7  1  0.06952400  0.70603200  0.78073700  1
  O  O8  1  0.93660200  0.28887700  0.20556300  1
  O  O9  1  0.75501300  0.24924900  0.48987400  1
  O  O10  1  0.25533800  0.75275200  0.49602500  1
  O  O11  1  0.23511500  0.28438100  0.03730400  1
  O  O12  1  0.73726800  0.74250400  0.01071900  1
