# generated using pymatgen
data_VPO7
_symmetry_space_group_name_H-M   'P 1'
_cell_length_a   6.83461600
_cell_length_b   8.48703000
_cell_length_c   10.70017559
_cell_angle_alpha   83.24445044
_cell_angle_beta   90.00000000
_cell_angle_gamma   90.00000000
_symmetry_Int_Tables_number   1
_chemical_formula_structural   VPO7
_chemical_formula_sum   'V4 P4 O28'
_cell_volume   616.36073965
_cell_formula_units_Z   4
loop_
 _symmetry_equiv_pos_site_id
 _symmetry_equiv_pos_as_xyz
  1  'x, y, z'
loop_
 _atom_site_type_symbol
 _atom_site_label
 _atom_site_symmetry_multiplicity
 _atom_site_fract_x
 _atom_site_fract_y
 _atom_site_fract_z
 _atom_site_occupancy
  V  V0  1  0.61784700  0.44729900  0.73015200  1
  V  V1  1  0.11784700  0.55270100  0.76984800  1
  V  V2  1  0.38215300  0.55270100  0.26984800  1
  V  V3  1  0.88215300  0.44729900  0.23015200  1
  P  P4  1  0.64329500  0.67399900  0.01806000  1
  P  P5  1  0.14329500  0.32600100  0.48194000  1
  P  P6  1  0.35670500  0.32600100  0.98194000  1
  P  P7  1  0.85670500  0.67399900  0.51806000  1
  O  O8  1  0.64300200  0.74670400  0.88664600  1
  O  O9  1  0.14300200  0.25329600  0.61335400  1
  O  O10  1  0.35699800  0.25329600  0.11335400  1
  O  O11  1  0.85699800  0.74670400  0.38664600  1
  O  O12  1  0.82906100  0.61401100  0.08271200  1
  O  O13  1  0.32906100  0.38598900  0.41728800  1
  O  O14  1  0.17093900  0.38598900  0.91728800  1
  O  O15  1  0.67093900  0.61401100  0.58271200  1
  O  O16  1  0.45272100  0.64223000  0.08934900  1
  O  O17  1  0.95272100  0.35777000  0.41065100  1
  O  O18  1  0.54727900  0.35777000  0.91065100  1
  O  O19  1  0.04727900  0.64223000  0.58934900  1
  O  O20  1  0.67003100  0.96728400  0.09452000  1
  O  O21  1  0.17003100  0.03271600  0.40548000  1
  O  O22  1  0.32996900  0.03271600  0.90548000  1
  O  O23  1  0.82996900  0.96728400  0.59452000  1
  O  O24  1  0.61285300  0.28997500  0.66060500  1
  O  O25  1  0.11285300  0.71002500  0.83939500  1
  O  O26  1  0.38714700  0.71002500  0.33939500  1
  O  O27  1  0.88714700  0.28997500  0.16060500  1
  O  O28  1  0.63106400  0.46906000  0.27631700  1
  O  O29  1  0.13106400  0.53094000  0.22368300  1
  O  O30  1  0.36893600  0.53094000  0.72368300  1
  O  O31  1  0.86893600  0.46906000  0.77631700  1
  O  O32  1  0.86766200  0.98972100  0.70359300  1
  O  O33  1  0.36766200  0.01027900  0.79640700  1
  O  O34  1  0.13233800  0.01027900  0.29640700  1
  O  O35  1  0.63233800  0.98972100  0.20359300  1
