# generated using pymatgen
data_YbGa4Ni
_symmetry_space_group_name_H-M   'P 1'
_cell_length_a   9.13491304
_cell_length_b   9.13491304
_cell_length_c   7.41055800
_cell_angle_alpha   90.00000000
_cell_angle_beta   90.00000000
_cell_angle_gamma   23.10872278
_symmetry_Int_Tables_number   1
_chemical_formula_structural   YbGa4Ni
_chemical_formula_sum   'Yb2 Ga8 Ni2'
_cell_volume   242.70242713
_cell_formula_units_Z   2
loop_
 _symmetry_equiv_pos_site_id
 _symmetry_equiv_pos_as_xyz
  1  'x, y, z'
loop_
 _atom_site_type_symbol
 _atom_site_label
 _atom_site_symmetry_multiplicity
 _atom_site_fract_x
 _atom_site_fract_y
 _atom_site_fract_z
 _atom_site_occupancy
  Yb  Yb0  1  0.64025000  0.64025000  0.25000000  1
  Yb  Yb1  1  0.35975000  0.35975000  0.75000000  1
  Ga  Ga2  1  0.50000000  0.50000000  0.50000000  1
  Ga  Ga3  1  0.50000000  0.50000000  0.00000000  1
  Ga  Ga4  1  0.40079300  0.40079300  0.25000000  1
  Ga  Ga5  1  0.59920700  0.59920700  0.75000000  1
  Ga  Ga6  1  0.80659500  0.80659500  0.44906700  1
  Ga  Ga7  1  0.19340500  0.19340500  0.55093300  1
  Ga  Ga8  1  0.80659500  0.80659500  0.05093300  1
  Ga  Ga9  1  0.19340500  0.19340500  0.94906700  1
  Ni  Ni10  1  0.26172500  0.26172500  0.25000000  1
  Ni  Ni11  1  0.73827500  0.73827500  0.75000000  1
