# generated using pymatgen
data_Sr5Cr3ClO12
_symmetry_space_group_name_H-M   'P 1'
_cell_length_a   10.28256654
_cell_length_b   10.28256654
_cell_length_c   7.37930100
_cell_angle_alpha   90.00000000
_cell_angle_beta   90.00000000
_cell_angle_gamma   120.00000350
_symmetry_Int_Tables_number   1
_chemical_formula_structural   Sr5Cr3ClO12
_chemical_formula_sum   'Sr10 Cr6 Cl2 O24'
_cell_volume   675.69219028
_cell_formula_units_Z   2
loop_
 _symmetry_equiv_pos_site_id
 _symmetry_equiv_pos_as_xyz
  1  'x, y, z'
loop_
 _atom_site_type_symbol
 _atom_site_label
 _atom_site_symmetry_multiplicity
 _atom_site_fract_x
 _atom_site_fract_y
 _atom_site_fract_z
 _atom_site_occupancy
  Sr  Sr0  1  0.99804900  0.74601600  0.75572900  1
  Sr  Sr1  1  0.33333300  0.66666700  0.49777300  1
  Sr  Sr2  1  0.74601600  0.74796700  0.25572900  1
  Sr  Sr3  1  0.66666700  0.33333300  0.49997300  1
  Sr  Sr4  1  0.25203300  0.99804900  0.25572900  1
  Sr  Sr5  1  0.25398400  0.25203300  0.75572900  1
  Sr  Sr6  1  0.00195100  0.25398400  0.25572900  1
  Sr  Sr7  1  0.66666700  0.33333300  0.99777300  1
  Sr  Sr8  1  0.74796700  0.00195100  0.75572900  1
  Sr  Sr9  1  0.33333300  0.66666700  0.99997300  1
  Cr  Cr10  1  0.03210200  0.40536300  0.75348500  1
  Cr  Cr11  1  0.37326200  0.96789800  0.75348500  1
  Cr  Cr12  1  0.59463700  0.62673800  0.75348500  1
  Cr  Cr13  1  0.96789800  0.59463700  0.25348500  1
  Cr  Cr14  1  0.62673800  0.03210200  0.25348500  1
  Cr  Cr15  1  0.40536300  0.37326200  0.25348500  1
  Cl  Cl16  1  0.00000000  0.00000000  0.50994100  1
  Cl  Cl17  1  0.00000000  0.00000000  0.00994100  1
  O  O18  1  0.16174300  0.68152600  0.25059500  1
  O  O19  1  0.73577300  0.09795300  0.44483100  1
  O  O20  1  0.09329800  0.34688500  0.57031000  1
  O  O21  1  0.26422700  0.90204700  0.94483100  1
  O  O22  1  0.13041900  0.59969400  0.74632000  1
  O  O23  1  0.25358700  0.90670200  0.57031000  1
  O  O24  1  0.51978200  0.83825700  0.25059500  1
  O  O25  1  0.48021800  0.16174300  0.75059500  1
  O  O26  1  0.65311500  0.74641300  0.57031000  1
  O  O27  1  0.40030600  0.53072500  0.74632000  1
  O  O28  1  0.31847400  0.48021800  0.25059500  1
  O  O29  1  0.36218000  0.26422700  0.44483100  1
  O  O30  1  0.90670200  0.65311500  0.07031000  1
  O  O31  1  0.83825700  0.31847400  0.75059500  1
  O  O32  1  0.86958100  0.40030600  0.24632000  1
  O  O33  1  0.09795300  0.36218000  0.94483100  1
  O  O34  1  0.90204700  0.63782000  0.44483100  1
  O  O35  1  0.59969400  0.46927500  0.24632000  1
  O  O36  1  0.34688500  0.25358700  0.07031000  1
  O  O37  1  0.68152600  0.51978200  0.75059500  1
  O  O38  1  0.63782000  0.73577300  0.94483100  1
  O  O39  1  0.74641300  0.09329800  0.07031000  1
  O  O40  1  0.46927500  0.86958100  0.74632000  1
  O  O41  1  0.53072500  0.13041900  0.24632000  1
