# generated using pymatgen
data_SrCuH4(CO2)4
_symmetry_space_group_name_H-M   'P 1'
_cell_length_a   10.40842500
_cell_length_b   7.69190900
_cell_length_c   8.22809738
_cell_angle_alpha   79.24065054
_cell_angle_beta   90.00000000
_cell_angle_gamma   90.00000000
_symmetry_Int_Tables_number   1
_chemical_formula_structural   SrCuH4(CO2)4
_chemical_formula_sum   'Sr2 Cu2 H8 C8 O16'
_cell_volume   647.16608519
_cell_formula_units_Z   2
loop_
 _symmetry_equiv_pos_site_id
 _symmetry_equiv_pos_as_xyz
  1  'x, y, z'
loop_
 _atom_site_type_symbol
 _atom_site_label
 _atom_site_symmetry_multiplicity
 _atom_site_fract_x
 _atom_site_fract_y
 _atom_site_fract_z
 _atom_site_occupancy
  Sr  Sr0  1  0.76858000  0.00000000  0.75000000  1
  Sr  Sr1  1  0.23142000  0.00000000  0.25000000  1
  Cu  Cu2  1  0.59976100  0.50000000  0.75000000  1
  Cu  Cu3  1  0.40023900  0.50000000  0.25000000  1
  H  H4  1  0.85998300  0.41992300  0.08345100  1
  H  H5  1  0.85998300  0.58007700  0.41654900  1
  H  H6  1  0.14001700  0.58007700  0.91654900  1
  H  H7  1  0.14001700  0.41992300  0.58345100  1
  H  H8  1  0.43214300  0.29692500  0.64914300  1
  H  H9  1  0.43214300  0.70307500  0.85085700  1
  H  H10  1  0.56785700  0.70307500  0.35085700  1
  H  H11  1  0.56785700  0.29692500  0.14914300  1
  C  C12  1  0.46392600  0.31953400  0.77137000  1
  C  C13  1  0.46392600  0.68046600  0.72863000  1
  C  C14  1  0.53607400  0.68046600  0.22863000  1
  C  C15  1  0.53607400  0.31953400  0.27137000  1
  C  C16  1  0.39855500  0.20952500  0.90799900  1
  C  C17  1  0.39855500  0.79047500  0.59200100  1
  C  C18  1  0.60144500  0.79047500  0.09200100  1
  C  C19  1  0.60144500  0.20952500  0.40799900  1
  O  O20  1  0.81043200  0.27213700  0.86591500  1
  O  O21  1  0.81043200  0.72786300  0.63408500  1
  O  O22  1  0.18956800  0.72786300  0.13408500  1
  O  O23  1  0.18956800  0.27213700  0.36591500  1
  O  O24  1  0.27209400  0.32118300  0.23522200  1
  O  O25  1  0.27209400  0.67881700  0.26477800  1
  O  O26  1  0.72790600  0.67881700  0.76477800  1
  O  O27  1  0.72790600  0.32118300  0.73522200  1
  O  O28  1  0.62047200  0.07115100  0.50606300  1
  O  O29  1  0.62047200  0.92884900  0.99393700  1
  O  O30  1  0.37952800  0.92884900  0.49393700  1
  O  O31  1  0.37952800  0.07115100  0.00606300  1
  O  O32  1  0.33709700  0.36142600  0.87410900  1
  O  O33  1  0.33709700  0.63857400  0.62589100  1
  O  O34  1  0.66290300  0.63857400  0.12589100  1
  O  O35  1  0.66290300  0.36142600  0.37410900  1
