# generated using pymatgen
data_TeO3
_symmetry_space_group_name_H-M   'P 1'
_cell_length_a   8.82629991
_cell_length_b   8.82629991
_cell_length_c   6.01210815
_cell_angle_alpha   75.85932393
_cell_angle_beta   75.85932393
_cell_angle_gamma   86.61827834
_symmetry_Int_Tables_number   1
_chemical_formula_structural   TeO3
_chemical_formula_sum   'Te2 O6'
_cell_volume   440.41059794
_cell_formula_units_Z   2
loop_
 _symmetry_equiv_pos_site_id
 _symmetry_equiv_pos_as_xyz
  1  'x, y, z'
loop_
 _atom_site_type_symbol
 _atom_site_label
 _atom_site_symmetry_multiplicity
 _atom_site_fract_x
 _atom_site_fract_y
 _atom_site_fract_z
 _atom_site_occupancy
  Te  Te0  1  0.00000000  0.00000000  0.50000000  1
  Te  Te1  1  0.00000000  0.00000000  0.00000000  1
  O  O2  1  0.93851400  0.50009700  0.46862400  1
  O  O3  1  0.12347700  0.87652300  0.25000000  1
  O  O4  1  0.49990300  0.06148600  0.03137600  1
  O  O5  1  0.06148600  0.49990300  0.53137600  1
  O  O6  1  0.87652300  0.12347700  0.75000000  1
  O  O7  1  0.50009700  0.93851400  0.96862400  1
