# generated using pymatgen
data_H2Pd(PbO2)2
_symmetry_space_group_name_H-M   'P 1'
_cell_length_a   6.46785400
_cell_length_b   6.66478185
_cell_length_c   8.98170824
_cell_angle_alpha   74.38423803
_cell_angle_beta   73.58702989
_cell_angle_gamma   78.44466194
_symmetry_Int_Tables_number   1
_chemical_formula_structural   H2Pd(PbO2)2
_chemical_formula_sum   'H4 Pd2 Pb4 O8'
_cell_volume   354.43705251
_cell_formula_units_Z   2
loop_
 _symmetry_equiv_pos_site_id
 _symmetry_equiv_pos_as_xyz
  1  'x, y, z'
loop_
 _atom_site_type_symbol
 _atom_site_label
 _atom_site_symmetry_multiplicity
 _atom_site_fract_x
 _atom_site_fract_y
 _atom_site_fract_z
 _atom_site_occupancy
  H  H0  1  0.62431200  0.94362500  0.18759000  1
  H  H1  1  0.37568800  0.05637500  0.81241000  1
  H  H2  1  0.41346300  0.43098200  0.26215400  1
  H  H3  1  0.58653700  0.56901800  0.73784600  1
  Pd  Pd4  1  0.00000000  0.00000000  0.00000000  1
  Pd  Pd5  1  0.50000000  0.50000000  0.50000000  1
  Pb  Pb6  1  0.98232200  0.23843400  0.65801500  1
  Pb  Pb7  1  0.01767800  0.76156600  0.34198500  1
  Pb  Pb8  1  0.13101400  0.62679700  0.80664900  1
  Pb  Pb9  1  0.86898600  0.37320300  0.19335100  1
  O  O10  1  0.17304100  0.51292200  0.55758400  1
  O  O11  1  0.82695900  0.48707800  0.44241600  1
  O  O12  1  0.96385500  0.32043300  0.90109100  1
  O  O13  1  0.03614500  0.67956700  0.09890900  1
  O  O14  1  0.73017100  0.02911800  0.18832900  1
  O  O15  1  0.26982900  0.97088200  0.81167100  1
  O  O16  1  0.49999500  0.46631400  0.73484200  1
  O  O17  1  0.50000500  0.53368600  0.26515800  1
