# generated using pymatgen
data_SrBrO5
_symmetry_space_group_name_H-M   'P 1'
_cell_length_a   5.82408400
_cell_length_b   6.94748893
_cell_length_c   8.87766791
_cell_angle_alpha   102.92864576
_cell_angle_beta   87.58783749
_cell_angle_gamma   109.48095097
_symmetry_Int_Tables_number   1
_chemical_formula_structural   SrBrO5
_chemical_formula_sum   'Sr2 Br2 O10'
_cell_volume   329.85889605
_cell_formula_units_Z   2
loop_
 _symmetry_equiv_pos_site_id
 _symmetry_equiv_pos_as_xyz
  1  'x, y, z'
loop_
 _atom_site_type_symbol
 _atom_site_label
 _atom_site_symmetry_multiplicity
 _atom_site_fract_x
 _atom_site_fract_y
 _atom_site_fract_z
 _atom_site_occupancy
  Sr  Sr0  1  0.98071700  0.85862200  0.72699500  1
  Sr  Sr1  1  0.01928300  0.14137800  0.27300500  1
  Br  Br2  1  0.44133300  0.76434600  0.72521200  1
  Br  Br3  1  0.55866700  0.23565400  0.27478800  1
  O  O4  1  0.24801700  0.68380200  0.21911600  1
  O  O5  1  0.75198300  0.31619800  0.78088400  1
  O  O6  1  0.17184800  0.57552300  0.31698600  1
  O  O7  1  0.82815200  0.42447700  0.68301400  1
  O  O8  1  0.93754500  0.90297000  0.45806700  1
  O  O9  1  0.06245500  0.09703000  0.54193300  1
  O  O10  1  0.88751400  0.81152600  0.02922200  1
  O  O11  1  0.11248600  0.18847400  0.97077800  1
  O  O12  1  0.23098100  0.36514200  0.93913900  1
  O  O13  1  0.76901900  0.63485800  0.06086100  1
