# generated using pymatgen
data_TiSO6
_symmetry_space_group_name_H-M   'P 1'
_cell_length_a   5.29995700
_cell_length_b   8.73846300
_cell_length_c   11.27927100
_cell_angle_alpha   90.00000000
_cell_angle_beta   90.00000000
_cell_angle_gamma   90.00000000
_symmetry_Int_Tables_number   1
_chemical_formula_structural   TiSO6
_chemical_formula_sum   'Ti4 S4 O24'
_cell_volume   522.38227096
_cell_formula_units_Z   4
loop_
 _symmetry_equiv_pos_site_id
 _symmetry_equiv_pos_as_xyz
  1  'x, y, z'
loop_
 _atom_site_type_symbol
 _atom_site_label
 _atom_site_symmetry_multiplicity
 _atom_site_fract_x
 _atom_site_fract_y
 _atom_site_fract_z
 _atom_site_occupancy
  Ti  Ti0  1  0.25000000  0.02945600  0.60882500  1
  Ti  Ti1  1  0.25000000  0.47054400  0.10882500  1
  Ti  Ti2  1  0.75000000  0.97054400  0.39117500  1
  Ti  Ti3  1  0.75000000  0.52945600  0.89117500  1
  S  S4  1  0.75000000  0.21656600  0.71171100  1
  S  S5  1  0.75000000  0.28343400  0.21171100  1
  S  S6  1  0.25000000  0.78343400  0.28828900  1
  S  S7  1  0.25000000  0.71656600  0.78828900  1
  O  O8  1  0.00000000  0.00000000  0.50000000  1
  O  O9  1  0.50000000  0.50000000  0.00000000  1
  O  O10  1  0.50000000  0.00000000  0.50000000  1
  O  O11  1  0.00000000  0.50000000  0.00000000  1
  O  O12  1  0.75000000  0.21291000  0.09549200  1
  O  O13  1  0.75000000  0.28709000  0.59549200  1
  O  O14  1  0.25000000  0.78709000  0.90450800  1
  O  O15  1  0.25000000  0.71291000  0.40450800  1
  O  O16  1  0.25000000  0.83272100  0.68974800  1
  O  O17  1  0.25000000  0.66727900  0.18974800  1
  O  O18  1  0.75000000  0.16727900  0.31025200  1
  O  O19  1  0.75000000  0.33272100  0.81025200  1
  O  O20  1  0.52132800  0.11803500  0.73256400  1
  O  O21  1  0.97867200  0.38196500  0.23256400  1
  O  O22  1  0.02132800  0.88196500  0.26743600  1
  O  O23  1  0.47867200  0.61803500  0.76743600  1
  O  O24  1  0.47867200  0.88196500  0.26743600  1
  O  O25  1  0.02132800  0.61803500  0.76743600  1
  O  O26  1  0.97867200  0.11803500  0.73256400  1
  O  O27  1  0.52132800  0.38196500  0.23256400  1
  O  O28  1  0.75000000  0.75363800  0.91935300  1
  O  O29  1  0.75000000  0.74636200  0.41935300  1
  O  O30  1  0.25000000  0.24636200  0.08064700  1
  O  O31  1  0.25000000  0.25363800  0.58064700  1
