# generated using pymatgen
data_Tl2Mo3PCO12
_symmetry_space_group_name_H-M   'P 1'
_cell_length_a   7.37879900
_cell_length_b   7.38164265
_cell_length_c   7.72276410
_cell_angle_alpha   61.49056905
_cell_angle_beta   61.86369982
_cell_angle_gamma   60.05787614
_symmetry_Int_Tables_number   1
_chemical_formula_structural   Tl2Mo3PCO12
_chemical_formula_sum   'Tl2 Mo3 P1 C1 O12'
_cell_volume   304.88925912
_cell_formula_units_Z   1
loop_
 _symmetry_equiv_pos_site_id
 _symmetry_equiv_pos_as_xyz
  1  'x, y, z'
loop_
 _atom_site_type_symbol
 _atom_site_label
 _atom_site_symmetry_multiplicity
 _atom_site_fract_x
 _atom_site_fract_y
 _atom_site_fract_z
 _atom_site_occupancy
  Tl  Tl0  1  0.82348000  0.82349800  0.53007800  1
  Tl  Tl1  1  0.43969600  0.44130600  0.67750600  1
  Mo  Mo2  1  0.41705800  0.47733000  0.16976300  1
  Mo  Mo3  1  0.47875100  0.93676400  0.16871000  1
  Mo  Mo4  1  0.93710900  0.41806400  0.16747900  1
  P  P5  1  0.14980700  0.14124900  0.56715700  1
  C  C6  1  0.03685300  0.05820200  0.84672400  1
  O  O7  1  0.55719400  0.57488800  0.90888700  1
  O  O8  1  0.57084700  0.95893800  0.90821900  1
  O  O9  1  0.95593600  0.55976400  0.90753700  1
  O  O10  1  0.33414100  0.70851200  0.26033600  1
  O  O11  1  0.71008100  0.69665200  0.26012400  1
  O  O12  1  0.69793900  0.33437100  0.26068900  1
  O  O13  1  0.15651500  0.52921200  0.14770600  1
  O  O14  1  0.53190100  0.16675200  0.14360800  1
  O  O15  1  0.16581000  0.15829500  0.14714000  1
  O  O16  1  0.28672000  0.28357700  0.49626300  1
  O  O17  1  0.29231200  0.93323800  0.49623800  1
  O  O18  1  0.93391000  0.27534800  0.50785600  1
