# generated using pymatgen
data_TeINO10
_symmetry_space_group_name_H-M   'P 1'
_cell_length_a   13.54947608
_cell_length_b   8.47896370
_cell_length_c   6.54151600
_cell_angle_alpha   62.51723585
_cell_angle_beta   96.32731251
_cell_angle_gamma   101.05018897
_symmetry_Int_Tables_number   1
_chemical_formula_structural   TeINO10
_chemical_formula_sum   'Te2 I2 N2 O20'
_cell_volume   654.15012657
_cell_formula_units_Z   2
loop_
 _symmetry_equiv_pos_site_id
 _symmetry_equiv_pos_as_xyz
  1  'x, y, z'
loop_
 _atom_site_type_symbol
 _atom_site_label
 _atom_site_symmetry_multiplicity
 _atom_site_fract_x
 _atom_site_fract_y
 _atom_site_fract_z
 _atom_site_occupancy
  Te  Te0  1  0.76263000  0.71819000  0.75551900  1
  Te  Te1  1  0.23737000  0.28181000  0.24448100  1
  I  I2  1  0.20279600  0.64350200  0.73171400  1
  I  I3  1  0.79720400  0.35649800  0.26828600  1
  N  N4  1  0.10993100  0.20626800  0.64445300  1
  N  N5  1  0.89006900  0.79373200  0.35554700  1
  O  O6  1  0.77109800  0.45818300  0.92528300  1
  O  O7  1  0.22890200  0.54181700  0.07471700  1
  O  O8  1  0.46300700  0.41474700  0.80816800  1
  O  O9  1  0.53699300  0.58525300  0.19183200  1
  O  O10  1  0.65782000  0.73230300  0.55671600  1
  O  O11  1  0.34218000  0.26769700  0.44328400  1
  O  O12  1  0.57666700  0.46068200  0.34118800  1
  O  O13  1  0.42333300  0.53931800  0.65881200  1
  O  O14  1  0.76627300  0.77238900  0.99436200  1
  O  O15  1  0.23372700  0.22761100  0.00563800  1
  O  O16  1  0.89048600  0.81153600  0.61186600  1
  O  O17  1  0.10951400  0.18846400  0.38813400  1
  O  O18  1  0.95373100  0.89801200  0.24653800  1
  O  O19  1  0.04626900  0.10198800  0.75346200  1
  O  O20  1  0.92540000  0.45070600  0.28864400  1
  O  O21  1  0.07460000  0.54929400  0.71135600  1
  O  O22  1  0.79764300  0.13065000  0.31940700  1
  O  O23  1  0.20235700  0.86935000  0.68059300  1
  O  O24  1  0.51842800  0.01841900  0.07813100  1
  O  O25  1  0.48157200  0.98158100  0.92186900  1
