# generated using pymatgen
data_TiSi2C4(NCl2)2
_symmetry_space_group_name_H-M   'P 1'
_cell_length_a   14.15820100
_cell_length_b   7.11455400
_cell_length_c   16.67437972
_cell_angle_alpha   71.69445327
_cell_angle_beta   90.00000000
_cell_angle_gamma   90.00000000
_symmetry_Int_Tables_number   1
_chemical_formula_structural   TiSi2C4(NCl2)2
_chemical_formula_sum   'Ti4 Si8 C16 N8 Cl16'
_cell_volume   1594.60240898
_cell_formula_units_Z   4
loop_
 _symmetry_equiv_pos_site_id
 _symmetry_equiv_pos_as_xyz
  1  'x, y, z'
loop_
 _atom_site_type_symbol
 _atom_site_label
 _atom_site_symmetry_multiplicity
 _atom_site_fract_x
 _atom_site_fract_y
 _atom_site_fract_z
 _atom_site_occupancy
  Ti  Ti0  1  0.43133800  0.12003100  0.07386400  1
  Ti  Ti1  1  0.06866200  0.12003100  0.57386400  1
  Ti  Ti2  1  0.56866200  0.87996900  0.92613600  1
  Ti  Ti3  1  0.93133800  0.87996900  0.42613600  1
  Si  Si4  1  0.15332200  0.00489900  0.12907200  1
  Si  Si5  1  0.34667800  0.00489900  0.62907200  1
  Si  Si6  1  0.84667800  0.99510100  0.87092800  1
  Si  Si7  1  0.65332200  0.99510100  0.37092800  1
  Si  Si8  1  0.26167100  0.27736200  0.97240800  1
  Si  Si9  1  0.23832900  0.27736200  0.47240800  1
  Si  Si10  1  0.73832900  0.72263800  0.02759200  1
  Si  Si11  1  0.76167100  0.72263800  0.52759200  1
  C  C12  1  0.19154400  0.51673000  0.91932100  1
  C  C13  1  0.30845600  0.51673000  0.41932100  1
  C  C14  1  0.80845600  0.48327000  0.08067900  1
  C  C15  1  0.69154400  0.48327000  0.58067900  1
  C  C16  1  0.18353700  0.38872000  0.88068500  1
  C  C17  1  0.31646300  0.38872000  0.38068500  1
  C  C18  1  0.81646300  0.61128000  0.11931500  1
  C  C19  1  0.68353700  0.61128000  0.61931500  1
  C  C20  1  0.15536100  0.75766700  0.21038600  1
  C  C21  1  0.34463900  0.75766700  0.71038600  1
  C  C22  1  0.84463900  0.24233300  0.78961400  1
  C  C23  1  0.65536100  0.24233300  0.28961400  1
  C  C24  1  0.17298700  0.88493800  0.24754100  1
  C  C25  1  0.32701300  0.88493800  0.74754100  1
  C  C26  1  0.82701300  0.11506200  0.75245900  1
  C  C27  1  0.67298700  0.11506200  0.25245900  1
  N  N28  1  0.23982900  0.10313200  0.06330400  1
  N  N29  1  0.26017100  0.10313200  0.56330400  1
  N  N30  1  0.76017100  0.89686800  0.93669600  1
  N  N31  1  0.73982900  0.89686800  0.43669600  1
  N  N32  1  0.38205400  0.27041700  0.96590500  1
  N  N33  1  0.11794600  0.27041700  0.46590500  1
  N  N34  1  0.61794600  0.72958300  0.03409500  1
  N  N35  1  0.88205400  0.72958300  0.53409500  1
  Cl  Cl36  1  0.41070700  0.89210100  0.95789200  1
  Cl  Cl37  1  0.08929300  0.89210100  0.45789200  1
  Cl  Cl38  1  0.58929300  0.10789900  0.04210800  1
  Cl  Cl39  1  0.91070700  0.10789900  0.54210800  1
  Cl  Cl40  1  0.43876900  0.34999800  0.13553000  1
  Cl  Cl41  1  0.06123100  0.34999800  0.63553000  1
  Cl  Cl42  1  0.56123100  0.65000200  0.86447000  1
  Cl  Cl43  1  0.93876900  0.65000200  0.36447000  1
  Cl  Cl44  1  0.40974500  0.83032500  0.17503900  1
  Cl  Cl45  1  0.09025500  0.83032500  0.67503900  1
  Cl  Cl46  1  0.59025500  0.16967500  0.82496100  1
  Cl  Cl47  1  0.90974500  0.16967500  0.32496100  1
  Cl  Cl48  1  0.02354400  0.12229000  0.09523400  1
  Cl  Cl49  1  0.47645600  0.12229000  0.59523400  1
  Cl  Cl50  1  0.97645600  0.87771000  0.90476600  1
  Cl  Cl51  1  0.52354400  0.87771000  0.40476600  1
