# generated using pymatgen
data_SmFeO3
_symmetry_space_group_name_H-M   'P 1'
_cell_length_a   7.90017000
_cell_length_b   6.19491700
_cell_length_c   6.61938500
_cell_angle_alpha   90.00000000
_cell_angle_beta   90.00000000
_cell_angle_gamma   90.00000000
_symmetry_Int_Tables_number   1
_chemical_formula_structural   SmFeO3
_chemical_formula_sum   'Sm4 Fe4 O12'
_cell_volume   323.95864237
_cell_formula_units_Z   4
loop_
 _symmetry_equiv_pos_site_id
 _symmetry_equiv_pos_as_xyz
  1  'x, y, z'
loop_
 _atom_site_type_symbol
 _atom_site_label
 _atom_site_symmetry_multiplicity
 _atom_site_fract_x
 _atom_site_fract_y
 _atom_site_fract_z
 _atom_site_occupancy
  Sm  Sm0  1  0.40458600  0.55328600  0.25000000  1
  Sm  Sm1  1  0.09541400  0.05328600  0.25000000  1
  Sm  Sm2  1  0.59541400  0.44671400  0.75000000  1
  Sm  Sm3  1  0.90458600  0.94671400  0.75000000  1
  Fe  Fe4  1  0.00000000  0.50000000  0.00000000  1
  Fe  Fe5  1  0.50000000  0.00000000  0.50000000  1
  Fe  Fe6  1  0.00000000  0.50000000  0.50000000  1
  Fe  Fe7  1  0.50000000  0.00000000  0.00000000  1
  O  O8  1  0.05797600  0.78748800  0.00919400  1
  O  O9  1  0.44202400  0.28748800  0.49080600  1
  O  O10  1  0.94202400  0.21251200  0.50919400  1
  O  O11  1  0.55797600  0.71251200  0.99080600  1
  O  O12  1  0.94202400  0.21251200  0.99080600  1
  O  O13  1  0.55797600  0.71251200  0.50919400  1
  O  O14  1  0.05797600  0.78748800  0.49080600  1
  O  O15  1  0.44202400  0.28748800  0.00919400  1
  O  O16  1  0.38229100  0.94541700  0.25000000  1
  O  O17  1  0.11770900  0.44541700  0.25000000  1
  O  O18  1  0.61770900  0.05458300  0.75000000  1
  O  O19  1  0.88229100  0.55458300  0.75000000  1
