# generated using pymatgen
data_TeP2(N2O7)2
_symmetry_space_group_name_H-M   'P 1'
_cell_length_a   6.38262900
_cell_length_b   6.96562594
_cell_length_c   9.02864948
_cell_angle_alpha   97.24161353
_cell_angle_beta   99.08964803
_cell_angle_gamma   116.53529901
_symmetry_Int_Tables_number   1
_chemical_formula_structural   TeP2(N2O7)2
_chemical_formula_sum   'Te1 P2 N4 O14'
_cell_volume   345.71534689
_cell_formula_units_Z   1
loop_
 _symmetry_equiv_pos_site_id
 _symmetry_equiv_pos_as_xyz
  1  'x, y, z'
loop_
 _atom_site_type_symbol
 _atom_site_label
 _atom_site_symmetry_multiplicity
 _atom_site_fract_x
 _atom_site_fract_y
 _atom_site_fract_z
 _atom_site_occupancy
  Te  Te0  1  0.00000000  0.00000000  0.00000000  1
  P  P1  1  0.45512100  0.00818100  0.24888800  1
  P  P2  1  0.54487900  0.99181900  0.75111200  1
  N  N3  1  0.79035500  0.57263000  0.14915200  1
  N  N4  1  0.20964500  0.42737000  0.85084800  1
  N  N5  1  0.09474200  0.32751700  0.34850200  1
  N  N6  1  0.90525800  0.67248300  0.65149800  1
  O  O7  1  0.37915200  0.77363700  0.19562400  1
  O  O8  1  0.62084800  0.22636300  0.80437600  1
  O  O9  1  0.89427700  0.68234300  0.27735300  1
  O  O10  1  0.10572300  0.31765700  0.72264700  1
  O  O11  1  0.60718400  0.16188700  0.39612600  1
  O  O12  1  0.39281600  0.83811300  0.60387400  1
  O  O13  1  0.29387900  0.42498300  0.35377300  1
  O  O14  1  0.70612100  0.57501700  0.64622700  1
  O  O15  1  0.18605800  0.34482700  0.97401900  1
  O  O16  1  0.81394200  0.65517300  0.02598100  1
  O  O17  1  0.33817300  0.10931800  0.13994000  1
  O  O18  1  0.66182700  0.89068200  0.86006000  1
  O  O19  1  0.91510000  0.12312300  0.17409400  1
  O  O20  1  0.08490000  0.87687700  0.82590600  1
