# generated using pymatgen
data_V2Cu(PO7)2
_symmetry_space_group_name_H-M   'P 1'
_cell_length_a   8.93565400
_cell_length_b   7.17948500
_cell_length_c   8.88372875
_cell_angle_alpha   75.96288369
_cell_angle_beta   90.00000000
_cell_angle_gamma   90.00000000
_symmetry_Int_Tables_number   1
_chemical_formula_structural   V2Cu(PO7)2
_chemical_formula_sum   'V4 Cu2 P4 O28'
_cell_volume   552.90281730
_cell_formula_units_Z   2
loop_
 _symmetry_equiv_pos_site_id
 _symmetry_equiv_pos_as_xyz
  1  'x, y, z'
loop_
 _atom_site_type_symbol
 _atom_site_label
 _atom_site_symmetry_multiplicity
 _atom_site_fract_x
 _atom_site_fract_y
 _atom_site_fract_z
 _atom_site_occupancy
  V  V0  1  0.25000000  0.91793400  0.51394900  1
  V  V1  1  0.75000000  0.08206600  0.48605100  1
  V  V2  1  0.75000000  0.90594800  0.01992500  1
  V  V3  1  0.25000000  0.09405200  0.98007500  1
  Cu  Cu4  1  0.75000000  0.52282700  0.87006300  1
  Cu  Cu5  1  0.25000000  0.47717300  0.12993700  1
  P  P6  1  0.49958200  0.00689200  0.74826700  1
  P  P7  1  0.99958200  0.99310800  0.25173300  1
  P  P8  1  0.50041800  0.99310800  0.25173300  1
  P  P9  1  0.00041800  0.00689200  0.74826700  1
  O  O10  1  0.59713500  0.87152400  0.87156500  1
  O  O11  1  0.09713500  0.12847600  0.12843500  1
  O  O12  1  0.40286500  0.12847600  0.12843500  1
  O  O13  1  0.90286500  0.87152400  0.87156500  1
  O  O14  1  0.40026100  0.87587900  0.67428500  1
  O  O15  1  0.90026100  0.12412100  0.32571500  1
  O  O16  1  0.59973900  0.12412100  0.32571500  1
  O  O17  1  0.09973900  0.87587900  0.67428500  1
  O  O18  1  0.40128200  0.13878200  0.82224800  1
  O  O19  1  0.90128200  0.86121800  0.17775200  1
  O  O20  1  0.59871800  0.86121800  0.17775200  1
  O  O21  1  0.09871800  0.13878200  0.82224800  1
  O  O22  1  0.59941000  0.13894000  0.62393000  1
  O  O23  1  0.09941000  0.86106000  0.37607000  1
  O  O24  1  0.40059000  0.86106000  0.37607000  1
  O  O25  1  0.90059000  0.13894000  0.62393000  1
  O  O26  1  0.25000000  0.14827400  0.46233500  1
  O  O27  1  0.75000000  0.85172600  0.53766500  1
  O  O28  1  0.75000000  0.13914600  0.97225000  1
  O  O29  1  0.25000000  0.86085400  0.02775000  1
  O  O30  1  0.25000000  0.58293200  0.60710800  1
  O  O31  1  0.75000000  0.41706800  0.39289200  1
  O  O32  1  0.75000000  0.58895000  0.04692900  1
  O  O33  1  0.25000000  0.41105000  0.95307100  1
  O  O34  1  0.90674100  0.50450900  0.75874600  1
  O  O35  1  0.40674100  0.49549100  0.24125400  1
  O  O36  1  0.09325900  0.49549100  0.24125400  1
  O  O37  1  0.59325900  0.50450900  0.75874600  1
