# generated using pymatgen
data_SrBr2O7
_symmetry_space_group_name_H-M   'P 1'
_cell_length_a   7.33669453
_cell_length_b   7.33669453
_cell_length_c   8.66455681
_cell_angle_alpha   56.93576673
_cell_angle_beta   56.93576673
_cell_angle_gamma   64.78939102
_symmetry_Int_Tables_number   1
_chemical_formula_structural   SrBr2O7
_chemical_formula_sum   'Sr2 Br4 O14'
_cell_volume   322.05361260
_cell_formula_units_Z   2
loop_
 _symmetry_equiv_pos_site_id
 _symmetry_equiv_pos_as_xyz
  1  'x, y, z'
loop_
 _atom_site_type_symbol
 _atom_site_label
 _atom_site_symmetry_multiplicity
 _atom_site_fract_x
 _atom_site_fract_y
 _atom_site_fract_z
 _atom_site_occupancy
  Sr  Sr0  1  0.34102200  0.65897800  0.25000000  1
  Sr  Sr1  1  0.65897800  0.34102200  0.75000000  1
  Br  Br2  1  0.78725300  0.82691500  0.20047700  1
  Br  Br3  1  0.82691500  0.78725300  0.70047700  1
  Br  Br4  1  0.21274700  0.17308500  0.79952300  1
  Br  Br5  1  0.17308500  0.21274700  0.29952300  1
  O  O6  1  0.71616400  0.89826200  0.01607400  1
  O  O7  1  0.89826200  0.71616400  0.51607400  1
  O  O8  1  0.28383600  0.10173800  0.98392600  1
  O  O9  1  0.10173800  0.28383600  0.48392600  1
  O  O10  1  0.06442700  0.74264700  0.10655600  1
  O  O11  1  0.74264700  0.06442700  0.60655600  1
  O  O12  1  0.93557300  0.25735300  0.89344400  1
  O  O13  1  0.25735300  0.93557300  0.39344400  1
  O  O14  1  0.68423600  0.59137900  0.37512600  1
  O  O15  1  0.59137900  0.68423600  0.87512600  1
  O  O16  1  0.31576400  0.40862100  0.62487400  1
  O  O17  1  0.40862100  0.31576400  0.12487400  1
  O  O18  1  0.68000100  0.31999900  0.25000000  1
  O  O19  1  0.31999900  0.68000100  0.75000000  1
