# generated using pymatgen
data_V3O8
_symmetry_space_group_name_H-M   'P 1'
_cell_length_a   13.27213317
_cell_length_b   13.27213317
_cell_length_c   8.59124865
_cell_angle_alpha   82.28820202
_cell_angle_beta   82.28820202
_cell_angle_gamma   17.86166783
_symmetry_Int_Tables_number   1
_chemical_formula_structural   V3O8
_chemical_formula_sum   'V6 O16'
_cell_volume   459.87050454
_cell_formula_units_Z   2
loop_
 _symmetry_equiv_pos_site_id
 _symmetry_equiv_pos_as_xyz
  1  'x, y, z'
loop_
 _atom_site_type_symbol
 _atom_site_label
 _atom_site_symmetry_multiplicity
 _atom_site_fract_x
 _atom_site_fract_y
 _atom_site_fract_z
 _atom_site_occupancy
  V  V0  1  0.13438600  0.13438600  0.65868900  1
  V  V1  1  0.10767300  0.10767300  0.07350800  1
  V  V2  1  0.88319100  0.88319100  0.85259600  1
  V  V3  1  0.90796000  0.90796000  0.44886800  1
  V  V4  1  0.02233000  0.02233000  0.76999300  1
  V  V5  1  0.04404600  0.04404600  0.35865400  1
  O  O6  1  0.03750700  0.03750700  0.14544800  1
  O  O7  1  0.06654100  0.06654100  0.57390200  1
  O  O8  1  0.97576800  0.97576800  0.45935200  1
  O  O9  1  0.95497500  0.95497500  0.84876100  1
  O  O10  1  0.08355100  0.08355100  0.85885500  1
  O  O11  1  0.11665200  0.11665200  0.27199000  1
  O  O12  1  0.87235300  0.87235300  0.64593900  1
  O  O13  1  0.88598100  0.88598100  0.27817900  1
  O  O14  1  0.18319500  0.18319500  0.48675800  1
  O  O15  1  0.17011400  0.17011400  0.95496000  1
  O  O16  1  0.82237500  0.82237500  0.98650100  1
  O  O17  1  0.78314900  0.78314900  0.47041700  1
  O  O18  1  0.18694500  0.18694500  0.79372000  1
  O  O19  1  0.21880700  0.21880700  0.37110200  1
  O  O20  1  0.76167800  0.76167800  0.60739500  1
  O  O21  1  0.78082500  0.78082500  0.08440900  1
