# generated using pymatgen
data_Tb(NO5)3
_symmetry_space_group_name_H-M   'P 1'
_cell_length_a   7.18158800
_cell_length_b   8.55524956
_cell_length_c   11.71524960
_cell_angle_alpha   71.45423684
_cell_angle_beta   78.71466247
_cell_angle_gamma   71.73467222
_symmetry_Int_Tables_number   1
_chemical_formula_structural   Tb(NO5)3
_chemical_formula_sum   'Tb2 N6 O30'
_cell_volume   644.33123866
_cell_formula_units_Z   2
loop_
 _symmetry_equiv_pos_site_id
 _symmetry_equiv_pos_as_xyz
  1  'x, y, z'
loop_
 _atom_site_type_symbol
 _atom_site_label
 _atom_site_symmetry_multiplicity
 _atom_site_fract_x
 _atom_site_fract_y
 _atom_site_fract_z
 _atom_site_occupancy
  Tb  Tb0  1  0.47066600  0.35442200  0.29006800  1
  Tb  Tb1  1  0.52933400  0.64557800  0.70993200  1
  N  N2  1  0.57518500  0.08248700  0.18702300  1
  N  N3  1  0.42481500  0.91751300  0.81297700  1
  N  N4  1  0.24087600  0.32933300  0.51289300  1
  N  N5  1  0.75912400  0.67066700  0.48710700  1
  N  N6  1  0.23900400  0.66743500  0.17120800  1
  N  N7  1  0.76099600  0.33256500  0.82879200  1
  O  O8  1  0.78272600  0.59030800  0.06164800  1
  O  O9  1  0.21727400  0.40969200  0.93835200  1
  O  O10  1  0.78376500  0.11497700  0.51385200  1
  O  O11  1  0.21623500  0.88502300  0.48614800  1
  O  O12  1  0.86740300  0.33593600  0.28175600  1
  O  O13  1  0.13259700  0.66406400  0.71824400  1
  O  O14  1  0.97980700  0.22228300  0.23792900  1
  O  O15  1  0.02019300  0.77771700  0.76207100  1
  O  O16  1  0.18826700  0.26853500  0.99099200  1
  O  O17  1  0.81173300  0.73146500  0.00900800  1
  O  O18  1  0.81215900  0.11919700  0.61300300  1
  O  O19  1  0.18784100  0.88080300  0.38699700  1
  O  O20  1  0.58477300  0.23717500  0.12423000  1
  O  O21  1  0.41522700  0.76282500  0.87577000  1
  O  O22  1  0.55751400  0.05860700  0.30434700  1
  O  O23  1  0.44248600  0.94139300  0.69565300  1
  O  O24  1  0.57623000  0.97412000  0.14126800  1
  O  O25  1  0.42377000  0.02588000  0.85873200  1
  O  O26  1  0.22183800  0.26953800  0.42673900  1
  O  O27  1  0.77816200  0.73046200  0.57326100  1
  O  O28  1  0.39286700  0.38831300  0.49271100  1
  O  O29  1  0.60713300  0.61168700  0.50728900  1
  O  O30  1  0.12301500  0.32987100  0.60251500  1
  O  O31  1  0.87698500  0.67012900  0.39748500  1
  O  O32  1  0.37823900  0.65764200  0.23097000  1
  O  O33  1  0.62176100  0.34235800  0.76903000  1
  O  O34  1  0.23408700  0.51756700  0.16457000  1
  O  O35  1  0.76591300  0.48243300  0.83543000  1
  O  O36  1  0.12260300  0.79965400  0.12603700  1
  O  O37  1  0.87739700  0.20034600  0.87396300  1
