# generated using pymatgen
data_TlFeO2
_symmetry_space_group_name_H-M   'P 1'
_cell_length_a   6.10955280
_cell_length_b   6.10955280
_cell_length_c   6.10955254
_cell_angle_alpha   59.72679779
_cell_angle_beta   59.72679779
_cell_angle_gamma   59.72679385
_symmetry_Int_Tables_number   1
_chemical_formula_structural   TlFeO2
_chemical_formula_sum   'Tl2 Fe2 O4'
_cell_volume   160.25447333
_cell_formula_units_Z   2
loop_
 _symmetry_equiv_pos_site_id
 _symmetry_equiv_pos_as_xyz
  1  'x, y, z'
loop_
 _atom_site_type_symbol
 _atom_site_label
 _atom_site_symmetry_multiplicity
 _atom_site_fract_x
 _atom_site_fract_y
 _atom_site_fract_z
 _atom_site_occupancy
  Tl  Tl0  1  0.87817800  0.87817800  0.87817800  1
  Tl  Tl1  1  0.12182200  0.12182200  0.12182200  1
  Fe  Fe2  1  0.62463800  0.62463800  0.62463800  1
  Fe  Fe3  1  0.37536200  0.37536200  0.37536200  1
  O  O4  1  0.00000000  0.50000000  0.50000000  1
  O  O5  1  0.50000000  0.00000000  0.50000000  1
  O  O6  1  0.50000000  0.50000000  0.00000000  1
  O  O7  1  0.50000000  0.50000000  0.50000000  1
