# generated using pymatgen
data_TiCdO3
_symmetry_space_group_name_H-M   'P 1'
_cell_length_a   3.85238200
_cell_length_b   7.06765700
_cell_length_c   9.41505000
_cell_angle_alpha   90.00000000
_cell_angle_beta   90.00000000
_cell_angle_gamma   90.00000000
_symmetry_Int_Tables_number   1
_chemical_formula_structural   TiCdO3
_chemical_formula_sum   'Ti4 Cd4 O12'
_cell_volume   256.34652841
_cell_formula_units_Z   4
loop_
 _symmetry_equiv_pos_site_id
 _symmetry_equiv_pos_as_xyz
  1  'x, y, z'
loop_
 _atom_site_type_symbol
 _atom_site_label
 _atom_site_symmetry_multiplicity
 _atom_site_fract_x
 _atom_site_fract_y
 _atom_site_fract_z
 _atom_site_occupancy
  Ti  Ti0  1  0.96537500  0.75052400  0.29038400  1
  Ti  Ti1  1  0.03462500  0.25052400  0.70961600  1
  Ti  Ti2  1  0.03462500  0.25052400  0.29038400  1
  Ti  Ti3  1  0.96537500  0.75052400  0.70961600  1
  Cd  Cd4  1  0.68185900  0.03808500  0.00000000  1
  Cd  Cd5  1  0.49336000  0.99013500  0.50000000  1
  Cd  Cd6  1  0.31814100  0.53808500  0.00000000  1
  Cd  Cd7  1  0.50664000  0.49013500  0.50000000  1
  O  O8  1  0.77810100  0.72546400  0.00000000  1
  O  O9  1  0.99290900  0.98944300  0.22489000  1
  O  O10  1  0.48882900  0.71922000  0.67367100  1
  O  O11  1  0.51117100  0.21922000  0.67367100  1
  O  O12  1  0.48882900  0.71922000  0.32632900  1
  O  O13  1  0.00829500  0.31804400  0.50000000  1
  O  O14  1  0.00709100  0.48944300  0.22489000  1
  O  O15  1  0.22189900  0.22546400  0.00000000  1
  O  O16  1  0.99290900  0.98944300  0.77511000  1
  O  O17  1  0.00709100  0.48944300  0.77511000  1
  O  O18  1  0.51117100  0.21922000  0.32632900  1
  O  O19  1  0.99170500  0.81804400  0.50000000  1
