# generated using pymatgen
data_Mg(CO3)2
_symmetry_space_group_name_H-M   'P 1'
_cell_length_a   5.50404900
_cell_length_b   6.39972017
_cell_length_c   7.86627222
_cell_angle_alpha   75.49002310
_cell_angle_beta   69.52178415
_cell_angle_gamma   64.53099871
_symmetry_Int_Tables_number   1
_chemical_formula_structural   Mg(CO3)2
_chemical_formula_sum   'Mg2 C4 O12'
_cell_volume   232.70101612
_cell_formula_units_Z   2
loop_
 _symmetry_equiv_pos_site_id
 _symmetry_equiv_pos_as_xyz
  1  'x, y, z'
loop_
 _atom_site_type_symbol
 _atom_site_label
 _atom_site_symmetry_multiplicity
 _atom_site_fract_x
 _atom_site_fract_y
 _atom_site_fract_z
 _atom_site_occupancy
  Mg  Mg0  1  0.16749200  0.25000000  0.75000000  1
  Mg  Mg1  1  0.83250800  0.75000000  0.25000000  1
  C  C2  1  0.61340200  0.24606900  0.85756100  1
  C  C3  1  0.71703300  0.25393100  0.64243900  1
  C  C4  1  0.38659800  0.75393100  0.14243900  1
  C  C5  1  0.28296700  0.74606900  0.35756100  1
  O  O6  1  0.36888900  0.25155900  0.93172900  1
  O  O7  1  0.55217800  0.24844100  0.56827100  1
  O  O8  1  0.63111100  0.74844100  0.06827100  1
  O  O9  1  0.44782200  0.75155900  0.43172900  1
  O  O10  1  0.78967600  0.23278500  0.93261400  1
  O  O11  1  0.95507600  0.26721500  0.56738600  1
  O  O12  1  0.21032400  0.76721500  0.06738600  1
  O  O13  1  0.04492400  0.73278500  0.43261400  1
  O  O14  1  0.00107000  0.62331500  0.73912300  1
  O  O15  1  0.36350900  0.87668500  0.76087700  1
  O  O16  1  0.99893000  0.37668500  0.26087700  1
  O  O17  1  0.63649100  0.12331500  0.23912300  1
