# generated using pymatgen
data_SrZnPb
_symmetry_space_group_name_H-M   'P 1'
_cell_length_a   4.79900094
_cell_length_b   4.79900094
_cell_length_c   9.08267800
_cell_angle_alpha   90.00000000
_cell_angle_beta   90.00000000
_cell_angle_gamma   120.00001298
_symmetry_Int_Tables_number   1
_chemical_formula_structural   SrZnPb
_chemical_formula_sum   'Sr2 Zn2 Pb2'
_cell_volume   181.15326378
_cell_formula_units_Z   2
loop_
 _symmetry_equiv_pos_site_id
 _symmetry_equiv_pos_as_xyz
  1  'x, y, z'
loop_
 _atom_site_type_symbol
 _atom_site_label
 _atom_site_symmetry_multiplicity
 _atom_site_fract_x
 _atom_site_fract_y
 _atom_site_fract_z
 _atom_site_occupancy
  Sr  Sr0  1  0.00000000  0.00000000  0.50000000  1
  Sr  Sr1  1  0.00000000  0.00000000  0.00000000  1
  Zn  Zn2  1  0.33333300  0.66666700  0.75000000  1
  Zn  Zn3  1  0.66666700  0.33333300  0.25000000  1
  Pb  Pb4  1  0.33333300  0.66666700  0.25000000  1
  Pb  Pb5  1  0.66666700  0.33333300  0.75000000  1
