# generated using pymatgen
data_TlPO4
_symmetry_space_group_name_H-M   'P 1'
_cell_length_a   4.56881700
_cell_length_b   4.67137800
_cell_length_c   14.59567688
_cell_angle_alpha   89.80808829
_cell_angle_beta   90.00000000
_cell_angle_gamma   90.00000000
_symmetry_Int_Tables_number   1
_chemical_formula_structural   TlPO4
_chemical_formula_sum   'Tl4 P4 O16'
_cell_volume   311.50898534
_cell_formula_units_Z   4
loop_
 _symmetry_equiv_pos_site_id
 _symmetry_equiv_pos_as_xyz
  1  'x, y, z'
loop_
 _atom_site_type_symbol
 _atom_site_label
 _atom_site_symmetry_multiplicity
 _atom_site_fract_x
 _atom_site_fract_y
 _atom_site_fract_z
 _atom_site_occupancy
  Tl  Tl0  1  0.51472700  0.73694400  0.63681200  1
  Tl  Tl1  1  0.01472700  0.26305600  0.86318800  1
  Tl  Tl2  1  0.48527300  0.26305600  0.36318800  1
  Tl  Tl3  1  0.98527300  0.73694400  0.13681200  1
  P  P4  1  0.51758900  0.75595800  0.87617100  1
  P  P5  1  0.01758900  0.24404200  0.62382900  1
  P  P6  1  0.48241100  0.24404200  0.12382900  1
  P  P7  1  0.98241100  0.75595800  0.37617100  1
  O  O8  1  0.72606800  0.57465500  0.93782400  1
  O  O9  1  0.22606800  0.42534500  0.56217600  1
  O  O10  1  0.27393200  0.42534500  0.06217600  1
  O  O11  1  0.77393200  0.57465500  0.43782400  1
  O  O12  1  0.70082800  0.95061100  0.81006700  1
  O  O13  1  0.20082800  0.04938900  0.68993300  1
  O  O14  1  0.29917200  0.04938900  0.18993300  1
  O  O15  1  0.79917200  0.95061100  0.31006700  1
  O  O16  1  0.34966800  0.55340400  0.80834800  1
  O  O17  1  0.84966800  0.44659600  0.69165200  1
  O  O18  1  0.65033200  0.44659600  0.19165200  1
  O  O19  1  0.15033200  0.55340400  0.30834800  1
  O  O20  1  0.29714400  0.93374800  0.93300100  1
  O  O21  1  0.79714400  0.06625200  0.56699900  1
  O  O22  1  0.70285600  0.06625200  0.06699900  1
  O  O23  1  0.20285600  0.93374800  0.43300100  1
