# generated using pymatgen
data_TeMo3(NO6)2
_symmetry_space_group_name_H-M   'P 1'
_cell_length_a   7.48145827
_cell_length_b   7.48145827
_cell_length_c   11.74284300
_cell_angle_alpha   90.00000000
_cell_angle_beta   90.00000000
_cell_angle_gamma   120.00000241
_symmetry_Int_Tables_number   1
_chemical_formula_structural   TeMo3(NO6)2
_chemical_formula_sum   'Te2 Mo6 N4 O24'
_cell_volume   569.21507279
_cell_formula_units_Z   2
loop_
 _symmetry_equiv_pos_site_id
 _symmetry_equiv_pos_as_xyz
  1  'x, y, z'
loop_
 _atom_site_type_symbol
 _atom_site_label
 _atom_site_symmetry_multiplicity
 _atom_site_fract_x
 _atom_site_fract_y
 _atom_site_fract_z
 _atom_site_occupancy
  Te  Te0  1  0.00000000  0.00000000  0.63278600  1
  Te  Te1  1  0.00000000  0.00000000  0.13278600  1
  Mo  Mo2  1  0.79734700  0.11500800  0.88301000  1
  Mo  Mo3  1  0.31766100  0.20265300  0.88301000  1
  Mo  Mo4  1  0.88499200  0.68233900  0.88301000  1
  Mo  Mo5  1  0.20265300  0.88499200  0.38301000  1
  Mo  Mo6  1  0.68233900  0.79734700  0.38301000  1
  Mo  Mo7  1  0.11500800  0.31766100  0.38301000  1
  N  N8  1  0.66666700  0.33333300  0.59816700  1
  N  N9  1  0.33333300  0.66666700  0.09816700  1
  N  N10  1  0.33333300  0.66666700  0.71289000  1
  N  N11  1  0.66666700  0.33333300  0.21289000  1
  O  O12  1  0.12856700  0.27982800  0.88331100  1
  O  O13  1  0.15126100  0.87143300  0.88331100  1
  O  O14  1  0.72017200  0.84873900  0.88331100  1
  O  O15  1  0.87143300  0.72017200  0.38331100  1
  O  O16  1  0.84873900  0.12856700  0.38331100  1
  O  O17  1  0.27982800  0.15126100  0.38331100  1
  O  O18  1  0.13177900  0.25661600  0.54336000  1
  O  O19  1  0.12483800  0.86822100  0.54336000  1
  O  O20  1  0.74338400  0.87516200  0.54336000  1
  O  O21  1  0.86822100  0.74338400  0.04336000  1
  O  O22  1  0.87516200  0.13177900  0.04336000  1
  O  O23  1  0.25661600  0.12483800  0.04336000  1
  O  O24  1  0.55399200  0.09943300  0.88262300  1
  O  O25  1  0.54544100  0.44600800  0.88262300  1
  O  O26  1  0.90056700  0.45455900  0.88262300  1
  O  O27  1  0.44600800  0.90056700  0.38262300  1
  O  O28  1  0.45455900  0.55399200  0.38262300  1
  O  O29  1  0.09943300  0.54544100  0.38262300  1
  O  O30  1  0.87567300  0.13137800  0.72299800  1
  O  O31  1  0.25570600  0.12432700  0.72299800  1
  O  O32  1  0.86862200  0.74429400  0.72299800  1
  O  O33  1  0.12432700  0.86862200  0.22299800  1
  O  O34  1  0.74429400  0.87567300  0.22299800  1
  O  O35  1  0.13137800  0.25570600  0.22299800  1
