# generated using pymatgen
data_TeO3
_symmetry_space_group_name_H-M   'P 1'
_cell_length_a   5.14452300
_cell_length_b   8.09336600
_cell_length_c   9.72433200
_cell_angle_alpha   90.00000000
_cell_angle_beta   90.00000000
_cell_angle_gamma   90.00000000
_symmetry_Int_Tables_number   1
_chemical_formula_structural   TeO3
_chemical_formula_sum   'Te8 O24'
_cell_volume   404.88722259
_cell_formula_units_Z   8
loop_
 _symmetry_equiv_pos_site_id
 _symmetry_equiv_pos_as_xyz
  1  'x, y, z'
loop_
 _atom_site_type_symbol
 _atom_site_label
 _atom_site_symmetry_multiplicity
 _atom_site_fract_x
 _atom_site_fract_y
 _atom_site_fract_z
 _atom_site_occupancy
  Te  Te0  1  0.18797700  0.37952500  0.08961900  1
  Te  Te1  1  0.68797700  0.62047500  0.91038100  1
  Te  Te2  1  0.68797700  0.87952500  0.41038100  1
  Te  Te3  1  0.18797700  0.12047500  0.58961900  1
  Te  Te4  1  0.98271000  0.47195600  0.37474800  1
  Te  Te5  1  0.48271000  0.52804400  0.62525200  1
  Te  Te6  1  0.48271000  0.97195600  0.12525200  1
  Te  Te7  1  0.98271000  0.02804400  0.87474800  1
  O  O8  1  0.08874000  0.24866500  0.43200200  1
  O  O9  1  0.58874000  0.75133500  0.56799800  1
  O  O10  1  0.58874000  0.74866500  0.06799800  1
  O  O11  1  0.08874000  0.25133500  0.93200200  1
  O  O12  1  0.66263000  0.41954800  0.47491500  1
  O  O13  1  0.16263000  0.58045200  0.52508500  1
  O  O14  1  0.16263000  0.91954800  0.02508500  1
  O  O15  1  0.66263000  0.08045200  0.97491500  1
  O  O16  1  0.86679000  0.35843500  0.20742300  1
  O  O17  1  0.36679000  0.64156500  0.79257700  1
  O  O18  1  0.36679000  0.85843500  0.29257700  1
  O  O19  1  0.86679000  0.14156500  0.70742300  1
  O  O20  1  0.34603100  0.31395500  0.68058200  1
  O  O21  1  0.84603100  0.68604500  0.31941800  1
  O  O22  1  0.84603100  0.81395500  0.81941800  1
  O  O23  1  0.34603100  0.18604500  0.18058200  1
  O  O24  1  0.51894800  0.43058000  0.00089500  1
  O  O25  1  0.01894800  0.56942000  0.99910500  1
  O  O26  1  0.01894800  0.93058000  0.49910500  1
  O  O27  1  0.51894800  0.06942000  0.50089500  1
  O  O28  1  0.28941400  0.50566200  0.25395000  1
  O  O29  1  0.78941400  0.49433800  0.74605000  1
  O  O30  1  0.78941400  0.00566200  0.24605000  1
  O  O31  1  0.28941400  0.99433800  0.75395000  1
