# generated using pymatgen
data_V3(H3O5)2
_symmetry_space_group_name_H-M   'P 1'
_cell_length_a   6.11250500
_cell_length_b   8.92729731
_cell_length_c   9.01332904
_cell_angle_alpha   88.53370840
_cell_angle_beta   85.10064333
_cell_angle_gamma   79.97093205
_symmetry_Int_Tables_number   1
_chemical_formula_structural   V3(H3O5)2
_chemical_formula_sum   'V6 H12 O20'
_cell_volume   482.52674612
_cell_formula_units_Z   2
loop_
 _symmetry_equiv_pos_site_id
 _symmetry_equiv_pos_as_xyz
  1  'x, y, z'
loop_
 _atom_site_type_symbol
 _atom_site_label
 _atom_site_symmetry_multiplicity
 _atom_site_fract_x
 _atom_site_fract_y
 _atom_site_fract_z
 _atom_site_occupancy
  V  V0  1  0.73526600  0.49729300  0.50026200  1
  V  V1  1  0.74799500  0.98188500  0.00095200  1
  V  V2  1  0.76863500  0.62271400  0.13424400  1
  V  V3  1  0.73482100  0.36039800  0.87433900  1
  V  V4  1  0.70627900  0.84894500  0.65222400  1
  V  V5  1  0.68541900  0.13526700  0.36794900  1
  H  H6  1  0.35808000  0.66001000  0.45689400  1
  H  H7  1  0.32610200  0.13678300  0.05749900  1
  H  H8  1  0.32265600  0.54839600  0.86448000  1
  H  H9  1  0.29894200  0.17503700  0.46570800  1
  H  H10  1  0.11366700  0.69749800  0.90740600  1
  H  H11  1  0.31337700  0.73029200  0.77858400  1
  H  H12  1  0.31943900  0.32146500  0.03269800  1
  H  H13  1  0.28557100  0.24282500  0.20602200  1
  H  H14  1  0.10472500  0.80981300  0.39544800  1
  H  H15  1  0.31617200  0.75993900  0.27796800  1
  H  H16  1  0.24307100  0.04218000  0.65655600  1
  H  H17  1  0.05582200  0.19238800  0.64803000  1
  O  O18  1  0.45289800  0.55541900  0.50491100  1
  O  O19  1  0.47227100  0.99901600  0.01090200  1
  O  O20  1  0.85509600  0.55974300  0.31005100  1
  O  O21  1  0.81242000  0.39197500  0.68721600  1
  O  O22  1  0.83966900  0.89494900  0.80211100  1
  O  O23  1  0.79359700  0.06925600  0.19708300  1
  O  O24  1  0.83093900  0.67228000  0.58241300  1
  O  O25  1  0.79471400  0.28971300  0.41658200  1
  O  O26  1  0.82421500  0.17202800  0.91634500  1
  O  O27  1  0.88819100  0.78235000  0.07349000  1
  O  O28  1  0.49406100  0.66707900  0.14437700  1
  O  O29  1  0.45077700  0.40660700  0.91112400  1
  O  O30  1  0.43478400  0.84885800  0.70280300  1
  O  O31  1  0.39083000  0.18838200  0.36284600  1
  O  O32  1  0.85583200  0.47842400  0.99170400  1
  O  O33  1  0.74034100  0.98860100  0.50335000  1
  O  O34  1  0.22364900  0.64998100  0.82766600  1
  O  O35  1  0.24658800  0.24417300  0.09853500  1
  O  O36  1  0.26732900  0.78807000  0.38399700  1
  O  O37  1  0.21058200  0.14709900  0.61763900  1
