# generated using pymatgen
data_SrI2O
_symmetry_space_group_name_H-M   'P 1'
_cell_length_a   4.45476100
_cell_length_b   8.83170600
_cell_length_c   13.57056900
_cell_angle_alpha   90.00000000
_cell_angle_beta   90.00000000
_cell_angle_gamma   90.00000000
_symmetry_Int_Tables_number   1
_chemical_formula_structural   SrI2O
_chemical_formula_sum   'Sr4 I8 O4'
_cell_volume   533.90878861
_cell_formula_units_Z   4
loop_
 _symmetry_equiv_pos_site_id
 _symmetry_equiv_pos_as_xyz
  1  'x, y, z'
loop_
 _atom_site_type_symbol
 _atom_site_label
 _atom_site_symmetry_multiplicity
 _atom_site_fract_x
 _atom_site_fract_y
 _atom_site_fract_z
 _atom_site_occupancy
  Sr  Sr0  1  0.75000000  0.89350800  0.15146700  1
  Sr  Sr1  1  0.75000000  0.60649200  0.65146700  1
  Sr  Sr2  1  0.25000000  0.10649200  0.84853300  1
  Sr  Sr3  1  0.25000000  0.39350800  0.34853300  1
  I  I4  1  0.25000000  0.18591500  0.10561100  1
  I  I5  1  0.25000000  0.31408500  0.60561100  1
  I  I6  1  0.75000000  0.81408500  0.89438900  1
  I  I7  1  0.75000000  0.68591500  0.39438900  1
  I  I8  1  0.25000000  0.56250200  0.12370200  1
  I  I9  1  0.25000000  0.93749800  0.62370200  1
  I  I10  1  0.75000000  0.43749800  0.87629800  1
  I  I11  1  0.75000000  0.06250200  0.37629800  1
  O  O12  1  0.25000000  0.78778700  0.14485100  1
  O  O13  1  0.25000000  0.71221300  0.64485100  1
  O  O14  1  0.75000000  0.21221300  0.85514900  1
  O  O15  1  0.75000000  0.28778700  0.35514900  1
