# generated using pymatgen
data_Tl(C2O5)2
_symmetry_space_group_name_H-M   'P 1'
_cell_length_a   6.77491900
_cell_length_b   8.39051699
_cell_length_c   12.76868142
_cell_angle_alpha   105.70084531
_cell_angle_beta   89.58015475
_cell_angle_gamma   95.02497400
_symmetry_Int_Tables_number   1
_chemical_formula_structural   Tl(C2O5)2
_chemical_formula_sum   'Tl2 C8 O20'
_cell_volume   695.96696301
_cell_formula_units_Z   2
loop_
 _symmetry_equiv_pos_site_id
 _symmetry_equiv_pos_as_xyz
  1  'x, y, z'
loop_
 _atom_site_type_symbol
 _atom_site_label
 _atom_site_symmetry_multiplicity
 _atom_site_fract_x
 _atom_site_fract_y
 _atom_site_fract_z
 _atom_site_occupancy
  Tl  Tl0  1  0.64984100  0.61112200  0.77332400  1
  Tl  Tl1  1  0.35015900  0.38887800  0.22667600  1
  C  C2  1  0.14424200  0.49573600  0.62217200  1
  C  C3  1  0.85575800  0.50426400  0.37782800  1
  C  C4  1  0.98901400  0.91776100  0.61724300  1
  C  C5  1  0.01098600  0.08223900  0.38275700  1
  C  C6  1  0.21610100  0.97254500  0.90049000  1
  C  C7  1  0.78389900  0.02745500  0.09951000  1
  C  C8  1  0.26065800  0.78404300  0.13458200  1
  C  C9  1  0.73934200  0.21595700  0.86541800  1
  O  O10  1  0.27236500  0.58326200  0.59856700  1
  O  O11  1  0.72763500  0.41673800  0.40143300  1
  O  O12  1  0.01219300  0.41139400  0.64474400  1
  O  O13  1  0.98780700  0.58860600  0.35525600  1
  O  O14  1  0.85961800  0.81153900  0.58845000  1
  O  O15  1  0.14038200  0.18846100  0.41155000  1
  O  O16  1  0.11815500  0.02346500  0.64621100  1
  O  O17  1  0.88184500  0.97653500  0.35378900  1
  O  O18  1  0.17289200  0.84120000  0.83992300  1
  O  O19  1  0.82710800  0.15880000  0.16007700  1
  O  O20  1  0.25805800  0.10296500  0.96242900  1
  O  O21  1  0.74194200  0.89703500  0.03757100  1
  O  O22  1  0.29554900  0.92718000  0.17650900  1
  O  O23  1  0.70445100  0.07282000  0.82349100  1
  O  O24  1  0.22236800  0.64271100  0.09011300  1
  O  O25  1  0.77763200  0.35728900  0.90988700  1
  O  O26  1  0.37503400  0.40253500  0.79911400  1
  O  O27  1  0.62496600  0.59746500  0.20088600  1
  O  O28  1  0.48822700  0.33018400  0.71472400  1
  O  O29  1  0.51177300  0.66981600  0.28527600  1
