# generated using pymatgen
data_Tl4B8O17
_symmetry_space_group_name_H-M   'P 1'
_cell_length_a   7.07219200
_cell_length_b   9.57927910
_cell_length_c   13.35185914
_cell_angle_alpha   89.71872256
_cell_angle_beta   82.95330575
_cell_angle_gamma   89.53380059
_symmetry_Int_Tables_number   1
_chemical_formula_structural   Tl4B8O17
_chemical_formula_sum   'Tl8 B16 O34'
_cell_volume   897.67259719
_cell_formula_units_Z   2
loop_
 _symmetry_equiv_pos_site_id
 _symmetry_equiv_pos_as_xyz
  1  'x, y, z'
loop_
 _atom_site_type_symbol
 _atom_site_label
 _atom_site_symmetry_multiplicity
 _atom_site_fract_x
 _atom_site_fract_y
 _atom_site_fract_z
 _atom_site_occupancy
  Tl  Tl0  1  0.41486300  0.35024000  0.16596200  1
  Tl  Tl1  1  0.58513700  0.64976000  0.83403800  1
  Tl  Tl2  1  0.95340800  0.02861700  0.11412800  1
  Tl  Tl3  1  0.04659200  0.97138300  0.88587200  1
  Tl  Tl4  1  0.34852200  0.65961600  0.32807700  1
  Tl  Tl5  1  0.65147800  0.34038400  0.67192300  1
  Tl  Tl6  1  0.82194800  0.89941100  0.40023000  1
  Tl  Tl7  1  0.17805200  0.10058900  0.59977000  1
  B  B8  1  0.56722300  0.87630000  0.20313700  1
  B  B9  1  0.43277700  0.12370000  0.79686300  1
  B  B10  1  0.25789400  0.00820600  0.25508400  1
  B  B11  1  0.74210600  0.99179400  0.74491600  1
  B  B12  1  0.56743400  0.12068600  0.28786200  1
  B  B13  1  0.43256600  0.87931400  0.71213800  1
  B  B14  1  0.61951400  0.23982100  0.44949600  1
  B  B15  1  0.38048600  0.76017900  0.55050400  1
  B  B16  1  0.70684700  0.37508100  0.29712700  1
  B  B17  1  0.29315300  0.62491900  0.70287300  1
  B  B18  1  0.00271600  0.50457400  0.24742700  1
  B  B19  1  0.99728400  0.49542600  0.75257300  1
  B  B20  1  0.71516900  0.62142200  0.19612700  1
  B  B21  1  0.28483100  0.37857800  0.80387300  1
  B  B22  1  0.66723400  0.74971600  0.04268500  1
  B  B23  1  0.33276600  0.25028400  0.95731500  1
  O  O24  1  0.61787400  0.87019000  0.09492400  1
  O  O25  1  0.38212600  0.12981000  0.90507600  1
  O  O26  1  0.35644200  0.88267200  0.23431200  1
  O  O27  1  0.64355800  0.11732800  0.76568800  1
  O  O28  1  0.66375300  0.99707600  0.24084300  1
  O  O29  1  0.33624700  0.00292400  0.75915700  1
  O  O30  1  0.06404700  0.01482200  0.25922500  1
  O  O31  1  0.93595300  0.98517800  0.74077500  1
  O  O32  1  0.36193900  0.12554900  0.27390700  1
  O  O33  1  0.63806100  0.87445100  0.72609300  1
  O  O34  1  0.59618600  0.12011600  0.39523900  1
  O  O35  1  0.40381400  0.87988400  0.60476100  1
  O  O36  1  0.64869900  0.25152000  0.23990100  1
  O  O37  1  0.35130100  0.74848000  0.76009900  1
  O  O38  1  0.62553300  0.21191600  0.55076500  1
  O  O39  1  0.37446700  0.78808400  0.44923500  1
  O  O40  1  0.63503400  0.36874000  0.40469900  1
  O  O41  1  0.36496600  0.63126000  0.59530100  1
  O  O42  1  0.91218200  0.38688100  0.28318700  1
  O  O43  1  0.08781800  0.61311900  0.71681300  1
  O  O44  1  0.60903700  0.49661400  0.24886600  1
  O  O45  1  0.39096300  0.50338600  0.75113400  1
  O  O46  1  0.20440700  0.50700200  0.25204500  1
  O  O47  1  0.79559300  0.49299800  0.74795500  1
  O  O48  1  0.91659300  0.61592500  0.20956100  1
  O  O49  1  0.08340700  0.38407500  0.79043900  1
  O  O50  1  0.67831100  0.62283900  0.09116700  1
  O  O51  1  0.32168900  0.37716100  0.90883300  1
  O  O52  1  0.62728400  0.74466000  0.25282700  1
  O  O53  1  0.37271600  0.25534000  0.74717300  1
  O  O54  1  0.70431300  0.76549600  0.93806800  1
  O  O55  1  0.29568700  0.23450400  0.06193200  1
  O  O56  1  0.06881500  0.85203200  0.01557000  1
  O  O57  1  0.93118500  0.14796800  0.98443000  1
