# generated using pymatgen
data_Zn3(PO6)2
_symmetry_space_group_name_H-M   'P 1'
_cell_length_a   5.41240700
_cell_length_b   11.12301700
_cell_length_c   18.50727100
_cell_angle_alpha   90.00000000
_cell_angle_beta   90.00000000
_cell_angle_gamma   90.00000000
_symmetry_Int_Tables_number   1
_chemical_formula_structural   Zn3(PO6)2
_chemical_formula_sum   'Zn12 P8 O48'
_cell_volume   1114.18018972
_cell_formula_units_Z   4
loop_
 _symmetry_equiv_pos_site_id
 _symmetry_equiv_pos_as_xyz
  1  'x, y, z'
loop_
 _atom_site_type_symbol
 _atom_site_label
 _atom_site_symmetry_multiplicity
 _atom_site_fract_x
 _atom_site_fract_y
 _atom_site_fract_z
 _atom_site_occupancy
  Zn  Zn0  1  0.17359600  0.81415900  0.25000000  1
  Zn  Zn1  1  0.32640400  0.31415900  0.25000000  1
  Zn  Zn2  1  0.82640400  0.18584100  0.75000000  1
  Zn  Zn3  1  0.67359600  0.68584100  0.75000000  1
  Zn  Zn4  1  0.21654400  0.65372300  0.99667600  1
  Zn  Zn5  1  0.28345600  0.15372300  0.50332400  1
  Zn  Zn6  1  0.78345600  0.34627700  0.49667600  1
  Zn  Zn7  1  0.71654400  0.84627700  0.00332400  1
  Zn  Zn8  1  0.78345600  0.34627700  0.00332400  1
  Zn  Zn9  1  0.71654400  0.84627700  0.49667600  1
  Zn  Zn10  1  0.21654400  0.65372300  0.50332400  1
  Zn  Zn11  1  0.28345600  0.15372300  0.99667600  1
  P  P12  1  0.23120700  0.89962500  0.08522400  1
  P  P13  1  0.26879300  0.39962500  0.41477600  1
  P  P14  1  0.76879300  0.10037500  0.58522400  1
  P  P15  1  0.73120700  0.60037500  0.91477600  1
  P  P16  1  0.76879300  0.10037500  0.91477600  1
  P  P17  1  0.73120700  0.60037500  0.58522400  1
  P  P18  1  0.23120700  0.89962500  0.41477600  1
  P  P19  1  0.26879300  0.39962500  0.08522400  1
  O  O20  1  0.36601800  0.80964800  0.03133000  1
  O  O21  1  0.13398200  0.30964800  0.46867000  1
  O  O22  1  0.63398200  0.19035200  0.53133000  1
  O  O23  1  0.86601800  0.69035200  0.96867000  1
  O  O24  1  0.63398200  0.19035200  0.96867000  1
  O  O25  1  0.86601800  0.69035200  0.53133000  1
  O  O26  1  0.36601800  0.80964800  0.46867000  1
  O  O27  1  0.13398200  0.30964800  0.03133000  1
  O  O28  1  0.31606300  0.02760800  0.06742000  1
  O  O29  1  0.18393700  0.52760800  0.43258000  1
  O  O30  1  0.68393700  0.97239200  0.56742000  1
  O  O31  1  0.81606300  0.47239200  0.93258000  1
  O  O32  1  0.68393700  0.97239200  0.93258000  1
  O  O33  1  0.81606300  0.47239200  0.56742000  1
  O  O34  1  0.31606300  0.02760800  0.43258000  1
  O  O35  1  0.18393700  0.52760800  0.06742000  1
  O  O36  1  0.32484300  0.87262800  0.16235800  1
  O  O37  1  0.17515700  0.37262800  0.33764200  1
  O  O38  1  0.67515700  0.12737200  0.66235800  1
  O  O39  1  0.82484300  0.62737200  0.83764200  1
  O  O40  1  0.67515700  0.12737200  0.83764200  1
  O  O41  1  0.82484300  0.62737200  0.66235800  1
  O  O42  1  0.32484300  0.87262800  0.33764200  1
  O  O43  1  0.17515700  0.37262800  0.16235800  1
  O  O44  1  0.95105700  0.88012300  0.07977900  1
  O  O45  1  0.54894300  0.38012300  0.42022100  1
  O  O46  1  0.04894300  0.11987700  0.57977900  1
  O  O47  1  0.45105700  0.61987700  0.92022100  1
  O  O48  1  0.04894300  0.11987700  0.92022100  1
  O  O49  1  0.45105700  0.61987700  0.57977900  1
  O  O50  1  0.95105700  0.88012300  0.42022100  1
  O  O51  1  0.54894300  0.38012300  0.07977900  1
  O  O52  1  0.74560300  0.61889600  0.21674400  1
  O  O53  1  0.75439700  0.11889600  0.28325600  1
  O  O54  1  0.25439700  0.38110400  0.71674400  1
  O  O55  1  0.24560300  0.88110400  0.78325600  1
  O  O56  1  0.25439700  0.38110400  0.78325600  1
  O  O57  1  0.24560300  0.88110400  0.71674400  1
  O  O58  1  0.74560300  0.61889600  0.28325600  1
  O  O59  1  0.75439700  0.11889600  0.21674400  1
  O  O60  1  0.84436200  0.87463200  0.25000000  1
  O  O61  1  0.65563800  0.37463200  0.25000000  1
  O  O62  1  0.15563800  0.12536800  0.75000000  1
  O  O63  1  0.34436200  0.62536800  0.75000000  1
  O  O64  1  0.25018700  0.64778300  0.25000000  1
  O  O65  1  0.24981300  0.14778300  0.25000000  1
  O  O66  1  0.74981300  0.35221700  0.75000000  1
  O  O67  1  0.75018700  0.85221700  0.75000000  1
