# generated using pymatgen
data_Sb(Cl2O)3
_symmetry_space_group_name_H-M   'P 1'
_cell_length_a   12.38973800
_cell_length_b   7.11643300
_cell_length_c   12.95399863
_cell_angle_alpha   86.00632378
_cell_angle_beta   90.00000000
_cell_angle_gamma   90.00000000
_symmetry_Int_Tables_number   1
_chemical_formula_structural   Sb(Cl2O)3
_chemical_formula_sum   'Sb4 Cl24 O12'
_cell_volume   1139.39018370
_cell_formula_units_Z   4
loop_
 _symmetry_equiv_pos_site_id
 _symmetry_equiv_pos_as_xyz
  1  'x, y, z'
loop_
 _atom_site_type_symbol
 _atom_site_label
 _atom_site_symmetry_multiplicity
 _atom_site_fract_x
 _atom_site_fract_y
 _atom_site_fract_z
 _atom_site_occupancy
  Sb  Sb0  1  0.63220200  0.70070900  0.69582300  1
  Sb  Sb1  1  0.13220200  0.29929100  0.80417700  1
  Sb  Sb2  1  0.36779800  0.29929100  0.30417700  1
  Sb  Sb3  1  0.86779800  0.70070900  0.19582300  1
  Cl  Cl4  1  0.68806700  0.77493200  0.51986600  1
  Cl  Cl5  1  0.18806700  0.22506800  0.98013400  1
  Cl  Cl6  1  0.31193300  0.22506800  0.48013400  1
  Cl  Cl7  1  0.81193300  0.77493200  0.01986600  1
  Cl  Cl8  1  0.54075200  0.42430800  0.64522600  1
  Cl  Cl9  1  0.04075200  0.57569200  0.85477400  1
  Cl  Cl10  1  0.45924800  0.57569200  0.35477400  1
  Cl  Cl11  1  0.95924800  0.42430800  0.14522600  1
  Cl  Cl12  1  0.47247200  0.88485900  0.66361800  1
  Cl  Cl13  1  0.97247200  0.11514100  0.83638200  1
  Cl  Cl14  1  0.52752800  0.11514100  0.33638200  1
  Cl  Cl15  1  0.02752800  0.88485900  0.16361800  1
  Cl  Cl16  1  0.57606400  0.62321300  0.87182500  1
  Cl  Cl17  1  0.07606400  0.37678700  0.62817500  1
  Cl  Cl18  1  0.42393600  0.37678700  0.12817500  1
  Cl  Cl19  1  0.92393600  0.62321300  0.37182500  1
  Cl  Cl20  1  0.72721000  0.97234300  0.74980800  1
  Cl  Cl21  1  0.22721000  0.02765700  0.75019200  1
  Cl  Cl22  1  0.27279000  0.02765700  0.25019200  1
  Cl  Cl23  1  0.77279000  0.97234300  0.24980800  1
  Cl  Cl24  1  0.79429200  0.51938100  0.72515700  1
  Cl  Cl25  1  0.29429200  0.48061900  0.77484300  1
  Cl  Cl26  1  0.20570800  0.48061900  0.27484300  1
  Cl  Cl27  1  0.70570800  0.51938100  0.22515700  1
  O  O28  1  0.54206300  0.15296900  0.90503200  1
  O  O29  1  0.04206300  0.84703100  0.59496800  1
  O  O30  1  0.45793700  0.84703100  0.09496800  1
  O  O31  1  0.95793700  0.15296900  0.40503200  1
  O  O32  1  0.60976200  0.15330100  0.98019700  1
  O  O33  1  0.10976200  0.84669900  0.51980300  1
  O  O34  1  0.39023800  0.84669900  0.01980300  1
  O  O35  1  0.89023800  0.15330100  0.48019700  1
  O  O36  1  0.70322200  0.22430900  0.96238500  1
  O  O37  1  0.20322200  0.77569100  0.53761500  1
  O  O38  1  0.29677800  0.77569100  0.03761500  1
  O  O39  1  0.79677800  0.22430900  0.46238500  1
