# generated using pymatgen
data_UN2O7
_symmetry_space_group_name_H-M   'P 1'
_cell_length_a   5.13949600
_cell_length_b   10.99406200
_cell_length_c   12.82602600
_cell_angle_alpha   90.00000000
_cell_angle_beta   90.00000000
_cell_angle_gamma   90.00000000
_symmetry_Int_Tables_number   1
_chemical_formula_structural   UN2O7
_chemical_formula_sum   'U4 N8 O28'
_cell_volume   724.72097369
_cell_formula_units_Z   4
loop_
 _symmetry_equiv_pos_site_id
 _symmetry_equiv_pos_as_xyz
  1  'x, y, z'
loop_
 _atom_site_type_symbol
 _atom_site_label
 _atom_site_symmetry_multiplicity
 _atom_site_fract_x
 _atom_site_fract_y
 _atom_site_fract_z
 _atom_site_occupancy
  U  U0  1  0.50000000  0.50000000  0.00000000  1
  U  U1  1  0.00000000  0.00000000  0.50000000  1
  U  U2  1  0.00000000  0.00000000  0.00000000  1
  U  U3  1  0.50000000  0.50000000  0.50000000  1
  N  N4  1  0.39888900  0.93766300  0.90852300  1
  N  N5  1  0.10111100  0.56233700  0.40852300  1
  N  N6  1  0.89888900  0.56233700  0.09147700  1
  N  N7  1  0.60111100  0.93766300  0.59147700  1
  N  N8  1  0.60111100  0.06233700  0.09147700  1
  N  N9  1  0.89888900  0.43766300  0.59147700  1
  N  N10  1  0.10111100  0.43766300  0.90852300  1
  N  N11  1  0.39888900  0.06233700  0.40852300  1
  O  O12  1  0.36488800  0.92566000  0.61281400  1
  O  O13  1  0.13511200  0.57434000  0.11281400  1
  O  O14  1  0.86488800  0.57434000  0.38718600  1
  O  O15  1  0.63511200  0.92566000  0.88718600  1
  O  O16  1  0.63511200  0.07434000  0.38718600  1
  O  O17  1  0.86488800  0.42566000  0.88718600  1
  O  O18  1  0.13511200  0.42566000  0.61281400  1
  O  O19  1  0.36488800  0.07434000  0.11281400  1
  O  O20  1  0.00007800  0.85902800  0.42977800  1
  O  O21  1  0.49992200  0.64097200  0.92977800  1
  O  O22  1  0.50007800  0.64097200  0.57022200  1
  O  O23  1  0.99992200  0.85902800  0.07022200  1
  O  O24  1  0.99992200  0.14097200  0.57022200  1
  O  O25  1  0.50007800  0.35902800  0.07022200  1
  O  O26  1  0.49992200  0.35902800  0.42977800  1
  O  O27  1  0.00007800  0.14097200  0.92977800  1
  O  O28  1  0.22787400  0.89862900  0.84750700  1
  O  O29  1  0.27212600  0.60137100  0.34750700  1
  O  O30  1  0.72787400  0.60137100  0.15249300  1
  O  O31  1  0.77212600  0.89862900  0.65249300  1
  O  O32  1  0.77212600  0.10137100  0.15249300  1
  O  O33  1  0.72787400  0.39862900  0.65249300  1
  O  O34  1  0.27212600  0.39862900  0.84750700  1
  O  O35  1  0.22787400  0.10137100  0.34750700  1
  O  O36  1  0.00000000  0.63282700  0.75000000  1
  O  O37  1  0.50000000  0.86717300  0.25000000  1
  O  O38  1  0.00000000  0.36717300  0.25000000  1
  O  O39  1  0.50000000  0.13282700  0.75000000  1
