# generated using pymatgen
data_Sr(CO2)2
_symmetry_space_group_name_H-M   'P 1'
_cell_length_a   5.04099700
_cell_length_b   6.83714100
_cell_length_c   11.53924100
_cell_angle_alpha   90.00000000
_cell_angle_beta   90.00000000
_cell_angle_gamma   90.00000000
_symmetry_Int_Tables_number   1
_chemical_formula_structural   Sr(CO2)2
_chemical_formula_sum   'Sr4 C8 O16'
_cell_volume   397.71156419
_cell_formula_units_Z   4
loop_
 _symmetry_equiv_pos_site_id
 _symmetry_equiv_pos_as_xyz
  1  'x, y, z'
loop_
 _atom_site_type_symbol
 _atom_site_label
 _atom_site_symmetry_multiplicity
 _atom_site_fract_x
 _atom_site_fract_y
 _atom_site_fract_z
 _atom_site_occupancy
  Sr  Sr0  1  0.49205300  0.00547900  0.57042400  1
  Sr  Sr1  1  0.99205300  0.49452100  0.42957600  1
  Sr  Sr2  1  0.50794700  0.50547900  0.92957600  1
  Sr  Sr3  1  0.00794700  0.99452100  0.07042400  1
  C  C4  1  0.17159300  0.61615500  0.69456100  1
  C  C5  1  0.67159300  0.88384500  0.30543900  1
  C  C6  1  0.82840700  0.11615500  0.80543900  1
  C  C7  1  0.32840700  0.38384500  0.19456100  1
  C  C8  1  0.67885500  0.92017400  0.83038300  1
  C  C9  1  0.17885500  0.57982600  0.16961700  1
  C  C10  1  0.32114500  0.42017400  0.66961700  1
  C  C11  1  0.82114500  0.07982600  0.33038300  1
  O  O12  1  0.11858800  0.72028300  0.60493100  1
  O  O13  1  0.61858800  0.77971700  0.39506900  1
  O  O14  1  0.88141200  0.22028300  0.89506900  1
  O  O15  1  0.38141200  0.27971700  0.10493100  1
  O  O16  1  0.12156600  0.65269500  0.79873500  1
  O  O17  1  0.62156600  0.84730500  0.20126500  1
  O  O18  1  0.87843400  0.15269500  0.70126500  1
  O  O19  1  0.37843400  0.34730500  0.29873500  1
  O  O20  1  0.60680900  0.81839100  0.74509000  1
  O  O21  1  0.10680900  0.68160900  0.25491000  1
  O  O22  1  0.39319100  0.31839100  0.75491000  1
  O  O23  1  0.89319100  0.18160900  0.24509000  1
  O  O24  1  0.63713400  0.87312500  0.93642800  1
  O  O25  1  0.13713400  0.62687500  0.06357200  1
  O  O26  1  0.36286600  0.37312500  0.56357200  1
  O  O27  1  0.86286600  0.12687500  0.43642800  1
