# generated using pymatgen
data_Si2H2O3
_symmetry_space_group_name_H-M   'P 1'
_cell_length_a   11.04558981
_cell_length_b   11.04558981
_cell_length_c   14.45372335
_cell_angle_alpha   55.28761613
_cell_angle_beta   55.28761613
_cell_angle_gamma   48.26553054
_symmetry_Int_Tables_number   1
_chemical_formula_structural   Si2H2O3
_chemical_formula_sum   'Si20 H20 O30'
_cell_volume   1028.31091540
_cell_formula_units_Z   10
loop_
 _symmetry_equiv_pos_site_id
 _symmetry_equiv_pos_as_xyz
  1  'x, y, z'
loop_
 _atom_site_type_symbol
 _atom_site_label
 _atom_site_symmetry_multiplicity
 _atom_site_fract_x
 _atom_site_fract_y
 _atom_site_fract_z
 _atom_site_occupancy
  Si  Si0  1  0.31841500  0.68210800  0.87735600  1
  Si  Si1  1  0.30225100  0.73854100  0.60374500  1
  Si  Si2  1  0.73854100  0.30225100  0.10374500  1
  Si  Si3  1  0.68210800  0.31841500  0.37735600  1
  Si  Si4  1  0.27963900  0.10645500  0.72132700  1
  Si  Si5  1  0.89411800  0.72720800  0.77249200  1
  Si  Si6  1  0.72720800  0.89411800  0.27249200  1
  Si  Si7  1  0.10645500  0.27963900  0.22132700  1
  Si  Si8  1  0.78233200  0.41328200  0.79247100  1
  Si  Si9  1  0.62032000  0.20318900  0.69575500  1
  Si  Si10  1  0.20318900  0.62032000  0.19575500  1
  Si  Si11  1  0.41328200  0.78233200  0.29247100  1
  Si  Si12  1  0.83307100  0.38337500  0.53227700  1
  Si  Si13  1  0.64584600  0.15374800  0.95311600  1
  Si  Si14  1  0.15374800  0.64584600  0.45311600  1
  Si  Si15  1  0.38337500  0.83307100  0.03227700  1
  Si  Si16  1  0.24478800  0.11315500  0.47684200  1
  Si  Si17  1  0.87150300  0.75415400  0.02218200  1
  Si  Si18  1  0.75415400  0.87150300  0.52218200  1
  Si  Si19  1  0.11315500  0.24478800  0.97684200  1
  H  H20  1  0.20981500  0.92344700  0.89785000  1
  H  H21  1  0.11937400  0.69186200  0.61399800  1
  H  H22  1  0.69186200  0.11937400  0.11399800  1
  H  H23  1  0.92344700  0.20981500  0.39785000  1
  H  H24  1  0.05884300  0.34001800  0.77550900  1
  H  H25  1  0.62489800  0.94261900  0.78446700  1
  H  H26  1  0.94261900  0.62489800  0.28446700  1
  H  H27  1  0.34001800  0.05884300  0.27550900  1
  H  H28  1  0.12999400  0.62654200  0.05700300  1
  H  H29  1  0.62654200  0.12999400  0.55700300  1
  H  H30  1  0.41781300  0.54094200  0.76267800  1
  H  H31  1  0.54094200  0.41781300  0.26267800  1
  H  H32  1  0.40401600  0.13815400  0.52645100  1
  H  H33  1  0.93795800  0.56068100  0.95062900  1
  H  H34  1  0.56068100  0.93795800  0.45062900  1
  H  H35  1  0.13815400  0.40401600  0.02645100  1
  H  H36  1  0.76085200  0.58560300  0.60296300  1
  H  H37  1  0.43402100  0.22370100  0.88700300  1
  H  H38  1  0.22370100  0.43402100  0.38700300  1
  H  H39  1  0.58560300  0.76085200  0.10296300  1
  O  O40  1  0.23040300  0.91629400  0.82445100  1
  O  O41  1  0.07981300  0.75184500  0.66615200  1
  O  O42  1  0.75184500  0.07981300  0.16615200  1
  O  O43  1  0.91629400  0.23040300  0.32445100  1
  O  O44  1  0.06323900  0.26602200  0.75442200  1
  O  O45  1  0.72443800  0.95003500  0.75954700  1
  O  O46  1  0.95003500  0.72443800  0.25954700  1
  O  O47  1  0.26602200  0.06323900  0.25442200  1
  O  O48  1  0.76603700  0.24420600  0.85223400  1
  O  O49  1  0.78775300  0.22220100  0.63601500  1
  O  O50  1  0.22220100  0.78775300  0.13601500  1
  O  O51  1  0.24420600  0.76603700  0.35223400  1
  O  O52  1  0.04784900  0.27458600  0.49961400  1
  O  O53  1  0.79395100  0.95489300  0.94154200  1
  O  O54  1  0.95489300  0.79395100  0.44154200  1
  O  O55  1  0.27458600  0.04784900  0.99961400  1
  O  O56  1  0.10880000  0.68837600  0.97892800  1
  O  O57  1  0.22578600  0.93923500  0.57586400  1
  O  O58  1  0.93923500  0.22578600  0.07586400  1
  O  O59  1  0.68837600  0.10880000  0.47892800  1
  O  O60  1  0.32895800  0.66159700  0.75626800  1
  O  O61  1  0.66159700  0.32895800  0.25626800  1
  O  O62  1  0.30848900  0.11675200  0.58171100  1
  O  O63  1  0.91708300  0.67884500  0.91047900  1
  O  O64  1  0.67884500  0.91708300  0.41047900  1
  O  O65  1  0.11675200  0.30848900  0.08171100  1
  O  O66  1  0.78099500  0.46826000  0.64614500  1
  O  O67  1  0.53862100  0.23057700  0.83984700  1
  O  O68  1  0.23057700  0.53862100  0.33984700  1
  O  O69  1  0.46826000  0.78099500  0.14614500  1
