# generated using pymatgen
data_Sb2N3Cl7O
_symmetry_space_group_name_H-M   'P 1'
_cell_length_a   10.69949400
_cell_length_b   11.26526400
_cell_length_c   13.17602200
_cell_angle_alpha   90.00000000
_cell_angle_beta   90.00000000
_cell_angle_gamma   90.00000000
_symmetry_Int_Tables_number   1
_chemical_formula_structural   Sb2N3Cl7O
_chemical_formula_sum   'Sb8 N12 Cl28 O4'
_cell_volume   1588.14051314
_cell_formula_units_Z   4
loop_
 _symmetry_equiv_pos_site_id
 _symmetry_equiv_pos_as_xyz
  1  'x, y, z'
loop_
 _atom_site_type_symbol
 _atom_site_label
 _atom_site_symmetry_multiplicity
 _atom_site_fract_x
 _atom_site_fract_y
 _atom_site_fract_z
 _atom_site_occupancy
  Sb  Sb0  1  0.15992800  0.28583400  0.92343700  1
  Sb  Sb1  1  0.15992800  0.71416600  0.07656300  1
  Sb  Sb2  1  0.34007200  0.78583400  0.57656300  1
  Sb  Sb3  1  0.34007200  0.21416600  0.42343700  1
  Sb  Sb4  1  0.84007200  0.71416600  0.07656300  1
  Sb  Sb5  1  0.84007200  0.28583400  0.92343700  1
  Sb  Sb6  1  0.65992800  0.21416600  0.42343700  1
  Sb  Sb7  1  0.65992800  0.78583400  0.57656300  1
  N  N8  1  0.00000000  0.00000000  0.00000000  1
  N  N9  1  0.50000000  0.50000000  0.50000000  1
  N  N10  1  0.50000000  0.00000000  0.00000000  1
  N  N11  1  0.00000000  0.50000000  0.50000000  1
  N  N12  1  0.00000000  0.10452700  0.59467900  1
  N  N13  1  0.00000000  0.89547300  0.40532100  1
  N  N14  1  0.50000000  0.60452700  0.90532100  1
  N  N15  1  0.50000000  0.39547300  0.09467900  1
  N  N16  1  0.00000000  0.28752400  0.22850000  1
  N  N17  1  0.00000000  0.71247600  0.77150000  1
  N  N18  1  0.50000000  0.78752400  0.27150000  1
  N  N19  1  0.50000000  0.21247600  0.72850000  1
  Cl  Cl20  1  0.19696300  0.13904500  0.79798600  1
  Cl  Cl21  1  0.19696300  0.86095500  0.20201400  1
  Cl  Cl22  1  0.30303700  0.63904500  0.70201400  1
  Cl  Cl23  1  0.30303700  0.36095500  0.29798600  1
  Cl  Cl24  1  0.80303700  0.86095500  0.20201400  1
  Cl  Cl25  1  0.80303700  0.13904500  0.79798600  1
  Cl  Cl26  1  0.69696300  0.36095500  0.29798600  1
  Cl  Cl27  1  0.69696300  0.63904500  0.70201400  1
  Cl  Cl28  1  0.27894500  0.18533000  0.04902000  1
  Cl  Cl29  1  0.27894500  0.81467000  0.95098000  1
  Cl  Cl30  1  0.22105500  0.68533000  0.45098000  1
  Cl  Cl31  1  0.22105500  0.31467000  0.54902000  1
  Cl  Cl32  1  0.72105500  0.81467000  0.95098000  1
  Cl  Cl33  1  0.72105500  0.18533000  0.04902000  1
  Cl  Cl34  1  0.77894500  0.31467000  0.54902000  1
  Cl  Cl35  1  0.77894500  0.68533000  0.45098000  1
  Cl  Cl36  1  0.00000000  0.38841000  0.79085400  1
  Cl  Cl37  1  0.00000000  0.61159000  0.20914600  1
  Cl  Cl38  1  0.50000000  0.88841000  0.70914600  1
  Cl  Cl39  1  0.50000000  0.11159000  0.29085400  1
  Cl  Cl40  1  0.50000000  0.33048400  0.79861500  1
  Cl  Cl41  1  0.50000000  0.66951600  0.20138500  1
  Cl  Cl42  1  0.00000000  0.83048400  0.70138500  1
  Cl  Cl43  1  0.00000000  0.16951600  0.29861500  1
  Cl  Cl44  1  0.19780600  0.50000000  0.00000000  1
  Cl  Cl45  1  0.30219400  0.00000000  0.50000000  1
  Cl  Cl46  1  0.80219400  0.50000000  0.00000000  1
  Cl  Cl47  1  0.69780600  0.00000000  0.50000000  1
  O  O48  1  0.00000000  0.23802300  0.98587700  1
  O  O49  1  0.00000000  0.76197700  0.01412300  1
  O  O50  1  0.50000000  0.73802300  0.51412300  1
  O  O51  1  0.50000000  0.26197700  0.48587700  1
