# generated using pymatgen
data_Zn5B3Ir7
_symmetry_space_group_name_H-M   'P 1'
_cell_length_a   2.86365800
_cell_length_b   10.95548700
_cell_length_c   12.44190500
_cell_angle_alpha   90.00000000
_cell_angle_beta   90.00000000
_cell_angle_gamma   90.00000000
_symmetry_Int_Tables_number   1
_chemical_formula_structural   Zn5B3Ir7
_chemical_formula_sum   'Zn10 B6 Ir14'
_cell_volume   390.33699894
_cell_formula_units_Z   2
loop_
 _symmetry_equiv_pos_site_id
 _symmetry_equiv_pos_as_xyz
  1  'x, y, z'
loop_
 _atom_site_type_symbol
 _atom_site_label
 _atom_site_symmetry_multiplicity
 _atom_site_fract_x
 _atom_site_fract_y
 _atom_site_fract_z
 _atom_site_occupancy
  Zn  Zn0  1  0.50000000  0.75000000  0.06301900  1
  Zn  Zn1  1  0.50000000  0.25000000  0.93698100  1
  Zn  Zn2  1  0.50000000  0.45020300  0.84616500  1
  Zn  Zn3  1  0.50000000  0.54979700  0.15383500  1
  Zn  Zn4  1  0.50000000  0.95020300  0.15383500  1
  Zn  Zn5  1  0.50000000  0.04979700  0.84616500  1
  Zn  Zn6  1  0.50000000  0.38184300  0.64284900  1
  Zn  Zn7  1  0.50000000  0.61815700  0.35715100  1
  Zn  Zn8  1  0.50000000  0.88184300  0.35715100  1
  Zn  Zn9  1  0.50000000  0.11815700  0.64284900  1
  B  B10  1  0.50000000  0.75000000  0.84872500  1
  B  B11  1  0.50000000  0.25000000  0.15127500  1
  B  B12  1  0.50000000  0.87595000  0.59099100  1
  B  B13  1  0.50000000  0.12405000  0.40900900  1
  B  B14  1  0.50000000  0.37595000  0.40900900  1
  B  B15  1  0.50000000  0.62405000  0.59099100  1
  Ir  Ir16  1  0.00000000  0.00000000  0.50000000  1
  Ir  Ir17  1  0.00000000  0.50000000  0.50000000  1
  Ir  Ir18  1  0.00000000  0.75000000  0.23098500  1
  Ir  Ir19  1  0.00000000  0.25000000  0.76901500  1
  Ir  Ir20  1  0.00000000  0.75000000  0.51449800  1
  Ir  Ir21  1  0.00000000  0.25000000  0.48550200  1
  Ir  Ir22  1  0.00000000  0.87880900  0.93488600  1
  Ir  Ir23  1  0.00000000  0.12119100  0.06511400  1
  Ir  Ir24  1  0.00000000  0.37880900  0.06511400  1
  Ir  Ir25  1  0.00000000  0.62119100  0.93488600  1
  Ir  Ir26  1  0.00000000  0.88885600  0.71753800  1
  Ir  Ir27  1  0.00000000  0.11114400  0.28246200  1
  Ir  Ir28  1  0.00000000  0.38885600  0.28246200  1
  Ir  Ir29  1  0.00000000  0.61114400  0.71753800  1
