# generated using pymatgen
data_Sr(ClO)2
_symmetry_space_group_name_H-M   'P 1'
_cell_length_a   5.86871110
_cell_length_b   5.86871110
_cell_length_c   7.20535410
_cell_angle_alpha   80.09008529
_cell_angle_beta   80.09008529
_cell_angle_gamma   61.43107002
_symmetry_Int_Tables_number   1
_chemical_formula_structural   Sr(ClO)2
_chemical_formula_sum   'Sr2 Cl4 O4'
_cell_volume   213.53757755
_cell_formula_units_Z   2
loop_
 _symmetry_equiv_pos_site_id
 _symmetry_equiv_pos_as_xyz
  1  'x, y, z'
loop_
 _atom_site_type_symbol
 _atom_site_label
 _atom_site_symmetry_multiplicity
 _atom_site_fract_x
 _atom_site_fract_y
 _atom_site_fract_z
 _atom_site_occupancy
  Sr  Sr0  1  0.66915100  0.33084900  0.25000000  1
  Sr  Sr1  1  0.33084900  0.66915100  0.75000000  1
  Cl  Cl2  1  0.66785800  0.98001600  0.74288100  1
  Cl  Cl3  1  0.01998400  0.33214200  0.75711900  1
  Cl  Cl4  1  0.33214200  0.01998400  0.25711900  1
  Cl  Cl5  1  0.98001600  0.66785800  0.24288100  1
  O  O6  1  0.25465400  0.55217700  0.09544900  1
  O  O7  1  0.44782300  0.74534600  0.40455100  1
  O  O8  1  0.74534600  0.44782300  0.90455100  1
  O  O9  1  0.55217700  0.25465400  0.59544900  1
