# generated using pymatgen
data_V2Ni(H4O5)2
_symmetry_space_group_name_H-M   'P 1'
_cell_length_a   8.38398507
_cell_length_b   8.38398507
_cell_length_c   6.92232090
_cell_angle_alpha   72.84192909
_cell_angle_beta   107.15807091
_cell_angle_gamma   108.27818893
_symmetry_Int_Tables_number   1
_chemical_formula_structural   V2Ni(H4O5)2
_chemical_formula_sum   'V4 Ni2 H16 O20'
_cell_volume   430.33052029
_cell_formula_units_Z   2
loop_
 _symmetry_equiv_pos_site_id
 _symmetry_equiv_pos_as_xyz
  1  'x, y, z'
loop_
 _atom_site_type_symbol
 _atom_site_label
 _atom_site_symmetry_multiplicity
 _atom_site_fract_x
 _atom_site_fract_y
 _atom_site_fract_z
 _atom_site_occupancy
  V  V0  1  0.13433500  0.92524300  0.69387600  1
  V  V1  1  0.92524300  0.13433500  0.80612400  1
  V  V2  1  0.86566500  0.07475700  0.30612400  1
  V  V3  1  0.07475700  0.86566500  0.19387600  1
  Ni  Ni4  1  0.00000000  0.50000000  0.00000000  1
  Ni  Ni5  1  0.50000000  0.00000000  0.50000000  1
  H  H6  1  0.62060600  0.22889200  0.96651400  1
  H  H7  1  0.22889200  0.62060600  0.53348600  1
  H  H8  1  0.37939400  0.77110800  0.03348600  1
  H  H9  1  0.77110800  0.37939400  0.46651400  1
  H  H10  1  0.43641100  0.19353700  0.82447500  1
  H  H11  1  0.19353700  0.43641100  0.67552500  1
  H  H12  1  0.56358900  0.80646300  0.17552500  1
  H  H13  1  0.80646300  0.56358900  0.32447500  1
  H  H14  1  0.46559400  0.23215400  0.15063700  1
  H  H15  1  0.23215400  0.46559400  0.34936300  1
  H  H16  1  0.53440600  0.76784600  0.84936300  1
  H  H17  1  0.76784600  0.53440600  0.65063700  1
  H  H18  1  0.51566700  0.32495000  0.33604500  1
  H  H19  1  0.32495000  0.51566700  0.16395500  1
  H  H20  1  0.48433300  0.67505000  0.66395500  1
  H  H21  1  0.67505000  0.48433300  0.83604500  1
  O  O22  1  0.10564700  0.98853700  0.92433400  1
  O  O23  1  0.98853700  0.10564700  0.57566600  1
  O  O24  1  0.89435300  0.01146300  0.07566600  1
  O  O25  1  0.01146300  0.89435300  0.42433400  1
  O  O26  1  0.02798800  0.33800100  0.82988800  1
  O  O27  1  0.33800100  0.02798800  0.67011200  1
  O  O28  1  0.97201200  0.66199900  0.17011200  1
  O  O29  1  0.66199900  0.97201200  0.32988800  1
  O  O30  1  0.86333900  0.28140300  0.17930000  1
  O  O31  1  0.28140300  0.86333900  0.32070000  1
  O  O32  1  0.13666100  0.71859700  0.82070000  1
  O  O33  1  0.71859700  0.13666100  0.67930000  1
  O  O34  1  0.44894700  0.21681800  0.29329100  1
  O  O35  1  0.21681800  0.44894700  0.20670900  1
  O  O36  1  0.55105300  0.78318200  0.70670900  1
  O  O37  1  0.78318200  0.55105300  0.79329100  1
  O  O38  1  0.51326600  0.26701900  0.92093300  1
  O  O39  1  0.26701900  0.51326600  0.57906700  1
  O  O40  1  0.48673400  0.73298100  0.07906700  1
  O  O41  1  0.73298100  0.48673400  0.42093300  1
