# generated using pymatgen
data_V3CdO7
_symmetry_space_group_name_H-M   'P 1'
_cell_length_a   5.38524400
_cell_length_b   11.36430700
_cell_length_c   10.52900400
_cell_angle_alpha   90.00000000
_cell_angle_beta   90.00000000
_cell_angle_gamma   90.00000000
_symmetry_Int_Tables_number   1
_chemical_formula_structural   V3CdO7
_chemical_formula_sum   'V12 Cd4 O28'
_cell_volume   644.37047612
_cell_formula_units_Z   4
loop_
 _symmetry_equiv_pos_site_id
 _symmetry_equiv_pos_as_xyz
  1  'x, y, z'
loop_
 _atom_site_type_symbol
 _atom_site_label
 _atom_site_symmetry_multiplicity
 _atom_site_fract_x
 _atom_site_fract_y
 _atom_site_fract_z
 _atom_site_occupancy
  V  V0  1  0.26954500  0.32201700  0.75000000  1
  V  V1  1  0.76954500  0.17798300  0.25000000  1
  V  V2  1  0.23045500  0.82201700  0.75000000  1
  V  V3  1  0.73045500  0.67798300  0.25000000  1
  V  V4  1  0.22529500  0.80629100  0.46927600  1
  V  V5  1  0.72529500  0.69370900  0.53072400  1
  V  V6  1  0.27470500  0.30629100  0.03072400  1
  V  V7  1  0.77470500  0.19370900  0.96927600  1
  V  V8  1  0.77470500  0.19370900  0.53072400  1
  V  V9  1  0.27470500  0.30629100  0.46927600  1
  V  V10  1  0.72529500  0.69370900  0.96927600  1
  V  V11  1  0.22529500  0.80629100  0.03072400  1
  Cd  Cd12  1  0.77230000  0.43691300  0.75000000  1
  Cd  Cd13  1  0.27230000  0.06308700  0.25000000  1
  Cd  Cd14  1  0.72770000  0.93691300  0.75000000  1
  Cd  Cd15  1  0.22770000  0.56308700  0.25000000  1
  O  O16  1  0.27099200  0.96761700  0.75000000  1
  O  O17  1  0.77099200  0.53238300  0.25000000  1
  O  O18  1  0.22900800  0.46761700  0.75000000  1
  O  O19  1  0.72900800  0.03238300  0.25000000  1
  O  O20  1  0.25061900  0.94367000  0.41339600  1
  O  O21  1  0.75061900  0.55633000  0.58660400  1
  O  O22  1  0.24938100  0.44367000  0.08660400  1
  O  O23  1  0.74938100  0.05633000  0.91339600  1
  O  O24  1  0.74938100  0.05633000  0.58660400  1
  O  O25  1  0.24938100  0.44367000  0.41339600  1
  O  O26  1  0.75061900  0.55633000  0.91339600  1
  O  O27  1  0.25061900  0.94367000  0.08660400  1
  O  O28  1  0.95601000  0.72163500  0.38867200  1
  O  O29  1  0.45601000  0.77836500  0.61132800  1
  O  O30  1  0.54399000  0.22163500  0.11132800  1
  O  O31  1  0.04399000  0.27836500  0.88867200  1
  O  O32  1  0.47842800  0.70391000  0.11423000  1
  O  O33  1  0.97842800  0.79609000  0.88577000  1
  O  O34  1  0.02157200  0.20391000  0.38577000  1
  O  O35  1  0.52157200  0.29609000  0.61423000  1
  O  O36  1  0.52157200  0.29609000  0.88577000  1
  O  O37  1  0.02157200  0.20391000  0.11423000  1
  O  O38  1  0.97842800  0.79609000  0.61423000  1
  O  O39  1  0.47842800  0.70391000  0.38577000  1
  O  O40  1  0.95601000  0.72163500  0.11132800  1
  O  O41  1  0.45601000  0.77836500  0.88867200  1
  O  O42  1  0.54399000  0.22163500  0.38867200  1
  O  O43  1  0.04399000  0.27836500  0.61132800  1
