# generated using pymatgen
data_TiCdO3
_symmetry_space_group_name_H-M   'P 1'
_cell_length_a   17.91460995
_cell_length_b   6.83216637
_cell_length_c   9.31368359
_cell_angle_alpha   131.52440657
_cell_angle_beta   155.36961420
_cell_angle_gamma   30.30583296
_symmetry_Int_Tables_number   1
_chemical_formula_structural   TiCdO3
_chemical_formula_sum   'Ti2 Cd2 O6'
_cell_volume   195.39427577
_cell_formula_units_Z   2
loop_
 _symmetry_equiv_pos_site_id
 _symmetry_equiv_pos_as_xyz
  1  'x, y, z'
loop_
 _atom_site_type_symbol
 _atom_site_label
 _atom_site_symmetry_multiplicity
 _atom_site_fract_x
 _atom_site_fract_y
 _atom_site_fract_z
 _atom_site_occupancy
  Ti  Ti0  1  0.77278700  0.74933800  0.11136000  1
  Ti  Ti1  1  0.22721300  0.25066200  0.88864000  1
  Cd  Cd2  1  0.45047100  0.55184400  0.25805900  1
  Cd  Cd3  1  0.54952900  0.44815600  0.74194100  1
  O  O4  1  0.45797600  0.27138800  0.31863300  1
  O  O5  1  0.73328700  0.01848500  0.03183800  1
  O  O6  1  0.21467800  0.11826000  0.61452500  1
  O  O7  1  0.54202400  0.72861200  0.68136700  1
  O  O8  1  0.26671300  0.98151500  0.96816200  1
  O  O9  1  0.78532200  0.88174000  0.38547500  1
