# generated using pymatgen
data_SbS4N3
_symmetry_space_group_name_H-M   'P 1'
_cell_length_a   6.89798377
_cell_length_b   5.60482929
_cell_length_c   7.09619511
_cell_angle_alpha   104.76165213
_cell_angle_beta   126.31956352
_cell_angle_gamma   85.07880131
_symmetry_Int_Tables_number   1
_chemical_formula_structural   SbS4N3
_chemical_formula_sum   'Sb1 S4 N3'
_cell_volume   213.00938261
_cell_formula_units_Z   1
loop_
 _symmetry_equiv_pos_site_id
 _symmetry_equiv_pos_as_xyz
  1  'x, y, z'
loop_
 _atom_site_type_symbol
 _atom_site_label
 _atom_site_symmetry_multiplicity
 _atom_site_fract_x
 _atom_site_fract_y
 _atom_site_fract_z
 _atom_site_occupancy
  Sb  Sb0  1  0.14987700  0.97017600  0.11168400  1
  S  S1  1  0.83326300  0.88358600  0.38342500  1
  S  S2  1  0.95250600  0.33097300  0.88719300  1
  S  S3  1  0.39379000  0.94290200  0.94448100  1
  S  S4  1  0.58500100  0.31127900  0.66065000  1
  N  N5  1  0.62003700  0.78299700  0.08081100  1
  N  N6  1  0.48702000  0.09043100  0.42719500  1
  N  N7  1  0.97850300  0.68765600  0.50456200  1
