# generated using pymatgen
data_U2MoO8
_symmetry_space_group_name_H-M   'P 1'
_cell_length_a   4.14214800
_cell_length_b   6.66527497
_cell_length_c   23.73933884
_cell_angle_alpha   89.87318707
_cell_angle_beta   89.95049593
_cell_angle_gamma   89.79426763
_symmetry_Int_Tables_number   1
_chemical_formula_structural   U2MoO8
_chemical_formula_sum   'U8 Mo4 O32'
_cell_volume   655.40278054
_cell_formula_units_Z   4
loop_
 _symmetry_equiv_pos_site_id
 _symmetry_equiv_pos_as_xyz
  1  'x, y, z'
loop_
 _atom_site_type_symbol
 _atom_site_label
 _atom_site_symmetry_multiplicity
 _atom_site_fract_x
 _atom_site_fract_y
 _atom_site_fract_z
 _atom_site_occupancy
  U  U0  1  0.00508300  0.80753300  0.12041100  1
  U  U1  1  0.00455800  0.16540800  0.71366900  1
  U  U2  1  0.00434300  0.33487200  0.21343900  1
  U  U3  1  0.01174700  0.30633600  0.37937100  1
  U  U4  1  0.00538900  0.83404800  0.28614400  1
  U  U5  1  0.01127200  0.69360800  0.62062600  1
  U  U6  1  0.99609900  0.66571700  0.78658600  1
  U  U7  1  0.99490300  0.19241400  0.87959200  1
  Mo  Mo8  1  0.92356600  0.16535900  0.54809500  1
  Mo  Mo9  1  0.91085400  0.33720500  0.04796200  1
  Mo  Mo10  1  0.08983800  0.66342500  0.95207900  1
  Mo  Mo11  1  0.92358800  0.83408100  0.45182400  1
  O  O12  1  0.00453700  0.16157200  0.29216800  1
  O  O13  1  0.01162500  0.45188900  0.56858400  1
  O  O14  1  0.99715200  0.94973100  0.93155700  1
  O  O15  1  0.50410900  0.17890100  0.54560100  1
  O  O16  1  0.99680100  0.96508200  0.81201400  1
  O  O17  1  0.00159900  0.83846300  0.70781400  1
  O  O18  1  0.99861600  0.33890800  0.79226000  1
  O  O19  1  0.49617900  0.66406000  0.78464400  1
  O  O20  1  0.01569100  0.08260100  0.62640600  1
  O  O21  1  0.49415900  0.20616100  0.87802900  1
  O  O22  1  0.49138200  0.32328700  0.04571000  1
  O  O23  1  0.99070300  0.63980500  0.03635700  1
  O  O24  1  0.00492300  0.86211100  0.53669500  1
  O  O25  1  0.00606700  0.53505300  0.31211700  1
  O  O26  1  0.50440500  0.16445000  0.71552400  1
  O  O27  1  0.50581400  0.79398500  0.12201100  1
  O  O28  1  0.51135700  0.70754700  0.62207000  1
  O  O29  1  0.00248100  0.46521600  0.68784600  1
  O  O30  1  0.99417400  0.58075400  0.87380700  1
  O  O31  1  0.00993400  0.54765300  0.43164700  1
  O  O32  1  0.50407000  0.33588900  0.21540100  1
  O  O33  1  0.50866600  0.67708700  0.95423700  1
  O  O34  1  0.00252100  0.66127200  0.20769700  1
  O  O35  1  0.51205200  0.29258000  0.37791800  1
  O  O36  1  0.00432400  0.03474800  0.18810100  1
  O  O37  1  0.00540400  0.13711500  0.46322100  1
  O  O38  1  0.00287000  0.05041100  0.06862800  1
  O  O39  1  0.00589500  0.41929700  0.12624500  1
  O  O40  1  0.50365400  0.82106500  0.45438300  1
  O  O41  1  0.00989600  0.36063400  0.96373800  1
  O  O42  1  0.01268400  0.91664600  0.37339400  1
  O  O43  1  0.50501400  0.83602300  0.28437900  1
