# generated using pymatgen
data_V4O7
_symmetry_space_group_name_H-M   'P 1'
_cell_length_a   5.76169827
_cell_length_b   7.12144042
_cell_length_c   7.73237594
_cell_angle_alpha   90.54799624
_cell_angle_beta   125.15662062
_cell_angle_gamma   85.99242578
_symmetry_Int_Tables_number   1
_chemical_formula_structural   V4O7
_chemical_formula_sum   'V8 O14'
_cell_volume   258.57793483
_cell_formula_units_Z   2
loop_
 _symmetry_equiv_pos_site_id
 _symmetry_equiv_pos_as_xyz
  1  'x, y, z'
loop_
 _atom_site_type_symbol
 _atom_site_label
 _atom_site_symmetry_multiplicity
 _atom_site_fract_x
 _atom_site_fract_y
 _atom_site_fract_z
 _atom_site_occupancy
  V  V0  1  0.65637700  0.98985700  0.37830300  1
  V  V1  1  0.34362300  0.01014300  0.62169700  1
  V  V2  1  0.00351800  0.21194300  0.78753600  1
  V  V3  1  0.99648200  0.78805700  0.21246400  1
  V  V4  1  0.93791700  0.30381600  0.21270000  1
  V  V5  1  0.06208300  0.69618400  0.78730000  1
  V  V6  1  0.49281600  0.41953000  0.67322100  1
  V  V7  1  0.50718400  0.58047000  0.32677900  1
  O  O8  1  0.26671700  0.24987000  0.71156300  1
  O  O9  1  0.73328300  0.75013000  0.28843700  1
  O  O10  1  0.19211400  0.49850600  0.36536600  1
  O  O11  1  0.80788600  0.50149400  0.63463400  1
  O  O12  1  0.41062000  0.83055300  0.42835600  1
  O  O13  1  0.58938000  0.16944700  0.57164400  1
  O  O14  1  0.15516700  0.69155000  0.05854400  1
  O  O15  1  0.84483300  0.30845000  0.94145600  1
  O  O16  1  0.96926800  0.05113100  0.31996300  1
  O  O17  1  0.03073200  0.94886900  0.68003700  1
  O  O18  1  0.42424500  0.64062200  0.80891100  1
  O  O19  1  0.57575500  0.35937800  0.19108900  1
  O  O20  1  0.40016000  0.19319800  0.13906500  1
  O  O21  1  0.59984000  0.80680200  0.86093500  1
