# generated using pymatgen
data_Sc(NF2)3
_symmetry_space_group_name_H-M   'P 1'
_cell_length_a   6.17360013
_cell_length_b   6.17360013
_cell_length_c   7.00066630
_cell_angle_alpha   56.29365313
_cell_angle_beta   56.29365313
_cell_angle_gamma   72.62539080
_symmetry_Int_Tables_number   1
_chemical_formula_structural   Sc(NF2)3
_chemical_formula_sum   'Sc1 N3 F6'
_cell_volume   184.63389044
_cell_formula_units_Z   1
loop_
 _symmetry_equiv_pos_site_id
 _symmetry_equiv_pos_as_xyz
  1  'x, y, z'
loop_
 _atom_site_type_symbol
 _atom_site_label
 _atom_site_symmetry_multiplicity
 _atom_site_fract_x
 _atom_site_fract_y
 _atom_site_fract_z
 _atom_site_occupancy
  Sc  Sc0  1  0.00035500  0.00035500  0.87607500  1
  N  N1  1  0.48964100  0.48964100  0.97356200  1
  N  N2  1  0.75942800  0.27610400  0.46012200  1
  N  N3  1  0.27610400  0.75942800  0.46012200  1
  F  F4  1  0.63400100  0.63400100  0.70922500  1
  F  F5  1  0.75655100  0.21240900  0.04208600  1
  F  F6  1  0.34165800  0.34165800  0.99945400  1
  F  F7  1  0.21240900  0.75655100  0.04208600  1
  F  F8  1  0.79760400  0.79760400  0.90766000  1
  F  F9  1  0.23299600  0.23299600  0.53062900  1
