# generated using pymatgen
data_SiH12N2(O2F3)2
_symmetry_space_group_name_H-M   'P 1'
_cell_length_a   7.71959752
_cell_length_b   7.71959752
_cell_length_c   10.61106506
_cell_angle_alpha   57.39703043
_cell_angle_beta   57.39703043
_cell_angle_gamma   57.47066481
_symmetry_Int_Tables_number   1
_chemical_formula_structural   SiH12N2(O2F3)2
_chemical_formula_sum   'Si2 H24 N4 O8 F12'
_cell_volume   420.60240541
_cell_formula_units_Z   2
loop_
 _symmetry_equiv_pos_site_id
 _symmetry_equiv_pos_as_xyz
  1  'x, y, z'
loop_
 _atom_site_type_symbol
 _atom_site_label
 _atom_site_symmetry_multiplicity
 _atom_site_fract_x
 _atom_site_fract_y
 _atom_site_fract_z
 _atom_site_occupancy
  Si  Si0  1  0.11552700  0.88447300  0.25000000  1
  Si  Si1  1  0.88447300  0.11552700  0.75000000  1
  H  H2  1  0.38635300  0.17414800  0.68295200  1
  H  H3  1  0.82585200  0.61364700  0.81704800  1
  H  H4  1  0.61364700  0.82585200  0.31704800  1
  H  H5  1  0.17414800  0.38635300  0.18295200  1
  H  H6  1  0.20877200  0.08311300  0.87125700  1
  H  H7  1  0.91688700  0.79122800  0.62874300  1
  H  H8  1  0.79122800  0.91688700  0.12874300  1
  H  H9  1  0.08311300  0.20877200  0.37125700  1
  H  H10  1  0.44196100  0.09303200  0.84542700  1
  H  H11  1  0.90696800  0.55803900  0.65457300  1
  H  H12  1  0.55803900  0.90696800  0.15457300  1
  H  H13  1  0.09303200  0.44196100  0.34542700  1
  H  H14  1  0.22487000  0.40429700  0.87200200  1
  H  H15  1  0.59570300  0.77513000  0.62799800  1
  H  H16  1  0.77513000  0.59570300  0.12799800  1
  H  H17  1  0.40429700  0.22487000  0.37200200  1
  H  H18  1  0.65127500  0.21582100  0.42592000  1
  H  H19  1  0.78417900  0.34872500  0.07408000  1
  H  H20  1  0.34872500  0.78417900  0.57408000  1
  H  H21  1  0.21582100  0.65127500  0.92592000  1
  H  H22  1  0.43680500  0.43224900  0.42607100  1
  H  H23  1  0.56775100  0.56319500  0.07392900  1
  H  H24  1  0.56319500  0.56775100  0.57392900  1
  H  H25  1  0.43224900  0.43680500  0.92607100  1
  N  N26  1  0.31705900  0.16787800  0.80120600  1
  N  N27  1  0.83212200  0.68294100  0.69879400  1
  N  N28  1  0.68294100  0.83212200  0.19879400  1
  N  N29  1  0.16787800  0.31705900  0.30120600  1
  O  O30  1  0.20223700  0.38888200  0.79338700  1
  O  O31  1  0.61111800  0.79776300  0.70661300  1
  O  O32  1  0.79776300  0.61111800  0.20661300  1
  O  O33  1  0.38888200  0.20223700  0.29338700  1
  O  O34  1  0.48926400  0.27084900  0.46341700  1
  O  O35  1  0.72915100  0.51073600  0.03658300  1
  O  O36  1  0.51073600  0.72915100  0.53658300  1
  O  O37  1  0.27084900  0.48926400  0.96341700  1
  F  F38  1  0.27407000  0.71739500  0.36902400  1
  F  F39  1  0.28260500  0.72593000  0.13097600  1
  F  F40  1  0.72593000  0.28260500  0.63097600  1
  F  F41  1  0.71739500  0.27407000  0.86902400  1
  F  F42  1  0.95776000  0.72181500  0.36890500  1
  F  F43  1  0.27818500  0.04224000  0.13109500  1
  F  F44  1  0.04224000  0.27818500  0.63109500  1
  F  F45  1  0.72181500  0.95776000  0.86890500  1
  F  F46  1  0.94520800  0.04619700  0.36790300  1
  F  F47  1  0.95380300  0.05479200  0.13209700  1
  F  F48  1  0.05479200  0.95380300  0.63209700  1
  F  F49  1  0.04619700  0.94520800  0.86790300  1
