# generated using pymatgen
data_SbH3CS2N
_symmetry_space_group_name_H-M   'P 1'
_cell_length_a   7.32498639
_cell_length_b   8.11901813
_cell_length_c   11.28661488
_cell_angle_alpha   91.72864283
_cell_angle_beta   99.82906206
_cell_angle_gamma   108.93367796
_symmetry_Int_Tables_number   1
_chemical_formula_structural   SbH3CS2N
_chemical_formula_sum   'Sb4 H12 C4 S8 N4'
_cell_volume   622.95573418
_cell_formula_units_Z   4
loop_
 _symmetry_equiv_pos_site_id
 _symmetry_equiv_pos_as_xyz
  1  'x, y, z'
loop_
 _atom_site_type_symbol
 _atom_site_label
 _atom_site_symmetry_multiplicity
 _atom_site_fract_x
 _atom_site_fract_y
 _atom_site_fract_z
 _atom_site_occupancy
  Sb  Sb0  1  0.55637500  0.70291500  0.36403600  1
  Sb  Sb1  1  0.44362500  0.29708500  0.63596400  1
  Sb  Sb2  1  0.13620800  0.72842900  0.13082900  1
  Sb  Sb3  1  0.86379200  0.27157100  0.86917100  1
  H  H4  1  0.20210800  0.79951500  0.55689600  1
  H  H5  1  0.79789200  0.20048500  0.44310400  1
  H  H6  1  0.76412700  0.70647900  0.66062900  1
  H  H7  1  0.23587300  0.29352100  0.33937100  1
  H  H8  1  0.10452000  0.74404400  0.69186800  1
  H  H9  1  0.89548000  0.25595600  0.30813200  1
  H  H10  1  0.88393100  0.67150000  0.87376100  1
  H  H11  1  0.11606900  0.32850000  0.12623900  1
  H  H12  1  0.57805200  0.77280600  0.81146300  1
  H  H13  1  0.42194800  0.22719400  0.18853700  1
  H  H14  1  0.53808300  0.76606100  0.96564400  1
  H  H15  1  0.46191700  0.23393900  0.03435600  1
  C  C16  1  0.23431800  0.00111200  0.68311600  1
  C  C17  1  0.76568200  0.99888800  0.31688400  1
  C  C18  1  0.68187900  0.00452700  0.92186600  1
  C  C19  1  0.31812000  0.99547300  0.07813400  1
  S  S20  1  0.43147500  0.32630200  0.36695100  1
  S  S21  1  0.56852500  0.67369800  0.63304900  1
  S  S22  1  0.25381400  0.75737900  0.37455800  1
  S  S23  1  0.74618600  0.24262100  0.62544200  1
  S  S24  1  0.43718100  0.65855000  0.13038600  1
  S  S25  1  0.56281900  0.34145000  0.86961400  1
  S  S26  1  0.93679900  0.34445100  0.11868200  1
  S  S27  1  0.06320100  0.65554900  0.88131800  1
  N  N28  1  0.17421300  0.84185500  0.63963300  1
  N  N29  1  0.82578700  0.15814500  0.36036700  1
  N  N30  1  0.59812000  0.84125600  0.89801200  1
  N  N31  1  0.40188000  0.15874400  0.10198800  1
