# generated using pymatgen
data_SrSb4S7O6
_symmetry_space_group_name_H-M   'P 1'
_cell_length_a   7.25919700
_cell_length_b   8.80398900
_cell_length_c   27.27546891
_cell_angle_alpha   77.13885552
_cell_angle_beta   90.00000000
_cell_angle_gamma   90.00000000
_symmetry_Int_Tables_number   1
_chemical_formula_structural   SrSb4S7O6
_chemical_formula_sum   'Sr4 Sb16 S28 O24'
_cell_volume   1699.44016996
_cell_formula_units_Z   4
loop_
 _symmetry_equiv_pos_site_id
 _symmetry_equiv_pos_as_xyz
  1  'x, y, z'
loop_
 _atom_site_type_symbol
 _atom_site_label
 _atom_site_symmetry_multiplicity
 _atom_site_fract_x
 _atom_site_fract_y
 _atom_site_fract_z
 _atom_site_occupancy
  Sr  Sr0  1  0.65070300  0.59622500  0.23483800  1
  Sr  Sr1  1  0.84929700  0.59622500  0.73483800  1
  Sr  Sr2  1  0.34929700  0.40377500  0.76516200  1
  Sr  Sr3  1  0.15070300  0.40377500  0.26516200  1
  Sb  Sb4  1  0.94414700  0.42339500  0.13133400  1
  Sb  Sb5  1  0.55585300  0.42339500  0.63133400  1
  Sb  Sb6  1  0.05585300  0.57660500  0.86866600  1
  Sb  Sb7  1  0.44414700  0.57660500  0.36866600  1
  Sb  Sb8  1  0.46267900  0.32774300  0.09706400  1
  Sb  Sb9  1  0.03732100  0.32774300  0.59706400  1
  Sb  Sb10  1  0.53732100  0.67225700  0.90293600  1
  Sb  Sb11  1  0.96267900  0.67225700  0.40293600  1
  Sb  Sb12  1  0.31712000  0.72916200  0.04233800  1
  Sb  Sb13  1  0.18288000  0.72916200  0.54233800  1
  Sb  Sb14  1  0.68288000  0.27083800  0.95766200  1
  Sb  Sb15  1  0.81712000  0.27083800  0.45766200  1
  Sb  Sb16  1  0.80447000  0.85943300  0.01022400  1
  Sb  Sb17  1  0.69553000  0.85943300  0.51022400  1
  Sb  Sb18  1  0.19553000  0.14056700  0.98977600  1
  Sb  Sb19  1  0.30447000  0.14056700  0.48977600  1
  S  S20  1  0.55012100  0.59146800  0.10885000  1
  S  S21  1  0.94987900  0.59146800  0.60885000  1
  S  S22  1  0.44987900  0.40853200  0.89115000  1
  S  S23  1  0.05012100  0.40853200  0.39115000  1
  S  S24  1  0.04445800  0.70597100  0.09683300  1
  S  S25  1  0.45554200  0.70597100  0.59683300  1
  S  S26  1  0.95554200  0.29402900  0.90316700  1
  S  S27  1  0.54445800  0.29402900  0.40316700  1
  S  S28  1  0.09167600  0.88951700  0.95909000  1
  S  S29  1  0.40832400  0.88951700  0.45909000  1
  S  S30  1  0.90832400  0.11048300  0.04091000  1
  S  S31  1  0.59167600  0.11048300  0.54091000  1
  S  S32  1  0.39085500  0.98515800  0.06337700  1
  S  S33  1  0.10914500  0.98515800  0.56337700  1
  S  S34  1  0.60914500  0.01484200  0.93662300  1
  S  S35  1  0.89085500  0.01484200  0.43662300  1
  S  S36  1  0.22991600  0.26794000  0.16386400  1
  S  S37  1  0.27008400  0.26794000  0.66386400  1
  S  S38  1  0.77008400  0.73206000  0.83613600  1
  S  S39  1  0.72991600  0.73206000  0.33613600  1
  S  S40  1  0.26386600  0.41660500  0.02331300  1
  S  S41  1  0.23613400  0.41660500  0.52331300  1
  S  S42  1  0.73613400  0.58339500  0.97668700  1
  S  S43  1  0.76386600  0.58339500  0.47668700  1
  S  S44  1  0.65591200  0.01541800  0.19605400  1
  S  S45  1  0.84408800  0.01541800  0.69605400  1
  S  S46  1  0.34408800  0.98458200  0.80394600  1
  S  S47  1  0.15591200  0.98458200  0.30394600  1
  O  O48  1  0.79398300  0.34964100  0.29807000  1
  O  O49  1  0.70601700  0.34964100  0.79807000  1
  O  O50  1  0.20601700  0.65035900  0.70193000  1
  O  O51  1  0.29398300  0.65035900  0.20193000  1
  O  O52  1  0.74111900  0.89786100  0.17322000  1
  O  O53  1  0.75888100  0.89786100  0.67322000  1
  O  O54  1  0.25888100  0.10213900  0.82678000  1
  O  O55  1  0.24111900  0.10213900  0.32678000  1
  O  O56  1  0.52345200  0.95553800  0.23562800  1
  O  O57  1  0.97654800  0.95553800  0.73562800  1
  O  O58  1  0.47654800  0.04446200  0.76437200  1
  O  O59  1  0.02345200  0.04446200  0.26437200  1
  O  O60  1  0.32051700  0.75728400  0.71492200  1
  O  O61  1  0.17948300  0.75728400  0.21492200  1
  O  O62  1  0.67948300  0.24271600  0.28507800  1
  O  O63  1  0.82051700  0.24271600  0.78507800  1
  O  O64  1  0.39770500  0.54037700  0.30292600  1
  O  O65  1  0.10229500  0.54037700  0.80292600  1
  O  O66  1  0.60229500  0.45962300  0.69707400  1
  O  O67  1  0.89770500  0.45962300  0.19707400  1
  O  O68  1  0.54606800  0.30600100  0.25205800  1
  O  O69  1  0.95393200  0.30600100  0.75205800  1
  O  O70  1  0.45393200  0.69399900  0.74794200  1
  O  O71  1  0.04606800  0.69399900  0.24794200  1
