# generated using pymatgen
data_LaMn3V4O12
_symmetry_space_group_name_H-M   'P 1'
_cell_length_a   6.67616039
_cell_length_b   6.67616039
_cell_length_c   6.67616039
_cell_angle_alpha   109.47122063
_cell_angle_beta   109.47122063
_cell_angle_gamma   109.47122063
_symmetry_Int_Tables_number   1
_chemical_formula_structural   LaMn3V4O12
_chemical_formula_sum   'La1 Mn3 V4 O12'
_cell_volume   229.06482007
_cell_formula_units_Z   1
loop_
 _symmetry_equiv_pos_site_id
 _symmetry_equiv_pos_as_xyz
  1  'x, y, z'
loop_
 _atom_site_type_symbol
 _atom_site_label
 _atom_site_symmetry_multiplicity
 _atom_site_fract_x
 _atom_site_fract_y
 _atom_site_fract_z
 _atom_site_occupancy
  La  La0  1  0.00000000  0.00000000  0.00000000  1
  Mn  Mn1  1  0.50000000  0.00000000  0.50000000  1
  Mn  Mn2  1  0.00000000  0.50000000  0.50000000  1
  Mn  Mn3  1  0.50000000  0.50000000  0.00000000  1
  V  V4  1  0.00000000  0.50000000  0.00000000  1
  V  V5  1  0.50000000  0.50000000  0.50000000  1
  V  V6  1  0.00000000  0.00000000  0.50000000  1
  V  V7  1  0.50000000  0.00000000  0.00000000  1
  O  O8  1  0.74919800  0.49839600  0.74919800  1
  O  O9  1  0.25080200  0.50160400  0.25080200  1
  O  O10  1  0.25080200  0.00000000  0.74919800  1
  O  O11  1  0.74919800  0.00000000  0.25080200  1
  O  O12  1  0.00000000  0.25080200  0.74919800  1
  O  O13  1  0.00000000  0.74919800  0.25080200  1
  O  O14  1  0.50160400  0.25080200  0.25080200  1
  O  O15  1  0.49839600  0.74919800  0.74919800  1
  O  O16  1  0.25080200  0.25080200  0.50160400  1
  O  O17  1  0.74919800  0.74919800  0.49839600  1
  O  O18  1  0.25080200  0.74919800  0.00000000  1
  O  O19  1  0.74919800  0.25080200  0.00000000  1
