# generated using pymatgen
data_Sb2Te2O9
_symmetry_space_group_name_H-M   'P 1'
_cell_length_a   5.05332200
_cell_length_b   14.63838700
_cell_length_c   22.70545215
_cell_angle_alpha   71.37812702
_cell_angle_beta   90.00000000
_cell_angle_gamma   90.00000000
_symmetry_Int_Tables_number   1
_chemical_formula_structural   Sb2Te2O9
_chemical_formula_sum   'Sb16 Te16 O72'
_cell_volume   1591.64698130
_cell_formula_units_Z   8
loop_
 _symmetry_equiv_pos_site_id
 _symmetry_equiv_pos_as_xyz
  1  'x, y, z'
loop_
 _atom_site_type_symbol
 _atom_site_label
 _atom_site_symmetry_multiplicity
 _atom_site_fract_x
 _atom_site_fract_y
 _atom_site_fract_z
 _atom_site_occupancy
  Sb  Sb0  1  0.19305700  0.66573000  0.34726700  1
  Sb  Sb1  1  0.66143800  0.98787100  0.17355900  1
  Sb  Sb2  1  0.30804800  0.28127100  0.55154300  1
  Sb  Sb3  1  0.83856200  0.48787100  0.17355900  1
  Sb  Sb4  1  0.18116100  0.68653700  0.05708300  1
  Sb  Sb5  1  0.80694300  0.33427000  0.65273300  1
  Sb  Sb6  1  0.16143800  0.51212900  0.82644100  1
  Sb  Sb7  1  0.33856200  0.01212900  0.82644100  1
  Sb  Sb8  1  0.68116100  0.81346300  0.94291700  1
  Sb  Sb9  1  0.81883900  0.31346300  0.94291700  1
  Sb  Sb10  1  0.30694300  0.16573000  0.34726700  1
  Sb  Sb11  1  0.69195200  0.71872900  0.44845700  1
  Sb  Sb12  1  0.69305700  0.83427000  0.65273300  1
  Sb  Sb13  1  0.19195200  0.78127100  0.55154300  1
  Sb  Sb14  1  0.80804800  0.21872900  0.44845700  1
  Sb  Sb15  1  0.31883900  0.18653700  0.05708300  1
  Te  Te16  1  0.29369700  0.42535800  0.07528800  1
  Te  Te17  1  0.87699300  0.08965500  0.71227300  1
  Te  Te18  1  0.85532200  0.44683400  0.44306500  1
  Te  Te19  1  0.79369700  0.07464200  0.92471200  1
  Te  Te20  1  0.16337500  0.81905600  0.76644300  1
  Te  Te21  1  0.12300700  0.91034500  0.28772700  1
  Te  Te22  1  0.83662500  0.18094400  0.23355700  1
  Te  Te23  1  0.62300700  0.58965500  0.71227300  1
  Te  Te24  1  0.35532200  0.05316600  0.55693500  1
  Te  Te25  1  0.64467800  0.94683400  0.44306500  1
  Te  Te26  1  0.70630300  0.57464200  0.92471200  1
  Te  Te27  1  0.14467800  0.55316600  0.55693500  1
  Te  Te28  1  0.37699300  0.41034500  0.28772700  1
  Te  Te29  1  0.33662500  0.31905600  0.76644300  1
  Te  Te30  1  0.66337500  0.68094400  0.23355700  1
  Te  Te31  1  0.20630300  0.92535800  0.07528800  1
  O  O32  1  0.39627700  0.44077500  0.78251200  1
  O  O33  1  0.66993300  0.93719900  0.96277400  1
  O  O34  1  0.96379400  0.79853100  0.47572900  1
  O  O35  1  0.12264900  0.03610800  0.89598700  1
  O  O36  1  0.59696100  0.01367500  0.75820800  1
  O  O37  1  0.09696100  0.48632500  0.24179200  1
  O  O38  1  0.41678800  0.02853500  0.38121400  1
  O  O39  1  0.11239300  0.40594300  0.15233900  1
  O  O40  1  0.16993300  0.56280100  0.03722600  1
  O  O41  1  0.03914500  0.64902300  0.59383200  1
  O  O42  1  0.60372300  0.55922500  0.21748800  1
  O  O43  1  0.49326700  0.70767900  0.00112500  1
  O  O44  1  0.98948100  0.33270100  0.73476000  1
  O  O45  1  0.10353600  0.26555000  0.62925000  1
  O  O46  1  0.37735100  0.53610800  0.89598700  1
  O  O47  1  0.00673300  0.20767900  0.00112500  1
  O  O48  1  0.00630000  0.88402300  0.68770200  1
  O  O49  1  0.60353600  0.23445000  0.37075000  1
  O  O50  1  0.99370000  0.11597700  0.31229800  1
  O  O51  1  0.51051900  0.83270100  0.73476000  1
  O  O52  1  0.48948100  0.16729900  0.26524000  1
  O  O53  1  0.50630000  0.61597700  0.31229800  1
  O  O54  1  0.69571800  0.23466700  0.89407000  1
  O  O55  1  0.87632800  0.87850000  0.23068600  1
  O  O56  1  0.96085500  0.35097700  0.40616800  1
  O  O57  1  0.19571800  0.26533300  0.10593000  1
  O  O58  1  0.90303900  0.51367500  0.75820800  1
  O  O59  1  0.62264900  0.46389200  0.10401300  1
  O  O60  1  0.46085500  0.14902300  0.59383200  1
  O  O61  1  0.87524000  0.58900000  0.49208700  1
  O  O62  1  0.53914500  0.85097700  0.40616800  1
  O  O63  1  0.90693300  0.85418400  0.57615400  1
  O  O64  1  0.91678800  0.47146500  0.61878600  1
  O  O65  1  0.40303900  0.98632500  0.24179200  1
  O  O66  1  0.39646400  0.76555000  0.62925000  1
  O  O67  1  0.10372300  0.94077500  0.78251200  1
  O  O68  1  0.12367200  0.12150000  0.76931400  1
  O  O69  1  0.49370000  0.38402300  0.68770200  1
  O  O70  1  0.16944100  0.29564700  0.29748700  1
  O  O71  1  0.07370700  0.37737300  0.87475300  1
  O  O72  1  0.80428200  0.73466700  0.89407000  1
  O  O73  1  0.89646400  0.73445000  0.37075000  1
  O  O74  1  0.42629300  0.87737300  0.87475300  1
  O  O75  1  0.99326700  0.79232100  0.99887500  1
  O  O76  1  0.58321200  0.97146500  0.61878600  1
  O  O77  1  0.53620600  0.29853100  0.47572900  1
  O  O78  1  0.33055900  0.79564700  0.29748700  1
  O  O79  1  0.61239200  0.09405700  0.84766100  1
  O  O80  1  0.30428200  0.76533300  0.10593000  1
  O  O81  1  0.83006700  0.43719900  0.96277400  1
  O  O82  1  0.62367200  0.37850000  0.23068600  1
  O  O83  1  0.59306700  0.35418400  0.57615400  1
  O  O84  1  0.12476000  0.41100000  0.50791300  1
  O  O85  1  0.08321200  0.52853500  0.38121400  1
  O  O86  1  0.50673300  0.29232100  0.99887500  1
  O  O87  1  0.40693300  0.64581600  0.42384600  1
  O  O88  1  0.62476000  0.08900000  0.49208700  1
  O  O89  1  0.92629300  0.62262700  0.12524700  1
  O  O90  1  0.33006700  0.06280100  0.03722600  1
  O  O91  1  0.03620600  0.20146900  0.52427100  1
  O  O92  1  0.89627700  0.05922500  0.21748800  1
  O  O93  1  0.66944100  0.20435300  0.70251300  1
  O  O94  1  0.57370700  0.12262700  0.12524700  1
  O  O95  1  0.09306700  0.14581600  0.42384600  1
  O  O96  1  0.46379400  0.70146900  0.52427100  1
  O  O97  1  0.83055900  0.70435300  0.70251300  1
  O  O98  1  0.37632800  0.62150000  0.76931400  1
  O  O99  1  0.88760700  0.59405700  0.84766100  1
  O  O100  1  0.38760700  0.90594300  0.15233900  1
  O  O101  1  0.87735100  0.96389200  0.10401300  1
  O  O102  1  0.37524000  0.91100000  0.50791300  1
  O  O103  1  0.01051900  0.66729900  0.26524000  1
