# generated using pymatgen
data_Sn3(HO2)2
_symmetry_space_group_name_H-M   'P 1'
_cell_length_a   8.15475066
_cell_length_b   8.15475066
_cell_length_c   9.21286729
_cell_angle_alpha   89.88024957
_cell_angle_beta   89.88024957
_cell_angle_gamma   90.06717968
_symmetry_Int_Tables_number   1
_chemical_formula_structural   Sn3(HO2)2
_chemical_formula_sum   'Sn12 H8 O16'
_cell_volume   612.65219052
_cell_formula_units_Z   4
loop_
 _symmetry_equiv_pos_site_id
 _symmetry_equiv_pos_as_xyz
  1  'x, y, z'
loop_
 _atom_site_type_symbol
 _atom_site_label
 _atom_site_symmetry_multiplicity
 _atom_site_fract_x
 _atom_site_fract_y
 _atom_site_fract_z
 _atom_site_occupancy
  Sn  Sn0  1  0.19754700  0.11011200  0.49967200  1
  Sn  Sn1  1  0.70470100  0.37006700  0.99968200  1
  Sn  Sn2  1  0.77780800  0.87931000  0.51377300  1
  Sn  Sn3  1  0.28538700  0.60137100  0.99917500  1
  Sn  Sn4  1  0.37006700  0.70470100  0.49968200  1
  Sn  Sn5  1  0.11011200  0.19754700  0.99967200  1
  Sn  Sn6  1  0.60137100  0.28538700  0.49917500  1
  Sn  Sn7  1  0.87931000  0.77780800  0.01377300  1
  Sn  Sn8  1  0.48058800  0.99687300  0.77936200  1
  Sn  Sn9  1  0.98917100  0.49773700  0.72695200  1
  Sn  Sn10  1  0.49773700  0.98917100  0.22695200  1
  Sn  Sn11  1  0.99687300  0.48058800  0.27936200  1
  H  H12  1  0.31948300  0.31642400  0.73167500  1
  H  H13  1  0.82448900  0.17647800  0.76268200  1
  H  H14  1  0.64393400  0.67885900  0.74725200  1
  H  H15  1  0.14944100  0.81424200  0.77100000  1
  H  H16  1  0.17647800  0.82448900  0.26268200  1
  H  H17  1  0.31642400  0.31948300  0.23167500  1
  H  H18  1  0.81424200  0.14944100  0.27100000  1
  H  H19  1  0.67885900  0.64393400  0.24725200  1
  O  O20  1  0.37264500  0.23881600  0.66350000  1
  O  O21  1  0.88014000  0.25147000  0.83138800  1
  O  O22  1  0.59311800  0.75619800  0.67795400  1
  O  O23  1  0.10081500  0.73413300  0.83946700  1
  O  O24  1  0.25147000  0.88014000  0.33138800  1
  O  O25  1  0.23881600  0.37264500  0.16350000  1
  O  O26  1  0.73413300  0.10081500  0.33946700  1
  O  O27  1  0.75619800  0.59311800  0.17795400  1
  O  O28  1  0.30217100  0.91476000  0.62394100  1
  O  O29  1  0.80938900  0.57281100  0.88438300  1
  O  O30  1  0.66656800  0.07807500  0.62910600  1
  O  O31  1  0.17377900  0.41016300  0.87504200  1
  O  O32  1  0.57281100  0.80938900  0.38438300  1
  O  O33  1  0.91476000  0.30217100  0.12394100  1
  O  O34  1  0.41016300  0.17377900  0.37504200  1
  O  O35  1  0.07807500  0.66656800  0.12910600  1
