# generated using pymatgen
data_Sn5C8Se10N2O
_symmetry_space_group_name_H-M   'P 1'
_cell_length_a   10.26170304
_cell_length_b   10.26170304
_cell_length_c   10.26170304
_cell_angle_alpha   125.70076124
_cell_angle_beta   125.70076124
_cell_angle_gamma   80.38051793
_symmetry_Int_Tables_number   1
_chemical_formula_structural   Sn5C8Se10N2O
_chemical_formula_sum   'Sn5 C8 Se10 N2 O1'
_cell_volume   687.52561792
_cell_formula_units_Z   1
loop_
 _symmetry_equiv_pos_site_id
 _symmetry_equiv_pos_as_xyz
  1  'x, y, z'
loop_
 _atom_site_type_symbol
 _atom_site_label
 _atom_site_symmetry_multiplicity
 _atom_site_fract_x
 _atom_site_fract_y
 _atom_site_fract_z
 _atom_site_occupancy
  Sn  Sn0  1  0.75000000  0.25000000  0.50000000  1
  Sn  Sn1  1  0.85374500  0.72073100  0.77155500  1
  Sn  Sn2  1  0.94917600  0.08219000  0.22844500  1
  Sn  Sn3  1  0.91781000  0.14625500  0.86698600  1
  Sn  Sn4  1  0.27926900  0.05082400  0.13301400  1
  C  C5  1  0.34324000  0.41335400  0.92428300  1
  C  C6  1  0.48907100  0.41895700  0.07571700  1
  C  C7  1  0.58104300  0.65676000  0.07011400  1
  C  C8  1  0.58664600  0.51092900  0.92988600  1
  C  C9  1  0.19488400  0.72717000  0.59545600  1
  C  C10  1  0.13171400  0.59942800  0.40454400  1
  C  C11  1  0.40057200  0.80511600  0.53228500  1
  C  C12  1  0.27283000  0.86828600  0.46771500  1
  Se  Se13  1  0.65638100  0.41120600  0.28483400  1
  Se  Se14  1  0.12637300  0.37154700  0.71516600  1
  Se  Se15  1  0.62845300  0.34361900  0.75482600  1
  Se  Se16  1  0.58879400  0.87362700  0.24517400  1
  Se  Se17  1  0.17560500  0.74450900  0.77432400  1
  Se  Se18  1  0.97018600  0.40128100  0.22567600  1
  Se  Se19  1  0.59871900  0.82439500  0.56890400  1
  Se  Se20  1  0.25549100  0.02981400  0.43109600  1
  Se  Se21  1  0.77870700  0.77870700  0.00000000  1
  Se  Se22  1  0.22129300  0.22129300  0.00000000  1
  N  N23  1  0.50000000  0.50000000  0.00000000  1
  N  N24  1  0.25000000  0.75000000  0.50000000  1
  O  O25  1  0.00000000  0.00000000  0.00000000  1
