# generated using pymatgen
data_TiCoO3
_symmetry_space_group_name_H-M   'P 1'
_cell_length_a   11.60702256
_cell_length_b   5.83589917
_cell_length_c   5.54927534
_cell_angle_alpha   117.68609236
_cell_angle_beta   138.46540325
_cell_angle_gamma   43.43633441
_symmetry_Int_Tables_number   1
_chemical_formula_structural   TiCoO3
_chemical_formula_sum   'Ti2 Co2 O6'
_cell_volume   168.77986080
_cell_formula_units_Z   2
loop_
 _symmetry_equiv_pos_site_id
 _symmetry_equiv_pos_as_xyz
  1  'x, y, z'
loop_
 _atom_site_type_symbol
 _atom_site_label
 _atom_site_symmetry_multiplicity
 _atom_site_fract_x
 _atom_site_fract_y
 _atom_site_fract_z
 _atom_site_occupancy
  Ti  Ti0  1  0.64103000  0.05485200  0.13488900  1
  Ti  Ti1  1  0.35897000  0.94514800  0.86511100  1
  Co  Co2  1  0.18495700  0.79522800  0.02173900  1
  Co  Co3  1  0.81504300  0.20477200  0.97826100  1
  O  O4  1  0.85589700  0.02879200  0.62298000  1
  O  O5  1  0.64592900  0.13153800  0.87369600  1
  O  O6  1  0.34827000  0.31768500  0.95962800  1
  O  O7  1  0.14410300  0.97120800  0.37702000  1
  O  O8  1  0.35407100  0.86846200  0.12630400  1
  O  O9  1  0.65173000  0.68231500  0.04037200  1
