# generated using pymatgen
data_TiF3
_symmetry_space_group_name_H-M   'P 1'
_cell_length_a   9.79359430
_cell_length_b   5.11238126
_cell_length_c   6.76822927
_cell_angle_alpha   123.77696604
_cell_angle_beta   136.34400931
_cell_angle_gamma   39.78635409
_symmetry_Int_Tables_number   1
_chemical_formula_structural   TiF3
_chemical_formula_sum   'Ti2 F6'
_cell_volume   149.70125079
_cell_formula_units_Z   2
loop_
 _symmetry_equiv_pos_site_id
 _symmetry_equiv_pos_as_xyz
  1  'x, y, z'
loop_
 _atom_site_type_symbol
 _atom_site_label
 _atom_site_symmetry_multiplicity
 _atom_site_fract_x
 _atom_site_fract_y
 _atom_site_fract_z
 _atom_site_occupancy
  Ti  Ti0  1  0.00000000  0.50000000  0.00000000  1
  Ti  Ti1  1  0.00000000  0.00000000  0.00000000  1
  F  F2  1  0.70561600  0.06178900  0.83394500  1
  F  F3  1  0.83599000  0.25000000  0.67197900  1
  F  F4  1  0.12832900  0.43821100  0.83394500  1
  F  F5  1  0.29438400  0.93821100  0.16605500  1
  F  F6  1  0.16401000  0.75000000  0.32802100  1
  F  F7  1  0.87167100  0.56178900  0.16605500  1
