# generated using pymatgen
data_W3C7NCl6O7
_symmetry_space_group_name_H-M   'P 1'
_cell_length_a   11.74262700
_cell_length_b   12.78603100
_cell_length_c   14.94537400
_cell_angle_alpha   90.00000000
_cell_angle_beta   90.00000000
_cell_angle_gamma   90.00000000
_symmetry_Int_Tables_number   1
_chemical_formula_structural   W3C7NCl6O7
_chemical_formula_sum   'W12 C28 N4 Cl24 O28'
_cell_volume   2243.92225800
_cell_formula_units_Z   4
loop_
 _symmetry_equiv_pos_site_id
 _symmetry_equiv_pos_as_xyz
  1  'x, y, z'
loop_
 _atom_site_type_symbol
 _atom_site_label
 _atom_site_symmetry_multiplicity
 _atom_site_fract_x
 _atom_site_fract_y
 _atom_site_fract_z
 _atom_site_occupancy
  W  W0  1  0.37709400  0.95844300  0.20566600  1
  W  W1  1  0.12290600  0.45844300  0.29433400  1
  W  W2  1  0.87709400  0.04155700  0.79433400  1
  W  W3  1  0.62290600  0.54155700  0.70566600  1
  W  W4  1  0.62290600  0.04155700  0.79433400  1
  W  W5  1  0.87709400  0.54155700  0.70566600  1
  W  W6  1  0.12290600  0.95844300  0.20566600  1
  W  W7  1  0.37709400  0.45844300  0.29433400  1
  W  W8  1  0.25000000  0.95683200  0.41494400  1
  W  W9  1  0.25000000  0.45683200  0.08505600  1
  W  W10  1  0.75000000  0.04316800  0.58505600  1
  W  W11  1  0.75000000  0.54316800  0.91494400  1
  C  C12  1  0.45836100  0.09305600  0.36720200  1
  C  C13  1  0.04163900  0.59305600  0.13279800  1
  C  C14  1  0.95836100  0.90694400  0.63279800  1
  C  C15  1  0.54163900  0.40694400  0.86720200  1
  C  C16  1  0.54163900  0.90694400  0.63279800  1
  C  C17  1  0.95836100  0.40694400  0.86720200  1
  C  C18  1  0.04163900  0.09305600  0.36720200  1
  C  C19  1  0.45836100  0.59305600  0.13279800  1
  C  C20  1  0.25000000  0.04561800  0.11637900  1
  C  C21  1  0.25000000  0.54561800  0.38362100  1
  C  C22  1  0.75000000  0.95438200  0.88362100  1
  C  C23  1  0.75000000  0.45438200  0.61637900  1
  C  C24  1  0.67178200  0.70331400  0.40450800  1
  C  C25  1  0.82821800  0.20331400  0.09549200  1
  C  C26  1  0.17178200  0.29668600  0.59549200  1
  C  C27  1  0.32821800  0.79668600  0.90450800  1
  C  C28  1  0.32821800  0.29668600  0.59549200  1
  C  C29  1  0.17178200  0.79668600  0.90450800  1
  C  C30  1  0.82821800  0.70331400  0.40450800  1
  C  C31  1  0.67178200  0.20331400  0.09549200  1
  C  C32  1  0.75000000  0.77954400  0.35968400  1
  C  C33  1  0.75000000  0.27954400  0.14031600  1
  C  C34  1  0.25000000  0.22045600  0.64031600  1
  C  C35  1  0.25000000  0.72045600  0.85968400  1
  C  C36  1  0.75000000  0.68707700  0.29860900  1
  C  C37  1  0.75000000  0.18707700  0.20139100  1
  C  C38  1  0.25000000  0.31292300  0.70139100  1
  C  C39  1  0.25000000  0.81292300  0.79860900  1
  N  N40  1  0.75000000  0.61736900  0.37787100  1
  N  N41  1  0.75000000  0.11736900  0.12212900  1
  N  N42  1  0.25000000  0.38263100  0.62212900  1
  N  N43  1  0.25000000  0.88263100  0.87787100  1
  Cl  Cl44  1  0.39859800  0.84220000  0.34621700  1
  Cl  Cl45  1  0.10140200  0.34220000  0.15378300  1
  Cl  Cl46  1  0.89859800  0.15780000  0.65378300  1
  Cl  Cl47  1  0.60140200  0.65780000  0.84621700  1
  Cl  Cl48  1  0.60140200  0.15780000  0.65378300  1
  Cl  Cl49  1  0.89859800  0.65780000  0.84621700  1
  Cl  Cl50  1  0.10140200  0.84220000  0.34621700  1
  Cl  Cl51  1  0.39859800  0.34220000  0.15378300  1
  Cl  Cl52  1  0.25000000  0.89999800  0.56288700  1
  Cl  Cl53  1  0.25000000  0.39999800  0.93711300  1
  Cl  Cl54  1  0.75000000  0.10000200  0.43711300  1
  Cl  Cl55  1  0.75000000  0.60000200  0.06288700  1
  Cl  Cl56  1  0.25000000  0.81591000  0.14037000  1
  Cl  Cl57  1  0.25000000  0.31591000  0.35963000  1
  Cl  Cl58  1  0.75000000  0.18409000  0.85963000  1
  Cl  Cl59  1  0.75000000  0.68409000  0.64037000  1
  Cl  Cl60  1  0.54448300  0.88780600  0.14591800  1
  Cl  Cl61  1  0.95551700  0.38780600  0.35408200  1
  Cl  Cl62  1  0.04448300  0.11219400  0.85408200  1
  Cl  Cl63  1  0.45551700  0.61219400  0.64591800  1
  Cl  Cl64  1  0.45551700  0.11219400  0.85408200  1
  Cl  Cl65  1  0.04448300  0.61219400  0.64591800  1
  Cl  Cl66  1  0.95551700  0.88780600  0.14591800  1
  Cl  Cl67  1  0.54448300  0.38780600  0.35408200  1
  O  O68  1  0.25000000  0.01678400  0.29117800  1
  O  O69  1  0.25000000  0.51678400  0.20882200  1
  O  O70  1  0.75000000  0.98321600  0.70882200  1
  O  O71  1  0.75000000  0.48321600  0.79117800  1
  O  O72  1  0.47328500  0.07217900  0.28651500  1
  O  O73  1  0.02671500  0.57217900  0.21348500  1
  O  O74  1  0.97328500  0.92782100  0.71348500  1
  O  O75  1  0.52671500  0.42782100  0.78651500  1
  O  O76  1  0.52671500  0.92782100  0.71348500  1
  O  O77  1  0.97328500  0.42782100  0.78651500  1
  O  O78  1  0.02671500  0.07217900  0.28651500  1
  O  O79  1  0.47328500  0.57217900  0.21348500  1
  O  O80  1  0.38976300  0.06799100  0.42752700  1
  O  O81  1  0.11023700  0.56799100  0.07247300  1
  O  O82  1  0.88976300  0.93200900  0.57247300  1
  O  O83  1  0.61023700  0.43200900  0.92752700  1
  O  O84  1  0.61023700  0.93200900  0.57247300  1
  O  O85  1  0.88976300  0.43200900  0.92752700  1
  O  O86  1  0.11023700  0.06799100  0.42752700  1
  O  O87  1  0.38976300  0.56799100  0.07247300  1
  O  O88  1  0.34986100  0.07042700  0.09392800  1
  O  O89  1  0.15013900  0.57042700  0.40607200  1
  O  O90  1  0.84986100  0.92957300  0.90607200  1
  O  O91  1  0.65013900  0.42957300  0.59392800  1
  O  O92  1  0.65013900  0.92957300  0.90607200  1
  O  O93  1  0.84986100  0.42957300  0.59392800  1
  O  O94  1  0.15013900  0.07042700  0.09392800  1
  O  O95  1  0.34986100  0.57042700  0.40607200  1
