# generated using pymatgen
data_Pt(NO2)2
_symmetry_space_group_name_H-M   'P 1'
_cell_length_a   4.92974100
_cell_length_b   8.72968500
_cell_length_c   16.14455241
_cell_angle_alpha   75.12603524
_cell_angle_beta   90.00000000
_cell_angle_gamma   90.00000000
_symmetry_Int_Tables_number   1
_chemical_formula_structural   Pt(NO2)2
_chemical_formula_sum   'Pt4 N8 O16'
_cell_volume   671.50201066
_cell_formula_units_Z   4
loop_
 _symmetry_equiv_pos_site_id
 _symmetry_equiv_pos_as_xyz
  1  'x, y, z'
loop_
 _atom_site_type_symbol
 _atom_site_label
 _atom_site_symmetry_multiplicity
 _atom_site_fract_x
 _atom_site_fract_y
 _atom_site_fract_z
 _atom_site_occupancy
  Pt  Pt0  1  0.50000000  0.00000000  0.50000000  1
  Pt  Pt1  1  0.00000000  0.50000000  0.50000000  1
  Pt  Pt2  1  0.50000000  0.50000000  0.00000000  1
  Pt  Pt3  1  0.00000000  0.00000000  0.00000000  1
  N  N4  1  0.76683200  0.87934700  0.56208700  1
  N  N5  1  0.26683200  0.62065300  0.43791300  1
  N  N6  1  0.23316800  0.12065300  0.43791300  1
  N  N7  1  0.73316800  0.37934700  0.56208700  1
  N  N8  1  0.23408900  0.55485400  0.06499300  1
  N  N9  1  0.73408900  0.94514600  0.93500700  1
  N  N10  1  0.76591100  0.44514600  0.93500700  1
  N  N11  1  0.26591100  0.05485400  0.06499300  1
  O  O12  1  0.44154500  0.69935700  0.39819600  1
  O  O13  1  0.94154500  0.80064300  0.60180400  1
  O  O14  1  0.55845500  0.30064300  0.60180400  1
  O  O15  1  0.05845500  0.19935700  0.39819600  1
  O  O16  1  0.56072300  0.90716900  0.89366900  1
  O  O17  1  0.06072300  0.59283100  0.10633100  1
  O  O18  1  0.43927700  0.09283100  0.10633100  1
  O  O19  1  0.93927700  0.40716900  0.89366900  1
  O  O20  1  0.89005000  0.87797200  0.26027000  1
  O  O21  1  0.39005000  0.62202800  0.73973000  1
  O  O22  1  0.10995000  0.12202800  0.73973000  1
  O  O23  1  0.60995000  0.37797200  0.26027000  1
  O  O24  1  0.25496700  0.71122300  0.77159100  1
  O  O25  1  0.75496700  0.78877700  0.22840900  1
  O  O26  1  0.74503300  0.28877700  0.22840900  1
  O  O27  1  0.24503300  0.21122300  0.77159100  1
