# generated using pymatgen
data_Rb2Pd
_symmetry_space_group_name_H-M   'P 1'
_cell_length_a   5.75192667
_cell_length_b   5.75192667
_cell_length_c   5.86598502
_cell_angle_alpha   61.39783404
_cell_angle_beta   61.39783404
_cell_angle_gamma   60.46441818
_symmetry_Int_Tables_number   1
_chemical_formula_structural   Rb2Pd
_chemical_formula_sum   'Rb2 Pd1'
_cell_volume   140.56431782
_cell_formula_units_Z   1
loop_
 _symmetry_equiv_pos_site_id
 _symmetry_equiv_pos_as_xyz
  1  'x, y, z'
loop_
 _atom_site_type_symbol
 _atom_site_label
 _atom_site_symmetry_multiplicity
 _atom_site_fract_x
 _atom_site_fract_y
 _atom_site_fract_z
 _atom_site_occupancy
  Rb  Rb0  1  0.24942400  0.24942400  0.25540500  1
  Rb  Rb1  1  0.75057600  0.75057600  0.74459500  1
  Pd  Pd2  1  0.00000000  0.00000000  0.00000000  1
