data_image0
_chemical_formula_structural       CDy2Fe2Si2
_chemical_formula_sum              "C1 Dy2 Fe2 Si2"
_cell_length_a       3.92266
_cell_length_b       5.63658
_cell_length_c       5.63805
_cell_angle_alpha    73.4953
_cell_angle_beta     110.357
_cell_angle_gamma    110.363

_space_group_name_H-M_alt    "P 1"
_space_group_IT_number       1

loop_
  _space_group_symop_operation_xyz
  'x, y, z'

loop_
  _atom_site_type_symbol
  _atom_site_label
  _atom_site_symmetry_multiplicity
  _atom_site_fract_x
  _atom_site_fract_y
  _atom_site_fract_z
  _atom_site_occupancy
  C   C1        1.0  0.50000  0.50000  0.50000  1.0000
  Dy  Dy1       1.0  0.94000  0.67400  0.20600  1.0000
  Dy  Dy2       1.0  0.05970  0.32600  0.79400  1.0000
  Fe  Fe1       1.0  0.29900  0.19300  0.40500  1.0000
  Fe  Fe2       1.0  0.70100  0.80700  0.59500  1.0000
  Si  Si1       1.0  0.66200  0.10600  0.21700  1.0000
  Si  Si2       1.0  0.33800  0.89400  0.78300  1.0000
