# generated using pymatgen
data_Co3Se4
_symmetry_space_group_name_H-M   'P 1'
_cell_length_a   6.16955055
_cell_length_b   6.16955055
_cell_length_c   6.16478041
_cell_angle_alpha   61.95935219
_cell_angle_beta   61.95935219
_cell_angle_gamma   33.67741562
_symmetry_Int_Tables_number   1
_chemical_formula_structural   Co3Se4
_chemical_formula_sum   'Co3 Se4'
_cell_volume   113.34249887
_cell_formula_units_Z   1
loop_
 _symmetry_equiv_pos_site_id
 _symmetry_equiv_pos_as_xyz
  1  'x, y, z'
loop_
 _atom_site_type_symbol
 _atom_site_label
 _atom_site_symmetry_multiplicity
 _atom_site_fract_x
 _atom_site_fract_y
 _atom_site_fract_z
 _atom_site_occupancy
  Co  Co0  1  0.23877700  0.23877700  0.78065900  1
  Co  Co1  1  0.76122300  0.76122300  0.21934100  1
  Co  Co2  1  0.50000000  0.50000000  0.50000000  1
  Se  Se3  1  0.86617600  0.86617600  0.47559400  1
  Se  Se4  1  0.13382400  0.13382400  0.52440600  1
  Se  Se5  1  0.37764200  0.37764200  0.95551300  1
  Se  Se6  1  0.62235800  0.62235800  0.04448700  1
