# generated using pymatgen
data_Rb3Bi2S2(ClO2)5
_symmetry_space_group_name_H-M   'P 1'
_cell_length_a   21.71630700
_cell_length_b   6.33974900
_cell_length_c   7.55060846
_cell_angle_alpha   83.30060401
_cell_angle_beta   90.00000000
_cell_angle_gamma   90.00000000
_symmetry_Int_Tables_number   1
_chemical_formula_structural   Rb3Bi2S2(ClO2)5
_chemical_formula_sum   'Rb6 Bi4 S4 Cl10 O20'
_cell_volume   1032.43900012
_cell_formula_units_Z   2
loop_
 _symmetry_equiv_pos_site_id
 _symmetry_equiv_pos_as_xyz
  1  'x, y, z'
loop_
 _atom_site_type_symbol
 _atom_site_label
 _atom_site_symmetry_multiplicity
 _atom_site_fract_x
 _atom_site_fract_y
 _atom_site_fract_z
 _atom_site_occupancy
  Rb  Rb0  1  0.62600500  0.00582600  0.60789600  1
  Rb  Rb1  1  0.12600500  0.99417400  0.39210400  1
  Rb  Rb2  1  0.81699600  0.87533400  0.33042300  1
  Rb  Rb3  1  0.31699600  0.12466600  0.66957700  1
  Rb  Rb4  1  0.96592000  0.74553100  0.82253300  1
  Rb  Rb5  1  0.46592000  0.25446900  0.17746700  1
  Bi  Bi6  1  0.80056400  0.31532600  0.79211500  1
  Bi  Bi7  1  0.30056400  0.68467400  0.20788500  1
  Bi  Bi8  1  0.64383200  0.57363200  0.13884800  1
  Bi  Bi9  1  0.14383200  0.42636800  0.86115200  1
  S  S10  1  0.78757700  0.81073600  0.81337200  1
  S  S11  1  0.28757700  0.18926400  0.18662800  1
  S  S12  1  0.65729700  0.07698800  0.12590800  1
  S  S13  1  0.15729700  0.92301200  0.87409200  1
  Cl  Cl14  1  0.89099600  0.24373400  0.58749400  1
  Cl  Cl15  1  0.39099600  0.75626600  0.41250600  1
  Cl  Cl16  1  0.87489000  0.36703100  0.05948600  1
  Cl  Cl17  1  0.37489000  0.63296900  0.94051400  1
  Cl  Cl18  1  0.72283400  0.44355800  0.47431900  1
  Cl  Cl19  1  0.22283400  0.55644200  0.52568100  1
  Cl  Cl20  1  0.55326500  0.63342300  0.34713500  1
  Cl  Cl21  1  0.05326500  0.36657700  0.65286500  1
  Cl  Cl22  1  0.57011400  0.52761000  0.87416800  1
  Cl  Cl23  1  0.07011400  0.47239000  0.12583200  1
  O  O24  1  0.82331200  0.93614200  0.93466200  1
  O  O25  1  0.32331200  0.06385800  0.06533800  1
  O  O26  1  0.75416500  0.96512400  0.68419500  1
  O  O27  1  0.25416500  0.03487600  0.31580500  1
  O  O28  1  0.83195900  0.68294900  0.71287400  1
  O  O29  1  0.33195900  0.31705100  0.28712600  1
  O  O30  1  0.74537700  0.65576800  0.91424000  1
  O  O31  1  0.24537700  0.34423200  0.08576000  1
  O  O32  1  0.69987900  0.23245300  0.02650300  1
  O  O33  1  0.19987900  0.76754700  0.97349700  1
  O  O34  1  0.61156700  0.20520200  0.22082100  1
  O  O35  1  0.11156700  0.79479800  0.77917900  1
  O  O36  1  0.62394100  0.94744400  0.00245800  1
  O  O37  1  0.12394100  0.05255600  0.99754200  1
  O  O38  1  0.68990200  0.92531900  0.25918100  1
  O  O39  1  0.18990200  0.07468100  0.74081900  1
  O  O40  1  0.97217400  0.87766700  0.31464700  1
  O  O41  1  0.47217400  0.12233300  0.68535300  1
  O  O42  1  0.97483100  0.99733600  0.17302900  1
  O  O43  1  0.47483100  0.00266400  0.82697100  1
