# generated using pymatgen
data_Pb3Cl4O2F
_symmetry_space_group_name_H-M   'P 1'
_cell_length_a   8.01548900
_cell_length_b   7.27783300
_cell_length_c   17.14278411
_cell_angle_alpha   73.84675903
_cell_angle_beta   90.00000000
_cell_angle_gamma   90.00000000
_symmetry_Int_Tables_number   1
_chemical_formula_structural   Pb3Cl4O2F
_chemical_formula_sum   'Pb12 Cl16 O8 F4'
_cell_volume   960.55082927
_cell_formula_units_Z   4
loop_
 _symmetry_equiv_pos_site_id
 _symmetry_equiv_pos_as_xyz
  1  'x, y, z'
loop_
 _atom_site_type_symbol
 _atom_site_label
 _atom_site_symmetry_multiplicity
 _atom_site_fract_x
 _atom_site_fract_y
 _atom_site_fract_z
 _atom_site_occupancy
  Pb  Pb0  1  0.37672500  0.65730500  0.68400500  1
  Pb  Pb1  1  0.87672500  0.34269500  0.81599500  1
  Pb  Pb2  1  0.62327500  0.34269500  0.31599500  1
  Pb  Pb3  1  0.12327500  0.65730500  0.18400500  1
  Pb  Pb4  1  0.37848100  0.73621200  0.94598100  1
  Pb  Pb5  1  0.87848100  0.26378800  0.55401900  1
  Pb  Pb6  1  0.62151900  0.26378800  0.05401900  1
  Pb  Pb7  1  0.12151900  0.73621200  0.44598100  1
  Pb  Pb8  1  0.85837700  0.74407200  0.95517800  1
  Pb  Pb9  1  0.35837700  0.25592800  0.54482200  1
  Pb  Pb10  1  0.14162300  0.25592800  0.04482200  1
  Pb  Pb11  1  0.64162300  0.74407200  0.45517800  1
  Cl  Cl12  1  0.13351000  0.90872800  0.59225700  1
  Cl  Cl13  1  0.63351000  0.09127200  0.90774300  1
  Cl  Cl14  1  0.86649000  0.09127200  0.40774300  1
  Cl  Cl15  1  0.36649000  0.90872800  0.09225700  1
  Cl  Cl16  1  0.13655300  0.32846900  0.68561200  1
  Cl  Cl17  1  0.63655300  0.67153100  0.81438800  1
  Cl  Cl18  1  0.86344700  0.67153100  0.31438800  1
  Cl  Cl19  1  0.36344700  0.32846900  0.18561200  1
  Cl  Cl20  1  0.62335300  0.90396500  0.59542600  1
  Cl  Cl21  1  0.12335300  0.09603500  0.90457400  1
  Cl  Cl22  1  0.37664700  0.09603500  0.40457400  1
  Cl  Cl23  1  0.87664700  0.90396500  0.09542600  1
  Cl  Cl24  1  0.62228300  0.34134100  0.67895900  1
  Cl  Cl25  1  0.12228300  0.65865900  0.82104100  1
  Cl  Cl26  1  0.37771700  0.65865900  0.32104100  1
  Cl  Cl27  1  0.87771700  0.34134100  0.17895900  1
  O  O28  1  0.39068500  0.40762200  0.98150600  1
  O  O29  1  0.89068500  0.59237800  0.51849400  1
  O  O30  1  0.60931500  0.59237800  0.01849400  1
  O  O31  1  0.10931500  0.40762200  0.48150600  1
  O  O32  1  0.87766900  0.14146100  0.71659800  1
  O  O33  1  0.37766900  0.85853900  0.78340200  1
  O  O34  1  0.12233100  0.85853900  0.28340200  1
  O  O35  1  0.62233100  0.14146100  0.21659800  1
  F  F36  1  0.88177300  0.38795400  0.96702000  1
  F  F37  1  0.38177300  0.61204600  0.53298000  1
  F  F38  1  0.11822700  0.61204600  0.03298000  1
  F  F39  1  0.61822700  0.38795400  0.46702000  1
