# generated using pymatgen
data_PtC4I4N
_symmetry_space_group_name_H-M   'P 1'
_cell_length_a   12.67860656
_cell_length_b   12.67860656
_cell_length_c   12.67860656
_cell_angle_alpha   123.65230911
_cell_angle_beta   104.35875153
_cell_angle_gamma   101.41159611
_symmetry_Int_Tables_number   1
_chemical_formula_structural   PtC4I4N
_chemical_formula_sum   'Pt4 C16 I16 N4'
_cell_volume   1494.72201203
_cell_formula_units_Z   4
loop_
 _symmetry_equiv_pos_site_id
 _symmetry_equiv_pos_as_xyz
  1  'x, y, z'
loop_
 _atom_site_type_symbol
 _atom_site_label
 _atom_site_symmetry_multiplicity
 _atom_site_fract_x
 _atom_site_fract_y
 _atom_site_fract_z
 _atom_site_occupancy
  Pt  Pt0  1  0.19608600  0.59554700  0.29163300  1
  Pt  Pt1  1  0.69608600  0.40445300  0.60053900  1
  Pt  Pt2  1  0.79844300  0.09958400  0.39802700  1
  Pt  Pt3  1  0.29844300  0.90041600  0.69885900  1
  C  C4  1  0.53364200  0.29107900  0.12730400  1
  C  C5  1  0.83622500  0.70892100  0.24256300  1
  C  C6  1  0.33622500  0.09366200  0.12730400  1
  C  C7  1  0.03364200  0.90633800  0.24256300  1
  C  C8  1  0.74744500  0.61167300  0.21746300  1
  C  C9  1  0.60579000  0.38832700  0.13577200  1
  C  C10  1  0.10579000  0.97001800  0.21746300  1
  C  C11  1  0.24744500  0.02998200  0.13577200  1
  C  C12  1  0.38432900  0.61988900  0.84996100  1
  C  C13  1  0.23007100  0.38011100  0.76444000  1
  C  C14  1  0.73007100  0.96563200  0.84996100  1
  C  C15  1  0.88432900  0.03436800  0.76444000  1
  C  C16  1  0.25603600  0.57317800  0.77382500  1
  C  C17  1  0.20064700  0.42682200  0.68285800  1
  C  C18  1  0.70064700  0.01778900  0.77382500  1
  C  C19  1  0.75603600  0.98221100  0.68285800  1
  I  I20  1  0.64381400  0.18828200  0.33209600  1
  I  I21  1  0.14381400  0.81171800  0.45553200  1
  I  I22  1  0.35386000  0.69365200  0.54751100  1
  I  I23  1  0.85386000  0.30634800  0.66020800  1
  I  I24  1  0.03546500  0.51845900  0.05392400  1
  I  I25  1  0.53546500  0.48154100  0.51700600  1
  I  I26  1  0.76360800  0.60862400  0.87223200  1
  I  I27  1  0.26360800  0.39137600  0.15498400  1
  I  I28  1  0.36125800  0.75633200  0.28533800  1
  I  I29  1  0.52900600  0.24366800  0.60492500  1
  I  I30  1  0.02900600  0.42408100  0.28533800  1
  I  I31  1  0.86125800  0.57591900  0.60492500  1
  I  I32  1  0.23307900  0.09859900  0.83167800  1
  I  I33  1  0.73307900  0.90140100  0.13448000  1
  I  I34  1  0.94919500  0.01152100  0.46071600  1
  I  I35  1  0.44919500  0.98847900  0.93767500  1
  N  N36  1  0.67568300  0.50000000  0.17568300  1
  N  N37  1  0.17568300  0.00000000  0.17568300  1
  N  N38  1  0.32851700  0.50000000  0.82851700  1
  N  N39  1  0.82851700  0.00000000  0.82851700  1
