# generated using pymatgen
data_K2FeOF5
_symmetry_space_group_name_H-M   'P 1'
_cell_length_a   6.23542385
_cell_length_b   6.23542385
_cell_length_c   8.14509064
_cell_angle_alpha   84.25914193
_cell_angle_beta   84.25914193
_cell_angle_gamma   79.57755783
_symmetry_Int_Tables_number   1
_chemical_formula_structural   K2FeOF5
_chemical_formula_sum   'K4 Fe2 O2 F10'
_cell_volume   308.80989969
_cell_formula_units_Z   2
loop_
 _symmetry_equiv_pos_site_id
 _symmetry_equiv_pos_as_xyz
  1  'x, y, z'
loop_
 _atom_site_type_symbol
 _atom_site_label
 _atom_site_symmetry_multiplicity
 _atom_site_fract_x
 _atom_site_fract_y
 _atom_site_fract_z
 _atom_site_occupancy
  K  K0  1  0.30103700  0.29261200  0.03537800  1
  K  K1  1  0.70738800  0.69896300  0.46462200  1
  K  K2  1  0.69896300  0.70738800  0.96462200  1
  K  K3  1  0.29261200  0.30103700  0.53537800  1
  Fe  Fe4  1  0.81292400  0.18707600  0.25000000  1
  Fe  Fe5  1  0.18707600  0.81292400  0.75000000  1
  O  O6  1  0.01925800  0.98074200  0.25000000  1
  O  O7  1  0.98074200  0.01925800  0.75000000  1
  F  F8  1  0.86759900  0.27856000  0.03078700  1
  F  F9  1  0.72144000  0.13240100  0.46921300  1
  F  F10  1  0.13240100  0.72144000  0.96921300  1
  F  F11  1  0.27856000  0.86759900  0.53078700  1
  F  F12  1  0.98227300  0.38019300  0.30600200  1
  F  F13  1  0.61980700  0.01772700  0.19399800  1
  F  F14  1  0.01772700  0.61980700  0.69399800  1
  F  F15  1  0.38019300  0.98227300  0.80600200  1
  F  F16  1  0.56553800  0.43446200  0.25000000  1
  F  F17  1  0.43446200  0.56553800  0.75000000  1
