# generated using pymatgen
data_RbNaB4H4O13
_symmetry_space_group_name_H-M   'P 1'
_cell_length_a   11.19499600
_cell_length_b   7.28003800
_cell_length_c   14.42230301
_cell_angle_alpha   86.94749489
_cell_angle_beta   90.00000000
_cell_angle_gamma   90.00000000
_symmetry_Int_Tables_number   1
_chemical_formula_structural   RbNaB4H4O13
_chemical_formula_sum   'Rb4 Na4 B16 H16 O52'
_cell_volume   1173.74990657
_cell_formula_units_Z   4
loop_
 _symmetry_equiv_pos_site_id
 _symmetry_equiv_pos_as_xyz
  1  'x, y, z'
loop_
 _atom_site_type_symbol
 _atom_site_label
 _atom_site_symmetry_multiplicity
 _atom_site_fract_x
 _atom_site_fract_y
 _atom_site_fract_z
 _atom_site_occupancy
  Rb  Rb0  1  0.58633200  0.96607200  0.61742100  1
  Rb  Rb1  1  0.08633200  0.03392800  0.88257900  1
  Rb  Rb2  1  0.41366800  0.03392800  0.38257900  1
  Rb  Rb3  1  0.91366800  0.96607200  0.11742100  1
  Na  Na4  1  0.60150300  0.02374300  0.84348600  1
  Na  Na5  1  0.10150300  0.97625700  0.65651400  1
  Na  Na6  1  0.39849700  0.97625700  0.15651400  1
  Na  Na7  1  0.89849700  0.02374300  0.34348600  1
  B  B8  1  0.59694500  0.36435500  0.41037800  1
  B  B9  1  0.09694500  0.63564500  0.08962200  1
  B  B10  1  0.40305500  0.63564500  0.58962200  1
  B  B11  1  0.90305500  0.36435500  0.91037800  1
  B  B12  1  0.81587900  0.62926100  0.29378400  1
  B  B13  1  0.31587900  0.37073900  0.20621600  1
  B  B14  1  0.18412100  0.37073900  0.70621600  1
  B  B15  1  0.68412100  0.62926100  0.79378400  1
  B  B16  1  0.59773900  0.63521400  0.29051500  1
  B  B17  1  0.09773900  0.36478600  0.20948500  1
  B  B18  1  0.40226100  0.36478600  0.70948500  1
  B  B19  1  0.90226100  0.63521400  0.79051500  1
  B  B20  1  0.69967300  0.34672600  0.25879400  1
  B  B21  1  0.19967300  0.65327400  0.24120600  1
  B  B22  1  0.30032700  0.65327400  0.74120600  1
  B  B23  1  0.80032700  0.34672600  0.75879400  1
  H  H24  1  0.56742800  0.31896200  0.74939600  1
  H  H25  1  0.06742800  0.68103800  0.75060400  1
  H  H26  1  0.43257200  0.68103800  0.25060400  1
  H  H27  1  0.93257200  0.31896200  0.24939600  1
  H  H28  1  0.51193600  0.35446800  0.53647800  1
  H  H29  1  0.01193600  0.64553200  0.96352200  1
  H  H30  1  0.48806400  0.64553200  0.46352200  1
  H  H31  1  0.98806400  0.35446800  0.03647800  1
  H  H32  1  0.77096100  0.27009600  0.63207700  1
  H  H33  1  0.27096100  0.72990400  0.86792300  1
  H  H34  1  0.22903900  0.72990400  0.36792300  1
  H  H35  1  0.72903900  0.27009600  0.13207700  1
  H  H36  1  0.99563800  0.63795500  0.29535100  1
  H  H37  1  0.49563800  0.36204500  0.20464900  1
  H  H38  1  0.00436200  0.36204500  0.70464900  1
  H  H39  1  0.50436200  0.63795500  0.79535100  1
  O  O40  1  0.61019900  0.48239600  0.22703500  1
  O  O41  1  0.11019900  0.51760400  0.27296500  1
  O  O42  1  0.38980100  0.51760400  0.77296500  1
  O  O43  1  0.88980100  0.48239600  0.72703500  1
  O  O44  1  0.81462600  0.44389300  0.27958900  1
  O  O45  1  0.31462600  0.55610700  0.22041100  1
  O  O46  1  0.18537400  0.55610700  0.72041100  1
  O  O47  1  0.68537400  0.44389300  0.77958900  1
  O  O48  1  0.65449500  0.25545300  0.34834300  1
  O  O49  1  0.15449500  0.74454700  0.15165700  1
  O  O50  1  0.34550500  0.74454700  0.65165700  1
  O  O51  1  0.84550500  0.25545300  0.84834300  1
  O  O52  1  0.56923500  0.54500000  0.38784500  1
  O  O53  1  0.06923500  0.45500000  0.11215500  1
  O  O54  1  0.43076500  0.45500000  0.61215500  1
  O  O55  1  0.93076500  0.54500000  0.88784500  1
  O  O56  1  0.71327200  0.73289100  0.29622200  1
  O  O57  1  0.21327200  0.26710900  0.20377800  1
  O  O58  1  0.28672800  0.26710900  0.70377800  1
  O  O59  1  0.78672800  0.73289100  0.79622200  1
  O  O60  1  0.50305500  0.76101600  0.26170200  1
  O  O61  1  0.00305500  0.23898400  0.23829800  1
  O  O62  1  0.49694500  0.23898400  0.73829800  1
  O  O63  1  0.99694500  0.76101600  0.76170200  1
  O  O64  1  0.56180000  0.27915900  0.49397100  1
  O  O65  1  0.06180000  0.72084100  0.00602900  1
  O  O66  1  0.43820000  0.72084100  0.50602900  1
  O  O67  1  0.93820000  0.27915900  0.99397100  1
  O  O68  1  0.72110600  0.20605600  0.19274900  1
  O  O69  1  0.22110600  0.79394400  0.30725100  1
  O  O70  1  0.27889400  0.79394400  0.80725100  1
  O  O71  1  0.77889400  0.20605600  0.69274900  1
  O  O72  1  0.92320100  0.72140400  0.30270800  1
  O  O73  1  0.42320100  0.27859600  0.19729200  1
  O  O74  1  0.07679900  0.27859600  0.69729200  1
  O  O75  1  0.57679900  0.72140400  0.80270800  1
  O  O76  1  0.71299200  0.98042900  0.41971800  1
  O  O77  1  0.21299200  0.01957100  0.08028200  1
  O  O78  1  0.28700800  0.01957100  0.58028200  1
  O  O79  1  0.78700800  0.98042900  0.91971800  1
  O  O80  1  0.54796700  0.45943000  0.00329200  1
  O  O81  1  0.04796700  0.54057000  0.49670800  1
  O  O82  1  0.45203300  0.54057000  0.99670800  1
  O  O83  1  0.95203300  0.45943000  0.50329200  1
  O  O84  1  0.65197700  0.73678900  0.06074600  1
  O  O85  1  0.15197700  0.26321100  0.43925400  1
  O  O86  1  0.34802300  0.26321100  0.93925400  1
  O  O87  1  0.84802300  0.73678900  0.56074600  1
  O  O88  1  0.56316500  0.83474700  0.04719200  1
  O  O89  1  0.06316500  0.16525300  0.45280800  1
  O  O90  1  0.43683500  0.16525300  0.95280800  1
  O  O91  1  0.93683500  0.83474700  0.54719200  1
