# generated using pymatgen
data_PtBr3N2
_symmetry_space_group_name_H-M   'P 1'
_cell_length_a   9.81559763
_cell_length_b   9.13628541
_cell_length_c   10.39186268
_cell_angle_alpha   80.59246681
_cell_angle_beta   54.87692316
_cell_angle_gamma   67.77205296
_symmetry_Int_Tables_number   1
_chemical_formula_structural   PtBr3N2
_chemical_formula_sum   'Pt4 Br12 N8'
_cell_volume   703.78207192
_cell_formula_units_Z   4
loop_
 _symmetry_equiv_pos_site_id
 _symmetry_equiv_pos_as_xyz
  1  'x, y, z'
loop_
 _atom_site_type_symbol
 _atom_site_label
 _atom_site_symmetry_multiplicity
 _atom_site_fract_x
 _atom_site_fract_y
 _atom_site_fract_z
 _atom_site_occupancy
  Pt  Pt0  1  0.73136000  0.69817000  0.79769400  1
  Pt  Pt1  1  0.47526300  0.45270400  0.55575900  1
  Pt  Pt2  1  0.23893300  0.24917000  0.25401800  1
  Pt  Pt3  1  0.01478900  0.99716000  0.99839000  1
  Br  Br4  1  0.40999100  0.11308500  0.37900900  1
  Br  Br5  1  0.08314800  0.39068300  0.12445800  1
  Br  Br6  1  0.86950900  0.12165400  0.85272400  1
  Br  Br7  1  0.13938400  0.86845900  0.15772300  1
  Br  Br8  1  0.67794600  0.95603900  0.53911600  1
  Br  Br9  1  0.92861500  0.64886200  0.87990900  1
  Br  Br10  1  0.69533500  0.37623400  0.61522400  1
  Br  Br11  1  0.42926900  0.71234300  0.29422500  1
  Br  Br12  1  0.45888500  0.05095600  0.02283900  1
  Br  Br13  1  0.06756400  0.48098800  0.45472800  1
  Br  Br14  1  0.79359700  0.22269900  0.20642300  1
  Br  Br15  1  0.26023000  0.78408200  0.77810600  1
  N  N16  1  0.41246600  0.36652000  0.13770900  1
  N  N17  1  0.86679200  0.86377700  0.08898700  1
  N  N18  1  0.08665900  0.13943000  0.38390900  1
  N  N19  1  0.14992200  0.12569500  0.86440600  1
  N  N20  1  0.59877000  0.58606200  0.89495300  1
  N  N21  1  0.51301900  0.59867700  0.40514500  1
  N  N22  1  0.76469200  0.84626700  0.64916800  1
  N  N23  1  0.33386400  0.35028500  0.66538100  1
