# generated using pymatgen
data_Zn2Co4P4O23
_symmetry_space_group_name_H-M   'P 1'
_cell_length_a   12.70582800
_cell_length_b   7.95681200
_cell_length_c   17.63842873
_cell_angle_alpha   77.72494473
_cell_angle_beta   90.00000000
_cell_angle_gamma   90.00000000
_symmetry_Int_Tables_number   1
_chemical_formula_structural   Zn2Co4P4O23
_chemical_formula_sum   'Zn8 Co16 P16 O92'
_cell_volume   1742.44054372
_cell_formula_units_Z   4
loop_
 _symmetry_equiv_pos_site_id
 _symmetry_equiv_pos_as_xyz
  1  'x, y, z'
loop_
 _atom_site_type_symbol
 _atom_site_label
 _atom_site_symmetry_multiplicity
 _atom_site_fract_x
 _atom_site_fract_y
 _atom_site_fract_z
 _atom_site_occupancy
  Zn  Zn0  1  0.28241000  0.76955100  0.54438200  1
  Zn  Zn1  1  0.21759000  0.76955100  0.04438200  1
  Zn  Zn2  1  0.71759000  0.23044900  0.45561800  1
  Zn  Zn3  1  0.78241000  0.23044900  0.95561800  1
  Zn  Zn4  1  0.47866500  0.74913600  0.44752000  1
  Zn  Zn5  1  0.02133500  0.74913600  0.94752000  1
  Zn  Zn6  1  0.52133500  0.25086400  0.55248000  1
  Zn  Zn7  1  0.97866500  0.25086400  0.05248000  1
  Co  Co8  1  0.45089400  0.18797900  0.25987600  1
  Co  Co9  1  0.04910600  0.18797900  0.75987600  1
  Co  Co10  1  0.54910600  0.81202100  0.74012400  1
  Co  Co11  1  0.95089400  0.81202100  0.24012400  1
  Co  Co12  1  0.04202200  0.81122300  0.75368400  1
  Co  Co13  1  0.45797800  0.81122300  0.25368400  1
  Co  Co14  1  0.95797800  0.18877700  0.24631600  1
  Co  Co15  1  0.54202200  0.18877700  0.74631600  1
  Co  Co16  1  0.21945000  0.30658100  0.24653200  1
  Co  Co17  1  0.28055000  0.30658100  0.74653200  1
  Co  Co18  1  0.78055000  0.69341900  0.75346800  1
  Co  Co19  1  0.71945000  0.69341900  0.25346800  1
  Co  Co20  1  0.28722400  0.68538800  0.74917100  1
  Co  Co21  1  0.21277600  0.68538800  0.24917100  1
  Co  Co22  1  0.71277600  0.31461200  0.25082900  1
  Co  Co23  1  0.78722400  0.31461200  0.75082900  1
  P  P24  1  0.27163600  0.94015400  0.36184700  1
  P  P25  1  0.22836400  0.94015400  0.86184700  1
  P  P26  1  0.72836400  0.05984600  0.63815300  1
  P  P27  1  0.77163600  0.05984600  0.13815300  1
  P  P28  1  0.45897400  0.55527800  0.63425100  1
  P  P29  1  0.04102600  0.55527800  0.13425100  1
  P  P30  1  0.54102600  0.44472200  0.36574900  1
  P  P31  1  0.95897400  0.44472200  0.86574900  1
  P  P32  1  0.36358100  0.05483500  0.63425500  1
  P  P33  1  0.13641900  0.05483500  0.13425500  1
  P  P34  1  0.63641900  0.94516500  0.36574500  1
  P  P35  1  0.86358100  0.94516500  0.86574500  1
  P  P36  1  0.10482500  0.55371800  0.64384400  1
  P  P37  1  0.39517500  0.55371800  0.14384400  1
  P  P38  1  0.89517500  0.44628200  0.35615600  1
  P  P39  1  0.60482500  0.44628200  0.85615600  1
  O  O40  1  0.31522600  0.12031700  0.31740200  1
  O  O41  1  0.18477400  0.12031700  0.81740200  1
  O  O42  1  0.68477400  0.87968300  0.68259800  1
  O  O43  1  0.81522600  0.87968300  0.18259800  1
  O  O44  1  0.19827800  0.81398700  0.80669100  1
  O  O45  1  0.30172200  0.81398700  0.30669100  1
  O  O46  1  0.80172200  0.18601300  0.19330900  1
  O  O47  1  0.69827800  0.18601300  0.69330900  1
  O  O48  1  0.33764000  0.87367200  0.43861200  1
  O  O49  1  0.16236000  0.87367200  0.93861200  1
  O  O50  1  0.66236000  0.12632800  0.56138800  1
  O  O51  1  0.83764000  0.12632800  0.06138800  1
  O  O52  1  0.15670000  0.94862000  0.37843500  1
  O  O53  1  0.34330000  0.94862000  0.87843500  1
  O  O54  1  0.84330000  0.05138000  0.62156500  1
  O  O55  1  0.65670000  0.05138000  0.12156500  1
  O  O56  1  0.35318300  0.53013600  0.67930400  1
  O  O57  1  0.14681700  0.53013600  0.17930400  1
  O  O58  1  0.64681700  0.46986400  0.32069600  1
  O  O59  1  0.85318300  0.46986400  0.82069600  1
  O  O60  1  0.42577300  0.62542000  0.54830100  1
  O  O61  1  0.07422700  0.62542000  0.04830100  1
  O  O62  1  0.57422700  0.37458000  0.45169900  1
  O  O63  1  0.92577300  0.37458000  0.95169900  1
  O  O64  1  0.53269800  0.68179900  0.66212200  1
  O  O65  1  0.96730200  0.68179900  0.16212200  1
  O  O66  1  0.46730200  0.31820100  0.33787800  1
  O  O67  1  0.03269800  0.31820100  0.83787800  1
  O  O68  1  0.48421900  0.62059000  0.35994000  1
  O  O69  1  0.01578100  0.62059000  0.85994000  1
  O  O70  1  0.51578100  0.37941000  0.64006000  1
  O  O71  1  0.98421900  0.37941000  0.14006000  1
  O  O72  1  0.47433700  0.03352400  0.67521200  1
  O  O73  1  0.02566300  0.03352400  0.17521200  1
  O  O74  1  0.52566300  0.96647600  0.32478800  1
  O  O75  1  0.97433700  0.96647600  0.82478800  1
  O  O76  1  0.31016100  0.87594200  0.63876800  1
  O  O77  1  0.18983900  0.87594200  0.13876800  1
  O  O78  1  0.68983900  0.12405800  0.36123200  1
  O  O79  1  0.81016100  0.12405800  0.86123200  1
  O  O80  1  0.29034400  0.16488500  0.67376500  1
  O  O81  1  0.20965600  0.16488500  0.17376500  1
  O  O82  1  0.70965600  0.83511500  0.32623500  1
  O  O83  1  0.79034400  0.83511500  0.82623500  1
  O  O84  1  0.61402000  0.86090200  0.45083300  1
  O  O85  1  0.88598000  0.86090200  0.95083300  1
  O  O86  1  0.38598000  0.13909800  0.54916700  1
  O  O87  1  0.11402000  0.13909800  0.04916700  1
  O  O88  1  0.16926800  0.61129200  0.56983700  1
  O  O89  1  0.33073200  0.61129200  0.06983700  1
  O  O90  1  0.83073200  0.38870800  0.43016300  1
  O  O91  1  0.66926800  0.38870800  0.93016300  1
  O  O92  1  0.14311000  0.37288900  0.69312800  1
  O  O93  1  0.35689000  0.37288900  0.19312800  1
  O  O94  1  0.85689000  0.62711100  0.30687200  1
  O  O95  1  0.64311000  0.62711100  0.80687200  1
  O  O96  1  0.98724300  0.54356100  0.63106000  1
  O  O97  1  0.51275700  0.54356100  0.13106000  1
  O  O98  1  0.01275700  0.45643900  0.36894000  1
  O  O99  1  0.48724300  0.45643900  0.86894000  1
  O  O100  1  0.13183500  0.68170000  0.69974300  1
  O  O101  1  0.36816500  0.68170000  0.19974300  1
  O  O102  1  0.86816500  0.31830000  0.30025700  1
  O  O103  1  0.63183500  0.31830000  0.80025700  1
  O  O104  1  0.26166000  0.45188000  0.80676200  1
  O  O105  1  0.23834000  0.45188000  0.30676200  1
  O  O106  1  0.73834000  0.54812000  0.19323800  1
  O  O107  1  0.76166000  0.54812000  0.69323800  1
  O  O108  1  0.41937100  0.72971800  0.77918800  1
  O  O109  1  0.08062900  0.72971800  0.27918800  1
  O  O110  1  0.58062900  0.27028200  0.22081200  1
  O  O111  1  0.91937100  0.27028200  0.72081200  1
  O  O112  1  0.43063000  0.04455000  0.19879400  1
  O  O113  1  0.06937000  0.04455000  0.69879400  1
  O  O114  1  0.56937000  0.95545000  0.80120600  1
  O  O115  1  0.93063000  0.95545000  0.30120600  1
  O  O116  1  0.91382100  0.76660100  0.71908600  1
  O  O117  1  0.58617900  0.76660100  0.21908600  1
  O  O118  1  0.08617900  0.23339900  0.28091400  1
  O  O119  1  0.41382100  0.23339900  0.78091400  1
  O  O120  1  0.15094800  0.15749400  0.50131900  1
  O  O121  1  0.34905200  0.15749400  0.00131900  1
  O  O122  1  0.84905200  0.84250600  0.49868100  1
  O  O123  1  0.65094800  0.84250600  0.99868100  1
  O  O124  1  0.69880500  0.69720000  0.01441000  1
  O  O125  1  0.80119500  0.69720000  0.51441000  1
  O  O126  1  0.30119500  0.30280000  0.98559000  1
  O  O127  1  0.19880500  0.30280000  0.48559000  1
  O  O128  1  0.44073500  0.15072200  0.03242200  1
  O  O129  1  0.05926500  0.15072200  0.53242200  1
  O  O130  1  0.55926500  0.84927800  0.96757800  1
  O  O131  1  0.94073500  0.84927800  0.46757800  1
