# generated using pymatgen
data_PrO3
_symmetry_space_group_name_H-M   'P 1'
_cell_length_a   5.62995024
_cell_length_b   5.62995024
_cell_length_c   4.41088000
_cell_angle_alpha   90.00000000
_cell_angle_beta   90.00000000
_cell_angle_gamma   120.00000283
_symmetry_Int_Tables_number   1
_chemical_formula_structural   PrO3
_chemical_formula_sum   'Pr2 O6'
_cell_volume   121.07792651
_cell_formula_units_Z   2
loop_
 _symmetry_equiv_pos_site_id
 _symmetry_equiv_pos_as_xyz
  1  'x, y, z'
loop_
 _atom_site_type_symbol
 _atom_site_label
 _atom_site_symmetry_multiplicity
 _atom_site_fract_x
 _atom_site_fract_y
 _atom_site_fract_z
 _atom_site_occupancy
  Pr  Pr0  1  0.33333300  0.66666700  0.75000000  1
  Pr  Pr1  1  0.66666700  0.33333300  0.25000000  1
  O  O2  1  0.42015300  0.14437900  0.75000000  1
  O  O3  1  0.57984700  0.85562100  0.25000000  1
  O  O4  1  0.85562100  0.27577300  0.75000000  1
  O  O5  1  0.14437900  0.72422700  0.25000000  1
  O  O6  1  0.72422700  0.57984700  0.75000000  1
  O  O7  1  0.27577300  0.42015300  0.25000000  1
