# generated using pymatgen
data_Rh2O3
_symmetry_space_group_name_H-M   'P 1'
_cell_length_a   3.06249500
_cell_length_b   7.74436500
_cell_length_c   9.20670200
_cell_angle_alpha   90.00000000
_cell_angle_beta   90.00000000
_cell_angle_gamma   90.00000000
_symmetry_Int_Tables_number   1
_chemical_formula_structural   Rh2O3
_chemical_formula_sum   'Rh8 O12'
_cell_volume   218.35607950
_cell_formula_units_Z   4
loop_
 _symmetry_equiv_pos_site_id
 _symmetry_equiv_pos_as_xyz
  1  'x, y, z'
loop_
 _atom_site_type_symbol
 _atom_site_label
 _atom_site_symmetry_multiplicity
 _atom_site_fract_x
 _atom_site_fract_y
 _atom_site_fract_z
 _atom_site_occupancy
  Rh  Rh0  1  0.25000000  0.48421500  0.33900800  1
  Rh  Rh1  1  0.25000000  0.98421500  0.16099200  1
  Rh  Rh2  1  0.75000000  0.51578500  0.66099200  1
  Rh  Rh3  1  0.75000000  0.01578500  0.83900800  1
  Rh  Rh4  1  0.25000000  0.32536300  0.96649200  1
  Rh  Rh5  1  0.25000000  0.82536300  0.53350800  1
  Rh  Rh6  1  0.75000000  0.67463700  0.03350800  1
  Rh  Rh7  1  0.75000000  0.17463700  0.46649200  1
  O  O8  1  0.25000000  0.53556000  0.11859200  1
  O  O9  1  0.25000000  0.03556000  0.38140800  1
  O  O10  1  0.75000000  0.46444000  0.88140800  1
  O  O11  1  0.75000000  0.96444000  0.61859200  1
  O  O12  1  0.25000000  0.35814100  0.54182300  1
  O  O13  1  0.25000000  0.85814100  0.95817700  1
  O  O14  1  0.75000000  0.64185900  0.45817700  1
  O  O15  1  0.75000000  0.14185900  0.04182300  1
  O  O16  1  0.25000000  0.16992600  0.79423300  1
  O  O17  1  0.25000000  0.66992600  0.70576700  1
  O  O18  1  0.75000000  0.83007400  0.20576700  1
  O  O19  1  0.75000000  0.33007400  0.29423300  1
