# generated using pymatgen
data_Pr(NO5)3
_symmetry_space_group_name_H-M   'P 1'
_cell_length_a   6.96453900
_cell_length_b   8.45697087
_cell_length_c   12.63401077
_cell_angle_alpha   99.25941959
_cell_angle_beta   103.90144045
_cell_angle_gamma   106.80799376
_symmetry_Int_Tables_number   1
_chemical_formula_structural   Pr(NO5)3
_chemical_formula_sum   'Pr2 N6 O30'
_cell_volume   669.88790660
_cell_formula_units_Z   2
loop_
 _symmetry_equiv_pos_site_id
 _symmetry_equiv_pos_as_xyz
  1  'x, y, z'
loop_
 _atom_site_type_symbol
 _atom_site_label
 _atom_site_symmetry_multiplicity
 _atom_site_fract_x
 _atom_site_fract_y
 _atom_site_fract_z
 _atom_site_occupancy
  Pr  Pr0  1  0.23387500  0.38805900  0.23442500  1
  Pr  Pr1  1  0.76612500  0.61194100  0.76557500  1
  N  N2  1  0.61582100  0.68095700  0.32708100  1
  N  N3  1  0.38417900  0.31904300  0.67291900  1
  N  N4  1  0.27223000  0.10226500  0.33774000  1
  N  N5  1  0.72777000  0.89773500  0.66226000  1
  N  N6  1  0.26237200  0.34673700  0.00663200  1
  N  N7  1  0.73762800  0.65326300  0.99336800  1
  O  O8  1  0.60573600  0.53219100  0.34643400  1
  O  O9  1  0.39426400  0.46780900  0.65356600  1
  O  O10  1  0.43856500  0.68812900  0.26873300  1
  O  O11  1  0.56143500  0.31187100  0.73126700  1
  O  O12  1  0.77798500  0.80315600  0.36103900  1
  O  O13  1  0.22201500  0.19684400  0.63896100  1
  O  O14  1  0.25031100  0.09444900  0.23072500  1
  O  O15  1  0.74968900  0.90555100  0.76927500  1
  O  O16  1  0.26190000  0.24100300  0.39278000  1
  O  O17  1  0.73810000  0.75899700  0.60722000  1
  O  O18  1  0.30164200  0.98940800  0.38053400  1
  O  O19  1  0.69835800  0.01059200  0.61946600  1
  O  O20  1  0.39699000  0.32648300  0.09008100  1
  O  O21  1  0.60301000  0.67351700  0.90991900  1
  O  O22  1  0.10764400  0.38362000  0.03117100  1
  O  O23  1  0.89235600  0.61638000  0.96882900  1
  O  O24  1  0.28025400  0.33004700  0.91218200  1
  O  O25  1  0.71974600  0.66995300  0.08781800  1
  O  O26  1  0.74403200  0.13432900  0.24407000  1
  O  O27  1  0.25596800  0.86567100  0.75593000  1
  O  O28  1  0.16855000  0.58049900  0.43379900  1
  O  O29  1  0.83145000  0.41950100  0.56620100  1
  O  O30  1  0.93538400  0.02768300  0.01515000  1
  O  O31  1  0.06461600  0.97231700  0.98485000  1
  O  O32  1  0.83589700  0.26981400  0.20787500  1
  O  O33  1  0.16410300  0.73018600  0.79212500  1
  O  O34  1  0.56769500  0.03392900  0.18069300  1
  O  O35  1  0.43230500  0.96607100  0.81930700  1
  O  O36  1  0.17689900  0.71666700  0.49048500  1
  O  O37  1  0.82310100  0.28333300  0.50951500  1
