# generated using pymatgen
data_Rb
_symmetry_space_group_name_H-M   'P 1'
_cell_length_a   19.40089790
_cell_length_b   19.40089790
_cell_length_c   19.40089790
_cell_angle_alpha   95.84781282
_cell_angle_beta   95.84781282
_cell_angle_gamma   142.77130654
_symmetry_Int_Tables_number   1
_chemical_formula_structural   Rb
_chemical_formula_sum   Rb8
_cell_volume   4186.82685442
_cell_formula_units_Z   8
loop_
 _symmetry_equiv_pos_site_id
 _symmetry_equiv_pos_as_xyz
  1  'x, y, z'
loop_
 _atom_site_type_symbol
 _atom_site_label
 _atom_site_symmetry_multiplicity
 _atom_site_fract_x
 _atom_site_fract_y
 _atom_site_fract_z
 _atom_site_occupancy
  Rb  Rb0  1  0.21018300  0.08618700  0.29637000  1
  Rb  Rb1  1  0.08618700  0.78981700  0.87600500  1
  Rb  Rb2  1  0.21018300  0.91381300  0.12399500  1
  Rb  Rb3  1  0.78981700  0.91381300  0.70363000  1
  Rb  Rb4  1  0.78981700  0.08618700  0.87600500  1
  Rb  Rb5  1  0.08618700  0.21018300  0.29637000  1
  Rb  Rb6  1  0.91381300  0.21018300  0.12399500  1
  Rb  Rb7  1  0.91381300  0.78981700  0.70363000  1
