# generated using pymatgen
data_Pb7(ClO4)2
_symmetry_space_group_name_H-M   'P 1'
_cell_length_a   20.32740800
_cell_length_b   5.97350900
_cell_length_c   7.18773187
_cell_angle_alpha   66.74992191
_cell_angle_beta   90.00000000
_cell_angle_gamma   90.00000000
_symmetry_Int_Tables_number   1
_chemical_formula_structural   Pb7(ClO4)2
_chemical_formula_sum   'Pb14 Cl4 O16'
_cell_volume   801.89955435
_cell_formula_units_Z   2
loop_
 _symmetry_equiv_pos_site_id
 _symmetry_equiv_pos_as_xyz
  1  'x, y, z'
loop_
 _atom_site_type_symbol
 _atom_site_label
 _atom_site_symmetry_multiplicity
 _atom_site_fract_x
 _atom_site_fract_y
 _atom_site_fract_z
 _atom_site_occupancy
  Pb  Pb0  1  0.00261800  0.68867100  0.34647300  1
  Pb  Pb1  1  0.50261800  0.31132900  0.65352700  1
  Pb  Pb2  1  0.97179300  0.33156800  0.04656400  1
  Pb  Pb3  1  0.47179300  0.66843200  0.95343600  1
  Pb  Pb4  1  0.12746900  0.85610500  0.99726400  1
  Pb  Pb5  1  0.62746900  0.14389500  0.00273600  1
  Pb  Pb6  1  0.13353800  0.15713900  0.36917100  1
  Pb  Pb7  1  0.63353800  0.84286100  0.63082900  1
  Pb  Pb8  1  0.84882100  0.19711900  0.45768300  1
  Pb  Pb9  1  0.34882100  0.80288100  0.54231700  1
  Pb  Pb10  1  0.83983700  0.83168000  0.15509400  1
  Pb  Pb11  1  0.33983700  0.16832000  0.84490600  1
  Pb  Pb12  1  0.77157500  0.44056100  0.79727500  1
  Pb  Pb13  1  0.27157500  0.55943900  0.20272500  1
  Cl  Cl14  1  0.93449800  0.97568300  0.80523200  1
  Cl  Cl15  1  0.43449800  0.02431700  0.19476800  1
  Cl  Cl16  1  0.07026700  0.53720000  0.66880400  1
  Cl  Cl17  1  0.57026700  0.46280000  0.33119600  1
  O  O18  1  0.92794800  0.95584300  0.29882500  1
  O  O19  1  0.42794800  0.04415700  0.70117500  1
  O  O20  1  0.92689700  0.47149300  0.28693300  1
  O  O21  1  0.42689700  0.52850700  0.71306700  1
  O  O22  1  0.06384100  0.51703300  0.19366200  1
  O  O23  1  0.56384100  0.48296700  0.80633800  1
  O  O24  1  0.06343600  0.01646900  0.18148600  1
  O  O25  1  0.56343600  0.98353100  0.81851400  1
  O  O26  1  0.70877700  0.67490000  0.86468800  1
  O  O27  1  0.20877700  0.32510000  0.13531200  1
  O  O28  1  0.69838000  0.21182400  0.75679700  1
  O  O29  1  0.19838000  0.78817600  0.24320300  1
  O  O30  1  0.82633100  0.26106500  0.06780700  1
  O  O31  1  0.32633100  0.73893500  0.93219300  1
  O  O32  1  0.82047500  0.55098600  0.51748300  1
  O  O33  1  0.32047500  0.44901400  0.48251700  1
