# generated using pymatgen
data_PNO3
_symmetry_space_group_name_H-M   'P 1'
_cell_length_a   4.49791500
_cell_length_b   5.55965500
_cell_length_c   13.24671200
_cell_angle_alpha   90.00000000
_cell_angle_beta   90.00000000
_cell_angle_gamma   90.00000000
_symmetry_Int_Tables_number   1
_chemical_formula_structural   PNO3
_chemical_formula_sum   'P4 N4 O12'
_cell_volume   331.25861441
_cell_formula_units_Z   4
loop_
 _symmetry_equiv_pos_site_id
 _symmetry_equiv_pos_as_xyz
  1  'x, y, z'
loop_
 _atom_site_type_symbol
 _atom_site_label
 _atom_site_symmetry_multiplicity
 _atom_site_fract_x
 _atom_site_fract_y
 _atom_site_fract_z
 _atom_site_occupancy
  P  P0  1  0.53672700  0.65713100  0.93652000  1
  P  P1  1  0.03672700  0.84286900  0.06348000  1
  P  P2  1  0.96327300  0.34286900  0.43652000  1
  P  P3  1  0.46327300  0.15713100  0.56348000  1
  N  N4  1  0.80782600  0.01480700  0.84391700  1
  N  N5  1  0.30782600  0.48519300  0.15608300  1
  N  N6  1  0.69217400  0.98519300  0.34391700  1
  N  N7  1  0.19217400  0.51480700  0.65608300  1
  O  O8  1  0.41753900  0.42259200  0.90887500  1
  O  O9  1  0.91753900  0.07740800  0.09112500  1
  O  O10  1  0.08246100  0.57740800  0.40887500  1
  O  O11  1  0.58246100  0.92259200  0.59112500  1
  O  O12  1  0.65512300  0.80767800  0.83864100  1
  O  O13  1  0.15512300  0.69232200  0.16135900  1
  O  O14  1  0.84487700  0.19232200  0.33864100  1
  O  O15  1  0.34487700  0.30767800  0.66135900  1
  O  O16  1  0.81232800  0.65230300  0.01295500  1
  O  O17  1  0.31232800  0.84769700  0.98704500  1
  O  O18  1  0.68767200  0.34769700  0.51295500  1
  O  O19  1  0.18767200  0.15230300  0.48704500  1
