# generated using pymatgen
data_Na2PdO6
_symmetry_space_group_name_H-M   'P 1'
_cell_length_a   5.99849160
_cell_length_b   5.99849160
_cell_length_c   3.69538100
_cell_angle_alpha   90.00000000
_cell_angle_beta   90.00000000
_cell_angle_gamma   119.99999564
_symmetry_Int_Tables_number   1
_chemical_formula_structural   Na2PdO6
_chemical_formula_sum   'Na2 Pd1 O6'
_cell_volume   115.15266226
_cell_formula_units_Z   1
loop_
 _symmetry_equiv_pos_site_id
 _symmetry_equiv_pos_as_xyz
  1  'x, y, z'
loop_
 _atom_site_type_symbol
 _atom_site_label
 _atom_site_symmetry_multiplicity
 _atom_site_fract_x
 _atom_site_fract_y
 _atom_site_fract_z
 _atom_site_occupancy
  Na  Na0  1  0.33333300  0.66666700  0.00000000  1
  Na  Na1  1  0.66666700  0.33333300  0.00000000  1
  Pd  Pd2  1  0.00000000  0.00000000  0.00000000  1
  O  O3  1  0.72657400  0.00000000  0.69638700  1
  O  O4  1  0.27342600  0.27342600  0.69638700  1
  O  O5  1  0.00000000  0.72657400  0.69638700  1
  O  O6  1  0.27342600  0.00000000  0.30361300  1
  O  O7  1  0.72657400  0.72657400  0.30361300  1
  O  O8  1  0.00000000  0.27342600  0.30361300  1
