# generated using pymatgen
data_NiSO11
_symmetry_space_group_name_H-M   'P 1'
_cell_length_a   6.58414300
_cell_length_b   11.14228700
_cell_length_c   12.46936100
_cell_angle_alpha   90.00000000
_cell_angle_beta   90.00000000
_cell_angle_gamma   90.00000000
_symmetry_Int_Tables_number   1
_chemical_formula_structural   NiSO11
_chemical_formula_sum   'Ni4 S4 O44'
_cell_volume   914.78238603
_cell_formula_units_Z   4
loop_
 _symmetry_equiv_pos_site_id
 _symmetry_equiv_pos_as_xyz
  1  'x, y, z'
loop_
 _atom_site_type_symbol
 _atom_site_label
 _atom_site_symmetry_multiplicity
 _atom_site_fract_x
 _atom_site_fract_y
 _atom_site_fract_z
 _atom_site_occupancy
  Ni  Ni0  1  0.82086200  0.38329600  0.78915200  1
  Ni  Ni1  1  0.17913800  0.88329600  0.71084800  1
  Ni  Ni2  1  0.32086200  0.11670400  0.21084800  1
  Ni  Ni3  1  0.67913800  0.61670400  0.28915200  1
  S  S4  1  0.24695600  0.42425000  0.52769100  1
  S  S5  1  0.75304400  0.92425000  0.97230900  1
  S  S6  1  0.74695600  0.07575000  0.47230900  1
  S  S7  1  0.25304400  0.57575000  0.02769100  1
  O  O8  1  0.16718800  0.30817100  0.56775100  1
  O  O9  1  0.83281200  0.80817100  0.93224900  1
  O  O10  1  0.66718800  0.19182900  0.43224900  1
  O  O11  1  0.33281200  0.69182900  0.06775100  1
  O  O12  1  0.22691400  0.43492000  0.40855100  1
  O  O13  1  0.77308600  0.93492000  0.09144900  1
  O  O14  1  0.72691400  0.06508000  0.59144900  1
  O  O15  1  0.27308600  0.56508000  0.90855100  1
  O  O16  1  0.45982800  0.43730200  0.56378300  1
  O  O17  1  0.54017200  0.93730200  0.93621700  1
  O  O18  1  0.95982800  0.06269800  0.43621700  1
  O  O19  1  0.04017200  0.56269800  0.06378300  1
  O  O20  1  0.12516300  0.52828400  0.56763000  1
  O  O21  1  0.87483700  0.02828400  0.93237000  1
  O  O22  1  0.62516300  0.97171600  0.43237000  1
  O  O23  1  0.37483700  0.47171600  0.06763000  1
  O  O24  1  0.87135900  0.37123300  0.95715100  1
  O  O25  1  0.12864100  0.87123300  0.54284900  1
  O  O26  1  0.37135900  0.12876700  0.04284900  1
  O  O27  1  0.62864100  0.62876700  0.45715100  1
  O  O28  1  0.91483300  0.52035100  0.77445000  1
  O  O29  1  0.08516700  0.02035100  0.72555000  1
  O  O30  1  0.41483300  0.97964900  0.22555000  1
  O  O31  1  0.58516700  0.47964900  0.27445000  1
  O  O32  1  0.51938000  0.35717400  0.81035700  1
  O  O33  1  0.48062000  0.85717400  0.68964300  1
  O  O34  1  0.01938000  0.14282600  0.18964300  1
  O  O35  1  0.98062000  0.64282600  0.31035700  1
  O  O36  1  0.83003000  0.30773200  0.67561900  1
  O  O37  1  0.16997000  0.80773200  0.82438100  1
  O  O38  1  0.33003000  0.19226800  0.32438100  1
  O  O39  1  0.66997000  0.69226800  0.17561900  1
  O  O40  1  0.47018000  0.23898500  0.82919300  1
  O  O41  1  0.52982000  0.73898500  0.67080700  1
  O  O42  1  0.97018000  0.26101500  0.17080700  1
  O  O43  1  0.02982000  0.76101500  0.32919300  1
  O  O44  1  0.00703300  0.30465700  0.91614600  1
  O  O45  1  0.99296700  0.80465700  0.58385400  1
  O  O46  1  0.50703300  0.19534300  0.08385400  1
  O  O47  1  0.49296700  0.69534300  0.41614600  1
  O  O48  1  0.62356800  0.68637100  0.74586700  1
  O  O49  1  0.37643200  0.18637100  0.75413300  1
  O  O50  1  0.12356800  0.81362900  0.25413300  1
  O  O51  1  0.87643200  0.31362900  0.24586700  1
