# generated using pymatgen
data_NaCa2Al2As2O11F4
_symmetry_space_group_name_H-M   'P 1'
_cell_length_a   10.92795800
_cell_length_b   5.62028100
_cell_length_c   9.70648510
_cell_angle_alpha   74.90914094
_cell_angle_beta   90.00000000
_cell_angle_gamma   90.00000000
_symmetry_Int_Tables_number   1
_chemical_formula_structural   NaCa2Al2As2O11F4
_chemical_formula_sum   'Na2 Ca4 Al4 As4 O22 F8'
_cell_volume   575.59590491
_cell_formula_units_Z   2
loop_
 _symmetry_equiv_pos_site_id
 _symmetry_equiv_pos_as_xyz
  1  'x, y, z'
loop_
 _atom_site_type_symbol
 _atom_site_label
 _atom_site_symmetry_multiplicity
 _atom_site_fract_x
 _atom_site_fract_y
 _atom_site_fract_z
 _atom_site_occupancy
  Na  Na0  1  0.75000000  0.49837700  0.82907400  1
  Na  Na1  1  0.25000000  0.50162300  0.17092600  1
  Ca  Ca2  1  0.91384200  0.10742700  0.64156800  1
  Ca  Ca3  1  0.41384200  0.89257300  0.35843200  1
  Ca  Ca4  1  0.08615800  0.89257300  0.35843200  1
  Ca  Ca5  1  0.58615800  0.10742700  0.64156800  1
  Al  Al6  1  0.90944900  0.48454400  0.23722200  1
  Al  Al7  1  0.40944900  0.51545600  0.76277800  1
  Al  Al8  1  0.09055100  0.51545600  0.76277800  1
  Al  Al9  1  0.59055100  0.48454400  0.23722200  1
  As  As10  1  0.75000000  0.87502900  0.00274400  1
  As  As11  1  0.25000000  0.12497100  0.99725600  1
  As  As12  1  0.75000000  0.67689800  0.46041600  1
  As  As13  1  0.25000000  0.32310200  0.53958400  1
  O  O14  1  0.75000000  0.36671600  0.27556600  1
  O  O15  1  0.25000000  0.63328400  0.72443400  1
  O  O16  1  0.06873400  0.79671400  0.84490300  1
  O  O17  1  0.56873400  0.20328600  0.15509700  1
  O  O18  1  0.93126600  0.20328600  0.15509700  1
  O  O19  1  0.43126600  0.79671400  0.84490300  1
  O  O20  1  0.75000000  0.95308100  0.82024700  1
  O  O21  1  0.25000000  0.04691900  0.17975300  1
  O  O22  1  0.87732000  0.69798600  0.05762500  1
  O  O23  1  0.37732000  0.30201400  0.94237500  1
  O  O24  1  0.12268000  0.30201400  0.94237500  1
  O  O25  1  0.62268000  0.69798600  0.05762500  1
  O  O26  1  0.75000000  0.38597200  0.57271300  1
  O  O27  1  0.25000000  0.61402800  0.42728700  1
  O  O28  1  0.75000000  0.88516200  0.55808800  1
  O  O29  1  0.25000000  0.11483800  0.44191200  1
  O  O30  1  0.12013800  0.29545700  0.64680600  1
  O  O31  1  0.62013800  0.70454300  0.35319400  1
  O  O32  1  0.87986200  0.70454300  0.35319400  1
  O  O33  1  0.37986200  0.29545700  0.64680600  1
  O  O34  1  0.75000000  0.15930100  0.04820100  1
  O  O35  1  0.25000000  0.84069900  0.95179900  1
  F  F36  1  0.93614000  0.40218000  0.78082500  1
  F  F37  1  0.43614000  0.59782000  0.21917500  1
  F  F38  1  0.06386000  0.59782000  0.21917500  1
  F  F39  1  0.56386000  0.40218000  0.78082500  1
  F  F40  1  0.03126700  0.76989300  0.60460800  1
  F  F41  1  0.53126700  0.23010700  0.39539200  1
  F  F42  1  0.96873300  0.23010700  0.39539200  1
  F  F43  1  0.46873300  0.76989300  0.60460800  1
