# generated using pymatgen
data_MgMoO9
_symmetry_space_group_name_H-M   'P 1'
_cell_length_a   5.85621300
_cell_length_b   5.92573760
_cell_length_c   10.58360784
_cell_angle_alpha   84.78332817
_cell_angle_beta   84.29254252
_cell_angle_gamma   83.93058123
_symmetry_Int_Tables_number   1
_chemical_formula_structural   MgMoO9
_chemical_formula_sum   'Mg2 Mo2 O18'
_cell_volume   362.20521038
_cell_formula_units_Z   2
loop_
 _symmetry_equiv_pos_site_id
 _symmetry_equiv_pos_as_xyz
  1  'x, y, z'
loop_
 _atom_site_type_symbol
 _atom_site_label
 _atom_site_symmetry_multiplicity
 _atom_site_fract_x
 _atom_site_fract_y
 _atom_site_fract_z
 _atom_site_occupancy
  Mg  Mg0  1  0.00000000  0.00000000  0.00000000  1
  Mg  Mg1  1  0.50000000  0.50000000  0.50000000  1
  Mo  Mo2  1  0.98857400  0.22785500  0.67914400  1
  Mo  Mo3  1  0.01142600  0.77214500  0.32085600  1
  O  O4  1  0.97223200  0.21141200  0.85725700  1
  O  O5  1  0.02776800  0.78858800  0.14274300  1
  O  O6  1  0.23468900  0.36904500  0.61238600  1
  O  O7  1  0.76531100  0.63095500  0.38761400  1
  O  O8  1  0.02182000  0.94786700  0.63792500  1
  O  O9  1  0.97818000  0.05213300  0.36207500  1
  O  O10  1  0.52325300  0.95198700  0.71326500  1
  O  O11  1  0.47674700  0.04801300  0.28673500  1
  O  O12  1  0.21917300  0.68424300  0.87434500  1
  O  O13  1  0.78082700  0.31575700  0.12565500  1
  O  O14  1  0.41001600  0.06609100  0.00354600  1
  O  O15  1  0.58998400  0.93390900  0.99645400  1
  O  O16  1  0.72482600  0.36886000  0.62466600  1
  O  O17  1  0.27517400  0.63114000  0.37533400  1
  O  O18  1  0.51278700  0.85599100  0.61587100  1
  O  O19  1  0.48721300  0.14400900  0.38412900  1
  O  O20  1  0.58829300  0.41858200  0.11911200  1
  O  O21  1  0.41170700  0.58141800  0.88088800  1
