# generated using pymatgen
data_NdInPd
_symmetry_space_group_name_H-M   'P 1'
_cell_length_a   8.14627248
_cell_length_b   8.06115995
_cell_length_c   3.84178907
_cell_angle_alpha   88.70288996
_cell_angle_beta   91.18236757
_cell_angle_gamma   119.63183942
_symmetry_Int_Tables_number   1
_chemical_formula_structural   NdInPd
_chemical_formula_sum   'Nd3 In3 Pd3'
_cell_volume   219.22138288
_cell_formula_units_Z   3
loop_
 _symmetry_equiv_pos_site_id
 _symmetry_equiv_pos_as_xyz
  1  'x, y, z'
loop_
 _atom_site_type_symbol
 _atom_site_label
 _atom_site_symmetry_multiplicity
 _atom_site_fract_x
 _atom_site_fract_y
 _atom_site_fract_z
 _atom_site_occupancy
  Nd  Nd0  1  0.00072300  0.71938400  0.50411100  1
  Nd  Nd1  1  0.28071500  0.28108000  0.50057100  1
  Nd  Nd2  1  0.71885000  0.99934400  0.49864600  1
  In  In3  1  0.61970600  0.61697700  0.99995800  1
  In  In4  1  0.99858300  0.38061000  0.99961200  1
  In  In5  1  0.38104600  0.99858400  0.00186600  1
  Pd  Pd6  1  0.99992500  0.00019200  0.00125400  1
  Pd  Pd7  1  0.66625200  0.33505800  0.48799900  1
  Pd  Pd8  1  0.33420100  0.66877100  0.50598000  1
