# generated using pymatgen
data_Na2SO5
_symmetry_space_group_name_H-M   'P 1'
_cell_length_a   7.89656181
_cell_length_b   7.89656181
_cell_length_c   5.65308200
_cell_angle_alpha   90.00000000
_cell_angle_beta   90.00000000
_cell_angle_gamma   131.27245583
_symmetry_Int_Tables_number   1
_chemical_formula_structural   Na2SO5
_chemical_formula_sum   'Na4 S2 O10'
_cell_volume   264.93378808
_cell_formula_units_Z   2
loop_
 _symmetry_equiv_pos_site_id
 _symmetry_equiv_pos_as_xyz
  1  'x, y, z'
loop_
 _atom_site_type_symbol
 _atom_site_label
 _atom_site_symmetry_multiplicity
 _atom_site_fract_x
 _atom_site_fract_y
 _atom_site_fract_z
 _atom_site_occupancy
  Na  Na0  1  0.00000000  0.00000000  0.50000000  1
  Na  Na1  1  0.00000000  0.00000000  0.00000000  1
  Na  Na2  1  0.30484100  0.69515900  0.75000000  1
  Na  Na3  1  0.69515900  0.30484100  0.25000000  1
  S  S4  1  0.81700700  0.18299300  0.75000000  1
  S  S5  1  0.18299300  0.81700700  0.25000000  1
  O  O6  1  0.85959900  0.14040100  0.25000000  1
  O  O7  1  0.14040100  0.85959900  0.75000000  1
  O  O8  1  0.68206000  0.95989800  0.92767700  1
  O  O9  1  0.95989800  0.68206000  0.07232300  1
  O  O10  1  0.68206000  0.95989800  0.57232300  1
  O  O11  1  0.95989800  0.68206000  0.42767700  1
  O  O12  1  0.31794000  0.04010200  0.07232300  1
  O  O13  1  0.04010200  0.31794000  0.92767700  1
  O  O14  1  0.31794000  0.04010200  0.42767700  1
  O  O15  1  0.04010200  0.31794000  0.57232300  1
