# generated using pymatgen
data_NO6
_symmetry_space_group_name_H-M   'P 1'
_cell_length_a   3.44660500
_cell_length_b   9.29913500
_cell_length_c   13.51537600
_cell_angle_alpha   90.00000000
_cell_angle_beta   90.00000000
_cell_angle_gamma   90.00000000
_symmetry_Int_Tables_number   1
_chemical_formula_structural   NO6
_chemical_formula_sum   'N4 O24'
_cell_volume   433.17381767
_cell_formula_units_Z   4
loop_
 _symmetry_equiv_pos_site_id
 _symmetry_equiv_pos_as_xyz
  1  'x, y, z'
loop_
 _atom_site_type_symbol
 _atom_site_label
 _atom_site_symmetry_multiplicity
 _atom_site_fract_x
 _atom_site_fract_y
 _atom_site_fract_z
 _atom_site_occupancy
  N  N0  1  0.31530300  0.73156400  0.83005400  1
  N  N1  1  0.81530300  0.76843600  0.16994600  1
  N  N2  1  0.68469700  0.23156400  0.66994600  1
  N  N3  1  0.18469700  0.26843600  0.33005400  1
  O  O4  1  0.46262800  0.61405500  0.80494100  1
  O  O5  1  0.96262800  0.88594500  0.19505900  1
  O  O6  1  0.53737200  0.11405500  0.69505900  1
  O  O7  1  0.03737200  0.38594500  0.30494100  1
  O  O8  1  0.32359900  0.83630900  0.77215600  1
  O  O9  1  0.82359900  0.66369100  0.22784400  1
  O  O10  1  0.67640100  0.33630900  0.72784400  1
  O  O11  1  0.17640100  0.16369100  0.27215600  1
  O  O12  1  0.15691400  0.74478500  0.91299200  1
  O  O13  1  0.65691400  0.75521500  0.08700800  1
  O  O14  1  0.84308600  0.24478500  0.58700800  1
  O  O15  1  0.34308600  0.25521500  0.41299200  1
  O  O16  1  0.14764900  0.58259100  0.58047600  1
  O  O17  1  0.64764900  0.91740900  0.41952400  1
  O  O18  1  0.85235100  0.08259100  0.91952400  1
  O  O19  1  0.35235100  0.41740900  0.08047600  1
  O  O20  1  0.21551100  0.43007300  0.99227900  1
  O  O21  1  0.71551100  0.06992700  0.00772100  1
  O  O22  1  0.78448900  0.93007300  0.50772100  1
  O  O23  1  0.28448900  0.56992700  0.49227900  1
  O  O24  1  0.28291100  0.32807000  0.93037700  1
  O  O25  1  0.78291100  0.17193000  0.06962300  1
  O  O26  1  0.71708900  0.82807000  0.56962300  1
  O  O27  1  0.21708900  0.67193000  0.43037700  1
