# generated using pymatgen
data_Na2PdO6
_symmetry_space_group_name_H-M   'P 1'
_cell_length_a   6.05287695
_cell_length_b   6.05287695
_cell_length_c   3.82154725
_cell_angle_alpha   80.65890176
_cell_angle_beta   80.65890176
_cell_angle_gamma   115.54299691
_symmetry_Int_Tables_number   1
_chemical_formula_structural   Na2PdO6
_chemical_formula_sum   'Na2 Pd1 O6'
_cell_volume   120.33371079
_cell_formula_units_Z   1
loop_
 _symmetry_equiv_pos_site_id
 _symmetry_equiv_pos_as_xyz
  1  'x, y, z'
loop_
 _atom_site_type_symbol
 _atom_site_label
 _atom_site_symmetry_multiplicity
 _atom_site_fract_x
 _atom_site_fract_y
 _atom_site_fract_z
 _atom_site_occupancy
  Na  Na0  1  0.64950000  0.35050000  0.50000000  1
  Na  Na1  1  0.35050000  0.64950000  0.50000000  1
  Pd  Pd2  1  0.00000000  0.00000000  0.50000000  1
  O  O3  1  0.78194400  0.08733600  0.17890400  1
  O  O4  1  0.08733600  0.78194400  0.17890400  1
  O  O5  1  0.30069100  0.30069100  0.24256100  1
  O  O6  1  0.21805600  0.91266400  0.82109600  1
  O  O7  1  0.91266400  0.21805600  0.82109600  1
  O  O8  1  0.69930900  0.69930900  0.75743900  1
