# generated using pymatgen
data_Na2ZrSi3O10
_symmetry_space_group_name_H-M   'P 1'
_cell_length_a   7.35261800
_cell_length_b   10.04087500
_cell_length_c   13.53160500
_cell_angle_alpha   90.00000000
_cell_angle_beta   90.00000000
_cell_angle_gamma   90.00000000
_symmetry_Int_Tables_number   1
_chemical_formula_structural   Na2ZrSi3O10
_chemical_formula_sum   'Na8 Zr4 Si12 O40'
_cell_volume   998.99398995
_cell_formula_units_Z   4
loop_
 _symmetry_equiv_pos_site_id
 _symmetry_equiv_pos_as_xyz
  1  'x, y, z'
loop_
 _atom_site_type_symbol
 _atom_site_label
 _atom_site_symmetry_multiplicity
 _atom_site_fract_x
 _atom_site_fract_y
 _atom_site_fract_z
 _atom_site_occupancy
  Na  Na0  1  0.48996900  0.75494800  0.09683600  1
  Na  Na1  1  0.98996900  0.74505200  0.90316400  1
  Na  Na2  1  0.51003100  0.25494800  0.40316400  1
  Na  Na3  1  0.01003100  0.24505200  0.59683600  1
  Na  Na4  1  0.72884300  0.58103300  0.67026300  1
  Na  Na5  1  0.22884300  0.91896700  0.32973700  1
  Na  Na6  1  0.27115700  0.08103300  0.82973700  1
  Na  Na7  1  0.77115700  0.41896700  0.17026300  1
  Zr  Zr8  1  0.25813900  0.53741500  0.70152700  1
  Zr  Zr9  1  0.75813900  0.96258500  0.29847300  1
  Zr  Zr10  1  0.74186100  0.03741500  0.79847300  1
  Zr  Zr11  1  0.24186100  0.46258500  0.20152700  1
  Si  Si12  1  0.42918000  0.85465900  0.66302700  1
  Si  Si13  1  0.92918000  0.64534100  0.33697300  1
  Si  Si14  1  0.57082000  0.35465900  0.83697300  1
  Si  Si15  1  0.07082000  0.14534100  0.16302700  1
  Si  Si16  1  0.73806900  0.98229300  0.55752500  1
  Si  Si17  1  0.23806900  0.51770700  0.44247500  1
  Si  Si18  1  0.26193100  0.48229300  0.94247500  1
  Si  Si19  1  0.76193100  0.01770700  0.05752500  1
  Si  Si20  1  0.97997500  0.32786500  0.83380000  1
  Si  Si21  1  0.47997500  0.17213500  0.16620000  1
  Si  Si22  1  0.02002500  0.82786500  0.66620000  1
  Si  Si23  1  0.52002500  0.67213500  0.33380000  1
  O  O24  1  0.22827500  0.59054100  0.85436500  1
  O  O25  1  0.72827500  0.90945900  0.14563500  1
  O  O26  1  0.77172500  0.09054100  0.64563500  1
  O  O27  1  0.27172500  0.40945900  0.35436500  1
  O  O28  1  0.44158900  0.69299700  0.66914100  1
  O  O29  1  0.94158900  0.80700300  0.33085900  1
  O  O30  1  0.55841100  0.19299700  0.83085900  1
  O  O31  1  0.05841100  0.30700300  0.16914100  1
  O  O32  1  0.25594900  0.45385300  0.55378700  1
  O  O33  1  0.75594900  0.04614700  0.44621300  1
  O  O34  1  0.74405100  0.95385300  0.94621300  1
  O  O35  1  0.24405100  0.54614700  0.05378700  1
  O  O36  1  0.06747900  0.38409200  0.73086000  1
  O  O37  1  0.56747900  0.11590800  0.26914000  1
  O  O38  1  0.93252100  0.88409200  0.76914000  1
  O  O39  1  0.43252100  0.61590800  0.23086000  1
  O  O40  1  0.49063500  0.42754600  0.73805000  1
  O  O41  1  0.99063500  0.07245400  0.26195000  1
  O  O42  1  0.50936500  0.92754600  0.76195000  1
  O  O43  1  0.00936500  0.57245400  0.23805000  1
  O  O44  1  0.03913800  0.66662400  0.67281100  1
  O  O45  1  0.53913800  0.83337600  0.32718900  1
  O  O46  1  0.96086200  0.16662400  0.82718900  1
  O  O47  1  0.46086200  0.33337600  0.17281100  1
  O  O48  1  0.21639400  0.90294900  0.64955600  1
  O  O49  1  0.71639400  0.59705100  0.35044400  1
  O  O50  1  0.78360600  0.40294900  0.85044400  1
  O  O51  1  0.28360600  0.09705100  0.14955600  1
  O  O52  1  0.89006700  0.86279100  0.57054000  1
  O  O53  1  0.39006700  0.63720900  0.42946000  1
  O  O54  1  0.10993300  0.36279100  0.92946000  1
  O  O55  1  0.60993300  0.13720900  0.07054000  1
  O  O56  1  0.53681700  0.91259200  0.56496600  1
  O  O57  1  0.03681700  0.58740800  0.43503400  1
  O  O58  1  0.46318300  0.41259200  0.93503400  1
  O  O59  1  0.96318300  0.08740800  0.06496600  1
  O  O60  1  0.32224600  0.23735900  0.54795600  1
  O  O61  1  0.82224600  0.26264100  0.45204400  1
  O  O62  1  0.67775400  0.73735900  0.95204400  1
  O  O63  1  0.17775400  0.76264100  0.04795600  1
