# generated using pymatgen
data_NiH6(SO6)2
_symmetry_space_group_name_H-M   'P 1'
_cell_length_a   7.65543153
_cell_length_b   7.06735032
_cell_length_c   6.86837423
_cell_angle_alpha   96.40111747
_cell_angle_beta   89.75570923
_cell_angle_gamma   105.79050801
_symmetry_Int_Tables_number   1
_chemical_formula_structural   NiH6(SO6)2
_chemical_formula_sum   'Ni1 H6 S2 O12'
_cell_volume   355.21932675
_cell_formula_units_Z   1
loop_
 _symmetry_equiv_pos_site_id
 _symmetry_equiv_pos_as_xyz
  1  'x, y, z'
loop_
 _atom_site_type_symbol
 _atom_site_label
 _atom_site_symmetry_multiplicity
 _atom_site_fract_x
 _atom_site_fract_y
 _atom_site_fract_z
 _atom_site_occupancy
  Ni  Ni0  1  0.00000000  0.00000000  0.00000000  1
  H  H1  1  0.84123200  0.66454000  0.93266000  1
  H  H2  1  0.15876800  0.33546000  0.06734000  1
  H  H3  1  0.74334900  0.14957500  0.86915000  1
  H  H4  1  0.25665100  0.85042500  0.13085000  1
  H  H5  1  0.63517400  0.92855200  0.81362600  1
  H  H6  1  0.36482600  0.07144800  0.18637400  1
  S  S7  1  0.69471700  0.42707400  0.49204400  1
  S  S8  1  0.30528300  0.57292600  0.50795600  1
  O  O9  1  0.93261400  0.73114200  0.03477400  1
  O  O10  1  0.06738600  0.26885800  0.96522600  1
  O  O11  1  0.04133300  0.88618300  0.76964100  1
  O  O12  1  0.95866700  0.11381700  0.23035900  1
  O  O13  1  0.72225600  0.01708600  0.90902300  1
  O  O14  1  0.27774400  0.98291400  0.09097700  1
  O  O15  1  0.77521300  0.62088600  0.43682500  1
  O  O16  1  0.22478700  0.37911400  0.56317500  1
  O  O17  1  0.59063200  0.27183900  0.35140200  1
  O  O18  1  0.40936800  0.72816100  0.64859800  1
  O  O19  1  0.70832300  0.39009800  0.69258000  1
  O  O20  1  0.29167700  0.60990200  0.30742000  1
