# generated using pymatgen
data_P2W9O31
_symmetry_space_group_name_H-M   'P 1'
_cell_length_a   6.70186900
_cell_length_b   5.42536100
_cell_length_c   33.96237884
_cell_angle_alpha   80.96234811
_cell_angle_beta   90.00000000
_cell_angle_gamma   90.00000000
_symmetry_Int_Tables_number   1
_chemical_formula_structural   P2W9O31
_chemical_formula_sum   'P4 W18 O62'
_cell_volume   1219.54352975
_cell_formula_units_Z   2
loop_
 _symmetry_equiv_pos_site_id
 _symmetry_equiv_pos_as_xyz
  1  'x, y, z'
loop_
 _atom_site_type_symbol
 _atom_site_label
 _atom_site_symmetry_multiplicity
 _atom_site_fract_x
 _atom_site_fract_y
 _atom_site_fract_z
 _atom_site_occupancy
  P  P0  1  0.36459500  0.29367500  0.71648600  1
  P  P1  1  0.86459500  0.70632500  0.78351400  1
  P  P2  1  0.13540500  0.29367500  0.21648600  1
  P  P3  1  0.63540500  0.70632500  0.28351400  1
  W  W4  1  0.33052600  0.54044800  0.45402200  1
  W  W5  1  0.16947400  0.54044800  0.95402200  1
  W  W6  1  0.33821200  0.90634300  0.59195000  1
  W  W7  1  0.66947400  0.45955200  0.54597800  1
  W  W8  1  0.66178800  0.09365700  0.40805000  1
  W  W9  1  0.83821200  0.09365700  0.90805000  1
  W  W10  1  0.50758800  0.63411600  0.86056400  1
  W  W11  1  0.67053200  0.81657100  0.68578300  1
  W  W12  1  0.82946800  0.81657100  0.18578300  1
  W  W13  1  0.16178800  0.90634300  0.09195000  1
  W  W14  1  0.99241200  0.63411600  0.36056400  1
  W  W15  1  0.00000000  0.00000000  0.50000000  1
  W  W16  1  0.32946800  0.18342900  0.31421700  1
  W  W17  1  0.00758800  0.36588400  0.63943600  1
  W  W18  1  0.49241200  0.36588400  0.13943600  1
  W  W19  1  0.17053200  0.18342900  0.81421700  1
  W  W20  1  0.50000000  0.00000000  0.00000000  1
  W  W21  1  0.83052600  0.45955200  0.04597800  1
  O  O22  1  0.49181800  0.13308700  0.35884200  1
  O  O23  1  0.66396600  0.40092600  0.09591100  1
  O  O24  1  0.68188900  0.84501700  0.88287700  1
  O  O25  1  0.80156300  0.76870000  0.73918700  1
  O  O26  1  0.49806100  0.91062100  0.29285600  1
  O  O27  1  0.82605900  0.56802100  0.66879900  1
  O  O28  1  0.15180500  0.74771100  0.47789500  1
  O  O29  1  0.33112000  0.94897900  0.04745700  1
  O  O30  1  0.65751900  0.34662300  0.87939300  1
  O  O31  1  0.32605900  0.43197900  0.83120100  1
  O  O32  1  0.84819500  0.25228900  0.52210500  1
  O  O33  1  0.98798400  0.33971200  0.92724900  1
  O  O34  1  0.83112000  0.05102100  0.45254300  1
  O  O35  1  0.66888000  0.05102100  0.95254300  1
  O  O36  1  0.83603400  0.40092600  0.59591100  1
  O  O37  1  0.47434200  0.54674500  0.71121500  1
  O  O38  1  0.34819500  0.74771100  0.97789500  1
  O  O39  1  0.67394100  0.56802100  0.16879900  1
  O  O40  1  0.14974200  0.92490700  0.33448400  1
  O  O41  1  0.00818200  0.13308700  0.85884200  1
  O  O42  1  0.02565800  0.54674500  0.21121500  1
  O  O43  1  0.52565800  0.45325500  0.28878500  1
  O  O44  1  0.82153700  0.74127300  0.52577800  1
  O  O45  1  0.30156300  0.23130000  0.76081300  1
  O  O46  1  0.18188900  0.15498300  0.61712300  1
  O  O47  1  0.51201600  0.33971200  0.42724900  1
  O  O48  1  0.33603400  0.59907400  0.90408900  1
  O  O49  1  0.84248100  0.34662300  0.37939300  1
  O  O50  1  0.67503300  0.68670800  0.80947600  1
  O  O51  1  0.19843700  0.23130000  0.26081300  1
  O  O52  1  0.98555500  0.15860600  0.06897900  1
  O  O53  1  0.99806100  0.08937900  0.20714400  1
  O  O54  1  0.64974200  0.07509300  0.16551600  1
  O  O55  1  0.31811100  0.15498300  0.11712300  1
  O  O56  1  0.00193900  0.91062100  0.79285600  1
  O  O57  1  0.81811100  0.84501700  0.38287700  1
  O  O58  1  0.32153700  0.25872700  0.97422200  1
  O  O59  1  0.17503300  0.31329200  0.69052400  1
  O  O60  1  0.85025800  0.07509300  0.66551600  1
  O  O61  1  0.01201600  0.66028800  0.07275100  1
  O  O62  1  0.48798400  0.66028800  0.57275100  1
  O  O63  1  0.69843700  0.76870000  0.23918700  1
  O  O64  1  0.17394100  0.43197900  0.33120100  1
  O  O65  1  0.50818200  0.86691300  0.64115800  1
  O  O66  1  0.97434200  0.45325500  0.78878500  1
  O  O67  1  0.01444500  0.84139400  0.93102100  1
  O  O68  1  0.51444500  0.15860600  0.56897900  1
  O  O69  1  0.48555500  0.84139400  0.43102100  1
  O  O70  1  0.35025800  0.92490700  0.83448400  1
  O  O71  1  0.82496700  0.68670800  0.30947600  1
  O  O72  1  0.50193900  0.08937900  0.70714400  1
  O  O73  1  0.15751900  0.65337700  0.62060700  1
  O  O74  1  0.67846300  0.74127300  0.02577800  1
  O  O75  1  0.99181800  0.86691300  0.14115800  1
  O  O76  1  0.65180500  0.25228900  0.02210500  1
  O  O77  1  0.32496700  0.31329200  0.19052400  1
  O  O78  1  0.16888000  0.94897900  0.54745700  1
  O  O79  1  0.34248100  0.65337700  0.12060700  1
  O  O80  1  0.50000000  0.50000000  0.50000000  1
  O  O81  1  0.17846300  0.25872700  0.47422200  1
  O  O82  1  0.00000000  0.50000000  0.00000000  1
  O  O83  1  0.16396600  0.59907400  0.40408900  1
