# generated using pymatgen
data_MgO
_symmetry_space_group_name_H-M   'P 1'
_cell_length_a   8.18373577
_cell_length_b   8.18373577
_cell_length_c   8.18373577
_cell_angle_alpha   150.14496280
_cell_angle_beta   135.48980650
_cell_angle_gamma   54.52037514
_symmetry_Int_Tables_number   1
_chemical_formula_structural   MgO
_chemical_formula_sum   'Mg8 O8'
_cell_volume   190.13259519
_cell_formula_units_Z   8
loop_
 _symmetry_equiv_pos_site_id
 _symmetry_equiv_pos_as_xyz
  1  'x, y, z'
loop_
 _atom_site_type_symbol
 _atom_site_label
 _atom_site_symmetry_multiplicity
 _atom_site_fract_x
 _atom_site_fract_y
 _atom_site_fract_z
 _atom_site_occupancy
  Mg  Mg0  1  0.73712700  0.07078400  0.66634200  1
  Mg  Mg1  1  0.26287300  0.92921600  0.33365800  1
  Mg  Mg2  1  0.59555800  0.42921600  0.16634200  1
  Mg  Mg3  1  0.40444200  0.57078400  0.83365800  1
  Mg  Mg4  1  0.02617300  0.68998100  0.33619100  1
  Mg  Mg5  1  0.97382700  0.31001900  0.66380900  1
  Mg  Mg6  1  0.64621000  0.81001900  0.83619100  1
  Mg  Mg7  1  0.35379000  0.18998100  0.16380900  1
  O  O8  1  0.02588700  0.19015800  0.83572900  1
  O  O9  1  0.97411300  0.80984200  0.16427100  1
  O  O10  1  0.64557100  0.30984200  0.33572900  1
  O  O11  1  0.35442900  0.69015800  0.66427100  1
  O  O12  1  0.74154500  0.57078100  0.17076300  1
  O  O13  1  0.25845500  0.42921900  0.82923700  1
  O  O14  1  0.59998200  0.92921900  0.67076300  1
  O  O15  1  0.40001800  0.07078100  0.32923700  1
