# generated using pymatgen
data_Na8Si7O18
_symmetry_space_group_name_H-M   'P 1'
_cell_length_a   18.06097789
_cell_length_b   6.08168441
_cell_length_c   9.96373827
_cell_angle_alpha   50.98969955
_cell_angle_beta   141.83820751
_cell_angle_gamma   122.84212380
_symmetry_Int_Tables_number   1
_chemical_formula_structural   Na8Si7O18
_chemical_formula_sum   'Na8 Si7 O18'
_cell_volume   522.88590469
_cell_formula_units_Z   1
loop_
 _symmetry_equiv_pos_site_id
 _symmetry_equiv_pos_as_xyz
  1  'x, y, z'
loop_
 _atom_site_type_symbol
 _atom_site_label
 _atom_site_symmetry_multiplicity
 _atom_site_fract_x
 _atom_site_fract_y
 _atom_site_fract_z
 _atom_site_occupancy
  Na  Na0  1  0.28667200  0.58361800  0.99345600  1
  Na  Na1  1  0.75472100  0.16838400  0.12425900  1
  Na  Na2  1  0.02184800  0.83449100  0.70441500  1
  Na  Na3  1  0.36660500  0.94304100  0.32076400  1
  Na  Na4  1  0.45440700  0.00951200  0.85681000  1
  Na  Na5  1  0.05566800  0.45309700  0.54614400  1
  Na  Na6  1  0.58437000  0.35722600  0.57478300  1
  Na  Na7  1  0.55900500  0.29756500  0.18176600  1
  Si  Si8  1  0.98612100  0.10014900  0.02491600  1
  Si  Si9  1  0.85580800  0.28641300  0.53680100  1
  Si  Si10  1  0.29112600  0.23978100  0.86396700  1
  Si  Si11  1  0.19754100  0.06534400  0.30442100  1
  Si  Si12  1  0.14007300  0.13096200  0.47087700  1
  Si  Si13  1  0.62424000  0.69691600  0.88417500  1
  Si  Si14  1  0.78865500  0.84603900  0.81372300  1
  O  O15  1  0.10021600  0.83299000  0.59614700  1
  O  O16  1  0.20177600  0.13060800  0.89933800  1
  O  O17  1  0.77301800  0.53324300  0.85379600  1
  O  O18  1  0.89483300  0.15722900  0.50328200  1
  O  O19  1  0.71406600  0.89660700  0.82768100  1
  O  O20  1  0.29065800  0.19169300  0.28358900  1
  O  O21  1  0.51833300  0.88190100  0.70663000  1
  O  O22  1  0.03034000  0.25632800  0.17291600  1
  O  O23  1  0.60012300  0.37083500  0.93185200  1
  O  O24  1  0.37620100  0.02661300  0.99805400  1
  O  O25  1  0.97196500  0.34243800  0.79160100  1
  O  O26  1  0.45997400  0.41595700  0.19150900  1
  O  O27  1  0.37964900  0.53995700  0.92527100  1
  O  O28  1  0.19800200  0.38432700  0.55882300  1
  O  O29  1  0.24708800  0.09350900  0.51896000  1
  O  O30  1  0.69933400  0.70402800  0.14434800  1
  O  O31  1  0.82719000  0.63131700  0.34495800  1
  O  O32  1  0.75036900  0.09788500  0.54996700  1
