# generated using pymatgen
data_O2
_symmetry_space_group_name_H-M   'P 1'
_cell_length_a   5.16029600
_cell_length_b   5.24024477
_cell_length_c   5.89021299
_cell_angle_alpha   90.23517285
_cell_angle_beta   90.49680784
_cell_angle_gamma   90.25713100
_symmetry_Int_Tables_number   1
_chemical_formula_structural   O2
_chemical_formula_sum   O10
_cell_volume   159.26955189
_cell_formula_units_Z   5
loop_
 _symmetry_equiv_pos_site_id
 _symmetry_equiv_pos_as_xyz
  1  'x, y, z'
loop_
 _atom_site_type_symbol
 _atom_site_label
 _atom_site_symmetry_multiplicity
 _atom_site_fract_x
 _atom_site_fract_y
 _atom_site_fract_z
 _atom_site_occupancy
  O  O0  1  0.86628100  0.49961800  0.98855000  1
  O  O1  1  0.09488200  0.42641800  0.98089700  1
  O  O2  1  0.37463400  0.98808900  0.51123700  1
  O  O3  1  0.60160700  0.06723900  0.52359600  1
  O  O4  1  0.50098200  0.87089500  0.01488100  1
  O  O5  1  0.42724000  0.09618200  0.01878800  1
  O  O6  1  0.92578700  0.41437400  0.48283400  1
  O  O7  1  0.98645300  0.64390500  0.48698700  1
  O  O8  1  0.61086800  0.37839900  0.50054300  1
  O  O9  1  0.11126600  0.11488100  0.99168500  1
