# generated using pymatgen
data_Pr2S3O20
_symmetry_space_group_name_H-M   'P 1'
_cell_length_a   6.56805863
_cell_length_b   6.56805863
_cell_length_c   20.26740043
_cell_angle_alpha   86.69038897
_cell_angle_beta   86.69038897
_cell_angle_gamma   61.51936877
_symmetry_Int_Tables_number   1
_chemical_formula_structural   Pr2S3O20
_chemical_formula_sum   'Pr4 S6 O40'
_cell_volume   766.77502342
_cell_formula_units_Z   2
loop_
 _symmetry_equiv_pos_site_id
 _symmetry_equiv_pos_as_xyz
  1  'x, y, z'
loop_
 _atom_site_type_symbol
 _atom_site_label
 _atom_site_symmetry_multiplicity
 _atom_site_fract_x
 _atom_site_fract_y
 _atom_site_fract_z
 _atom_site_occupancy
  Pr  Pr0  1  0.20589500  0.19269400  0.12126800  1
  Pr  Pr1  1  0.19269400  0.20589500  0.62126800  1
  Pr  Pr2  1  0.89628300  0.89271700  0.88833500  1
  Pr  Pr3  1  0.89271700  0.89628300  0.38833500  1
  S  S4  1  0.37118800  0.71522800  0.25281600  1
  S  S5  1  0.71522800  0.37118800  0.75281600  1
  S  S6  1  0.86529100  0.85454200  0.08044300  1
  S  S7  1  0.85454200  0.86529100  0.58044300  1
  S  S8  1  0.23295300  0.22511100  0.92814400  1
  S  S9  1  0.22511100  0.23295300  0.42814400  1
  O  O10  1  0.90852300  0.87126800  0.00840600  1
  O  O11  1  0.87126800  0.90852300  0.50840600  1
  O  O12  1  0.99520600  0.95077800  0.11666700  1
  O  O13  1  0.95077800  0.99520600  0.61666700  1
  O  O14  1  0.61609700  0.98355000  0.09700300  1
  O  O15  1  0.98355000  0.61609700  0.59700300  1
  O  O16  1  0.96310100  0.60990900  0.10370100  1
  O  O17  1  0.60990900  0.96310100  0.60370100  1
  O  O18  1  0.20676700  0.21659900  0.00143200  1
  O  O19  1  0.21659900  0.20676700  0.50143200  1
  O  O20  1  0.10851400  0.10931600  0.90124900  1
  O  O21  1  0.10931600  0.10851400  0.40124900  1
  O  O22  1  0.12957500  0.47060800  0.90370600  1
  O  O23  1  0.47060800  0.12957500  0.40370600  1
  O  O24  1  0.48113800  0.10060600  0.90759000  1
  O  O25  1  0.10060600  0.48113800  0.40759000  1
  O  O26  1  0.56416200  0.64847700  0.29888000  1
  O  O27  1  0.64847700  0.56416200  0.79888000  1
  O  O28  1  0.15010200  0.78134700  0.29266200  1
  O  O29  1  0.78134700  0.15010200  0.79266200  1
  O  O30  1  0.34118800  0.91506700  0.20931300  1
  O  O31  1  0.91506700  0.34118800  0.70931300  1
  O  O32  1  0.42555700  0.51192000  0.21184100  1
  O  O33  1  0.51192000  0.42555700  0.71184100  1
  O  O34  1  0.90825500  0.68440600  0.79036200  1
  O  O35  1  0.68440600  0.90825500  0.29036200  1
  O  O36  1  0.63450800  0.62208600  0.95810400  1
  O  O37  1  0.62208600  0.63450800  0.45810400  1
  O  O38  1  0.19022300  0.88992400  0.80167500  1
  O  O39  1  0.88992400  0.19022300  0.30167500  1
  O  O40  1  0.41965500  0.69403300  0.04544000  1
  O  O41  1  0.69403300  0.41965500  0.54544000  1
  O  O42  1  0.62455700  0.44148000  0.95215200  1
  O  O43  1  0.44148000  0.62455700  0.45215200  1
  O  O44  1  0.40706400  0.16007700  0.72177600  1
  O  O45  1  0.16007700  0.40706400  0.22177600  1
  O  O46  1  0.80615900  0.30771500  0.09433200  1
  O  O47  1  0.30771500  0.80615900  0.59433200  1
  O  O48  1  0.40861700  0.51446000  0.04012200  1
  O  O49  1  0.51446000  0.40861700  0.54012200  1
