# generated using pymatgen
data_Na3NpO8
_symmetry_space_group_name_H-M   'P 1'
_cell_length_a   8.27824200
_cell_length_b   6.34687700
_cell_length_c   7.38280662
_cell_angle_alpha   59.18559218
_cell_angle_beta   90.00000000
_cell_angle_gamma   90.00000000
_symmetry_Int_Tables_number   1
_chemical_formula_structural   Na3NpO8
_chemical_formula_sum   'Na6 Np2 O16'
_cell_volume   333.14052091
_cell_formula_units_Z   2
loop_
 _symmetry_equiv_pos_site_id
 _symmetry_equiv_pos_as_xyz
  1  'x, y, z'
loop_
 _atom_site_type_symbol
 _atom_site_label
 _atom_site_symmetry_multiplicity
 _atom_site_fract_x
 _atom_site_fract_y
 _atom_site_fract_z
 _atom_site_occupancy
  Na  Na0  1  0.00000000  0.00000000  0.50000000  1
  Na  Na1  1  0.50000000  0.00000000  0.00000000  1
  Na  Na2  1  0.29377800  0.43630700  0.52500200  1
  Na  Na3  1  0.79377800  0.56369300  0.97499800  1
  Na  Na4  1  0.70622200  0.56369300  0.47499800  1
  Na  Na5  1  0.20622200  0.43630700  0.02500200  1
  Np  Np6  1  0.50000000  0.00000000  0.50000000  1
  Np  Np7  1  0.00000000  0.00000000  0.00000000  1
  O  O8  1  0.57231700  0.30897200  0.13798300  1
  O  O9  1  0.07231700  0.69102800  0.36201700  1
  O  O10  1  0.42768300  0.69102800  0.86201700  1
  O  O11  1  0.92768300  0.30897200  0.63798300  1
  O  O12  1  0.53262300  0.19878800  0.62416300  1
  O  O13  1  0.03262300  0.80121200  0.87583700  1
  O  O14  1  0.46737700  0.80121200  0.37583700  1
  O  O15  1  0.96737700  0.19878800  0.12416300  1
  O  O16  1  0.28255700  0.10800500  0.43605600  1
  O  O17  1  0.78255700  0.89199500  0.06394400  1
  O  O18  1  0.71744300  0.89199500  0.56394400  1
  O  O19  1  0.21744300  0.10800500  0.93605600  1
  O  O20  1  0.03067600  0.51284500  0.32293400  1
  O  O21  1  0.53067600  0.48715500  0.17706600  1
  O  O22  1  0.96932400  0.48715500  0.67706600  1
  O  O23  1  0.46932400  0.51284500  0.82293400  1
