# generated using pymatgen
data_Na2MnInSi2O9
_symmetry_space_group_name_H-M   'P 1'
_cell_length_a   8.95968171
_cell_length_b   8.95968171
_cell_length_c   7.29930500
_cell_angle_alpha   90.00000000
_cell_angle_beta   90.00000000
_cell_angle_gamma   131.04988343
_symmetry_Int_Tables_number   1
_chemical_formula_structural   Na2MnInSi2O9
_chemical_formula_sum   'Na4 Mn2 In2 Si4 O18'
_cell_volume   441.89344763
_cell_formula_units_Z   2
loop_
 _symmetry_equiv_pos_site_id
 _symmetry_equiv_pos_as_xyz
  1  'x, y, z'
loop_
 _atom_site_type_symbol
 _atom_site_label
 _atom_site_symmetry_multiplicity
 _atom_site_fract_x
 _atom_site_fract_y
 _atom_site_fract_z
 _atom_site_occupancy
  Na  Na0  1  0.19276600  0.74582100  0.50496600  1
  Na  Na1  1  0.74582100  0.19276600  0.50496600  1
  Na  Na2  1  0.80723400  0.25417900  0.00496600  1
  Na  Na3  1  0.25417900  0.80723400  0.00496600  1
  Mn  Mn4  1  0.35145000  0.35145000  0.09967500  1
  Mn  Mn5  1  0.64855000  0.64855000  0.59967500  1
  In  In6  1  0.96951200  0.96951200  0.00190000  1
  In  In7  1  0.03048800  0.03048800  0.50190000  1
  Si  Si8  1  0.57184200  0.81769800  0.24729000  1
  Si  Si9  1  0.81769800  0.57184200  0.24729000  1
  Si  Si10  1  0.42815800  0.18230200  0.74729000  1
  Si  Si11  1  0.18230200  0.42815800  0.74729000  1
  O  O12  1  0.42870900  0.58747900  0.17312300  1
  O  O13  1  0.58747900  0.42870900  0.17312300  1
  O  O14  1  0.57129100  0.41252100  0.67312300  1
  O  O15  1  0.41252100  0.57129100  0.67312300  1
  O  O16  1  0.69488900  0.85180800  0.43909100  1
  O  O17  1  0.85180800  0.69488900  0.43909100  1
  O  O18  1  0.30511100  0.14819200  0.93909100  1
  O  O19  1  0.14819200  0.30511100  0.93909100  1
  O  O20  1  0.74220500  0.96154600  0.09313300  1
  O  O21  1  0.96154600  0.74220500  0.09313300  1
  O  O22  1  0.25779500  0.03845400  0.59313300  1
  O  O23  1  0.03845400  0.25779500  0.59313300  1
  O  O24  1  0.43333700  0.86993200  0.28069300  1
  O  O25  1  0.86993200  0.43333700  0.28069300  1
  O  O26  1  0.56666300  0.13006800  0.78069300  1
  O  O27  1  0.13006800  0.56666300  0.78069300  1
  O  O28  1  0.84987100  0.84987100  0.73983300  1
  O  O29  1  0.15012900  0.15012900  0.23983300  1
