# generated using pymatgen
data_Na4Hf(S2O9)2
_symmetry_space_group_name_H-M   'P 1'
_cell_length_a   6.88747488
_cell_length_b   6.88747488
_cell_length_c   17.28288954
_cell_angle_alpha   89.94620657
_cell_angle_beta   89.94620657
_cell_angle_gamma   94.51971211
_symmetry_Int_Tables_number   1
_chemical_formula_structural   Na4Hf(S2O9)2
_chemical_formula_sum   'Na8 Hf2 S8 O36'
_cell_volume   817.30349679
_cell_formula_units_Z   2
loop_
 _symmetry_equiv_pos_site_id
 _symmetry_equiv_pos_as_xyz
  1  'x, y, z'
loop_
 _atom_site_type_symbol
 _atom_site_label
 _atom_site_symmetry_multiplicity
 _atom_site_fract_x
 _atom_site_fract_y
 _atom_site_fract_z
 _atom_site_occupancy
  Na  Na0  1  0.84863800  0.48947000  0.40533500  1
  Na  Na1  1  0.48947000  0.84863800  0.90533500  1
  Na  Na2  1  0.15136200  0.51053000  0.59466500  1
  Na  Na3  1  0.51053000  0.15136200  0.09466500  1
  Na  Na4  1  0.64598800  0.84459300  0.55002100  1
  Na  Na5  1  0.84459300  0.64598800  0.05002100  1
  Na  Na6  1  0.35401200  0.15540700  0.44997900  1
  Na  Na7  1  0.15540700  0.35401200  0.94997900  1
  Hf  Hf8  1  0.14221900  0.85778100  0.25000000  1
  Hf  Hf9  1  0.85778100  0.14221900  0.75000000  1
  S  S10  1  0.90084400  0.97872600  0.37453500  1
  S  S11  1  0.97872600  0.90084400  0.87453500  1
  S  S12  1  0.09915600  0.02127400  0.62546500  1
  S  S13  1  0.02127400  0.09915600  0.12546500  1
  S  S14  1  0.65462700  0.38812600  0.58978300  1
  S  S15  1  0.38812600  0.65462700  0.08978300  1
  S  S16  1  0.34537300  0.61187400  0.41021700  1
  S  S17  1  0.61187400  0.34537300  0.91021700  1
  O  O18  1  0.11788800  0.03004100  0.35800400  1
  O  O19  1  0.03004100  0.11788800  0.85800400  1
  O  O20  1  0.84602300  0.86582600  0.29903500  1
  O  O21  1  0.86582600  0.84602300  0.79903500  1
  O  O22  1  0.79317700  0.15093600  0.37819600  1
  O  O23  1  0.15093600  0.79317700  0.87819600  1
  O  O24  1  0.87418200  0.84772700  0.44039700  1
  O  O25  1  0.84772700  0.87418200  0.94039700  1
  O  O26  1  0.96995900  0.88211200  0.14199600  1
  O  O27  1  0.88211200  0.96995900  0.64199600  1
  O  O28  1  0.20682300  0.84906400  0.62180400  1
  O  O29  1  0.84906400  0.20682300  0.12180400  1
  O  O30  1  0.13417400  0.15397700  0.20096500  1
  O  O31  1  0.15397700  0.13417400  0.70096500  1
  O  O32  1  0.12581800  0.15227300  0.55960300  1
  O  O33  1  0.15227300  0.12581800  0.05960300  1
  O  O34  1  0.82011000  0.49321100  0.54967300  1
  O  O35  1  0.49321100  0.82011000  0.04967300  1
  O  O36  1  0.49960300  0.51842800  0.60413900  1
  O  O37  1  0.51842800  0.49960300  0.10413900  1
  O  O38  1  0.58573600  0.20509000  0.55182800  1
  O  O39  1  0.20509000  0.58573600  0.05182800  1
  O  O40  1  0.32925600  0.73127700  0.17078200  1
  O  O41  1  0.73127700  0.32925600  0.67078200  1
  O  O42  1  0.17989000  0.50678900  0.45032700  1
  O  O43  1  0.50678900  0.17989000  0.95032700  1
  O  O44  1  0.41426400  0.79491000  0.44817200  1
  O  O45  1  0.79491000  0.41426400  0.94817200  1
  O  O46  1  0.50039700  0.48157200  0.39586100  1
  O  O47  1  0.48157200  0.50039700  0.89586100  1
  O  O48  1  0.26872300  0.67074400  0.32921800  1
  O  O49  1  0.67074400  0.26872300  0.82921800  1
  O  O50  1  0.42301700  0.00897700  0.23343800  1
  O  O51  1  0.00897700  0.42301700  0.73343800  1
  O  O52  1  0.99102300  0.57698300  0.26656200  1
  O  O53  1  0.57698300  0.99102300  0.76656200  1
