# generated using pymatgen
data_NaNpSeO6
_symmetry_space_group_name_H-M   'P 1'
_cell_length_a   8.41695398
_cell_length_b   8.41695398
_cell_length_c   6.84217823
_cell_angle_alpha   70.39076664
_cell_angle_beta   109.60923336
_cell_angle_gamma   128.81402202
_symmetry_Int_Tables_number   1
_chemical_formula_structural   NaNpSeO6
_chemical_formula_sum   'Na2 Np2 Se2 O12'
_cell_volume   350.57448811
_cell_formula_units_Z   2
loop_
 _symmetry_equiv_pos_site_id
 _symmetry_equiv_pos_as_xyz
  1  'x, y, z'
loop_
 _atom_site_type_symbol
 _atom_site_label
 _atom_site_symmetry_multiplicity
 _atom_site_fract_x
 _atom_site_fract_y
 _atom_site_fract_z
 _atom_site_occupancy
  Na  Na0  1  0.53704800  0.46295200  0.79134200  1
  Na  Na1  1  0.46295200  0.53704800  0.20865800  1
  Np  Np2  1  0.73723900  0.26276100  0.63140400  1
  Np  Np3  1  0.26276100  0.73723900  0.36859600  1
  Se  Se4  1  0.20330300  0.79669700  0.79992800  1
  Se  Se5  1  0.79669700  0.20330300  0.20007200  1
  O  O6  1  0.06847200  0.58530900  0.67536200  1
  O  O7  1  0.41469100  0.93152800  0.67536200  1
  O  O8  1  0.93152800  0.41469100  0.32463800  1
  O  O9  1  0.58530900  0.06847200  0.32463800  1
  O  O10  1  0.86343200  0.13656800  0.76522500  1
  O  O11  1  0.13656800  0.86343200  0.23477500  1
  O  O12  1  0.71061400  0.28938600  0.94972800  1
  O  O13  1  0.28938600  0.71061400  0.05027200  1
  O  O14  1  0.60755400  0.39244600  0.50877300  1
  O  O15  1  0.39244600  0.60755400  0.49122700  1
  O  O16  1  0.29341000  0.29341000  0.00000000  1
  O  O17  1  0.70659000  0.70659000  0.00000000  1
