# generated using pymatgen
data_NaTi2SiO9
_symmetry_space_group_name_H-M   'P 1'
_cell_length_a   7.90517100
_cell_length_b   7.90517100
_cell_length_c   12.37861900
_cell_angle_alpha   90.00000000
_cell_angle_beta   90.00000000
_cell_angle_gamma   90.00000000
_symmetry_Int_Tables_number   1
_chemical_formula_structural   NaTi2SiO9
_chemical_formula_sum   'Na4 Ti8 Si4 O36'
_cell_volume   773.56129824
_cell_formula_units_Z   4
loop_
 _symmetry_equiv_pos_site_id
 _symmetry_equiv_pos_as_xyz
  1  'x, y, z'
loop_
 _atom_site_type_symbol
 _atom_site_label
 _atom_site_symmetry_multiplicity
 _atom_site_fract_x
 _atom_site_fract_y
 _atom_site_fract_z
 _atom_site_occupancy
  Na  Na0  1  0.50000000  0.00000000  0.00000000  1
  Na  Na1  1  0.50000000  0.00000000  0.50000000  1
  Na  Na2  1  0.00000000  0.50000000  0.00000000  1
  Na  Na3  1  0.00000000  0.50000000  0.50000000  1
  Ti  Ti4  1  0.85059500  0.14940500  0.35278300  1
  Ti  Ti5  1  0.14940500  0.85059500  0.35278300  1
  Ti  Ti6  1  0.85059500  0.85059500  0.85278300  1
  Ti  Ti7  1  0.14940500  0.14940500  0.85278300  1
  Ti  Ti8  1  0.85059500  0.14940500  0.64721700  1
  Ti  Ti9  1  0.14940500  0.85059500  0.64721700  1
  Ti  Ti10  1  0.85059500  0.85059500  0.14721700  1
  Ti  Ti11  1  0.14940500  0.14940500  0.14721700  1
  Si  Si12  1  0.50000000  0.00000000  0.25000000  1
  Si  Si13  1  0.50000000  0.00000000  0.75000000  1
  Si  Si14  1  0.00000000  0.50000000  0.25000000  1
  Si  Si15  1  0.00000000  0.50000000  0.75000000  1
  O  O16  1  0.61844400  0.11634600  0.32936800  1
  O  O17  1  0.38155600  0.88365400  0.32936800  1
  O  O18  1  0.61844400  0.88365400  0.82936800  1
  O  O19  1  0.38155600  0.11634600  0.82936800  1
  O  O20  1  0.61844400  0.11634600  0.67063200  1
  O  O21  1  0.38155600  0.88365400  0.67063200  1
  O  O22  1  0.61844400  0.88365400  0.17063200  1
  O  O23  1  0.38155600  0.11634600  0.17063200  1
  O  O24  1  0.11634600  0.61844400  0.32936800  1
  O  O25  1  0.88365400  0.38155600  0.32936800  1
  O  O26  1  0.88365400  0.61844400  0.82936800  1
  O  O27  1  0.11634600  0.38155600  0.82936800  1
  O  O28  1  0.11634600  0.61844400  0.67063200  1
  O  O29  1  0.88365400  0.38155600  0.67063200  1
  O  O30  1  0.88365400  0.61844400  0.17063200  1
  O  O31  1  0.11634600  0.38155600  0.17063200  1
  O  O32  1  0.90047500  0.09952500  0.16819200  1
  O  O33  1  0.09952500  0.90047500  0.16819200  1
  O  O34  1  0.90047500  0.90047500  0.66819200  1
  O  O35  1  0.09952500  0.09952500  0.66819200  1
  O  O36  1  0.90047500  0.09952500  0.83180800  1
  O  O37  1  0.09952500  0.90047500  0.83180800  1
  O  O38  1  0.90047500  0.90047500  0.33180800  1
  O  O39  1  0.09952500  0.09952500  0.33180800  1
  O  O40  1  0.84795600  0.15204400  0.50000000  1
  O  O41  1  0.15204400  0.84795600  0.50000000  1
  O  O42  1  0.84795600  0.84795600  0.00000000  1
  O  O43  1  0.15204400  0.15204400  0.00000000  1
  O  O44  1  0.75827600  0.24172400  0.00000000  1
  O  O45  1  0.24172400  0.75827600  0.00000000  1
  O  O46  1  0.75827600  0.75827600  0.50000000  1
  O  O47  1  0.24172400  0.24172400  0.50000000  1
  O  O48  1  0.50000000  0.50000000  0.45039300  1
  O  O49  1  0.50000000  0.50000000  0.95039300  1
  O  O50  1  0.50000000  0.50000000  0.54960700  1
  O  O51  1  0.50000000  0.50000000  0.04960700  1
