# generated using pymatgen
data_Na2GeO10
_symmetry_space_group_name_H-M   'P 1'
_cell_length_a   19.02222500
_cell_length_b   5.28551000
_cell_length_c   8.82706350
_cell_angle_alpha   70.05704229
_cell_angle_beta   90.00000000
_cell_angle_gamma   90.00000000
_symmetry_Int_Tables_number   1
_chemical_formula_structural   Na2GeO10
_chemical_formula_sum   'Na8 Ge4 O40'
_cell_volume   834.27150003
_cell_formula_units_Z   4
loop_
 _symmetry_equiv_pos_site_id
 _symmetry_equiv_pos_as_xyz
  1  'x, y, z'
loop_
 _atom_site_type_symbol
 _atom_site_label
 _atom_site_symmetry_multiplicity
 _atom_site_fract_x
 _atom_site_fract_y
 _atom_site_fract_z
 _atom_site_occupancy
  Na  Na0  1  0.22989200  0.70187600  0.70650400  1
  Na  Na1  1  0.72989200  0.29812400  0.79349600  1
  Na  Na2  1  0.77010800  0.29812400  0.29349600  1
  Na  Na3  1  0.27010800  0.70187600  0.20650400  1
  Na  Na4  1  0.40420200  0.90768800  0.48215800  1
  Na  Na5  1  0.90420200  0.09231200  0.01784200  1
  Na  Na6  1  0.59579800  0.09231200  0.51784200  1
  Na  Na7  1  0.09579800  0.90768800  0.98215800  1
  Ge  Ge8  1  0.89917500  0.73460300  0.64760800  1
  Ge  Ge9  1  0.39917500  0.26539700  0.85239200  1
  Ge  Ge10  1  0.10082500  0.26539700  0.35239200  1
  Ge  Ge11  1  0.60082500  0.73460300  0.14760800  1
  O  O12  1  0.90038500  0.10986700  0.60764200  1
  O  O13  1  0.40038500  0.89013300  0.89235800  1
  O  O14  1  0.09961500  0.89013300  0.39235800  1
  O  O15  1  0.59961500  0.10986700  0.10764200  1
  O  O16  1  0.83639200  0.52236000  0.74450800  1
  O  O17  1  0.33639200  0.47764000  0.75549200  1
  O  O18  1  0.16360800  0.47764000  0.25549200  1
  O  O19  1  0.66360800  0.52236000  0.24450800  1
  O  O20  1  0.92362800  0.76305900  0.42640000  1
  O  O21  1  0.42362800  0.23694100  0.07360000  1
  O  O22  1  0.07637200  0.23694100  0.57360000  1
  O  O23  1  0.57637200  0.76305900  0.92640000  1
  O  O24  1  0.98881700  0.67733500  0.75659100  1
  O  O25  1  0.48881700  0.32266500  0.74340900  1
  O  O26  1  0.01118300  0.32266500  0.24340900  1
  O  O27  1  0.51118300  0.67733500  0.25659100  1
  O  O28  1  0.79066000  0.68434500  0.99617600  1
  O  O29  1  0.29066000  0.31565500  0.50382400  1
  O  O30  1  0.20934000  0.31565500  0.00382400  1
  O  O31  1  0.70934000  0.68434500  0.49617600  1
  O  O32  1  0.84253600  0.22304500  0.52555300  1
  O  O33  1  0.34253600  0.77695500  0.97444700  1
  O  O34  1  0.15746400  0.77695500  0.47444700  1
  O  O35  1  0.65746400  0.22304500  0.02555300  1
  O  O36  1  0.69947800  0.95166500  0.43776800  1
  O  O37  1  0.19947800  0.04833500  0.06223200  1
  O  O38  1  0.30052200  0.04833500  0.56223200  1
  O  O39  1  0.80052200  0.95166500  0.93776800  1
  O  O40  1  0.98387800  0.78783500  0.87387700  1
  O  O41  1  0.48387800  0.21216500  0.62612300  1
  O  O42  1  0.01612200  0.21216500  0.12612300  1
  O  O43  1  0.51612200  0.78783500  0.37387700  1
  O  O44  1  0.34496000  0.45041600  0.41274800  1
  O  O45  1  0.84496000  0.54958400  0.08725200  1
  O  O46  1  0.65504000  0.54958400  0.58725200  1
  O  O47  1  0.15504000  0.45041600  0.91274800  1
  O  O48  1  0.88181900  0.93304000  0.31810900  1
  O  O49  1  0.38181900  0.06696000  0.18189100  1
  O  O50  1  0.11818100  0.06696000  0.68189100  1
  O  O51  1  0.61818100  0.93304000  0.81810900  1
