# generated using pymatgen
data_Na3Sr4Cr5F26
_symmetry_space_group_name_H-M   'P 1'
_cell_length_a   7.58799240
_cell_length_b   10.84831447
_cell_length_c   28.07901762
_cell_angle_alpha   86.05131602
_cell_angle_beta   82.19925608
_cell_angle_gamma   69.50674283
_symmetry_Int_Tables_number   1
_chemical_formula_structural   Na3Sr4Cr5F26
_chemical_formula_sum   'Na12 Sr16 Cr20 F104'
_cell_volume   2144.49608091
_cell_formula_units_Z   4
loop_
 _symmetry_equiv_pos_site_id
 _symmetry_equiv_pos_as_xyz
  1  'x, y, z'
loop_
 _atom_site_type_symbol
 _atom_site_label
 _atom_site_symmetry_multiplicity
 _atom_site_fract_x
 _atom_site_fract_y
 _atom_site_fract_z
 _atom_site_occupancy
  Na  Na0  1  0.88946516  0.37371830  0.37374579  1
  Na  Na1  1  0.99584777  0.75210971  0.75077893  1
  Na  Na2  1  0.24806438  0.50523938  0.50199524  1
  Na  Na3  1  0.12960865  0.12727210  0.12665126  1
  Na  Na4  1  0.12144882  0.62715719  0.62611590  1
  Na  Na5  1  0.86916495  0.87139980  0.87358357  1
  Na  Na6  1  0.49933035  0.74989252  0.74948740  1
  Na  Na7  1  0.75582469  0.99339043  0.99675183  1
  Na  Na8  1  0.49683757  0.24945087  0.25099554  1
  Na  Na9  1  0.25088403  0.00222483  0.00323059  1
  Na  Na10  1  0.75536740  0.49742797  0.49850676  1
  Na  Na11  1  0.00700590  0.24992887  0.25000929  1
  Sr  Sr12  1  0.98356453  0.36461414  0.74633922  1
  Sr  Sr13  1  0.01441306  0.63603508  0.25382744  1
  Sr  Sr14  1  0.40177072  0.86211607  0.24584037  1
  Sr  Sr15  1  0.57872631  0.23954295  0.59318925  1
  Sr  Sr16  1  0.59729359  0.13664473  0.75296418  1
  Sr  Sr17  1  0.29462799  0.47318404  0.84972298  1
  Sr  Sr18  1  0.68346252  0.63419319  0.99388493  1
  Sr  Sr19  1  0.12159704  0.02527002  0.65026247  1
  Sr  Sr20  1  0.18630552  0.13499283  0.49348383  1
  Sr  Sr21  1  0.81349162  0.86671719  0.50633931  1
  Sr  Sr22  1  0.70315188  0.52627556  0.15054736  1
  Sr  Sr23  1  0.09002309  0.73900434  0.09323528  1
  Sr  Sr24  1  0.91427716  0.25736609  0.90655554  1
  Sr  Sr25  1  0.88043944  0.97434536  0.34975222  1
  Sr  Sr26  1  0.31335099  0.36531407  0.00637583  1
  Sr  Sr27  1  0.41933811  0.76165330  0.40657441  1
  Cr  Cr28  1  0.40178787  0.46747677  0.72030868  1
  Cr  Cr29  1  0.63680900  0.61249715  0.61292581  1
  Cr  Cr30  1  0.59730195  0.53218630  0.27977599  1
  Cr  Cr31  1  0.07043599  0.33058273  0.60099912  1
  Cr  Cr32  1  0.12930673  0.69937881  0.96565328  1
  Cr  Cr33  1  0.71011438  0.91294650  0.65696777  1
  Cr  Cr34  1  0.70690566  0.19953443  0.46565182  1
  Cr  Cr35  1  0.63863622  0.11231142  0.11243657  1
  Cr  Cr36  1  0.50472946  0.16658727  0.89892297  1
  Cr  Cr37  1  0.49794913  0.83189721  0.10022038  1
  Cr  Cr38  1  0.86853680  0.30183739  0.03478604  1
  Cr  Cr39  1  0.21947936  0.41270070  0.15677871  1
  Cr  Cr40  1  0.36067312  0.88729832  0.88710829  1
  Cr  Cr41  1  0.36520219  0.38763253  0.38698462  1
  Cr  Cr42  1  0.90550041  0.96741350  0.22061076  1
  Cr  Cr43  1  0.77751854  0.58708699  0.84313311  1
  Cr  Cr44  1  0.92999783  0.66788219  0.39989938  1
  Cr  Cr45  1  0.29098422  0.08771824  0.34275978  1
  Cr  Cr46  1  0.09286963  0.03197952  0.77936548  1
  Cr  Cr47  1  0.29644373  0.80193549  0.53423578  1
  F  F48  1  0.67480431  0.39370361  0.23217878  1
  F  F49  1  0.39696988  0.52696980  0.41768001  1
  F  F50  1  0.93903789  0.13980001  0.73160376  1
  F  F51  1  0.75870975  0.72862166  0.10773694  1
  F  F52  1  0.98460099  0.42165058  0.83415132  1
  F  F53  1  0.97212274  0.66898100  0.84062932  1
  F  F54  1  0.23607775  0.92553821  0.09047155  1
  F  F55  1  0.85553941  0.46222838  0.29715317  1
  F  F56  1  0.30876573  0.35934440  0.76818202  1
  F  F57  1  0.53067263  0.11112056  0.48796342  1
  F  F58  1  0.39311373  0.73775185  0.59742547  1
  F  F59  1  0.22079921  0.76545381  0.90212893  1
  F  F60  1  0.77133979  0.54801327  0.91098492  1
  F  F61  1  0.76635917  0.07310919  0.90864676  1
  F  F62  1  0.26748563  0.04962467  0.41065394  1
  F  F63  1  0.02297590  0.33178157  0.16028859  1
  F  F64  1  0.72131756  0.88255767  0.24216194  1
  F  F65  1  0.41957078  0.23934642  0.15107361  1
  F  F66  1  0.12220833  0.50876735  0.36878037  1
  F  F67  1  0.09486366  0.77154089  0.39240945  1
  F  F68  1  0.72241834  0.82377565  0.42257762  1
  F  F69  1  0.24941905  0.42327646  0.59160156  1
  F  F70  1  0.02435924  0.62412642  0.02157503  1
  F  F71  1  0.32434714  0.60488886  0.76843008  1
  F  F72  1  0.56213550  0.22589786  0.83363323  1
  F  F73  1  0.34875488  0.61382117  0.25850980  1
  F  F74  1  0.24279421  0.26836489  0.89158327  1
  F  F75  1  0.02497328  0.36842428  0.53488042  1
  F  F76  1  0.84192832  0.97282352  0.08206102  1
  F  F77  1  0.39582878  0.50160147  0.15810751  1
  F  F78  1  0.52075193  0.16314895  0.05573496  1
  F  F79  1  0.22709096  0.45190485  0.08892336  1
  F  F80  1  0.16868043  0.53924808  0.93237258  1
  F  F81  1  0.31761707  0.25972352  0.34746935  1
  F  F82  1  0.15588750  0.02650134  0.91671175  1
  F  F83  1  0.12542823  0.21557935  0.05066288  1
  F  F84  1  0.47420033  0.88919088  0.51330053  1
  F  F85  1  0.14443379  0.54097666  0.70286185  1
  F  F86  1  0.76028719  0.66214314  0.55589734  1
  F  F87  1  0.75120793  0.57523239  0.40963238  1
  F  F88  1  0.01785779  0.17142234  0.33880233  1
  F  F89  1  0.60979605  0.26414296  0.40248742  1
  F  F90  1  0.79542981  0.61011032  0.77236108  1
  F  F91  1  0.20323839  0.38982511  0.22744783  1
  F  F92  1  0.68158785  0.74144299  0.65236769  1
  F  F93  1  0.89688185  0.28210263  0.44887801  1
  F  F94  1  0.73225486  0.95252991  0.58907909  1
  F  F95  1  0.82730680  0.46353512  0.06730905  1
  F  F96  1  0.49811236  0.99182391  0.13052629  1
  F  F97  1  0.74439014  0.07773313  0.66605824  1
  F  F98  1  0.87811866  0.49069890  0.63151752  1
  F  F99  1  0.97996406  0.62677569  0.46562873  1
  F  F100  1  0.10600419  0.71917255  0.55070501  1
  F  F101  1  0.17083071  0.87782342  0.47847332  1
  F  F102  1  0.97839468  0.37599056  0.97917295  1
  F  F103  1  0.50489187  0.00569472  0.86872776  1
  F  F104  1  0.60110344  0.47396969  0.58290939  1
  F  F105  1  0.25112332  0.91660790  0.82504794  1
  F  F106  1  0.52244613  0.67770062  0.32228931  1
  F  F107  1  0.14427695  0.96277531  0.56714907  1
  F  F108  1  0.89062579  0.95889105  0.79667690  1
  F  F109  1  0.57474647  0.75863612  0.84813116  1
  F  F110  1  0.55442571  0.34790516  0.50485424  1
  F  F111  1  0.55726236  0.99975219  0.34200361  1
  F  F112  1  0.37242064  0.61107020  0.98717425  1
  F  F113  1  0.74913894  0.08375098  0.17452733  1
  F  F114  1  0.05833693  0.86138769  0.26896627  1
  F  F115  1  0.09853357  0.84696016  0.00465174  1
  F  F116  1  0.44682165  0.65293359  0.49515342  1
  F  F117  1  0.90472547  0.22777318  0.60824784  1
  F  F118  1  0.27907048  0.17444396  0.57933387  1
  F  F119  1  0.87120083  0.78381770  0.95024203  1
  F  F120  1  0.01380939  0.57864038  0.16580984  1
  F  F121  1  0.83385984  0.12535455  0.52137333  1
  F  F122  1  0.47362398  0.32210623  0.67779893  1
  F  F123  1  0.98319438  0.82909945  0.66015442  1
  F  F124  1  0.32547705  0.10622739  0.27196334  1
  F  F125  1  0.25622910  0.92289985  0.33411611  1
  F  F126  1  0.90029426  0.15396288  0.99570048  1
  F  F127  1  0.43757832  0.77131492  0.16512850  1
  F  F128  1  0.02615723  0.82243051  0.17817920  1
  F  F129  1  0.12092488  0.27100590  0.66632271  1
  F  F130  1  0.77671102  0.23549717  0.09799041  1
  F  F131  1  0.87733069  0.72813603  0.33487946  1
  F  F132  1  0.64936400  0.38744640  0.74192158  1
  F  F133  1  0.57224552  0.87062429  0.03416173  1
  F  F134  1  0.53354215  0.32369215  0.92040370  1
  F  F135  1  0.51003448  0.41536897  0.32506128  1
  F  F136  1  0.10944774  0.03897304  0.20302941  1
  F  F137  1  0.62409088  0.39047643  0.01381660  1
  F  F138  1  0.28031713  0.11312290  0.75749605  1
  F  F139  1  0.24246701  0.33525832  0.44349884  1
  F  F140  1  0.47442200  0.83847983  0.94451248  1
  F  F141  1  0.43066184  0.13011292  0.96519989  1
  F  F142  1  0.44375606  0.00195195  0.65835832  1
  F  F143  1  0.97415964  0.17753408  0.82166482  1
  F  F144  1  0.79575321  0.10542608  0.26837679  1
  F  F145  1  0.59779634  0.50170939  0.84135919  1
  F  F146  1  0.67891617  0.89202930  0.72768503  1
  F  F147  1  0.46754955  0.67635781  0.07793567  1
  F  F148  1  0.48839280  0.58348099  0.67427276  1
  F  F149  1  0.69108407  0.63829298  0.23132403  1
  F  F150  1  0.20263814  0.89294045  0.73177451  1
  F  F151  1  0.86096898  0.03895865  0.43264109  1
