# generated using pymatgen
data_Na2ZrP2O11
_symmetry_space_group_name_H-M   'P 1'
_cell_length_a   5.35691700
_cell_length_b   8.90205805
_cell_length_c   10.96007933
_cell_angle_alpha   71.14566964
_cell_angle_beta   88.12891105
_cell_angle_gamma   88.87006419
_symmetry_Int_Tables_number   1
_chemical_formula_structural   Na2ZrP2O11
_chemical_formula_sum   'Na4 Zr2 P4 O22'
_cell_volume   494.32855859
_cell_formula_units_Z   2
loop_
 _symmetry_equiv_pos_site_id
 _symmetry_equiv_pos_as_xyz
  1  'x, y, z'
loop_
 _atom_site_type_symbol
 _atom_site_label
 _atom_site_symmetry_multiplicity
 _atom_site_fract_x
 _atom_site_fract_y
 _atom_site_fract_z
 _atom_site_occupancy
  Na  Na0  1  0.95197400  0.05189500  0.67964600  1
  Na  Na1  1  0.51456500  0.33589400  0.82814300  1
  Na  Na2  1  0.98708900  0.93159000  0.34122800  1
  Na  Na3  1  0.52522500  0.68349300  0.41018100  1
  Zr  Zr4  1  0.02093800  0.99948900  0.00328500  1
  Zr  Zr5  1  0.47578500  0.48895700  0.08474200  1
  P  P6  1  0.52389800  0.88707000  0.85545800  1
  P  P7  1  0.96258600  0.61712300  0.22462700  1
  P  P8  1  0.50651700  0.06165100  0.19710900  1
  P  P9  1  0.99541700  0.41666300  0.89019800  1
  O  O10  1  0.70980800  0.00978000  0.87995300  1
  O  O11  1  0.25510500  0.96246300  0.84981300  1
  O  O12  1  0.52597200  0.72811400  0.96689900  1
  O  O13  1  0.61402400  0.87932900  0.72327100  1
  O  O14  1  0.20142200  0.51871000  0.21628200  1
  O  O15  1  0.72390500  0.52395200  0.21646900  1
  O  O16  1  0.97239200  0.76605900  0.10065900  1
  O  O17  1  0.95079100  0.66426400  0.34695700  1
  O  O18  1  0.30316000  0.99729700  0.12865900  1
  O  O19  1  0.76205000  0.06160200  0.12457800  1
  O  O20  1  0.43904600  0.23868900  0.18126000  1
  O  O21  1  0.52523500  0.95498000  0.33580500  1
  O  O22  1  0.75924400  0.41340100  0.97866900  1
  O  O23  1  0.21972600  0.48945700  0.93753900  1
  O  O24  1  0.08575000  0.24033000  0.90791800  1
  O  O25  1  0.92582900  0.48885700  0.75034300  1
  O  O26  1  0.02006200  0.21694200  0.25257100  1
  O  O27  1  0.48794300  0.28229300  0.58396800  1
  O  O28  1  0.32572900  0.38628800  0.54102600  1
  O  O29  1  0.16270500  0.78862200  0.64872600  1
  O  O30  1  0.11508200  0.91775100  0.54663200  1
  O  O31  1  0.38202700  0.72879300  0.64958600  1
