# generated using pymatgen
data_LaCoO3
_symmetry_space_group_name_H-M   'P 1'
_cell_length_a   5.49096894
_cell_length_b   5.54274200
_cell_length_c   5.54944390
_cell_angle_alpha   89.77763317
_cell_angle_beta   120.72080986
_cell_angle_gamma   119.41185528
_symmetry_Int_Tables_number   1
_chemical_formula_structural   LaCoO3
_chemical_formula_sum   'La2 Co2 O6'
_cell_volume   119.40413725
_cell_formula_units_Z   2
loop_
 _symmetry_equiv_pos_site_id
 _symmetry_equiv_pos_as_xyz
  1  'x, y, z'
loop_
 _atom_site_type_symbol
 _atom_site_label
 _atom_site_symmetry_multiplicity
 _atom_site_fract_x
 _atom_site_fract_y
 _atom_site_fract_z
 _atom_site_occupancy
  La  La0  1  0.50571300  0.75495800  0.25013500  1
  La  La1  1  0.49427500  0.24504400  0.74985400  1
  Co  Co2  1  0.99999200  0.00000100  0.99999400  1
  Co  Co3  1  0.99999200  0.50000000  0.49999400  1
  O  O4  1  0.99425600  0.20718300  0.69887800  1
  O  O5  1  0.00573200  0.79281900  0.30111100  1
  O  O6  1  0.52200600  0.80306700  0.80483700  1
  O  O7  1  0.47797700  0.19693100  0.19515300  1
  O  O8  1  0.07750400  0.33051300  0.25039500  1
  O  O9  1  0.92247100  0.66948500  0.74958500  1
