# generated using pymatgen
data_Mg2Cu2CO11
_symmetry_space_group_name_H-M   'P 1'
_cell_length_a   7.68740461
_cell_length_b   7.68740461
_cell_length_c   7.15082042
_cell_angle_alpha   87.03133299
_cell_angle_beta   87.03133299
_cell_angle_gamma   91.66012142
_symmetry_Int_Tables_number   1
_chemical_formula_structural   Mg2Cu2CO11
_chemical_formula_sum   'Mg4 Cu4 C2 O22'
_cell_volume   421.24046803
_cell_formula_units_Z   2
loop_
 _symmetry_equiv_pos_site_id
 _symmetry_equiv_pos_as_xyz
  1  'x, y, z'
loop_
 _atom_site_type_symbol
 _atom_site_label
 _atom_site_symmetry_multiplicity
 _atom_site_fract_x
 _atom_site_fract_y
 _atom_site_fract_z
 _atom_site_occupancy
  Mg  Mg0  1  0.17971600  0.48296000  0.29237200  1
  Mg  Mg1  1  0.51704000  0.82028400  0.20762800  1
  Mg  Mg2  1  0.82028400  0.51704000  0.70762800  1
  Mg  Mg3  1  0.48296000  0.17971600  0.79237200  1
  Cu  Cu4  1  0.10130000  0.78830500  0.53869500  1
  Cu  Cu5  1  0.21169500  0.89870000  0.96130500  1
  Cu  Cu6  1  0.89870000  0.21169500  0.46130500  1
  Cu  Cu7  1  0.78830500  0.10130000  0.03869500  1
  C  C8  1  0.56796900  0.43203100  0.25000000  1
  C  C9  1  0.43203100  0.56796900  0.75000000  1
  O  O10  1  0.40448100  0.38409900  0.26762000  1
  O  O11  1  0.61590100  0.59551900  0.23238000  1
  O  O12  1  0.59551900  0.61590100  0.73238000  1
  O  O13  1  0.38409900  0.40448100  0.76762000  1
  O  O14  1  0.68481900  0.31518100  0.25000000  1
  O  O15  1  0.31518100  0.68481900  0.75000000  1
  O  O16  1  0.22261900  0.72181300  0.15814500  1
  O  O17  1  0.27818700  0.77738100  0.34185500  1
  O  O18  1  0.77738100  0.27818700  0.84185500  1
  O  O19  1  0.72181300  0.22261900  0.65814500  1
  O  O20  1  0.84608300  0.97742000  0.40750200  1
  O  O21  1  0.02258000  0.15391700  0.09249800  1
  O  O22  1  0.15391700  0.02258000  0.59249800  1
  O  O23  1  0.97742000  0.84608300  0.90750200  1
  O  O24  1  0.97238500  0.58411200  0.45129600  1
  O  O25  1  0.41588800  0.02761500  0.04870400  1
  O  O26  1  0.02761500  0.41588800  0.54870400  1
  O  O27  1  0.58411200  0.97238500  0.95129600  1
  O  O28  1  0.03740400  0.26235200  0.23442200  1
  O  O29  1  0.73764800  0.96259600  0.26557800  1
  O  O30  1  0.96259600  0.73764800  0.76557800  1
  O  O31  1  0.26235200  0.03740400  0.73442200  1
