# generated using pymatgen
data_NaY(C2O5)2
_symmetry_space_group_name_H-M   'P 1'
_cell_length_a   6.43647836
_cell_length_b   11.62188300
_cell_length_c   6.45635299
_cell_angle_alpha   90.00000000
_cell_angle_beta   90.20675939
_cell_angle_gamma   90.00000000
_symmetry_Int_Tables_number   1
_chemical_formula_structural   NaY(C2O5)2
_chemical_formula_sum   'Na2 Y2 C8 O20'
_cell_volume   482.95787462
_cell_formula_units_Z   2
loop_
 _symmetry_equiv_pos_site_id
 _symmetry_equiv_pos_as_xyz
  1  'x, y, z'
loop_
 _atom_site_type_symbol
 _atom_site_label
 _atom_site_symmetry_multiplicity
 _atom_site_fract_x
 _atom_site_fract_y
 _atom_site_fract_z
 _atom_site_occupancy
  Na  Na0  1  0.89166200  0.23690600  0.06160100  1
  Na  Na1  1  0.10833800  0.73690600  0.93839900  1
  Y  Y2  1  0.84123300  0.47705400  0.73224200  1
  Y  Y3  1  0.15876700  0.97705400  0.26775800  1
  C  C4  1  0.32920100  0.38631900  0.80920600  1
  C  C5  1  0.67079900  0.88631900  0.19079400  1
  C  C6  1  0.93874800  0.51705500  0.24429400  1
  C  C7  1  0.06125200  0.01705500  0.75570600  1
  C  C8  1  0.89617200  0.18667300  0.58171700  1
  C  C9  1  0.10382800  0.68667300  0.41828300  1
  C  C10  1  0.62470900  0.72711800  0.92764800  1
  C  C11  1  0.37529100  0.22711800  0.07235200  1
  O  O12  1  0.51644100  0.41495000  0.81270000  1
  O  O13  1  0.48355900  0.91495000  0.18730000  1
  O  O14  1  0.18566000  0.43317700  0.70607100  1
  O  O15  1  0.81434000  0.93317700  0.29393000  1
  O  O16  1  0.08449300  0.60431600  0.24877500  1
  O  O17  1  0.91550700  0.10431600  0.75122500  1
  O  O18  1  0.94237400  0.45818800  0.07954500  1
  O  O19  1  0.05762600  0.95818800  0.92045500  1
  O  O20  1  0.83158300  0.28065300  0.65275900  1
  O  O21  1  0.16841700  0.78065300  0.34724100  1
  O  O22  1  0.93595800  0.15614000  0.40234600  1
  O  O23  1  0.06404200  0.65614000  0.59765400  1
  O  O24  1  0.44800900  0.75307600  0.87656100  1
  O  O25  1  0.55199100  0.25307600  0.12343900  1
  O  O26  1  0.74170400  0.64587600  0.86445400  1
  O  O27  1  0.25829600  0.14587600  0.13554600  1
  O  O28  1  0.81517300  0.50312300  0.39243800  1
  O  O29  1  0.18482700  0.00312300  0.60756200  1
  O  O30  1  0.74263500  0.79247600  0.07628400  1
  O  O31  1  0.25736500  0.29247600  0.92371600  1
