# generated using pymatgen
data_LaMnO3
_symmetry_space_group_name_H-M   'P 1'
_cell_length_a   5.56354300
_cell_length_b   5.56517400
_cell_length_c   8.03170200
_cell_angle_alpha   90.00000000
_cell_angle_beta   90.00000000
_cell_angle_gamma   90.00000000
_symmetry_Int_Tables_number   1
_chemical_formula_structural   LaMnO3
_chemical_formula_sum   'La4 Mn4 O12'
_cell_volume   248.67823883
_cell_formula_units_Z   4
loop_
 _symmetry_equiv_pos_site_id
 _symmetry_equiv_pos_as_xyz
  1  'x, y, z'
loop_
 _atom_site_type_symbol
 _atom_site_label
 _atom_site_symmetry_multiplicity
 _atom_site_fract_x
 _atom_site_fract_y
 _atom_site_fract_z
 _atom_site_occupancy
  La  La0  1  0.50258400  0.00651100  0.25000000  1
  La  La1  1  0.99741600  0.50651100  0.25000000  1
  La  La2  1  0.49741600  0.99348900  0.75000000  1
  La  La3  1  0.00258400  0.49348900  0.75000000  1
  Mn  Mn4  1  0.50000000  0.50000000  0.00000000  1
  Mn  Mn5  1  0.00000000  0.00000000  0.50000000  1
  Mn  Mn6  1  0.50000000  0.50000000  0.50000000  1
  Mn  Mn7  1  0.00000000  0.00000000  0.00000000  1
  O  O8  1  0.50136200  0.49557100  0.25000000  1
  O  O9  1  0.99863800  0.99557100  0.25000000  1
  O  O10  1  0.49863800  0.50442900  0.75000000  1
  O  O11  1  0.00136200  0.00442900  0.75000000  1
  O  O12  1  0.69670800  0.80346800  0.00071200  1
  O  O13  1  0.80329200  0.30346800  0.49928800  1
  O  O14  1  0.30329200  0.19653200  0.50071200  1
  O  O15  1  0.19670800  0.69653200  0.99928800  1
  O  O16  1  0.30329200  0.19653200  0.99928800  1
  O  O17  1  0.19670800  0.69653200  0.50071200  1
  O  O18  1  0.69670800  0.80346800  0.49928800  1
  O  O19  1  0.80329200  0.30346800  0.00071200  1
