# generated using pymatgen
data_Mn(BO4)4
_symmetry_space_group_name_H-M   'P 1'
_cell_length_a   7.09128100
_cell_length_b   8.07001481
_cell_length_c   11.03758289
_cell_angle_alpha   97.23896965
_cell_angle_beta   101.80538198
_cell_angle_gamma   101.65192277
_symmetry_Int_Tables_number   1
_chemical_formula_structural   Mn(BO4)4
_chemical_formula_sum   'Mn2 B8 O32'
_cell_volume   596.24818430
_cell_formula_units_Z   2
loop_
 _symmetry_equiv_pos_site_id
 _symmetry_equiv_pos_as_xyz
  1  'x, y, z'
loop_
 _atom_site_type_symbol
 _atom_site_label
 _atom_site_symmetry_multiplicity
 _atom_site_fract_x
 _atom_site_fract_y
 _atom_site_fract_z
 _atom_site_occupancy
  Mn  Mn0  1  0.64547000  0.87402300  0.79233600  1
  Mn  Mn1  1  0.35453000  0.12597700  0.20766400  1
  B  B2  1  0.00871800  0.21912100  0.59065500  1
  B  B3  1  0.99128200  0.78087900  0.40934500  1
  B  B4  1  0.18694800  0.46641800  0.90612600  1
  B  B5  1  0.81305200  0.53358200  0.09387400  1
  B  B6  1  0.31213000  0.27605300  0.76489800  1
  B  B7  1  0.68787000  0.72394700  0.23510200  1
  B  B8  1  0.97770000  0.18168800  0.80514700  1
  B  B9  1  0.02230000  0.81831200  0.19485300  1
  O  O10  1  0.93121900  0.19186800  0.46422900  1
  O  O11  1  0.06878100  0.80813200  0.53577100  1
  O  O12  1  0.21257600  0.28438100  0.63292400  1
  O  O13  1  0.78742400  0.71561900  0.36707600  1
  O  O14  1  0.33315900  0.43905400  0.84490200  1
  O  O15  1  0.66684100  0.56094600  0.15509800  1
  O  O16  1  0.22567800  0.62496900  0.97998100  1
  O  O17  1  0.77432200  0.37503100  0.02001900  1
  O  O18  1  0.01168500  0.34425900  0.88884800  1
  O  O19  1  0.98831500  0.65574100  0.11115200  1
  O  O20  1  0.86147000  0.04042400  0.85361300  1
  O  O21  1  0.13853000  0.95957600  0.14638700  1
  O  O22  1  0.88750500  0.18488400  0.67229500  1
  O  O23  1  0.11249500  0.81511600  0.32770500  1
  O  O24  1  0.50631400  0.23621000  0.77527300  1
  O  O25  1  0.49368600  0.76379000  0.22472700  1
  O  O26  1  0.17230800  0.13932900  0.80512100  1
  O  O27  1  0.82769200  0.86067100  0.19487900  1
  O  O28  1  0.58448400  0.84843400  0.44792900  1
  O  O29  1  0.41551600  0.15156600  0.55207100  1
  O  O30  1  0.57323000  0.65845900  0.65818000  1
  O  O31  1  0.42677000  0.34154100  0.34182000  1
  O  O32  1  0.59235200  0.79973300  0.91068700  1
  O  O33  1  0.40764800  0.20026700  0.08931300  1
  O  O34  1  0.76160900  0.73739600  0.68575900  1
  O  O35  1  0.23839100  0.26260400  0.31424100  1
  O  O36  1  0.47983500  0.96105300  0.71792700  1
  O  O37  1  0.52016500  0.03894700  0.28207300  1
  O  O38  1  0.64519600  0.34902800  0.64100300  1
  O  O39  1  0.35480400  0.65097200  0.35899700  1
  O  O40  1  0.88001300  0.07038900  0.11501300  1
  O  O41  1  0.11998700  0.92961100  0.88498700  1
