# generated using pymatgen
data_NpNO5
_symmetry_space_group_name_H-M   'P 1'
_cell_length_a   9.70355680
_cell_length_b   7.43607085
_cell_length_c   8.87805100
_cell_angle_alpha   90.00000000
_cell_angle_beta   90.00000000
_cell_angle_gamma   128.52800711
_symmetry_Int_Tables_number   1
_chemical_formula_structural   NpNO5
_chemical_formula_sum   'Np4 N4 O20'
_cell_volume   501.14976264
_cell_formula_units_Z   4
loop_
 _symmetry_equiv_pos_site_id
 _symmetry_equiv_pos_as_xyz
  1  'x, y, z'
loop_
 _atom_site_type_symbol
 _atom_site_label
 _atom_site_symmetry_multiplicity
 _atom_site_fract_x
 _atom_site_fract_y
 _atom_site_fract_z
 _atom_site_occupancy
  Np  Np0  1  0.60365800  0.95414400  0.49898400  1
  Np  Np1  1  0.39634200  0.04585600  0.99898400  1
  Np  Np2  1  0.61683100  0.45930900  0.70941600  1
  Np  Np3  1  0.38316900  0.54069100  0.20941600  1
  N  N4  1  0.79711200  0.90899500  0.94002400  1
  N  N5  1  0.20288800  0.09100500  0.44002400  1
  N  N6  1  0.21279000  0.60926000  0.78244800  1
  N  N7  1  0.78721000  0.39074000  0.28244800  1
  O  O8  1  0.33161100  0.31963800  0.39694400  1
  O  O9  1  0.66838900  0.68036200  0.89694400  1
  O  O10  1  0.83219000  0.15246300  0.54501100  1
  O  O11  1  0.16781000  0.84753700  0.04501100  1
  O  O12  1  0.58204400  0.21013000  0.56577000  1
  O  O13  1  0.41795600  0.78987000  0.06577000  1
  O  O14  1  0.58667500  0.69648500  0.59458700  1
  O  O15  1  0.41332500  0.30351500  0.09458700  1
  O  O16  1  0.84334900  0.65411500  0.65734500  1
  O  O17  1  0.15665100  0.34588500  0.15734500  1
  O  O18  1  0.34276600  0.81512600  0.74681400  1
  O  O19  1  0.65723400  0.18487400  0.24681400  1
  O  O20  1  0.38816000  0.24691400  0.77552000  1
  O  O21  1  0.61184000  0.75308600  0.27552000  1
  O  O22  1  0.79858300  0.04714300  0.87057600  1
  O  O23  1  0.20141700  0.95285700  0.37057600  1
  O  O24  1  0.62080400  0.24450400  0.91702300  1
  O  O25  1  0.37919600  0.75549600  0.41702300  1
  O  O26  1  0.19629100  0.44116800  0.74553700  1
  O  O27  1  0.80370900  0.55883200  0.24553700  1
