# generated using pymatgen
data_Mg2Si
_symmetry_space_group_name_H-M   'P 1'
_cell_length_a   10.73553900
_cell_length_b   19.94258200
_cell_length_c   23.15659300
_cell_angle_alpha   90.00000000
_cell_angle_beta   90.00000000
_cell_angle_gamma   90.00000000
_symmetry_Int_Tables_number   1
_chemical_formula_structural   Mg2Si
_chemical_formula_sum   'Mg8 Si4'
_cell_volume   4957.69611608
_cell_formula_units_Z   4
loop_
 _symmetry_equiv_pos_site_id
 _symmetry_equiv_pos_as_xyz
  1  'x, y, z'
loop_
 _atom_site_type_symbol
 _atom_site_label
 _atom_site_symmetry_multiplicity
 _atom_site_fract_x
 _atom_site_fract_y
 _atom_site_fract_z
 _atom_site_occupancy
  Mg  Mg0  1  0.25000000  0.52545800  0.34004900  1
  Mg  Mg1  1  0.25000000  0.02545800  0.15995100  1
  Mg  Mg2  1  0.75000000  0.47454200  0.65995100  1
  Mg  Mg3  1  0.75000000  0.97454200  0.84004900  1
  Mg  Mg4  1  0.25000000  0.64650300  0.23449200  1
  Mg  Mg5  1  0.25000000  0.14650300  0.26550800  1
  Mg  Mg6  1  0.75000000  0.35349700  0.76550800  1
  Mg  Mg7  1  0.75000000  0.85349700  0.73449200  1
  Si  Si8  1  0.25000000  0.75282000  0.62483300  1
  Si  Si9  1  0.25000000  0.25282000  0.87516700  1
  Si  Si10  1  0.75000000  0.24718000  0.37516700  1
  Si  Si11  1  0.75000000  0.74718000  0.12483300  1
