# generated using pymatgen
data_MgSO9
_symmetry_space_group_name_H-M   'P 1'
_cell_length_a   5.54742600
_cell_length_b   6.95639843
_cell_length_c   7.19173426
_cell_angle_alpha   114.74695931
_cell_angle_beta   95.97723441
_cell_angle_gamma   98.89933232
_symmetry_Int_Tables_number   1
_chemical_formula_structural   MgSO9
_chemical_formula_sum   'Mg1 S1 O9'
_cell_volume   244.55741427
_cell_formula_units_Z   1
loop_
 _symmetry_equiv_pos_site_id
 _symmetry_equiv_pos_as_xyz
  1  'x, y, z'
loop_
 _atom_site_type_symbol
 _atom_site_label
 _atom_site_symmetry_multiplicity
 _atom_site_fract_x
 _atom_site_fract_y
 _atom_site_fract_z
 _atom_site_occupancy
  Mg  Mg0  1  0.07680100  0.23118100  0.02329200  1
  S  S1  1  0.49688700  0.97246500  0.99645500  1
  O  O2  1  0.26833300  0.00117800  0.89185400  1
  O  O3  1  0.28498000  0.26116900  0.29595900  1
  O  O4  1  0.72465900  0.09612100  0.96813400  1
  O  O5  1  0.60648200  0.51683400  0.74221400  1
  O  O6  1  0.83430400  0.54353600  0.78489600  1
  O  O7  1  0.99621200  0.90511600  0.40194500  1
  O  O8  1  0.49434400  0.19159500  0.28395100  1
  O  O9  1  0.17871600  0.52928200  0.07450800  1
  O  O10  1  0.89968100  0.02872300  0.53679100  1
