# generated using pymatgen
data_Na2B5O11
_symmetry_space_group_name_H-M   'P 1'
_cell_length_a   6.46162600
_cell_length_b   11.38185600
_cell_length_c   11.85632017
_cell_angle_alpha   89.88919532
_cell_angle_beta   90.00000000
_cell_angle_gamma   90.00000000
_symmetry_Int_Tables_number   1
_chemical_formula_structural   Na2B5O11
_chemical_formula_sum   'Na8 B20 O44'
_cell_volume   871.97495367
_cell_formula_units_Z   4
loop_
 _symmetry_equiv_pos_site_id
 _symmetry_equiv_pos_as_xyz
  1  'x, y, z'
loop_
 _atom_site_type_symbol
 _atom_site_label
 _atom_site_symmetry_multiplicity
 _atom_site_fract_x
 _atom_site_fract_y
 _atom_site_fract_z
 _atom_site_occupancy
  Na  Na0  1  0.24253800  0.04249400  0.23350400  1
  Na  Na1  1  0.75746200  0.04249400  0.73350400  1
  Na  Na2  1  0.09461900  0.86800000  0.53883500  1
  Na  Na3  1  0.90538100  0.86800000  0.03883500  1
  Na  Na4  1  0.40591200  0.36756500  0.45305500  1
  Na  Na5  1  0.59408800  0.36756500  0.95305500  1
  Na  Na6  1  0.25824900  0.54218800  0.75798700  1
  Na  Na7  1  0.74175100  0.54218800  0.25798700  1
  B  B8  1  0.89302600  0.29916100  0.14869000  1
  B  B9  1  0.10697400  0.29916100  0.64869000  1
  B  B10  1  0.23242100  0.38732400  0.21588100  1
  B  B11  1  0.76757900  0.38732400  0.71588100  1
  B  B12  1  0.13340000  0.38511500  0.00750900  1
  B  B13  1  0.86660000  0.38511500  0.50750900  1
  B  B14  1  0.53544000  0.25090400  0.21618400  1
  B  B15  1  0.46456000  0.25090400  0.71618400  1
  B  B16  1  0.78869100  0.09550700  0.20470600  1
  B  B17  1  0.21130900  0.09550700  0.70470600  1
  B  B18  1  0.39306500  0.79876700  0.34305300  1
  B  B19  1  0.60693500  0.79876700  0.84305300  1
  B  B20  1  0.28837500  0.59531600  0.28662100  1
  B  B21  1  0.71162500  0.59531600  0.78662100  1
  B  B22  1  0.03552800  0.75086500  0.27518700  1
  B  B23  1  0.96447200  0.75086500  0.77518700  1
  B  B24  1  0.73298900  0.88718500  0.27632000  1
  B  B25  1  0.26701100  0.88718500  0.77632000  1
  B  B26  1  0.63223600  0.88485800  0.48403100  1
  B  B27  1  0.36776400  0.88485800  0.98403100  1
  O  O28  1  0.00774500  0.37742100  0.22560700  1
  O  O29  1  0.99225500  0.37742100  0.72560700  1
  O  O30  1  0.27198800  0.41373800  0.09356500  1
  O  O31  1  0.72801200  0.41373800  0.59356500  1
  O  O32  1  0.94719400  0.33226400  0.03071900  1
  O  O33  1  0.05280600  0.33226400  0.53071900  1
  O  O34  1  0.66899200  0.32537900  0.16234200  1
  O  O35  1  0.33100800  0.32537900  0.66234200  1
  O  O36  1  0.59406800  0.13528900  0.23993100  1
  O  O37  1  0.40593200  0.13528900  0.73993100  1
  O  O38  1  0.93427200  0.17265400  0.16660500  1
  O  O39  1  0.06572800  0.17265400  0.66660500  1
  O  O40  1  0.43426500  0.67232400  0.32497400  1
  O  O41  1  0.56573500  0.67232400  0.82497400  1
  O  O42  1  0.09441900  0.63551500  0.25071300  1
  O  O43  1  0.90558100  0.63551500  0.75071300  1
  O  O44  1  0.16915300  0.82506500  0.32919000  1
  O  O45  1  0.83084700  0.82506500  0.82919000  1
  O  O46  1  0.50826600  0.87723100  0.26618400  1
  O  O47  1  0.49173400  0.87723100  0.76618400  1
  O  O48  1  0.77168700  0.91366200  0.39852800  1
  O  O49  1  0.22831300  0.91366200  0.89852800  1
  O  O50  1  0.44680500  0.83104700  0.46110500  1
  O  O51  1  0.55319500  0.83104700  0.96110500  1
  O  O52  1  0.32804500  0.47782800  0.28643200  1
  O  O53  1  0.67195500  0.47782800  0.78643200  1
  O  O54  1  0.82925500  0.97797800  0.20572800  1
  O  O55  1  0.17074500  0.97797800  0.70572800  1
  O  O56  1  0.33693200  0.27601000  0.24609900  1
  O  O57  1  0.66306800  0.27601000  0.74609900  1
  O  O58  1  0.20721600  0.40965300  0.90214400  1
  O  O59  1  0.79278400  0.40965300  0.40214400  1
  O  O60  1  0.83676800  0.77599900  0.24594000  1
  O  O61  1  0.16323200  0.77599900  0.74594000  1
  O  O62  1  0.70449500  0.91098300  0.58945500  1
  O  O63  1  0.29550500  0.91098300  0.08945500  1
  O  O64  1  0.08053200  0.03037800  0.41795800  1
  O  O65  1  0.91946800  0.03037800  0.91795800  1
  O  O66  1  0.00114700  0.65211700  0.54091100  1
  O  O67  1  0.99885300  0.65211700  0.04091100  1
  O  O68  1  0.48010100  0.14820600  0.44854700  1
  O  O69  1  0.51989900  0.14820600  0.94854700  1
  O  O70  1  0.43012500  0.52851200  0.57465700  1
  O  O71  1  0.56987500  0.52851200  0.07465700  1
