# generated using pymatgen
data_LaGaO3
_symmetry_space_group_name_H-M   'P 1'
_cell_length_a   5.54631100
_cell_length_b   5.59421300
_cell_length_c   7.85052300
_cell_angle_alpha   90.00000000
_cell_angle_beta   90.00000000
_cell_angle_gamma   90.00000000
_symmetry_Int_Tables_number   1
_chemical_formula_structural   LaGaO3
_chemical_formula_sum   'La4 Ga4 O12'
_cell_volume   243.58010127
_cell_formula_units_Z   4
loop_
 _symmetry_equiv_pos_site_id
 _symmetry_equiv_pos_as_xyz
  1  'x, y, z'
loop_
 _atom_site_type_symbol
 _atom_site_label
 _atom_site_symmetry_multiplicity
 _atom_site_fract_x
 _atom_site_fract_y
 _atom_site_fract_z
 _atom_site_occupancy
  La  La0  1  0.49515800  0.50807800  0.75000000  1
  La  La1  1  0.99515800  0.99192200  0.75000000  1
  La  La2  1  0.00484200  0.00807800  0.25000000  1
  La  La3  1  0.50484200  0.49192200  0.25000000  1
  Ga  Ga4  1  0.00000000  0.50000000  0.50000000  1
  Ga  Ga5  1  0.50000000  0.00000000  0.00000000  1
  Ga  Ga6  1  0.50000000  0.00000000  0.50000000  1
  Ga  Ga7  1  0.00000000  0.50000000  0.00000000  1
  O  O8  1  0.74443500  0.74577200  0.54445800  1
  O  O9  1  0.49912000  0.91873000  0.25000000  1
  O  O10  1  0.00088000  0.41873000  0.75000000  1
  O  O11  1  0.25556500  0.25422800  0.45554200  1
  O  O12  1  0.50088000  0.08127000  0.75000000  1
  O  O13  1  0.24443500  0.75422800  0.95554200  1
  O  O14  1  0.24443500  0.75422800  0.54445800  1
  O  O15  1  0.75556500  0.24577200  0.45554200  1
  O  O16  1  0.99912000  0.58127000  0.25000000  1
  O  O17  1  0.74443500  0.74577200  0.95554200  1
  O  O18  1  0.25556500  0.25422800  0.04445800  1
  O  O19  1  0.75556500  0.24577200  0.04445800  1
