# generated using pymatgen
data_Na3Au(SO2)4
_symmetry_space_group_name_H-M   'P 1'
_cell_length_a   10.87045000
_cell_length_b   5.74633000
_cell_length_c   18.26514059
_cell_angle_alpha   80.14488674
_cell_angle_beta   90.00000000
_cell_angle_gamma   90.00000000
_symmetry_Int_Tables_number   1
_chemical_formula_structural   Na3Au(SO2)4
_chemical_formula_sum   'Na12 Au4 S16 O32'
_cell_volume   1124.09956320
_cell_formula_units_Z   4
loop_
 _symmetry_equiv_pos_site_id
 _symmetry_equiv_pos_as_xyz
  1  'x, y, z'
loop_
 _atom_site_type_symbol
 _atom_site_label
 _atom_site_symmetry_multiplicity
 _atom_site_fract_x
 _atom_site_fract_y
 _atom_site_fract_z
 _atom_site_occupancy
  Na  Na0  1  0.18734200  0.61892400  0.71087800  1
  Na  Na1  1  0.68734200  0.38107600  0.78912200  1
  Na  Na2  1  0.81265800  0.38107600  0.28912200  1
  Na  Na3  1  0.31265800  0.61892400  0.21087800  1
  Na  Na4  1  0.89276900  0.68399700  0.62716100  1
  Na  Na5  1  0.39276900  0.31600300  0.87283900  1
  Na  Na6  1  0.10723100  0.31600300  0.37283900  1
  Na  Na7  1  0.60723100  0.68399700  0.12716100  1
  Na  Na8  1  0.61017700  0.79301600  0.90545200  1
  Na  Na9  1  0.11017700  0.20698400  0.59454800  1
  Na  Na10  1  0.38982300  0.20698400  0.09454800  1
  Na  Na11  1  0.88982300  0.79301600  0.40545200  1
  Au  Au12  1  0.47144800  0.81469100  0.57226200  1
  Au  Au13  1  0.97144800  0.18530900  0.92773800  1
  Au  Au14  1  0.52855200  0.18530900  0.42773800  1
  Au  Au15  1  0.02855200  0.81469100  0.07226200  1
  S  S16  1  0.61259800  0.90947900  0.65909200  1
  S  S17  1  0.11259800  0.09052100  0.84090800  1
  S  S18  1  0.38740200  0.09052100  0.34090800  1
  S  S19  1  0.88740200  0.90947900  0.15909200  1
  S  S20  1  0.32964300  0.57870700  0.52407700  1
  S  S21  1  0.82964300  0.42129300  0.97592300  1
  S  S22  1  0.67035700  0.42129300  0.47592300  1
  S  S23  1  0.17035700  0.57870700  0.02407700  1
  S  S24  1  0.15706200  0.79293000  0.50387700  1
  S  S25  1  0.65706200  0.20707000  0.99612300  1
  S  S26  1  0.84293800  0.20707000  0.49612300  1
  S  S27  1  0.34293800  0.79293000  0.00387700  1
  S  S28  1  0.47805900  0.86594900  0.75450300  1
  S  S29  1  0.97805900  0.13405100  0.74549700  1
  S  S30  1  0.52194100  0.13405100  0.24549700  1
  S  S31  1  0.02194100  0.86594900  0.25450300  1
  O  O32  1  0.09722200  0.73299400  0.57778000  1
  O  O33  1  0.59722200  0.26700600  0.92222000  1
  O  O34  1  0.90277800  0.26700600  0.42222000  1
  O  O35  1  0.40277800  0.73299400  0.07778000  1
  O  O36  1  0.09378200  0.69010300  0.44550800  1
  O  O37  1  0.59378200  0.30989700  0.05449200  1
  O  O38  1  0.90621800  0.30989700  0.55449200  1
  O  O39  1  0.40621800  0.69010300  0.94550800  1
  O  O40  1  0.17652800  0.05105200  0.48320400  1
  O  O41  1  0.67652800  0.94894800  0.01679600  1
  O  O42  1  0.82347200  0.94894800  0.51679600  1
  O  O43  1  0.32347200  0.05105200  0.98320400  1
  O  O44  1  0.51738000  0.04997500  0.79794300  1
  O  O45  1  0.01738000  0.95002500  0.70205700  1
  O  O46  1  0.48262000  0.95002500  0.20205700  1
  O  O47  1  0.98262000  0.04997500  0.29794300  1
  O  O48  1  0.34975800  0.88854400  0.73008700  1
  O  O49  1  0.84975800  0.11145600  0.76991300  1
  O  O50  1  0.65024200  0.11145600  0.26991300  1
  O  O51  1  0.15024200  0.88854400  0.23008700  1
  O  O52  1  0.51046600  0.62669300  0.79466500  1
  O  O53  1  0.01046600  0.37330700  0.70533500  1
  O  O54  1  0.48953400  0.37330700  0.20533500  1
  O  O55  1  0.98953400  0.62669300  0.29466500  1
  O  O56  1  0.69872200  0.69613200  0.68107400  1
  O  O57  1  0.19872200  0.30386800  0.81892600  1
  O  O58  1  0.30127800  0.30386800  0.31892600  1
  O  O59  1  0.80127800  0.69613200  0.18107400  1
  O  O60  1  0.79140900  0.59027600  0.90487100  1
  O  O61  1  0.29140900  0.40972400  0.59512900  1
  O  O62  1  0.20859100  0.40972400  0.09512900  1
  O  O63  1  0.70859100  0.59027600  0.40487100  1
