# generated using pymatgen
data_KAlSi2
_symmetry_space_group_name_H-M   'P 1'
_cell_length_a   9.71678384
_cell_length_b   9.71678384
_cell_length_c   9.71678384
_cell_angle_alpha   109.64626595
_cell_angle_beta   109.64626595
_cell_angle_gamma   109.12169439
_symmetry_Int_Tables_number   1
_chemical_formula_structural   KAlSi2
_chemical_formula_sum   'K8 Al8 Si16'
_cell_volume   706.20960539
_cell_formula_units_Z   8
loop_
 _symmetry_equiv_pos_site_id
 _symmetry_equiv_pos_as_xyz
  1  'x, y, z'
loop_
 _atom_site_type_symbol
 _atom_site_label
 _atom_site_symmetry_multiplicity
 _atom_site_fract_x
 _atom_site_fract_y
 _atom_site_fract_z
 _atom_site_occupancy
  K  K0  1  0.87652600  0.62347400  0.50000000  1
  K  K1  1  0.12347400  0.37652600  0.50000000  1
  K  K2  1  0.62652600  0.87347400  0.00000000  1
  K  K3  1  0.87347400  0.62652600  0.00000000  1
  K  K4  1  0.37652600  0.87652600  0.25305100  1
  K  K5  1  0.62347400  0.12347400  0.74694900  1
  K  K6  1  0.12652600  0.12652600  0.75305100  1
  K  K7  1  0.37347400  0.37347400  0.24694900  1
  Al  Al8  1  0.66646700  0.83353300  0.50000000  1
  Al  Al9  1  0.33353300  0.16646700  0.50000000  1
  Al  Al10  1  0.41646700  0.08353300  0.00000000  1
  Al  Al11  1  0.08353300  0.41646700  0.00000000  1
  Al  Al12  1  0.16646700  0.66646700  0.83293500  1
  Al  Al13  1  0.83353300  0.33353300  0.16706500  1
  Al  Al14  1  0.91646700  0.91646700  0.33293500  1
  Al  Al15  1  0.58353300  0.58353300  0.66706500  1
  Si  Si16  1  0.84072400  0.87866000  0.79679400  1
  Si  Si17  1  0.08186600  0.04393000  0.20320600  1
  Si  Si18  1  0.66813400  0.20607000  0.29679400  1
  Si  Si19  1  0.90927600  0.37134000  0.70320600  1
  Si  Si20  1  0.12134000  0.91813400  0.96206400  1
  Si  Si21  1  0.95607000  0.15927600  0.03793600  1
  Si  Si22  1  0.79393000  0.09072400  0.46206400  1
  Si  Si23  1  0.62866000  0.33186600  0.53793600  1
  Si  Si24  1  0.34072400  0.54393000  0.96206400  1
  Si  Si25  1  0.58186600  0.37866000  0.03793600  1
  Si  Si26  1  0.16813400  0.87134000  0.46206400  1
  Si  Si27  1  0.40927600  0.70607000  0.53793600  1
  Si  Si28  1  0.45607000  0.41813400  0.79679400  1
  Si  Si29  1  0.62134000  0.65927600  0.20320600  1
  Si  Si30  1  0.12866000  0.59072400  0.29679400  1
  Si  Si31  1  0.29393000  0.83186600  0.70320600  1
