# generated using pymatgen
data_K3B12H12Br
_symmetry_space_group_name_H-M   'P 1'
_cell_length_a   9.01126272
_cell_length_b   10.48695250
_cell_length_c   8.74208464
_cell_angle_alpha   93.62745744
_cell_angle_beta   121.02389526
_cell_angle_gamma   82.94873909
_symmetry_Int_Tables_number   1
_chemical_formula_structural   K3B12H12Br
_chemical_formula_sum   'K3 B12 H12 Br1'
_cell_volume   702.60218929
_cell_formula_units_Z   1
loop_
 _symmetry_equiv_pos_site_id
 _symmetry_equiv_pos_as_xyz
  1  'x, y, z'
loop_
 _atom_site_type_symbol
 _atom_site_label
 _atom_site_symmetry_multiplicity
 _atom_site_fract_x
 _atom_site_fract_y
 _atom_site_fract_z
 _atom_site_occupancy
  K  K0  1  0.50000000  0.50000000  0.50000000  1
  K  K1  1  0.00000000  0.50000000  0.50000000  1
  K  K2  1  0.50000000  0.50000000  0.00000000  1
  B  B3  1  0.84088800  0.59136200  0.00000000  1
  B  B4  1  0.08048900  0.55704800  0.88805900  1
  B  B5  1  0.19243000  0.55704800  0.11194100  1
  B  B6  1  0.15911200  0.40863800  0.00000000  1
  B  B7  1  0.91951100  0.44295200  0.11194100  1
  B  B8  1  0.80757000  0.44295200  0.88805900  1
  B  B9  1  0.04494000  0.57717200  0.18950000  1
  B  B10  1  0.85543900  0.57717200  0.81050000  1
  B  B11  1  0.00506800  0.33275000  0.00000000  1
  B  B12  1  0.95506000  0.42282800  0.81050000  1
  B  B13  1  0.14456100  0.42282800  0.18950000  1
  B  B14  1  0.99493200  0.66725000  0.00000000  1
  H  H15  1  0.75049700  0.38502700  0.00000000  1
  H  H16  1  0.16060100  0.89849900  0.65743300  1
  H  H17  1  0.50316800  0.89850000  0.34256700  1
  H  H18  1  0.24950300  0.61497300  0.00000000  1
  H  H19  1  0.83939900  0.10150100  0.34256700  1
  H  H20  1  0.49683200  0.10150000  0.65743300  1
  H  H21  1  0.16359800  0.89125300  0.57245000  1
  H  H22  1  0.59114800  0.89125300  0.42755000  1
  H  H23  1  0.01037400  0.78138100  0.00000000  1
  H  H24  1  0.83640200  0.10874700  0.42755000  1
  H  H25  1  0.40885200  0.10874700  0.57245000  1
  H  H26  1  0.98962600  0.21861900  0.00000000  1
  Br  Br27  1  0.00000000  0.00000000  0.00000000  1
