# generated using pymatgen
data_Ho(IO3)3
_symmetry_space_group_name_H-M   'P 1'
_cell_length_a   6.47787100
_cell_length_b   6.52864500
_cell_length_c   8.58839200
_cell_angle_alpha   90.00000000
_cell_angle_beta   90.00000000
_cell_angle_gamma   90.00000000
_symmetry_Int_Tables_number   1
_chemical_formula_structural   Ho(IO3)3
_chemical_formula_sum   'Ho2 I6 O18'
_cell_volume   363.21787070
_cell_formula_units_Z   2
loop_
 _symmetry_equiv_pos_site_id
 _symmetry_equiv_pos_as_xyz
  1  'x, y, z'
loop_
 _atom_site_type_symbol
 _atom_site_label
 _atom_site_symmetry_multiplicity
 _atom_site_fract_x
 _atom_site_fract_y
 _atom_site_fract_z
 _atom_site_occupancy
  Ho  Ho0  1  0.00000000  0.63165700  0.50000000  1
  Ho  Ho1  1  0.50000000  0.36834300  0.00000000  1
  I  I2  1  0.50000000  0.86101700  0.69697200  1
  I  I3  1  0.50000000  0.86101700  0.30302800  1
  I  I4  1  0.00000000  0.13898300  0.80302800  1
  I  I5  1  0.00000000  0.13898300  0.19697200  1
  I  I6  1  0.00000000  0.59141800  0.00000000  1
  I  I7  1  0.50000000  0.40858200  0.50000000  1
  O  O8  1  0.69057100  0.54623500  0.63827200  1
  O  O9  1  0.69057100  0.54623500  0.36172800  1
  O  O10  1  0.30942900  0.54623500  0.63827200  1
  O  O11  1  0.30942900  0.54623500  0.36172800  1
  O  O12  1  0.80942900  0.45376500  0.86172800  1
  O  O13  1  0.80942900  0.45376500  0.13827200  1
  O  O14  1  0.19057100  0.45376500  0.86172800  1
  O  O15  1  0.19057100  0.45376500  0.13827200  1
  O  O16  1  0.00000000  0.29568200  0.50000000  1
  O  O17  1  0.50000000  0.70431800  0.00000000  1
  O  O18  1  0.31071600  0.91618500  0.50000000  1
  O  O19  1  0.68928400  0.91618500  0.50000000  1
  O  O20  1  0.18928400  0.08381500  0.00000000  1
  O  O21  1  0.81071600  0.08381500  0.00000000  1
  O  O22  1  0.00000000  0.86080300  0.73910900  1
  O  O23  1  0.00000000  0.86080300  0.26089100  1
  O  O24  1  0.50000000  0.13919700  0.76089100  1
  O  O25  1  0.50000000  0.13919700  0.23910900  1
