# generated using pymatgen
data_K2TlCl5O2
_symmetry_space_group_name_H-M   'P 1'
_cell_length_a   12.83903100
_cell_length_b   8.53272600
_cell_length_c   9.88515246
_cell_angle_alpha   89.47343018
_cell_angle_beta   90.00000000
_cell_angle_gamma   90.00000000
_symmetry_Int_Tables_number   1
_chemical_formula_structural   K2TlCl5O2
_chemical_formula_sum   'K8 Tl4 Cl20 O8'
_cell_volume   1082.89183266
_cell_formula_units_Z   4
loop_
 _symmetry_equiv_pos_site_id
 _symmetry_equiv_pos_as_xyz
  1  'x, y, z'
loop_
 _atom_site_type_symbol
 _atom_site_label
 _atom_site_symmetry_multiplicity
 _atom_site_fract_x
 _atom_site_fract_y
 _atom_site_fract_z
 _atom_site_occupancy
  K  K0  1  0.17905300  0.51913700  0.58886700  1
  K  K1  1  0.67905300  0.98086300  0.41113300  1
  K  K2  1  0.82094700  0.48086300  0.41113300  1
  K  K3  1  0.32094700  0.01913700  0.58886700  1
  K  K4  1  0.85562900  0.42546300  0.96454700  1
  K  K5  1  0.35562900  0.07453700  0.03545300  1
  K  K6  1  0.14437100  0.57453700  0.03545300  1
  K  K7  1  0.64437100  0.92546300  0.96454700  1
  Tl  Tl8  1  0.48558200  0.47546100  0.79154400  1
  Tl  Tl9  1  0.98558200  0.02453900  0.20845600  1
  Tl  Tl10  1  0.51441800  0.52453900  0.20845600  1
  Tl  Tl11  1  0.01441800  0.97546100  0.79154400  1
  Cl  Cl12  1  0.06184900  0.18893200  0.98378300  1
  Cl  Cl13  1  0.56184900  0.31106800  0.01621700  1
  Cl  Cl14  1  0.93815100  0.81106800  0.01621700  1
  Cl  Cl15  1  0.43815100  0.68893200  0.98378300  1
  Cl  Cl16  1  0.08382900  0.14825100  0.60111300  1
  Cl  Cl17  1  0.58382900  0.35174900  0.39888700  1
  Cl  Cl18  1  0.91617100  0.85174900  0.39888700  1
  Cl  Cl19  1  0.41617100  0.64825100  0.60111300  1
  Cl  Cl20  1  0.96056600  0.67676000  0.68201500  1
  Cl  Cl21  1  0.46056600  0.82324000  0.31798500  1
  Cl  Cl22  1  0.03943400  0.32324000  0.31798500  1
  Cl  Cl23  1  0.53943400  0.17676000  0.68201500  1
  Cl  Cl24  1  0.82432500  0.08538200  0.77066500  1
  Cl  Cl25  1  0.32432500  0.41461800  0.22933500  1
  Cl  Cl26  1  0.17567500  0.91461800  0.22933500  1
  Cl  Cl27  1  0.67567500  0.58538200  0.77066500  1
  Cl  Cl28  1  0.19430000  0.84144700  0.82273000  1
  Cl  Cl29  1  0.69430000  0.65855300  0.17727000  1
  Cl  Cl30  1  0.80570000  0.15855300  0.17727000  1
  Cl  Cl31  1  0.30570000  0.34144700  0.82273000  1
  O  O32  1  0.00535600  0.54660100  0.78805800  1
  O  O33  1  0.50535600  0.95339900  0.21194200  1
  O  O34  1  0.99464400  0.45339900  0.21194200  1
  O  O35  1  0.49464400  0.04660100  0.78805800  1
  O  O36  1  0.78601400  0.20268600  0.55629800  1
  O  O37  1  0.28601400  0.29731400  0.44370200  1
  O  O38  1  0.21398600  0.79731400  0.44370200  1
  O  O39  1  0.71398600  0.70268600  0.55629800  1
