# generated using pymatgen
data_K2TeO5
_symmetry_space_group_name_H-M   'P 1'
_cell_length_a   13.95928661
_cell_length_b   13.95928661
_cell_length_c   13.95928661
_cell_angle_alpha   152.43742748
_cell_angle_beta   122.93547121
_cell_angle_gamma   64.51973552
_symmetry_Int_Tables_number   1
_chemical_formula_structural   K2TeO5
_chemical_formula_sum   'K8 Te4 O20'
_cell_volume   1046.92964584
_cell_formula_units_Z   4
loop_
 _symmetry_equiv_pos_site_id
 _symmetry_equiv_pos_as_xyz
  1  'x, y, z'
loop_
 _atom_site_type_symbol
 _atom_site_label
 _atom_site_symmetry_multiplicity
 _atom_site_fract_x
 _atom_site_fract_y
 _atom_site_fract_z
 _atom_site_occupancy
  K  K0  1  0.76417800  0.26417800  0.50000000  1
  K  K1  1  0.23582200  0.73582200  0.50000000  1
  K  K2  1  0.90617600  0.40617600  0.50000000  1
  K  K3  1  0.09382400  0.59382400  0.50000000  1
  K  K4  1  0.12106100  0.33583600  0.78522500  1
  K  K5  1  0.44938900  0.66416400  0.78522500  1
  K  K6  1  0.55061100  0.33583600  0.21477500  1
  K  K7  1  0.87893900  0.66416400  0.21477500  1
  Te  Te8  1  0.95337200  0.83646900  0.11690300  1
  Te  Te9  1  0.28043400  0.16353100  0.11690300  1
  Te  Te10  1  0.71956600  0.83646900  0.88309700  1
  Te  Te11  1  0.04662800  0.16353100  0.88309700  1
  O  O12  1  0.78098000  0.78098000  0.00000000  1
  O  O13  1  0.21902000  0.21902000  0.00000000  1
  O  O14  1  0.89063800  0.89063800  0.00000000  1
  O  O15  1  0.10936200  0.10936200  0.00000000  1
  O  O16  1  0.98580300  0.77442300  0.21138000  1
  O  O17  1  0.43695700  0.22557700  0.21138000  1
  O  O18  1  0.56304300  0.77442300  0.78862000  1
  O  O19  1  0.01419700  0.22557700  0.78862000  1
  O  O20  1  0.11111900  0.89694300  0.21417600  1
  O  O21  1  0.31723300  0.10305700  0.21417600  1
  O  O22  1  0.68276700  0.89694300  0.78582400  1
  O  O23  1  0.88888100  0.10305700  0.78582400  1
  O  O24  1  0.96172300  0.12221000  0.41026800  1
  O  O25  1  0.28805800  0.87779000  0.83951300  1
  O  O26  1  0.71194200  0.55145500  0.58973200  1
  O  O27  1  0.03827700  0.44854500  0.16048700  1
  O  O28  1  0.03827700  0.87779000  0.58973200  1
  O  O29  1  0.71194200  0.12221000  0.16048700  1
  O  O30  1  0.28805800  0.44854500  0.41026800  1
  O  O31  1  0.96172300  0.55145500  0.83951300  1
