# generated using pymatgen
data_KP(HO2)2
_symmetry_space_group_name_H-M   'P 1'
_cell_length_a   7.30873528
_cell_length_b   14.95628200
_cell_length_c   7.53077698
_cell_angle_alpha   90.00000000
_cell_angle_beta   91.67676891
_cell_angle_gamma   90.00000000
_symmetry_Int_Tables_number   1
_chemical_formula_structural   KP(HO2)2
_chemical_formula_sum   'K8 P8 H16 O32'
_cell_volume   822.84808367
_cell_formula_units_Z   8
loop_
 _symmetry_equiv_pos_site_id
 _symmetry_equiv_pos_as_xyz
  1  'x, y, z'
loop_
 _atom_site_type_symbol
 _atom_site_label
 _atom_site_symmetry_multiplicity
 _atom_site_fract_x
 _atom_site_fract_y
 _atom_site_fract_z
 _atom_site_occupancy
  K  K0  1  0.34292900  0.71038900  0.28230800  1
  K  K1  1  0.65707100  0.21038900  0.71769200  1
  K  K2  1  0.21382900  0.90346500  0.63019800  1
  K  K3  1  0.78617100  0.40346500  0.36980200  1
  K  K4  1  0.36121300  0.19933400  0.22629200  1
  K  K5  1  0.63878700  0.69933400  0.77370800  1
  K  K6  1  0.06959800  0.43461600  0.85073200  1
  K  K7  1  0.93040200  0.93461600  0.14926800  1
  P  P8  1  0.13213300  0.68708600  0.77323600  1
  P  P9  1  0.86786700  0.18708600  0.22676400  1
  P  P10  1  0.40755300  0.94565500  0.14624500  1
  P  P11  1  0.59244700  0.44565500  0.85375500  1
  P  P12  1  0.17268400  0.17580200  0.73497100  1
  P  P13  1  0.82731600  0.67580200  0.26502900  1
  P  P14  1  0.28267300  0.43770700  0.36680300  1
  P  P15  1  0.71732700  0.93770700  0.63319700  1
  H  H16  1  0.33292800  0.59166300  0.88720200  1
  H  H17  1  0.66707200  0.09166300  0.11279800  1
  H  H18  1  0.98391900  0.60885800  0.55940300  1
  H  H19  1  0.01608100  0.10885800  0.44059700  1
  H  H20  1  0.55533200  0.87873600  0.92778400  1
  H  H21  1  0.44466800  0.37873600  0.07221600  1
  H  H22  1  0.29762800  0.04430000  0.93960800  1
  H  H23  1  0.70237200  0.54430000  0.06039200  1
  H  H24  1  0.02155400  0.24655400  0.95856600  1
  H  H25  1  0.97844600  0.74655400  0.04143400  1
  H  H26  1  0.23411900  0.29554800  0.56361600  1
  H  H27  1  0.76588100  0.79554800  0.43638400  1
  H  H28  1  0.41822700  0.52089000  0.57851300  1
  H  H29  1  0.58177300  0.02089000  0.42148700  1
  H  H30  1  0.06852600  0.53162100  0.26807000  1
  H  H31  1  0.93147400  0.03162100  0.73193000  1
  O  O32  1  0.24499100  0.63845200  0.93259600  1
  O  O33  1  0.75500900  0.13845200  0.06740400  1
  O  O34  1  0.00420600  0.60839300  0.69536200  1
  O  O35  1  0.99579400  0.10839300  0.30463800  1
  O  O36  1  0.25601400  0.72355000  0.63467800  1
  O  O37  1  0.74398600  0.22355000  0.36532200  1
  O  O38  1  0.01032200  0.75579700  0.86433200  1
  O  O39  1  0.98967800  0.25579700  0.13566800  1
  O  O40  1  0.53378300  0.87043100  0.06230800  1
  O  O41  1  0.46621700  0.37043100  0.93769200  1
  O  O42  1  0.27849200  0.97959700  0.98445100  1
  O  O43  1  0.72150800  0.47959700  0.01554900  1
  O  O44  1  0.52834900  0.02452300  0.21229900  1
  O  O45  1  0.47165100  0.52452300  0.78770100  1
  O  O46  1  0.29275200  0.90241600  0.28483100  1
  O  O47  1  0.70724800  0.40241600  0.71516900  1
  O  O48  1  0.03913900  0.24694100  0.81573200  1
  O  O49  1  0.96086100  0.74694100  0.18426800  1
  O  O50  1  0.27791700  0.23019400  0.58711300  1
  O  O51  1  0.72208300  0.73019400  0.41288700  1
  O  O52  1  0.06129600  0.10105500  0.64107600  1
  O  O53  1  0.93870400  0.60105500  0.35892400  1
  O  O54  1  0.31095400  0.14034200  0.87296300  1
  O  O55  1  0.68904600  0.64034200  0.12703700  1
  O  O56  1  0.38876300  0.52301500  0.44539500  1
  O  O57  1  0.61123700  0.02301500  0.55460500  1
  O  O58  1  0.14594700  0.48044000  0.22052400  1
  O  O59  1  0.85405300  0.98044000  0.77947600  1
  O  O60  1  0.41198600  0.37741800  0.26716300  1
  O  O61  1  0.58801400  0.87741800  0.73283700  1
  O  O62  1  0.17841500  0.39106200  0.51316000  1
  O  O63  1  0.82158500  0.89106200  0.48684000  1
