# generated using pymatgen
data_MnSiH12(OF)6
_symmetry_space_group_name_H-M   'P 1'
_cell_length_a   9.85102670
_cell_length_b   9.84427225
_cell_length_c   9.87688816
_cell_angle_alpha   89.91259217
_cell_angle_beta   90.03266098
_cell_angle_gamma   119.96296030
_symmetry_Int_Tables_number   1
_chemical_formula_structural   MnSiH12(OF)6
_chemical_formula_sum   'Mn3 Si3 H36 O18 F18'
_cell_volume   829.80746509
_cell_formula_units_Z   3
loop_
 _symmetry_equiv_pos_site_id
 _symmetry_equiv_pos_as_xyz
  1  'x, y, z'
loop_
 _atom_site_type_symbol
 _atom_site_label
 _atom_site_symmetry_multiplicity
 _atom_site_fract_x
 _atom_site_fract_y
 _atom_site_fract_z
 _atom_site_occupancy
  Mn  Mn0  1  0.00000000  0.00000000  0.00000000  1
  Mn  Mn1  1  0.66670200  0.33315500  0.32750300  1
  Mn  Mn2  1  0.33329800  0.66684500  0.67249700  1
  Si  Si3  1  0.00000000  0.00000000  0.50000000  1
  Si  Si4  1  0.66667200  0.33338300  0.82697900  1
  Si  Si5  1  0.33332800  0.66661700  0.17302100  1
  H  H6  1  0.83959300  0.03419400  0.77826900  1
  H  H7  1  0.19437600  0.16031100  0.77816900  1
  H  H8  1  0.96601600  0.80576900  0.77830000  1
  H  H9  1  0.16040700  0.96580600  0.22173100  1
  H  H10  1  0.80562400  0.83968900  0.22183100  1
  H  H11  1  0.03398400  0.19423100  0.22170000  1
  H  H12  1  0.83346500  0.14506100  0.89235500  1
  H  H13  1  0.31119600  0.16635400  0.89254200  1
  H  H14  1  0.85514400  0.68877600  0.89251600  1
  H  H15  1  0.16653500  0.85493900  0.10764500  1
  H  H16  1  0.68880400  0.83364600  0.10745800  1
  H  H17  1  0.14485600  0.31122400  0.10748400  1
  H  H18  1  0.71640200  0.18660000  0.55235300  1
  H  H19  1  0.47067500  0.28380600  0.55214400  1
  H  H20  1  0.81293800  0.52901800  0.55203700  1
  H  H21  1  0.28359800  0.81340000  0.44764700  1
  H  H22  1  0.52932500  0.71619400  0.44785600  1
  H  H23  1  0.18706200  0.47098200  0.44796300  1
  H  H24  1  0.83108600  0.18339800  0.44053100  1
  H  H25  1  0.35273300  0.16904900  0.44043700  1
  H  H26  1  0.81621300  0.64719300  0.44018000  1
  H  H27  1  0.16891400  0.81660200  0.55946900  1
  H  H28  1  0.64726700  0.83095100  0.55956300  1
  H  H29  1  0.18378700  0.35280700  0.55982000  1
  H  H30  1  0.50374700  0.01820200  0.22227500  1
  H  H31  1  0.51456600  0.49649400  0.22217500  1
  H  H32  1  0.98176600  0.48552400  0.22227300  1
  H  H33  1  0.49625300  0.98179800  0.77772500  1
  H  H34  1  0.48543400  0.50350600  0.77782500  1
  H  H35  1  0.01823400  0.51447600  0.77772700  1
  H  H36  1  0.53227100  0.13692600  0.10172600  1
  H  H37  1  0.60441600  0.46800500  0.10160900  1
  H  H38  1  0.86340200  0.39538200  0.10175500  1
  H  H39  1  0.46772900  0.86307400  0.89827400  1
  H  H40  1  0.39558400  0.53199500  0.89839100  1
  H  H41  1  0.13659800  0.60461800  0.89824500  1
  O  O42  1  0.85132400  0.05687200  0.87541500  1
  O  O43  1  0.20538300  0.14879600  0.87540500  1
  O  O44  1  0.94339300  0.79468100  0.87549100  1
  O  O45  1  0.14867600  0.94312800  0.12458500  1
  O  O46  1  0.79461700  0.85120400  0.12459500  1
  O  O47  1  0.05660700  0.20531900  0.12450900  1
  O  O48  1  0.74638800  0.20652800  0.45677500  1
  O  O49  1  0.46059000  0.25362600  0.45661000  1
  O  O50  1  0.79304900  0.53934600  0.45653500  1
  O  O51  1  0.25361200  0.79347200  0.54322500  1
  O  O52  1  0.53941000  0.74637400  0.54339000  1
  O  O53  1  0.20695100  0.46065400  0.54346500  1
  O  O54  1  0.55388500  0.12865400  0.19677400  1
  O  O55  1  0.57484300  0.44638100  0.19669500  1
  O  O56  1  0.87137400  0.42515400  0.19682100  1
  O  O57  1  0.44611500  0.87134600  0.80322600  1
  O  O58  1  0.42515700  0.55361900  0.80330500  1
  O  O59  1  0.12862600  0.57484600  0.80317900  1
  F  F60  1  0.12908100  0.15380600  0.60073500  1
  F  F61  1  0.02465300  0.87102100  0.60056300  1
  F  F62  1  0.84627000  0.97524900  0.60069500  1
  F  F63  1  0.87091900  0.84619400  0.39926500  1
  F  F64  1  0.97534700  0.12897900  0.39943700  1
  F  F65  1  0.15373000  0.02475100  0.39930500  1
  F  F66  1  0.63921800  0.17863400  0.72632500  1
  F  F67  1  0.53959300  0.36080400  0.72627700  1
  F  F68  1  0.82129900  0.46048000  0.72626300  1
  F  F69  1  0.36078200  0.82136600  0.27367500  1
  F  F70  1  0.46040700  0.63919600  0.27372300  1
  F  F71  1  0.17870100  0.53952000  0.27373700  1
  F  F72  1  0.51226600  0.20573000  0.92757600  1
  F  F73  1  0.69348900  0.48787800  0.92754600  1
  F  F74  1  0.79425000  0.30655000  0.92756200  1
  F  F75  1  0.48773400  0.79427000  0.07242400  1
  F  F76  1  0.30651100  0.51212200  0.07245400  1
  F  F77  1  0.20575000  0.69345000  0.07243800  1
