# generated using pymatgen
data_K4P3NO13
_symmetry_space_group_name_H-M   'P 1'
_cell_length_a   6.16683900
_cell_length_b   10.11467107
_cell_length_c   12.80150788
_cell_angle_alpha   96.06300228
_cell_angle_beta   91.25076811
_cell_angle_gamma   104.73204727
_symmetry_Int_Tables_number   1
_chemical_formula_structural   K4P3NO13
_chemical_formula_sum   'K8 P6 N2 O26'
_cell_volume   766.94644936
_cell_formula_units_Z   2
loop_
 _symmetry_equiv_pos_site_id
 _symmetry_equiv_pos_as_xyz
  1  'x, y, z'
loop_
 _atom_site_type_symbol
 _atom_site_label
 _atom_site_symmetry_multiplicity
 _atom_site_fract_x
 _atom_site_fract_y
 _atom_site_fract_z
 _atom_site_occupancy
  K  K0  1  0.62902100  0.81058400  0.68094500  1
  K  K1  1  0.37097900  0.18941600  0.31905500  1
  K  K2  1  0.13488700  0.74341700  0.89148100  1
  K  K3  1  0.86511300  0.25658300  0.10851900  1
  K  K4  1  0.88159700  0.28273100  0.78917200  1
  K  K5  1  0.11840300  0.71726900  0.21082800  1
  K  K6  1  0.86358400  0.15108600  0.51852600  1
  K  K7  1  0.13641600  0.84891400  0.48147400  1
  P  P8  1  0.32569700  0.17640100  0.95891200  1
  P  P9  1  0.67430300  0.82359900  0.04108800  1
  P  P10  1  0.20378200  0.02127200  0.74486500  1
  P  P11  1  0.79621800  0.97872800  0.25513500  1
  P  P12  1  0.39926900  0.25092600  0.61743700  1
  P  P13  1  0.60073100  0.74907400  0.38256300  1
  N  N14  1  0.69431100  0.88223200  0.92168700  1
  N  N15  1  0.30568900  0.11776800  0.07831300  1
  O  O16  1  0.57383600  0.24221300  0.95244700  1
  O  O17  1  0.42616400  0.75778700  0.04755300  1
  O  O18  1  0.15915400  0.26303900  0.95669800  1
  O  O19  1  0.84084600  0.73696100  0.04330200  1
  O  O20  1  0.24533500  0.03924400  0.87550700  1
  O  O21  1  0.75466500  0.96075600  0.12449300  1
  O  O22  1  0.23839800  0.87974100  0.71233500  1
  O  O23  1  0.76160200  0.12025900  0.28766500  1
  O  O24  1  0.40514500  0.13993100  0.71324800  1
  O  O25  1  0.59485500  0.86006900  0.28675200  1
  O  O26  1  0.97684000  0.04133100  0.71678700  1
  O  O27  1  0.02316000  0.95866900  0.28321300  1
  O  O28  1  0.23902500  0.33485900  0.65609200  1
  O  O29  1  0.76097500  0.66514100  0.34390800  1
  O  O30  1  0.64787500  0.32311900  0.61965800  1
  O  O31  1  0.35212500  0.67688100  0.38034200  1
  O  O32  1  0.31220200  0.15190400  0.51719500  1
  O  O33  1  0.68779800  0.84809600  0.48280500  1
  O  O34  1  0.59436200  0.51749300  0.86790900  1
  O  O35  1  0.40563800  0.48250700  0.13209100  1
  O  O36  1  0.43849900  0.54787600  0.82120100  1
  O  O37  1  0.56150100  0.45212400  0.17879900  1
  O  O38  1  0.96339200  0.57890300  0.68146100  1
  O  O39  1  0.03660800  0.42109700  0.31853900  1
  O  O40  1  0.08931100  0.57494200  0.60801200  1
  O  O41  1  0.91068900  0.42505800  0.39198800  1
