# generated using pymatgen
data_K2Pd(CO3)4
_symmetry_space_group_name_H-M   'P 1'
_cell_length_a   13.39666800
_cell_length_b   4.65134400
_cell_length_c   10.63707359
_cell_angle_alpha   75.66206830
_cell_angle_beta   90.00000000
_cell_angle_gamma   90.00000000
_symmetry_Int_Tables_number   1
_chemical_formula_structural   K2Pd(CO3)4
_chemical_formula_sum   'K4 Pd2 C8 O24'
_cell_volume   642.17716355
_cell_formula_units_Z   2
loop_
 _symmetry_equiv_pos_site_id
 _symmetry_equiv_pos_as_xyz
  1  'x, y, z'
loop_
 _atom_site_type_symbol
 _atom_site_label
 _atom_site_symmetry_multiplicity
 _atom_site_fract_x
 _atom_site_fract_y
 _atom_site_fract_z
 _atom_site_occupancy
  K  K0  1  0.64814800  0.73886600  0.99495400  1
  K  K1  1  0.85185200  0.73886600  0.49495400  1
  K  K2  1  0.35185200  0.26113400  0.00504600  1
  K  K3  1  0.14814800  0.26113400  0.50504600  1
  Pd  Pd4  1  0.00000000  0.00000000  0.00000000  1
  Pd  Pd5  1  0.50000000  0.00000000  0.50000000  1
  C  C6  1  0.88458900  0.84697500  0.80753600  1
  C  C7  1  0.61541100  0.84697500  0.30753600  1
  C  C8  1  0.11541100  0.15302500  0.19246400  1
  C  C9  1  0.38458900  0.15302500  0.69246400  1
  C  C10  1  0.96144400  0.07839900  0.73504500  1
  C  C11  1  0.53855600  0.07839900  0.23504500  1
  C  C12  1  0.03855600  0.92160100  0.26495500  1
  C  C13  1  0.46144400  0.92160100  0.76495500  1
  O  O14  1  0.88251200  0.80640000  0.93299900  1
  O  O15  1  0.61748800  0.80640000  0.43299900  1
  O  O16  1  0.11748800  0.19360000  0.06700100  1
  O  O17  1  0.38251200  0.19360000  0.56700100  1
  O  O18  1  0.82803400  0.71953300  0.74669300  1
  O  O19  1  0.67196600  0.71953300  0.24669300  1
  O  O20  1  0.17196600  0.28046700  0.25330700  1
  O  O21  1  0.32803400  0.28046700  0.75330700  1
  O  O22  1  0.96051400  0.15945300  0.61397400  1
  O  O23  1  0.53948600  0.15945300  0.11397400  1
  O  O24  1  0.03948600  0.84054700  0.38602600  1
  O  O25  1  0.46051400  0.84054700  0.88602600  1
  O  O26  1  0.02323000  0.17885700  0.80733500  1
  O  O27  1  0.47677000  0.17885700  0.30733500  1
  O  O28  1  0.97677000  0.82114300  0.19266500  1
  O  O29  1  0.52323000  0.82114300  0.69266500  1
  O  O30  1  0.67280600  0.27330100  0.75163700  1
  O  O31  1  0.82719400  0.27330100  0.25163700  1
  O  O32  1  0.32719400  0.72669900  0.24836300  1
  O  O33  1  0.17280600  0.72669900  0.74836300  1
  O  O34  1  0.69763100  0.27933000  0.63937000  1
  O  O35  1  0.80236900  0.27933000  0.13937000  1
  O  O36  1  0.30236900  0.72067000  0.36063000  1
  O  O37  1  0.19763100  0.72067000  0.86063000  1
