# generated using pymatgen
data_K5Mo6IO29
_symmetry_space_group_name_H-M   'P 1'
_cell_length_a   7.61645100
_cell_length_b   10.30008694
_cell_length_c   17.92688531
_cell_angle_alpha   83.01061213
_cell_angle_beta   84.26142227
_cell_angle_gamma   87.62376133
_symmetry_Int_Tables_number   1
_chemical_formula_structural   K5Mo6IO29
_chemical_formula_sum   'K10 Mo12 I2 O58'
_cell_volume   1388.30814951
_cell_formula_units_Z   2
loop_
 _symmetry_equiv_pos_site_id
 _symmetry_equiv_pos_as_xyz
  1  'x, y, z'
loop_
 _atom_site_type_symbol
 _atom_site_label
 _atom_site_symmetry_multiplicity
 _atom_site_fract_x
 _atom_site_fract_y
 _atom_site_fract_z
 _atom_site_occupancy
  K  K0  1  0.37831700  0.96203200  0.21120900  1
  K  K1  1  0.62168300  0.03796800  0.78879100  1
  K  K2  1  0.31321200  0.24497200  0.47882900  1
  K  K3  1  0.68678800  0.75502800  0.52117100  1
  K  K4  1  0.21474600  0.20843900  0.00081700  1
  K  K5  1  0.78525400  0.79156100  0.99918300  1
  K  K6  1  0.16923400  0.51982100  0.14639200  1
  K  K7  1  0.83076600  0.48017900  0.85360800  1
  K  K8  1  0.16173600  0.64407700  0.39186000  1
  K  K9  1  0.83826400  0.35592300  0.60814000  1
  Mo  Mo10  1  0.69504800  0.46684800  0.38750700  1
  Mo  Mo11  1  0.30495200  0.53315200  0.61249300  1
  Mo  Mo12  1  0.64438000  0.57589000  0.20719700  1
  Mo  Mo13  1  0.35562000  0.42411000  0.79280300  1
  Mo  Mo14  1  0.68762000  0.36776800  0.07482000  1
  Mo  Mo15  1  0.31238000  0.63223200  0.92518000  1
  Mo  Mo16  1  0.82164800  0.05627400  0.12235300  1
  Mo  Mo17  1  0.17835200  0.94372600  0.87764700  1
  Mo  Mo18  1  0.86972700  0.94314700  0.30637200  1
  Mo  Mo19  1  0.13027300  0.05685300  0.69362800  1
  Mo  Mo20  1  0.81995000  0.14748600  0.43709400  1
  Mo  Mo21  1  0.18005000  0.85251400  0.56290600  1
  I  I22  1  0.76182900  0.26134300  0.25449100  1
  I  I23  1  0.23817100  0.73865700  0.74550900  1
  O  O24  1  0.48857000  0.53735800  0.41141100  1
  O  O25  1  0.51143000  0.46264200  0.58858900  1
  O  O26  1  0.84068300  0.52195100  0.44602000  1
  O  O27  1  0.15931700  0.47804900  0.55398000  1
  O  O28  1  0.45275500  0.66846000  0.23147500  1
  O  O29  1  0.54724500  0.33154000  0.76852500  1
  O  O30  1  0.78179400  0.67656400  0.14366000  1
  O  O31  1  0.21820600  0.32343600  0.85634000  1
  O  O32  1  0.52661500  0.30768800  0.02679900  1
  O  O33  1  0.47338500  0.69231200  0.97320100  1
  O  O34  1  0.79715000  0.48608800  0.01086000  1
  O  O35  1  0.20285000  0.51391200  0.98914000  1
  O  O36  1  0.65679800  0.00294600  0.07328200  1
  O  O37  1  0.34320200  0.99705400  0.92671800  1
  O  O38  1  0.02001700  0.97685500  0.09253800  1
  O  O39  1  0.97998300  0.02314500  0.90746200  1
  O  O40  1  0.73571500  0.83614100  0.36858600  1
  O  O41  1  0.26428500  0.16385900  0.63141400  1
  O  O42  1  0.06245100  0.85255300  0.28157300  1
  O  O43  1  0.93754900  0.14744700  0.71842700  1
  O  O44  1  0.69876100  0.03019200  0.49600500  1
  O  O45  1  0.30123900  0.96980800  0.50399500  1
  O  O46  1  0.96964100  0.20511800  0.49244200  1
  O  O47  1  0.03035900  0.79488200  0.50755800  1
  O  O48  1  0.57986600  0.38012700  0.28731500  1
  O  O49  1  0.42013400  0.61987300  0.71268500  1
  O  O50  1  0.84423200  0.39976200  0.18008300  1
  O  O51  1  0.15576800  0.60023800  0.81991700  1
  O  O52  1  0.62879600  0.20558800  0.17983500  1
  O  O53  1  0.37120400  0.79441200  0.82016500  1
  O  O54  1  0.94675900  0.14024000  0.22156500  1
  O  O55  1  0.05324100  0.85976000  0.77843500  1
  O  O56  1  0.67975200  0.12159500  0.32800500  1
  O  O57  1  0.32024800  0.87840500  0.67199500  1
  O  O58  1  0.89590200  0.31413000  0.33109000  1
  O  O59  1  0.10409800  0.68587000  0.66891000  1
  O  O60  1  0.77340700  0.57663500  0.29509400  1
  O  O61  1  0.22659300  0.42336500  0.70490600  1
  O  O62  1  0.53751000  0.47884500  0.13612800  1
  O  O63  1  0.46249000  0.52115500  0.86387200  1
  O  O64  1  0.87015300  0.22668100  0.06694800  1
  O  O65  1  0.12984700  0.77331900  0.93305200  1
  O  O66  1  0.74861500  0.94606900  0.21680100  1
  O  O67  1  0.25138500  0.05393100  0.78319900  1
  O  O68  1  0.97586700  0.03862300  0.37732600  1
  O  O69  1  0.02413300  0.96137700  0.62267400  1
  O  O70  1  0.64843400  0.29371700  0.44033900  1
  O  O71  1  0.35156600  0.70628300  0.55966100  1
  O  O72  1  0.25182700  0.79727200  0.10720800  1
  O  O73  1  0.74817300  0.20272800  0.89279200  1
  O  O74  1  0.41929900  0.86566100  0.36921000  1
  O  O75  1  0.58070100  0.13433900  0.63079000  1
  O  O76  1  0.27603000  0.17520400  0.31022800  1
  O  O77  1  0.72397000  0.82479600  0.68977200  1
  O  O78  1  0.21854800  0.24348400  0.20160200  1
  O  O79  1  0.78145200  0.75651600  0.79839800  1
  O  O80  1  0.18428300  0.36478000  0.29106700  1
  O  O81  1  0.81571700  0.63522000  0.70893300  1
