# generated using pymatgen
data_NiP4N2O19
_symmetry_space_group_name_H-M   'P 1'
_cell_length_a   6.75391300
_cell_length_b   9.91840407
_cell_length_c   13.85461701
_cell_angle_alpha   100.93369255
_cell_angle_beta   101.79271033
_cell_angle_gamma   98.80737513
_symmetry_Int_Tables_number   1
_chemical_formula_structural   NiP4N2O19
_chemical_formula_sum   'Ni2 P8 N4 O38'
_cell_volume   874.05648574
_cell_formula_units_Z   2
loop_
 _symmetry_equiv_pos_site_id
 _symmetry_equiv_pos_as_xyz
  1  'x, y, z'
loop_
 _atom_site_type_symbol
 _atom_site_label
 _atom_site_symmetry_multiplicity
 _atom_site_fract_x
 _atom_site_fract_y
 _atom_site_fract_z
 _atom_site_occupancy
  Ni  Ni0  1  0.00000000  0.00000000  0.00000000  1
  Ni  Ni1  1  0.50000000  0.50000000  0.50000000  1
  P  P2  1  0.81762700  0.28230400  0.03919800  1
  P  P3  1  0.18237300  0.71769600  0.96080200  1
  P  P4  1  0.68247700  0.07262100  0.14746900  1
  P  P5  1  0.31752300  0.92737900  0.85253100  1
  P  P6  1  0.96965300  0.52151900  0.22659900  1
  P  P7  1  0.03034700  0.47848100  0.77340100  1
  P  P8  1  0.95868800  0.27800700  0.32417400  1
  P  P9  1  0.04131200  0.72199300  0.67582600  1
  N  N10  1  0.35250900  0.42192900  0.25131400  1
  N  N11  1  0.64749100  0.57807100  0.74868600  1
  N  N12  1  0.52113300  0.61457000  0.02955900  1
  N  N13  1  0.47886700  0.38543000  0.97044100  1
  O  O14  1  0.92550800  0.19864300  0.97605100  1
  O  O15  1  0.07449200  0.80135700  0.02394900  1
  O  O16  1  0.36206200  0.65123200  0.04783100  1
  O  O17  1  0.63793800  0.34876800  0.95216900  1
  O  O18  1  0.66489800  0.21328500  0.09380600  1
  O  O19  1  0.33510200  0.78671500  0.90619400  1
  O  O20  1  0.84585800  0.00540300  0.11206100  1
  O  O21  1  0.15414200  0.99459700  0.88793900  1
  O  O22  1  0.46722900  0.98933600  0.12529900  1
  O  O23  1  0.53277100  0.01066400  0.87470100  1
  O  O24  1  0.75547700  0.15388100  0.26369900  1
  O  O25  1  0.24452300  0.84611900  0.73630100  1
  O  O26  1  0.14130900  0.25405700  0.27931800  1
  O  O27  1  0.85869100  0.74594300  0.72068200  1
  O  O28  1  0.96869300  0.30047500  0.43349300  1
  O  O29  1  0.03130700  0.69952500  0.56650700  1
  O  O30  1  0.87535400  0.41032200  0.28227800  1
  O  O31  1  0.12464600  0.58967800  0.71772200  1
  O  O32  1  0.84849100  0.63091600  0.21741600  1
  O  O33  1  0.15150900  0.36908400  0.78258400  1
  O  O34  1  0.20588600  0.56251300  0.26771000  1
  O  O35  1  0.79411400  0.43748700  0.73229000  1
  O  O36  1  0.95002700  0.42148800  0.10875000  1
  O  O37  1  0.04997300  0.57851200  0.89125000  1
  O  O38  1  0.48708800  0.44631800  0.32227600  1
  O  O39  1  0.51291200  0.55368200  0.67772400  1
  O  O40  1  0.42584500  0.67687000  0.48918300  1
  O  O41  1  0.57415500  0.32313000  0.51081700  1
  O  O42  1  0.61856400  0.68185200  0.48575100  1
  O  O43  1  0.38143600  0.31814800  0.51424900  1
  O  O44  1  0.24325900  0.12389700  0.09844100  1
  O  O45  1  0.75674100  0.87610300  0.90155900  1
  O  O46  1  0.29997200  0.92271300  0.31525100  1
  O  O47  1  0.70002800  0.07728700  0.68474900  1
  O  O48  1  0.48546600  0.95224600  0.36991800  1
  O  O49  1  0.51453400  0.04775400  0.63008200  1
  O  O50  1  0.61069400  0.87278400  0.34660700  1
  O  O51  1  0.38930600  0.12721600  0.65339300  1
