# generated using pymatgen
data_La7(IO6)3
_symmetry_space_group_name_H-M   'P 1'
_cell_length_a   15.65535054
_cell_length_b   16.43589205
_cell_length_c   4.33506000
_cell_angle_alpha   90.00000000
_cell_angle_beta   90.00000000
_cell_angle_gamma   120.18748826
_symmetry_Int_Tables_number   1
_chemical_formula_structural   La7(IO6)3
_chemical_formula_sum   'La14 I6 O36'
_cell_volume   964.18023251
_cell_formula_units_Z   2
loop_
 _symmetry_equiv_pos_site_id
 _symmetry_equiv_pos_as_xyz
  1  'x, y, z'
loop_
 _atom_site_type_symbol
 _atom_site_label
 _atom_site_symmetry_multiplicity
 _atom_site_fract_x
 _atom_site_fract_y
 _atom_site_fract_z
 _atom_site_occupancy
  La  La0  1  0.09538000  0.85746200  0.25000000  1
  La  La1  1  0.77266300  0.92037000  0.25000000  1
  La  La2  1  0.13603600  0.23620400  0.25000000  1
  La  La3  1  0.90462000  0.14253800  0.75000000  1
  La  La4  1  0.22733700  0.07963000  0.75000000  1
  La  La5  1  0.86396400  0.76379600  0.75000000  1
  La  La6  1  0.69309600  0.54921100  0.25000000  1
  La  La7  1  0.87423200  0.31630300  0.25000000  1
  La  La8  1  0.44368300  0.13102100  0.25000000  1
  La  La9  1  0.30690400  0.45079000  0.75000000  1
  La  La10  1  0.12576800  0.68369700  0.75000000  1
  La  La11  1  0.55631700  0.86897900  0.75000000  1
  La  La12  1  0.33618900  0.67085800  0.25000000  1
  La  La13  1  0.66381100  0.32914200  0.75000000  1
  I  I14  1  0.89930400  0.53816700  0.25000000  1
  I  I15  1  0.65703100  0.09902600  0.25000000  1
  I  I16  1  0.43239200  0.33533100  0.25000000  1
  I  I17  1  0.10069600  0.46183300  0.75000000  1
  I  I18  1  0.34296900  0.90097400  0.75000000  1
  I  I19  1  0.56760800  0.66466900  0.75000000  1
  O  O20  1  0.75758100  0.43740300  0.25000000  1
  O  O21  1  0.68670100  0.22799500  0.25000000  1
  O  O22  1  0.54002900  0.30928600  0.25000000  1
  O  O23  1  0.24241900  0.56259700  0.75000000  1
  O  O24  1  0.31329900  0.77200500  0.75000000  1
  O  O25  1  0.45997100  0.69071400  0.75000000  1
  O  O26  1  0.74366400  0.71016600  0.25000000  1
  O  O27  1  0.97792800  0.25595400  0.25000000  1
  O  O28  1  0.28354300  0.02198300  0.25000000  1
  O  O29  1  0.25633600  0.28983400  0.75000000  1
  O  O30  1  0.02207200  0.74404600  0.75000000  1
  O  O31  1  0.71645700  0.97801700  0.75000000  1
  O  O32  1  0.87510000  0.84842100  0.25000000  1
  O  O33  1  0.95982000  0.11483900  0.25000000  1
  O  O34  1  0.14823600  0.02568500  0.25000000  1
  O  O35  1  0.12490000  0.15157900  0.75000000  1
  O  O36  1  0.04018000  0.88516100  0.75000000  1
  O  O37  1  0.85176400  0.97431500  0.75000000  1
  O  O38  1  0.89257900  0.71316700  0.25000000  1
  O  O39  1  0.78413500  0.11473600  0.25000000  1
  O  O40  1  0.32398100  0.21199800  0.25000000  1
  O  O41  1  0.10742100  0.28683300  0.75000000  1
  O  O42  1  0.21586500  0.88526400  0.75000000  1
  O  O43  1  0.67601900  0.78800200  0.75000000  1
  O  O44  1  0.16999100  0.62896100  0.25000000  1
  O  O45  1  0.45695500  0.83795400  0.25000000  1
  O  O46  1  0.38528700  0.54616000  0.25000000  1
  O  O47  1  0.83000900  0.37103900  0.75000000  1
  O  O48  1  0.54304500  0.16204600  0.75000000  1
  O  O49  1  0.61471300  0.45384000  0.75000000  1
  O  O50  1  0.16083000  0.75609100  0.25000000  1
  O  O51  1  0.59894500  0.84040800  0.25000000  1
  O  O52  1  0.24235000  0.40726900  0.25000000  1
  O  O53  1  0.83917000  0.24390900  0.75000000  1
  O  O54  1  0.40105500  0.15959200  0.75000000  1
  O  O55  1  0.75765000  0.59273100  0.75000000  1
