# generated using pymatgen
data_KB5O12
_symmetry_space_group_name_H-M   'P 1'
_cell_length_a   7.21278179
_cell_length_b   7.21278179
_cell_length_c   10.83384400
_cell_angle_alpha   90.00000000
_cell_angle_beta   90.00000000
_cell_angle_gamma   91.62359356
_symmetry_Int_Tables_number   1
_chemical_formula_structural   KB5O12
_chemical_formula_sum   'K2 B10 O24'
_cell_volume   563.39602072
_cell_formula_units_Z   2
loop_
 _symmetry_equiv_pos_site_id
 _symmetry_equiv_pos_as_xyz
  1  'x, y, z'
loop_
 _atom_site_type_symbol
 _atom_site_label
 _atom_site_symmetry_multiplicity
 _atom_site_fract_x
 _atom_site_fract_y
 _atom_site_fract_z
 _atom_site_occupancy
  K  K0  1  0.53948700  0.53948700  0.50000000  1
  K  K1  1  0.03948700  0.03948700  0.00000000  1
  B  B2  1  0.89598800  0.89598800  0.50000000  1
  B  B3  1  0.39598800  0.39598800  0.00000000  1
  B  B4  1  0.90750700  0.73990500  0.69948300  1
  B  B5  1  0.73990500  0.90750700  0.30051700  1
  B  B6  1  0.40750700  0.23990500  0.80051700  1
  B  B7  1  0.23990500  0.40750700  0.19948300  1
  B  B8  1  0.92145900  0.06743500  0.69979100  1
  B  B9  1  0.06743500  0.92145900  0.30020900  1
  B  B10  1  0.42145900  0.56743500  0.80020900  1
  B  B11  1  0.56743500  0.42145900  0.19979100  1
  O  O12  1  0.88699100  0.72190100  0.57811600  1
  O  O13  1  0.72190100  0.88699100  0.42188400  1
  O  O14  1  0.38699100  0.22190100  0.92188400  1
  O  O15  1  0.22190100  0.38699100  0.07811600  1
  O  O16  1  0.89248000  0.06290900  0.57584800  1
  O  O17  1  0.06290900  0.89248000  0.42415200  1
  O  O18  1  0.39248000  0.56290900  0.92415200  1
  O  O19  1  0.56290900  0.39248000  0.07584800  1
  O  O20  1  0.44451500  0.71861800  0.72809700  1
  O  O21  1  0.71861800  0.44451500  0.27190300  1
  O  O22  1  0.94451500  0.21861800  0.77190300  1
  O  O23  1  0.21861800  0.94451500  0.22809700  1
  O  O24  1  0.93032100  0.89588400  0.76766700  1
  O  O25  1  0.89588400  0.93032100  0.23233300  1
  O  O26  1  0.43032100  0.39588400  0.73233300  1
  O  O27  1  0.39588400  0.43032100  0.26766700  1
  O  O28  1  0.90622200  0.56109300  0.76883200  1
  O  O29  1  0.56109300  0.90622200  0.23116800  1
  O  O30  1  0.40622200  0.06109300  0.73116800  1
  O  O31  1  0.06109300  0.40622200  0.26883200  1
  O  O32  1  0.41493700  0.07564900  0.61146600  1
  O  O33  1  0.07564900  0.41493700  0.38853400  1
  O  O34  1  0.91493700  0.57564900  0.88853400  1
  O  O35  1  0.57564900  0.91493700  0.11146600  1
