# generated using pymatgen
data_Na2VCoF7
_symmetry_space_group_name_H-M   'P 1'
_cell_length_a   7.42805199
_cell_length_b   7.42805199
_cell_length_c   24.95653477
_cell_angle_alpha   81.39969665
_cell_angle_beta   81.39969665
_cell_angle_gamma   60.39430045
_symmetry_Int_Tables_number   1
_chemical_formula_structural   Na2VCoF7
_chemical_formula_sum   'Na16 V8 Co8 F56'
_cell_volume   1179.17136724
_cell_formula_units_Z   8
loop_
 _symmetry_equiv_pos_site_id
 _symmetry_equiv_pos_as_xyz
  1  'x, y, z'
loop_
 _atom_site_type_symbol
 _atom_site_label
 _atom_site_symmetry_multiplicity
 _atom_site_fract_x
 _atom_site_fract_y
 _atom_site_fract_z
 _atom_site_occupancy
  Na  Na0  1  0.00000000  0.00000000  0.00000000  1
  Na  Na1  1  0.00000000  0.00000000  0.50000000  1
  Na  Na2  1  0.50000000  0.50000000  0.00000000  1
  Na  Na3  1  0.50000000  0.50000000  0.50000000  1
  Na  Na4  1  0.00000000  0.50000000  0.50000000  1
  Na  Na5  1  0.50000000  0.00000000  0.00000000  1
  Na  Na6  1  0.77825300  0.22174700  0.25000000  1
  Na  Na7  1  0.22174700  0.77825300  0.75000000  1
  Na  Na8  1  0.78605000  0.70737000  0.25186400  1
  Na  Na9  1  0.29263000  0.21395000  0.24813600  1
  Na  Na10  1  0.21395000  0.29263000  0.74813600  1
  Na  Na11  1  0.70737000  0.78605000  0.75186400  1
  Na  Na12  1  0.13452400  0.11768700  0.12170800  1
  Na  Na13  1  0.88231300  0.86547600  0.37829200  1
  Na  Na14  1  0.86547600  0.88231300  0.87829200  1
  Na  Na15  1  0.11768700  0.13452400  0.62170800  1
  V  V16  1  0.00000000  0.50000000  0.00000000  1
  V  V17  1  0.50000000  0.00000000  0.50000000  1
  V  V18  1  0.24667100  0.75332900  0.25000000  1
  V  V19  1  0.75332900  0.24667100  0.75000000  1
  V  V20  1  0.63553800  0.11198700  0.12576600  1
  V  V21  1  0.88801300  0.36446200  0.37423400  1
  V  V22  1  0.36446200  0.88801300  0.87423400  1
  V  V23  1  0.11198700  0.63553800  0.62576600  1
  Co  Co24  1  0.63091400  0.61422900  0.12766800  1
  Co  Co25  1  0.38577100  0.36908600  0.37233200  1
  Co  Co26  1  0.36908600  0.38577100  0.87233200  1
  Co  Co27  1  0.61422900  0.63091400  0.62766800  1
  Co  Co28  1  0.13353700  0.61313000  0.12620600  1
  Co  Co29  1  0.38687000  0.86646300  0.37379400  1
  Co  Co30  1  0.86646300  0.38687000  0.87379400  1
  Co  Co31  1  0.61313000  0.13353700  0.62620600  1
  F  F32  1  0.73851600  0.58527200  0.04693700  1
  F  F33  1  0.41472800  0.26148400  0.45306300  1
  F  F34  1  0.26148400  0.41472800  0.95306300  1
  F  F35  1  0.58527200  0.73851600  0.54693700  1
  F  F36  1  0.52704000  0.63635300  0.20937400  1
  F  F37  1  0.36364700  0.47296000  0.29062600  1
  F  F38  1  0.47296000  0.36364700  0.79062600  1
  F  F39  1  0.63635300  0.52704000  0.70937400  1
  F  F40  1  0.73030200  0.30135000  0.14221600  1
  F  F41  1  0.69865000  0.26969800  0.35778400  1
  F  F42  1  0.26969800  0.69865000  0.85778400  1
  F  F43  1  0.30135000  0.73030200  0.64221600  1
  F  F44  1  0.53635000  0.92505200  0.11029100  1
  F  F45  1  0.07494800  0.46365000  0.38970900  1
  F  F46  1  0.46365000  0.07494800  0.88970900  1
  F  F47  1  0.92505200  0.53635000  0.61029100  1
  F  F48  1  0.13791200  0.58481700  0.04560800  1
  F  F49  1  0.41518300  0.86208800  0.45439200  1
  F  F50  1  0.86208800  0.41518300  0.95439200  1
  F  F51  1  0.58481700  0.13791200  0.54560800  1
  F  F52  1  0.13416600  0.63343700  0.20623900  1
  F  F53  1  0.36656300  0.86583400  0.29376100  1
  F  F54  1  0.86583400  0.36656300  0.79376100  1
  F  F55  1  0.63343700  0.13416600  0.70623900  1
  F  F56  1  0.93654500  0.92416200  0.10917700  1
  F  F57  1  0.07583800  0.06345500  0.39082300  1
  F  F58  1  0.06345500  0.07583800  0.89082300  1
  F  F59  1  0.92416200  0.93654500  0.60917700  1
  F  F60  1  0.33420500  0.30216700  0.14169000  1
  F  F61  1  0.69783300  0.66579500  0.35831000  1
  F  F62  1  0.66579500  0.69783300  0.85831000  1
  F  F63  1  0.30216700  0.33420500  0.64169000  1
  F  F64  1  0.90649300  0.53703900  0.15387000  1
  F  F65  1  0.46296100  0.09350700  0.34613000  1
  F  F66  1  0.09350700  0.46296100  0.84613000  1
  F  F67  1  0.53703900  0.90649300  0.65387000  1
  F  F68  1  0.35800000  0.69284500  0.09964200  1
  F  F69  1  0.30715500  0.64200000  0.40035800  1
  F  F70  1  0.64200000  0.30715500  0.90035800  1
  F  F71  1  0.69284500  0.35800000  0.59964200  1
  F  F72  1  0.12982800  0.20551700  0.03271300  1
  F  F73  1  0.79448300  0.87017200  0.46728700  1
  F  F74  1  0.87017200  0.79448300  0.96728700  1
  F  F75  1  0.20551700  0.12982800  0.53271300  1
  F  F76  1  0.97257000  0.86201300  0.29101800  1
  F  F77  1  0.13798700  0.02743000  0.20898200  1
  F  F78  1  0.02743000  0.13798700  0.70898200  1
  F  F79  1  0.86201300  0.97257000  0.79101800  1
  F  F80  1  0.63690900  0.03092300  0.20576500  1
  F  F81  1  0.96907700  0.36309100  0.29423500  1
  F  F82  1  0.36309100  0.96907700  0.79423500  1
  F  F83  1  0.03092300  0.63690900  0.70576500  1
  F  F84  1  0.63628800  0.18877500  0.04557300  1
  F  F85  1  0.81122500  0.36371200  0.45442700  1
  F  F86  1  0.36371200  0.81122500  0.95442700  1
  F  F87  1  0.18877500  0.63628800  0.54557300  1
