# generated using pymatgen
data_K2Mn(SO6)2
_symmetry_space_group_name_H-M   'P 1'
_cell_length_a   7.63471156
_cell_length_b   7.63471156
_cell_length_c   11.35068773
_cell_angle_alpha   88.05877090
_cell_angle_beta   88.05877090
_cell_angle_gamma   71.33154040
_symmetry_Int_Tables_number   1
_chemical_formula_structural   K2Mn(SO6)2
_chemical_formula_sum   'K4 Mn2 S4 O24'
_cell_volume   626.26315274
_cell_formula_units_Z   2
loop_
 _symmetry_equiv_pos_site_id
 _symmetry_equiv_pos_as_xyz
  1  'x, y, z'
loop_
 _atom_site_type_symbol
 _atom_site_label
 _atom_site_symmetry_multiplicity
 _atom_site_fract_x
 _atom_site_fract_y
 _atom_site_fract_z
 _atom_site_occupancy
  K  K0  1  0.32915800  0.32915800  0.05232000  1
  K  K1  1  0.67084200  0.67084200  0.94768000  1
  K  K2  1  0.13476900  0.13476900  0.60262900  1
  K  K3  1  0.86523100  0.86523100  0.39737100  1
  Mn  Mn4  1  0.00000000  0.00000000  0.00000000  1
  Mn  Mn5  1  0.50000000  0.50000000  0.50000000  1
  S  S6  1  0.41007600  0.91805000  0.25604900  1
  S  S7  1  0.91805000  0.41007600  0.25604900  1
  S  S8  1  0.58992400  0.08195000  0.74395100  1
  S  S9  1  0.08195000  0.58992400  0.74395100  1
  O  O10  1  0.49209600  0.82561800  0.14496100  1
  O  O11  1  0.82561800  0.49209600  0.14496100  1
  O  O12  1  0.50790400  0.17438200  0.85503900  1
  O  O13  1  0.17438200  0.50790400  0.85503900  1
  O  O14  1  0.52830500  0.81993900  0.35552100  1
  O  O15  1  0.81993900  0.52830500  0.35552100  1
  O  O16  1  0.47169500  0.18006100  0.64447900  1
  O  O17  1  0.18006100  0.47169500  0.64447900  1
  O  O18  1  0.21832400  0.91472900  0.27434300  1
  O  O19  1  0.91472900  0.21832400  0.27434300  1
  O  O20  1  0.78167600  0.08527100  0.72565700  1
  O  O21  1  0.08527100  0.78167600  0.72565700  1
  O  O22  1  0.41110600  0.11226000  0.25159100  1
  O  O23  1  0.11226000  0.41110600  0.25159100  1
  O  O24  1  0.58889400  0.88774000  0.74840900  1
  O  O25  1  0.88774000  0.58889400  0.74840900  1
  O  O26  1  0.23031800  0.94564300  0.96094100  1
  O  O27  1  0.94564300  0.23031800  0.96094100  1
  O  O28  1  0.76968200  0.05435700  0.03905900  1
  O  O29  1  0.05435700  0.76968200  0.03905900  1
  O  O30  1  0.58117200  0.28733200  0.43462100  1
  O  O31  1  0.28733200  0.58117200  0.43462100  1
  O  O32  1  0.41882800  0.71266800  0.56537900  1
  O  O33  1  0.71266800  0.41882800  0.56537900  1
