# generated using pymatgen
data_Mn(N3O8)2
_symmetry_space_group_name_H-M   'P 1'
_cell_length_a   6.83462200
_cell_length_b   9.15621900
_cell_length_c   13.35670917
_cell_angle_alpha   64.60164224
_cell_angle_beta   90.00000000
_cell_angle_gamma   90.00000000
_symmetry_Int_Tables_number   1
_chemical_formula_structural   Mn(N3O8)2
_chemical_formula_sum   'Mn2 N12 O32'
_cell_volume   755.06620105
_cell_formula_units_Z   2
loop_
 _symmetry_equiv_pos_site_id
 _symmetry_equiv_pos_as_xyz
  1  'x, y, z'
loop_
 _atom_site_type_symbol
 _atom_site_label
 _atom_site_symmetry_multiplicity
 _atom_site_fract_x
 _atom_site_fract_y
 _atom_site_fract_z
 _atom_site_occupancy
  Mn  Mn0  1  0.00000000  0.00000000  0.00000000  1
  Mn  Mn1  1  0.50000000  0.00000000  0.50000000  1
  N  N2  1  0.72732200  0.39724800  0.89509000  1
  N  N3  1  0.77267800  0.39724800  0.39509000  1
  N  N4  1  0.27267800  0.60275200  0.10491000  1
  N  N5  1  0.22732200  0.60275200  0.60491000  1
  N  N6  1  0.53076000  0.37402000  0.90874500  1
  N  N7  1  0.96924000  0.37402000  0.40874500  1
  N  N8  1  0.46924000  0.62598000  0.09125500  1
  N  N9  1  0.03076000  0.62598000  0.59125500  1
  N  N10  1  0.78402900  0.55611300  0.85239400  1
  N  N11  1  0.71597100  0.55611300  0.35239400  1
  N  N12  1  0.21597100  0.44388700  0.14760600  1
  N  N13  1  0.28402900  0.44388700  0.64760600  1
  O  O14  1  0.96893200  0.17344000  0.04946900  1
  O  O15  1  0.53106800  0.17344000  0.54946900  1
  O  O16  1  0.03106800  0.82656000  0.95053100  1
  O  O17  1  0.46893200  0.82656000  0.45053100  1
  O  O18  1  0.19640600  0.89480900  0.16344700  1
  O  O19  1  0.30359400  0.89480900  0.66344700  1
  O  O20  1  0.80359400  0.10519100  0.83655300  1
  O  O21  1  0.69640600  0.10519100  0.33655300  1
  O  O22  1  0.82379200  0.06791900  0.08926600  1
  O  O23  1  0.67620800  0.06791900  0.58926600  1
  O  O24  1  0.17620800  0.93208100  0.91073400  1
  O  O25  1  0.32379200  0.93208100  0.41073400  1
  O  O26  1  0.31397100  0.97931200  0.18531300  1
  O  O27  1  0.18602900  0.97931200  0.68531300  1
  O  O28  1  0.68602900  0.02068800  0.81468700  1
  O  O29  1  0.81397100  0.02068800  0.31468700  1
  O  O30  1  0.47862100  0.22893600  0.94868800  1
  O  O31  1  0.02137900  0.22893600  0.44868800  1
  O  O32  1  0.52137900  0.77106400  0.05131200  1
  O  O33  1  0.97862100  0.77106400  0.55131200  1
  O  O34  1  0.40524900  0.48443500  0.88534000  1
  O  O35  1  0.09475100  0.48443500  0.38534000  1
  O  O36  1  0.59475100  0.51556500  0.11466000  1
  O  O37  1  0.90524900  0.51556500  0.61466000  1
  O  O38  1  0.96364000  0.57937000  0.84685800  1
  O  O39  1  0.53636000  0.57937000  0.34685800  1
  O  O40  1  0.03636000  0.42063000  0.15314200  1
  O  O41  1  0.46364000  0.42063000  0.65314200  1
  O  O42  1  0.66687500  0.67404500  0.81826600  1
  O  O43  1  0.83312500  0.67404500  0.31826600  1
  O  O44  1  0.33312500  0.32595500  0.18173400  1
  O  O45  1  0.16687500  0.32595500  0.68173400  1
