# generated using pymatgen
data_IrS2Cl3O7
_symmetry_space_group_name_H-M   'P 1'
_cell_length_a   9.63806300
_cell_length_b   9.67216900
_cell_length_c   9.93228415
_cell_angle_alpha   83.93178514
_cell_angle_beta   90.00000000
_cell_angle_gamma   90.00000000
_symmetry_Int_Tables_number   1
_chemical_formula_structural   IrS2Cl3O7
_chemical_formula_sum   'Ir2 S4 Cl6 O14'
_cell_volume   920.70916332
_cell_formula_units_Z   2
loop_
 _symmetry_equiv_pos_site_id
 _symmetry_equiv_pos_as_xyz
  1  'x, y, z'
loop_
 _atom_site_type_symbol
 _atom_site_label
 _atom_site_symmetry_multiplicity
 _atom_site_fract_x
 _atom_site_fract_y
 _atom_site_fract_z
 _atom_site_occupancy
  Ir  Ir0  1  0.75000000  0.80515200  0.90776100  1
  Ir  Ir1  1  0.25000000  0.19484800  0.09223900  1
  S  S2  1  0.75000000  0.54523000  0.64046500  1
  S  S3  1  0.25000000  0.45477000  0.35953500  1
  S  S4  1  0.75000000  0.14738900  0.75839000  1
  S  S5  1  0.25000000  0.85261100  0.24161000  1
  Cl  Cl6  1  0.75000000  0.58108700  0.99343200  1
  Cl  Cl7  1  0.25000000  0.41891300  0.00656800  1
  Cl  Cl8  1  0.51802800  0.78741700  0.85958800  1
  Cl  Cl9  1  0.01802800  0.21258300  0.14041200  1
  Cl  Cl10  1  0.48197200  0.21258300  0.14041200  1
  Cl  Cl11  1  0.98197200  0.78741700  0.85958800  1
  O  O12  1  0.75000000  0.99496700  0.76879000  1
  O  O13  1  0.25000000  0.00503300  0.23121000  1
  O  O14  1  0.75000000  0.89769900  0.05305300  1
  O  O15  1  0.25000000  0.10230100  0.94694700  1
  O  O16  1  0.75000000  0.69178100  0.59749300  1
  O  O17  1  0.25000000  0.30821900  0.40250700  1
  O  O18  1  0.62088500  0.47155000  0.66038000  1
  O  O19  1  0.12088500  0.52845000  0.33962000  1
  O  O20  1  0.37911500  0.52845000  0.33962000  1
  O  O21  1  0.87911500  0.47155000  0.66038000  1
  O  O22  1  0.66938400  0.21011700  0.88370100  1
  O  O23  1  0.16938400  0.78988300  0.11629900  1
  O  O24  1  0.33061600  0.78988300  0.11629900  1
  O  O25  1  0.83061600  0.21011700  0.88370100  1
