# generated using pymatgen
data_LaC4NO11
_symmetry_space_group_name_H-M   'P 1'
_cell_length_a   7.76676800
_cell_length_b   8.62388006
_cell_length_c   9.64558765
_cell_angle_alpha   100.97903277
_cell_angle_beta   104.01798792
_cell_angle_gamma   103.36689063
_symmetry_Int_Tables_number   1
_chemical_formula_structural   LaC4NO11
_chemical_formula_sum   'La2 C8 N2 O22'
_cell_volume   588.68580570
_cell_formula_units_Z   2
loop_
 _symmetry_equiv_pos_site_id
 _symmetry_equiv_pos_as_xyz
  1  'x, y, z'
loop_
 _atom_site_type_symbol
 _atom_site_label
 _atom_site_symmetry_multiplicity
 _atom_site_fract_x
 _atom_site_fract_y
 _atom_site_fract_z
 _atom_site_occupancy
  La  La0  1  0.88969300  0.45328900  0.14561900  1
  La  La1  1  0.11030700  0.54671100  0.85438100  1
  C  C2  1  0.32406000  0.16660600  0.22925600  1
  C  C3  1  0.67594000  0.83339400  0.77074400  1
  C  C4  1  0.41935300  0.57090300  0.26497900  1
  C  C5  1  0.58064700  0.42909700  0.73502100  1
  C  C6  1  0.37544600  0.13872000  0.91768500  1
  C  C7  1  0.62455400  0.86128000  0.08231500  1
  C  C8  1  0.97381100  0.40438900  0.48942400  1
  C  C9  1  0.02618900  0.59561100  0.51057600  1
  N  N10  1  0.64205900  0.97301200  0.44113800  1
  N  N11  1  0.35794100  0.02698800  0.55886200  1
  O  O12  1  0.47334200  0.16580900  0.22227400  1
  O  O13  1  0.52665800  0.83419100  0.77772600  1
  O  O14  1  0.56832800  0.55374000  0.28440700  1
  O  O15  1  0.43167200  0.44626000  0.71559300  1
  O  O16  1  0.17714500  0.16926700  0.23925100  1
  O  O17  1  0.82285500  0.83073300  0.76074900  1
  O  O18  1  0.27499500  0.59519700  0.25986200  1
  O  O19  1  0.72500500  0.40480300  0.74013800  1
  O  O20  1  0.52019800  0.23549500  0.93613900  1
  O  O21  1  0.47980200  0.76450500  0.06386100  1
  O  O22  1  0.24144800  0.03143400  0.89884400  1
  O  O23  1  0.75855200  0.96856600  0.10115600  1
  O  O24  1  0.90473800  0.31565500  0.35771400  1
  O  O25  1  0.09526200  0.68434500  0.64228600  1
  O  O26  1  0.00502100  0.35509300  0.60653800  1
  O  O27  1  0.99497900  0.64490700  0.39346200  1
  O  O28  1  0.31898000  0.94798800  0.43729600  1
  O  O29  1  0.68102000  0.05201200  0.56270400  1
  O  O30  1  0.04155100  0.34534300  0.98246600  1
  O  O31  1  0.95844900  0.65465700  0.01753400  1
  O  O32  1  0.76444500  0.62013800  0.02036200  1
  O  O33  1  0.23555500  0.37986200  0.97963800  1
