# generated using pymatgen
data_Na2CaZr2Si10O27
_symmetry_space_group_name_H-M   'P 1'
_cell_length_a   9.29680318
_cell_length_b   9.29680318
_cell_length_c   19.06491061
_cell_angle_alpha   82.02318518
_cell_angle_beta   82.02318518
_cell_angle_gamma   112.80247597
_symmetry_Int_Tables_number   1
_chemical_formula_structural   Na2CaZr2Si10O27
_chemical_formula_sum   'Na4 Ca2 Zr4 Si20 O54'
_cell_volume   1470.47049442
_cell_formula_units_Z   2
loop_
 _symmetry_equiv_pos_site_id
 _symmetry_equiv_pos_as_xyz
  1  'x, y, z'
loop_
 _atom_site_type_symbol
 _atom_site_label
 _atom_site_symmetry_multiplicity
 _atom_site_fract_x
 _atom_site_fract_y
 _atom_site_fract_z
 _atom_site_occupancy
  Na  Na0  1  0.03440700  0.05310400  0.60141400  1
  Na  Na1  1  0.05310400  0.03440700  0.10141400  1
  Na  Na2  1  0.94738800  0.95425600  0.90775000  1
  Na  Na3  1  0.95425600  0.94738800  0.40774900  1
  Ca  Ca4  1  0.62852100  0.37721900  0.49696400  1
  Ca  Ca5  1  0.37721900  0.62852100  0.99696400  1
  Zr  Zr6  1  0.02782100  0.50128700  0.50234000  1
  Zr  Zr7  1  0.50128700  0.02782100  0.00234000  1
  Zr  Zr8  1  0.50419400  0.97574600  0.49341000  1
  Zr  Zr9  1  0.97574600  0.50419400  0.99341000  1
  Si  Si10  1  0.84589900  0.23995900  0.88548300  1
  Si  Si11  1  0.23995900  0.84589900  0.38548300  1
  Si  Si12  1  0.24797200  0.85813500  0.88725700  1
  Si  Si13  1  0.85813500  0.24797200  0.38725700  1
  Si  Si14  1  0.15704900  0.76518200  0.61099900  1
  Si  Si15  1  0.76518200  0.15704900  0.11099900  1
  Si  Si16  1  0.75271700  0.14813400  0.60893700  1
  Si  Si17  1  0.14813400  0.75271700  0.10893700  1
  Si  Si18  1  0.71389100  0.29806800  0.74587100  1
  Si  Si19  1  0.29806800  0.71389100  0.24587100  1
  Si  Si20  1  0.28900100  0.70805800  0.75007200  1
  Si  Si21  1  0.70805800  0.28900100  0.25007200  1
  Si  Si22  1  0.81359500  0.60403700  0.62909100  1
  Si  Si23  1  0.60403700  0.81359500  0.12909100  1
  Si  Si24  1  0.60052700  0.79230500  0.63320300  1
  Si  Si25  1  0.79230500  0.60052700  0.13320300  1
  Si  Si26  1  0.19163100  0.40244000  0.86669200  1
  Si  Si27  1  0.40244000  0.19163100  0.36669200  1
  Si  Si28  1  0.40374300  0.21282600  0.86265200  1
  Si  Si29  1  0.21282600  0.40374300  0.36265200  1
  O  O30  1  0.66340800  0.65233400  0.64034900  1
  O  O31  1  0.65233400  0.66340800  0.14034900  1
  O  O32  1  0.34132900  0.35327500  0.85884900  1
  O  O33  1  0.35327500  0.34132900  0.35884900  1
  O  O34  1  0.81249500  0.52103900  0.55900400  1
  O  O35  1  0.52103900  0.81249500  0.05900400  1
  O  O36  1  0.97685900  0.77162900  0.61880500  1
  O  O37  1  0.77162900  0.97685900  0.11880500  1
  O  O38  1  0.79889800  0.48491400  0.70384500  1
  O  O39  1  0.48491400  0.79889800  0.20384500  1
  O  O40  1  0.53184700  0.79983100  0.55980200  1
  O  O41  1  0.79983100  0.53184700  0.05980200  1
  O  O42  1  0.75285800  0.96610900  0.62730800  1
  O  O43  1  0.96610900  0.75285800  0.12730800  1
  O  O44  1  0.47027500  0.75626600  0.70691700  1
  O  O45  1  0.75626600  0.47027500  0.20691700  1
  O  O46  1  0.20963200  0.52063300  0.79112000  1
  O  O47  1  0.52063300  0.20963200  0.29112000  1
  O  O48  1  0.19048800  0.48757100  0.93592300  1
  O  O49  1  0.48757100  0.19048800  0.43592300  1
  O  O50  1  0.02739300  0.23685500  0.87679500  1
  O  O51  1  0.23685500  0.02739300  0.37679500  1
  O  O52  1  0.53226500  0.25355200  0.78753400  1
  O  O53  1  0.25355200  0.53226500  0.28753400  1
  O  O54  1  0.47865800  0.20355200  0.93416600  1
  O  O55  1  0.20355200  0.47865800  0.43416600  1
  O  O56  1  0.24958200  0.04054400  0.86894100  1
  O  O57  1  0.04054400  0.24958200  0.36894100  1
  O  O58  1  0.18152000  0.73652100  0.69437700  1
  O  O59  1  0.73652100  0.18152000  0.19437700  1
  O  O60  1  0.70358900  0.18456400  0.68800300  1
  O  O61  1  0.18456400  0.70358900  0.18800300  1
  O  O62  1  0.81822500  0.26702500  0.80263200  1
  O  O63  1  0.26702500  0.81822500  0.30263300  1
  O  O64  1  0.29771400  0.81981700  0.80859600  1
  O  O65  1  0.81981700  0.29771400  0.30859600  1
  O  O66  1  0.85627200  0.38999100  0.92236700  1
  O  O67  1  0.38999100  0.85627200  0.42236700  1
  O  O68  1  0.38359300  0.86093600  0.93424500  1
  O  O69  1  0.86093600  0.38359300  0.43424500  1
  O  O70  1  0.06437400  0.74114800  0.92828300  1
  O  O71  1  0.74114800  0.06437400  0.42828300  1
  O  O72  1  0.72284900  0.06523300  0.93336000  1
  O  O73  1  0.06523300  0.72284900  0.43336000  1
  O  O74  1  0.93697300  0.26519500  0.56865600  1
  O  O75  1  0.26519500  0.93697300  0.06865600  1
  O  O76  1  0.28579100  0.93685800  0.56322000  1
  O  O77  1  0.93685800  0.28579100  0.06322000  1
  O  O78  1  0.14295000  0.61361100  0.57466900  1
  O  O79  1  0.61361100  0.14295000  0.07466900  1
  O  O80  1  0.61859800  0.14483700  0.56145200  1
  O  O81  1  0.14483700  0.61859800  0.06145200  1
  O  O82  1  0.44093500  0.50168000  0.51764900  1
  O  O83  1  0.50168000  0.44093500  0.01764900  1
