# generated using pymatgen
data_KFePbOF6
_symmetry_space_group_name_H-M   'P 1'
_cell_length_a   8.63131169
_cell_length_b   8.97092001
_cell_length_c   8.85472427
_cell_angle_alpha   88.47102137
_cell_angle_beta   90.04235423
_cell_angle_gamma   90.97177636
_symmetry_Int_Tables_number   1
_chemical_formula_structural   KFePbOF6
_chemical_formula_sum   'K4 Fe4 Pb4 O4 F24'
_cell_volume   685.28572410
_cell_formula_units_Z   4
loop_
 _symmetry_equiv_pos_site_id
 _symmetry_equiv_pos_as_xyz
  1  'x, y, z'
loop_
 _atom_site_type_symbol
 _atom_site_label
 _atom_site_symmetry_multiplicity
 _atom_site_fract_x
 _atom_site_fract_y
 _atom_site_fract_z
 _atom_site_occupancy
  K  K0  1  0.25811400  0.00065300  0.49222200  1
  K  K1  1  0.75829800  0.00073000  0.99227900  1
  K  K2  1  0.74189100  0.99935200  0.50776300  1
  K  K3  1  0.24169700  0.99930100  0.00770200  1
  Fe  Fe4  1  0.50653100  0.22149300  0.24099800  1
  Fe  Fe5  1  0.49348800  0.77851100  0.75899600  1
  Fe  Fe6  1  0.00651600  0.22124700  0.74081700  1
  Fe  Fe7  1  0.99335700  0.77870200  0.25932600  1
  Pb  Pb8  1  0.99863900  0.72350100  0.74220900  1
  Pb  Pb9  1  0.49813000  0.72397600  0.24096200  1
  Pb  Pb10  1  0.00161700  0.27642200  0.25808100  1
  Pb  Pb11  1  0.50177400  0.27580200  0.75874400  1
  O  O12  1  0.57111400  0.50158300  0.50692400  1
  O  O13  1  0.07113100  0.50165700  0.00724700  1
  O  O14  1  0.42887600  0.49846400  0.49303600  1
  O  O15  1  0.92884500  0.49834200  0.99278800  1
  F  F16  1  0.97176900  0.56840100  0.28971200  1
  F  F17  1  0.47200900  0.56845600  0.79069500  1
  F  F18  1  0.02820600  0.43158200  0.71030700  1
  F  F19  1  0.52804700  0.43158200  0.20925900  1
  F  F20  1  0.98995300  0.79647000  0.03745700  1
  F  F21  1  0.49004300  0.79684500  0.53732200  1
  F  F22  1  0.01004200  0.20354000  0.96257500  1
  F  F23  1  0.50996900  0.20319500  0.46265800  1
  F  F24  1  0.01771200  0.00453500  0.25273800  1
  F  F25  1  0.51784100  0.00465900  0.75266200  1
  F  F26  1  0.98229900  0.99548300  0.74729700  1
  F  F27  1  0.48216200  0.99537400  0.24727000  1
  F  F28  1  0.76713700  0.80985500  0.26052600  1
  F  F29  1  0.26727100  0.80981700  0.76046500  1
  F  F30  1  0.23281400  0.19015000  0.73947500  1
  F  F31  1  0.73274900  0.19021500  0.23949100  1
  F  F32  1  0.00098700  0.19718900  0.51648300  1
  F  F33  1  0.50089900  0.19649200  0.01663300  1
  F  F34  1  0.99900000  0.80280400  0.48358400  1
  F  F35  1  0.49909400  0.80355300  0.98331300  1
  F  F36  1  0.22143100  0.77584100  0.25352000  1
  F  F37  1  0.72156600  0.77598000  0.75348400  1
  F  F38  1  0.77853400  0.22418400  0.74648900  1
  F  F39  1  0.27845000  0.22406100  0.24649400  1
