# generated using pymatgen
data_K2NbO3F5
_symmetry_space_group_name_H-M   'P 1'
_cell_length_a   6.41012024
_cell_length_b   6.41012024
_cell_length_c   9.67650907
_cell_angle_alpha   86.76183574
_cell_angle_beta   86.76183574
_cell_angle_gamma   87.83895524
_symmetry_Int_Tables_number   1
_chemical_formula_structural   K2NbO3F5
_chemical_formula_sum   'K4 Nb2 O6 F10'
_cell_volume   396.09794457
_cell_formula_units_Z   2
loop_
 _symmetry_equiv_pos_site_id
 _symmetry_equiv_pos_as_xyz
  1  'x, y, z'
loop_
 _atom_site_type_symbol
 _atom_site_label
 _atom_site_symmetry_multiplicity
 _atom_site_fract_x
 _atom_site_fract_y
 _atom_site_fract_z
 _atom_site_occupancy
  K  K0  1  0.26378400  0.27639800  0.21599600  1
  K  K1  1  0.72360200  0.73621600  0.78400400  1
  K  K2  1  0.75519800  0.24480200  0.50000000  1
  K  K3  1  0.23774200  0.76225800  0.50000000  1
  Nb  Nb4  1  0.76959300  0.78243000  0.26952200  1
  Nb  Nb5  1  0.21757000  0.23040700  0.73047800  1
  O  O6  1  0.68611800  0.86222000  0.08023700  1
  O  O7  1  0.13778000  0.31388200  0.91976300  1
  O  O8  1  0.85798100  0.70494800  0.08073700  1
  O  O9  1  0.29505200  0.14201900  0.91926300  1
  O  O10  1  0.57528600  0.42471400  0.00000000  1
  O  O11  1  0.43496300  0.56503700  0.00000000  1
  F  F12  1  0.56623900  0.55860600  0.31631500  1
  F  F13  1  0.44139400  0.43376100  0.68368500  1
  F  F14  1  0.96982500  0.01092500  0.27296700  1
  F  F15  1  0.98907500  0.03017500  0.72703300  1
  F  F16  1  0.78133300  0.79644100  0.48090200  1
  F  F17  1  0.20355900  0.21866700  0.51909800  1
  F  F18  1  0.53350100  0.99263000  0.31266400  1
  F  F19  1  0.00737000  0.46649900  0.68733600  1
  F  F20  1  0.00356100  0.56952600  0.31165100  1
  F  F21  1  0.43047400  0.99643900  0.68834900  1
