data_image0
_chemical_formula_structural       Ba2Ce2N4
_chemical_formula_sum              "Ba2 Ce2 N4"
_cell_length_a       3.78465
_cell_length_b       3.78464
_cell_length_c       12.9097
_cell_angle_alpha    90.0001
_cell_angle_beta     90
_cell_angle_gamma    120

_space_group_name_H-M_alt    "P 1"
_space_group_IT_number       1

loop_
  _space_group_symop_operation_xyz
  'x, y, z'

loop_
  _atom_site_type_symbol
  _atom_site_label
  _atom_site_symmetry_multiplicity
  _atom_site_fract_x
  _atom_site_fract_y
  _atom_site_fract_z
  _atom_site_occupancy
  Ba  Ba1       1.0  0.66700  0.33300  0.25000  1.0000
  Ba  Ba2       1.0  0.33300  0.66700  0.75000  1.0000
  Ce  Ce1       1.0  0.00000  0.00000  0.00000  1.0000
  Ce  Ce2       1.0  0.00000  0.00000  0.50000  1.0000
  N   N1        1.0  0.33300  0.66700  0.10800  1.0000
  N   N2        1.0  0.33300  0.66700  0.39200  1.0000
  N   N3        1.0  0.66700  0.33300  0.60800  1.0000
  N   N4        1.0  0.66700  0.33300  0.89200  1.0000
