# generated using pymatgen
data_Hg4SbO6
_symmetry_space_group_name_H-M   'P 1'
_cell_length_a   8.63180076
_cell_length_b   8.63180076
_cell_length_c   4.84584089
_cell_angle_alpha   74.19208081
_cell_angle_beta   74.19208081
_cell_angle_gamma   133.65202141
_symmetry_Int_Tables_number   1
_chemical_formula_structural   Hg4SbO6
_chemical_formula_sum   'Hg4 Sb1 O6'
_cell_volume   188.52770384
_cell_formula_units_Z   1
loop_
 _symmetry_equiv_pos_site_id
 _symmetry_equiv_pos_as_xyz
  1  'x, y, z'
loop_
 _atom_site_type_symbol
 _atom_site_label
 _atom_site_symmetry_multiplicity
 _atom_site_fract_x
 _atom_site_fract_y
 _atom_site_fract_z
 _atom_site_occupancy
  Hg  Hg0  1  0.06489200  0.62236700  0.95679600  1
  Hg  Hg1  1  0.24422200  0.45534100  0.94500000  1
  Hg  Hg2  1  0.45534100  0.24422200  0.94500000  1
  Hg  Hg3  1  0.62236700  0.06489200  0.95679600  1
  Sb  Sb4  1  0.85238800  0.85238800  0.94206900  1
  O  O5  1  0.17365900  0.96484200  0.88838200  1
  O  O6  1  0.09815900  0.09815900  0.38524600  1
  O  O7  1  0.96484200  0.17365900  0.88838200  1
  O  O8  1  0.74094400  0.53316700  0.99117400  1
  O  O9  1  0.53316700  0.74094400  0.99117400  1
  O  O10  1  0.60801400  0.60801400  0.49919700  1
