# generated using pymatgen
data_K2SnCl4O
_symmetry_space_group_name_H-M   'P 1'
_cell_length_a   7.41522900
_cell_length_b   9.55793000
_cell_length_c   12.47150900
_cell_angle_alpha   90.00000000
_cell_angle_beta   90.00000000
_cell_angle_gamma   90.00000000
_symmetry_Int_Tables_number   1
_chemical_formula_structural   K2SnCl4O
_chemical_formula_sum   'K8 Sn4 Cl16 O4'
_cell_volume   883.90871849
_cell_formula_units_Z   4
loop_
 _symmetry_equiv_pos_site_id
 _symmetry_equiv_pos_as_xyz
  1  'x, y, z'
loop_
 _atom_site_type_symbol
 _atom_site_label
 _atom_site_symmetry_multiplicity
 _atom_site_fract_x
 _atom_site_fract_y
 _atom_site_fract_z
 _atom_site_occupancy
  K  K0  1  0.89136200  0.02766400  0.65820300  1
  K  K1  1  0.60863800  0.47233600  0.15820300  1
  K  K2  1  0.10863800  0.52766400  0.34179700  1
  K  K3  1  0.39136200  0.97233600  0.84179700  1
  K  K4  1  0.10863800  0.97233600  0.34179700  1
  K  K5  1  0.39136200  0.52766400  0.84179700  1
  K  K6  1  0.89136200  0.47233600  0.65820300  1
  K  K7  1  0.60863800  0.02766400  0.15820300  1
  Sn  Sn8  1  0.47259700  0.75000000  0.46754800  1
  Sn  Sn9  1  0.02740300  0.75000000  0.96754800  1
  Sn  Sn10  1  0.52740300  0.25000000  0.53245200  1
  Sn  Sn11  1  0.97259700  0.25000000  0.03245200  1
  Cl  Cl12  1  0.57941300  0.75000000  0.66115100  1
  Cl  Cl13  1  0.92058700  0.75000000  0.16115100  1
  Cl  Cl14  1  0.42058700  0.25000000  0.33884900  1
  Cl  Cl15  1  0.07941300  0.25000000  0.83884900  1
  Cl  Cl16  1  0.68904100  0.56182300  0.43168700  1
  Cl  Cl17  1  0.81095900  0.93817700  0.93168700  1
  Cl  Cl18  1  0.31095900  0.06182300  0.56831300  1
  Cl  Cl19  1  0.18904100  0.43817700  0.06831300  1
  Cl  Cl20  1  0.31095900  0.43817700  0.56831300  1
  Cl  Cl21  1  0.18904100  0.06182300  0.06831300  1
  Cl  Cl22  1  0.68904100  0.93817700  0.43168700  1
  Cl  Cl23  1  0.81095900  0.56182300  0.93168700  1
  Cl  Cl24  1  0.58026900  0.25000000  0.74273500  1
  Cl  Cl25  1  0.91973100  0.25000000  0.24273500  1
  Cl  Cl26  1  0.41973100  0.75000000  0.25726500  1
  Cl  Cl27  1  0.08026900  0.75000000  0.75726500  1
  O  O28  1  0.78394500  0.25000000  0.52380000  1
  O  O29  1  0.71605500  0.25000000  0.02380000  1
  O  O30  1  0.21605500  0.75000000  0.47620000  1
  O  O31  1  0.28394500  0.75000000  0.97620000  1
