# generated using pymatgen
data_MnSiO3
_symmetry_space_group_name_H-M   'P 1'
_cell_length_a   5.97153001
_cell_length_b   8.86198514
_cell_length_c   13.08767707
_cell_angle_alpha   112.81467957
_cell_angle_beta   90.94879758
_cell_angle_gamma   90.32204255
_symmetry_Int_Tables_number   1
_chemical_formula_structural   MnSiO3
_chemical_formula_sum   'Mn10 Si10 O30'
_cell_volume   638.26679833
_cell_formula_units_Z   10
loop_
 _symmetry_equiv_pos_site_id
 _symmetry_equiv_pos_as_xyz
  1  'x, y, z'
loop_
 _atom_site_type_symbol
 _atom_site_label
 _atom_site_symmetry_multiplicity
 _atom_site_fract_x
 _atom_site_fract_y
 _atom_site_fract_z
 _atom_site_occupancy
  Mn  Mn0  1  0.13177600  0.20084300  0.31487500  1
  Mn  Mn1  1  0.82034500  0.37633400  0.14316100  1
  Mn  Mn2  1  0.17965500  0.62366600  0.85683900  1
  Mn  Mn3  1  0.21328400  0.44768400  0.58214000  1
  Mn  Mn4  1  0.34917600  0.24198500  0.72618800  1
  Mn  Mn5  1  0.78671600  0.55231600  0.41786000  1
  Mn  Mn6  1  0.65082400  0.75801500  0.27381200  1
  Mn  Mn7  1  0.00000000  0.00000000  0.00000000  1
  Mn  Mn8  1  0.86822400  0.79915700  0.68512500  1
  Mn  Mn9  1  0.50000000  0.00000000  0.00000000  1
  Si  Si10  1  0.78186700  0.68904500  0.03441600  1
  Si  Si11  1  0.57611800  0.03520100  0.18965700  1
  Si  Si12  1  0.63869100  0.21099700  0.43488400  1
  Si  Si13  1  0.36130900  0.78900300  0.56511600  1
  Si  Si14  1  0.86488000  0.16921100  0.63738000  1
  Si  Si15  1  0.21813300  0.31095500  0.96558400  1
  Si  Si16  1  0.68080700  0.51126300  0.77944400  1
  Si  Si17  1  0.13512000  0.83078900  0.36262000  1
  Si  Si18  1  0.31919300  0.48873700  0.22055600  1
  Si  Si19  1  0.42388200  0.96479900  0.81034300  1
  O  O20  1  0.76183500  0.12399300  0.13839500  1
  O  O21  1  0.66871800  0.91533500  0.84454200  1
  O  O22  1  0.40292500  0.16091900  0.90007300  1
  O  O23  1  0.09189000  0.98338400  0.33084500  1
  O  O24  1  0.09650200  0.25743500  0.62424700  1
  O  O25  1  0.29097300  0.69243800  0.26070600  1
  O  O26  1  0.19180200  0.39852700  0.87877400  1
  O  O27  1  0.10684400  0.40665600  0.25668800  1
  O  O28  1  0.33128200  0.08466500  0.15545800  1
  O  O29  1  0.00364100  0.77087700  0.00509900  1
  O  O30  1  0.39863700  0.29954600  0.44450600  1
  O  O31  1  0.65201200  0.58124900  0.91605300  1
  O  O32  1  0.99635900  0.22912300  0.99490100  1
  O  O33  1  0.61349300  0.03827300  0.31410900  1
  O  O34  1  0.70902700  0.30756200  0.73929400  1
  O  O35  1  0.34798800  0.41875100  0.08394700  1
  O  O36  1  0.84788800  0.32198100  0.42160800  1
  O  O37  1  0.60136300  0.70045400  0.55549400  1
  O  O38  1  0.89315600  0.59334500  0.74331200  1
  O  O39  1  0.59707500  0.83908100  0.09992700  1
  O  O40  1  0.90811000  0.01661600  0.66915500  1
  O  O41  1  0.23816500  0.87600700  0.86160500  1
  O  O42  1  0.15211200  0.67801900  0.57839200  1
  O  O43  1  0.80819800  0.60147300  0.12122600  1
  O  O44  1  0.38650700  0.96172700  0.68589100  1
  O  O45  1  0.30799100  0.86300600  0.47072000  1
  O  O46  1  0.90349800  0.74256500  0.37575300  1
  O  O47  1  0.69200900  0.13699400  0.52928000  1
  O  O48  1  0.57069200  0.47786700  0.26966500  1
  O  O49  1  0.42930800  0.52213300  0.73033500  1
