# generated using pymatgen
data_Fe3O4
_symmetry_space_group_name_H-M   'P 1'
_cell_length_a   2.93317600
_cell_length_b   9.86818600
_cell_length_c   9.99333573
_cell_angle_alpha   89.96632201
_cell_angle_beta   90.00000000
_cell_angle_gamma   90.00000000
_symmetry_Int_Tables_number   1
_chemical_formula_structural   Fe3O4
_chemical_formula_sum   'Fe12 O16'
_cell_volume   289.25831518
_cell_formula_units_Z   4
loop_
 _symmetry_equiv_pos_site_id
 _symmetry_equiv_pos_as_xyz
  1  'x, y, z'
loop_
 _atom_site_type_symbol
 _atom_site_label
 _atom_site_symmetry_multiplicity
 _atom_site_fract_x
 _atom_site_fract_y
 _atom_site_fract_z
 _atom_site_occupancy
  Fe  Fe0  1  0.27192800  0.86763400  0.73717700  1
  Fe  Fe1  1  0.26018400  0.63014400  0.26087700  1
  Fe  Fe2  1  0.73981600  0.13014400  0.26087700  1
  Fe  Fe3  1  0.72807200  0.36763400  0.73717700  1
  Fe  Fe4  1  0.23936000  0.12304100  0.57463300  1
  Fe  Fe5  1  0.76064000  0.62304100  0.57463300  1
  Fe  Fe6  1  0.76090300  0.61644600  0.92377100  1
  Fe  Fe7  1  0.75163600  0.88270000  0.42488300  1
  Fe  Fe8  1  0.75054900  0.87851700  0.07116200  1
  Fe  Fe9  1  0.24836400  0.38270000  0.42488300  1
  Fe  Fe10  1  0.23909700  0.11644600  0.92377100  1
  Fe  Fe11  1  0.24945100  0.37851700  0.07116200  1
  O  O12  1  0.75723600  0.53915200  0.37739700  1
  O  O13  1  0.73950300  0.97886500  0.89056600  1
  O  O14  1  0.75354000  0.51946300  0.11865500  1
  O  O15  1  0.24276400  0.03915200  0.37739700  1
  O  O16  1  0.26049700  0.47886500  0.89056600  1
  O  O17  1  0.24646000  0.01946300  0.11865500  1
  O  O18  1  0.25694100  0.48230300  0.61260700  1
  O  O19  1  0.74305900  0.98230300  0.61260700  1
  O  O20  1  0.75883100  0.77459400  0.24580200  1
  O  O21  1  0.22475300  0.21300000  0.75374200  1
  O  O22  1  0.77524700  0.71300000  0.75374200  1
  O  O23  1  0.24116900  0.27459400  0.24580200  1
  O  O24  1  0.74381500  0.24837100  0.00382400  1
  O  O25  1  0.25900900  0.74577200  0.50490300  1
  O  O26  1  0.74099100  0.24577200  0.50490300  1
  O  O27  1  0.25618500  0.74837100  0.00382400  1
