# generated using pymatgen
data_MnZn2Si(HO3)2
_symmetry_space_group_name_H-M   'P 1'
_cell_length_a   5.37073100
_cell_length_b   8.32102900
_cell_length_c   11.88280364
_cell_angle_alpha   84.45612715
_cell_angle_beta   90.00000000
_cell_angle_gamma   90.00000000
_symmetry_Int_Tables_number   1
_chemical_formula_structural   MnZn2Si(HO3)2
_chemical_formula_sum   'Mn4 Zn8 Si4 H8 O24'
_cell_volume   528.55865055
_cell_formula_units_Z   4
loop_
 _symmetry_equiv_pos_site_id
 _symmetry_equiv_pos_as_xyz
  1  'x, y, z'
loop_
 _atom_site_type_symbol
 _atom_site_label
 _atom_site_symmetry_multiplicity
 _atom_site_fract_x
 _atom_site_fract_y
 _atom_site_fract_z
 _atom_site_occupancy
  Mn  Mn0  1  0.25467800  0.60664000  0.45619300  1
  Mn  Mn1  1  0.75467800  0.89336000  0.54380700  1
  Mn  Mn2  1  0.74532200  0.39336000  0.54380700  1
  Mn  Mn3  1  0.24532200  0.10664000  0.45619300  1
  Zn  Zn4  1  0.43368700  0.77322200  0.92065000  1
  Zn  Zn5  1  0.93368700  0.72677800  0.07935000  1
  Zn  Zn6  1  0.56631300  0.22677800  0.07935000  1
  Zn  Zn7  1  0.06631300  0.27322200  0.92065000  1
  Zn  Zn8  1  0.43571000  0.11141400  0.75089900  1
  Zn  Zn9  1  0.93571000  0.38858600  0.24910100  1
  Zn  Zn10  1  0.56429000  0.88858600  0.24910100  1
  Zn  Zn11  1  0.06429000  0.61141400  0.75089900  1
  Si  Si12  1  0.43154300  0.56776200  0.17119900  1
  Si  Si13  1  0.93154300  0.93223800  0.82880100  1
  Si  Si14  1  0.56845700  0.43223800  0.82880100  1
  Si  Si15  1  0.06845700  0.06776200  0.17119900  1
  H  H16  1  0.27870900  0.91069900  0.64093000  1
  H  H17  1  0.77870900  0.58930100  0.35907000  1
  H  H18  1  0.72129100  0.08930100  0.35907000  1
  H  H19  1  0.22129100  0.41069900  0.64093000  1
  H  H20  1  0.45884500  0.35970200  0.36664300  1
  H  H21  1  0.95884500  0.14029800  0.63335700  1
  H  H22  1  0.54115500  0.64029800  0.63335700  1
  H  H23  1  0.04115500  0.85970200  0.36664300  1
  O  O24  1  0.42550000  0.60873800  0.80726900  1
  O  O25  1  0.92550000  0.89126200  0.19273100  1
  O  O26  1  0.57450000  0.39126200  0.19273100  1
  O  O27  1  0.07450000  0.10873800  0.80726900  1
  O  O28  1  0.46207800  0.66333300  0.28617000  1
  O  O29  1  0.96207800  0.83666700  0.71383000  1
  O  O30  1  0.53792200  0.33666700  0.71383000  1
  O  O31  1  0.03792200  0.16333300  0.28617000  1
  O  O32  1  0.43012100  0.31902700  0.93331600  1
  O  O33  1  0.93012100  0.18097300  0.06668400  1
  O  O34  1  0.56987900  0.68097300  0.06668400  1
  O  O35  1  0.06987900  0.81902700  0.93331600  1
  O  O36  1  0.36293500  0.03822700  0.13851400  1
  O  O37  1  0.86293500  0.46177300  0.86148600  1
  O  O38  1  0.63706500  0.96177300  0.86148600  1
  O  O39  1  0.13706500  0.53822700  0.13851400  1
  O  O40  1  0.41037800  0.98880200  0.61781800  1
  O  O41  1  0.91037800  0.51119800  0.38218200  1
  O  O42  1  0.58962200  0.01119800  0.38218200  1
  O  O43  1  0.08962200  0.48880200  0.61781800  1
  O  O44  1  0.40394600  0.35062900  0.44541900  1
  O  O45  1  0.90394600  0.14937100  0.55458100  1
  O  O46  1  0.59605400  0.64937100  0.55458100  1
  O  O47  1  0.09605400  0.85062900  0.44541900  1
