# generated using pymatgen
data_Hf2Be17
_symmetry_space_group_name_H-M   'P 1'
_cell_length_a   5.64684617
_cell_length_b   5.64684617
_cell_length_c   5.64684614
_cell_angle_alpha   82.80314644
_cell_angle_beta   82.80314644
_cell_angle_gamma   82.80315514
_symmetry_Int_Tables_number   1
_chemical_formula_structural   Hf2Be17
_chemical_formula_sum   'Hf2 Be17'
_cell_volume   176.13245386
_cell_formula_units_Z   1
loop_
 _symmetry_equiv_pos_site_id
 _symmetry_equiv_pos_as_xyz
  1  'x, y, z'
loop_
 _atom_site_type_symbol
 _atom_site_label
 _atom_site_symmetry_multiplicity
 _atom_site_fract_x
 _atom_site_fract_y
 _atom_site_fract_z
 _atom_site_occupancy
  Hf  Hf0  1  0.83746600  0.83746600  0.83746600  1
  Hf  Hf1  1  0.16253400  0.16253400  0.16253400  1
  Be  Be2  1  0.59643600  0.59643600  0.59643600  1
  Be  Be3  1  0.40356400  0.40356400  0.40356400  1
  Be  Be4  1  0.50000000  0.50000000  0.00000000  1
  Be  Be5  1  0.00000000  0.50000000  0.50000000  1
  Be  Be6  1  0.50000000  0.00000000  0.50000000  1
  Be  Be7  1  0.21111400  0.50000000  0.78888600  1
  Be  Be8  1  0.78888600  0.21111400  0.50000000  1
  Be  Be9  1  0.50000000  0.78888600  0.21111400  1
  Be  Be10  1  0.78888600  0.50000000  0.21111400  1
  Be  Be11  1  0.21111400  0.78888600  0.50000000  1
  Be  Be12  1  0.50000000  0.21111400  0.78888600  1
  Be  Be13  1  0.84314300  0.33974700  0.84314300  1
  Be  Be14  1  0.84314300  0.84314300  0.33974700  1
  Be  Be15  1  0.33974700  0.84314300  0.84314300  1
  Be  Be16  1  0.15685700  0.66025300  0.15685700  1
  Be  Be17  1  0.15685700  0.15685700  0.66025300  1
  Be  Be18  1  0.66025300  0.15685700  0.15685700  1
