# generated using pymatgen
data_K4Ti2C8O23
_symmetry_space_group_name_H-M   'P 1'
_cell_length_a   11.61749745
_cell_length_b   14.06383269
_cell_length_c   14.50613404
_cell_angle_alpha   90.00000000
_cell_angle_beta   90.00000000
_cell_angle_gamma   102.78133852
_symmetry_Int_Tables_number   1
_chemical_formula_structural   K4Ti2C8O23
_chemical_formula_sum   'K16 Ti8 C32 O92'
_cell_volume   2311.37926709
_cell_formula_units_Z   4
loop_
 _symmetry_equiv_pos_site_id
 _symmetry_equiv_pos_as_xyz
  1  'x, y, z'
loop_
 _atom_site_type_symbol
 _atom_site_label
 _atom_site_symmetry_multiplicity
 _atom_site_fract_x
 _atom_site_fract_y
 _atom_site_fract_z
 _atom_site_occupancy
  K  K0  1  0.71569996  0.12695388  0.89567446  1
  K  K1  1  0.28430004  0.37304612  0.39567446  1
  K  K2  1  0.28430004  0.87304612  0.10432554  1
  K  K3  1  0.71569996  0.62695388  0.60432554  1
  K  K4  1  0.50614055  0.04862925  0.63963955  1
  K  K5  1  0.49385945  0.45137075  0.13963955  1
  K  K6  1  0.49385945  0.95137075  0.36036045  1
  K  K7  1  0.50614055  0.54862925  0.86036045  1
  K  K8  1  0.96809746  0.78817799  0.79450348  1
  K  K9  1  0.03190254  0.71182201  0.29450348  1
  K  K10  1  0.03190254  0.21182201  0.20549652  1
  K  K11  1  0.96809746  0.28817799  0.70549652  1
  K  K12  1  0.84850120  0.08159724  0.45251795  1
  K  K13  1  0.15149880  0.41840276  0.95251795  1
  K  K14  1  0.15149880  0.91840276  0.54748205  1
  K  K15  1  0.84850120  0.58159724  0.04748205  1
  Ti  Ti16  1  0.39244556  0.11015993  0.90219055  1
  Ti  Ti17  1  0.60755444  0.38984007  0.40219055  1
  Ti  Ti18  1  0.60755444  0.88984007  0.09780945  1
  Ti  Ti19  1  0.39244556  0.61015993  0.59780945  1
  Ti  Ti20  1  0.50573796  0.90391920  0.86627739  1
  Ti  Ti21  1  0.49426204  0.59608080  0.36627739  1
  Ti  Ti22  1  0.49426204  0.09608080  0.13372261  1
  Ti  Ti23  1  0.50573796  0.40391920  0.63372261  1
  C  C24  1  0.38801465  0.30944246  0.95127802  1
  C  C25  1  0.61198535  0.19055754  0.45127802  1
  C  C26  1  0.61198535  0.69055754  0.04872198  1
  C  C27  1  0.38801465  0.80944246  0.54872198  1
  C  C28  1  0.25629054  0.31406969  0.62652602  1
  C  C29  1  0.74370946  0.18593031  0.12652602  1
  C  C30  1  0.74370946  0.68593031  0.37347398  1
  C  C31  1  0.25629054  0.81406969  0.87347398  1
  C  C32  1  0.71614648  0.38394612  0.73234786  1
  C  C33  1  0.28385352  0.11605388  0.23234786  1
  C  C34  1  0.28385352  0.61605388  0.26765214  1
  C  C35  1  0.71614648  0.88394612  0.76765214  1
  C  C36  1  0.65817510  0.27768990  0.70014240  1
  C  C37  1  0.34182490  0.22231010  0.20014240  1
  C  C38  1  0.34182490  0.72231010  0.29985760  1
  C  C39  1  0.65817510  0.77768990  0.79985760  1
  C  C40  1  0.27912209  0.33708165  0.73102083  1
  C  C41  1  0.72087791  0.16291835  0.23102083  1
  C  C42  1  0.72087791  0.66291835  0.26897917  1
  C  C43  1  0.27912209  0.83708165  0.76897917  1
  C  C44  1  0.16074063  0.02420164  0.82762811  1
  C  C45  1  0.83925937  0.47579836  0.32762811  1
  C  C46  1  0.83925937  0.97579836  0.17237189  1
  C  C47  1  0.16074063  0.52420164  0.67237189  1
  C  C48  1  0.51761007  0.81101608  0.57561924  1
  C  C49  1  0.48238993  0.68898392  0.07561924  1
  C  C50  1  0.48238993  0.18898392  0.42438076  1
  C  C51  1  0.51761007  0.31101608  0.92438076  1
  C  C52  1  0.23154852  0.07603450  0.74296007  1
  C  C53  1  0.76845148  0.42396550  0.24296007  1
  C  C54  1  0.76845148  0.92396550  0.25703993  1
  C  C55  1  0.23154852  0.57603450  0.75703993  1
  O  O56  1  0.38971090  0.86912004  0.75056885  1
  O  O57  1  0.61028910  0.63087996  0.25056885  1
  O  O58  1  0.61028910  0.13087996  0.24943115  1
  O  O59  1  0.38971090  0.36912004  0.74943115  1
  O  O60  1  0.48467233  0.02978922  0.85407150  1
  O  O61  1  0.51532767  0.47021078  0.35407150  1
  O  O62  1  0.51532767  0.97021078  0.14592850  1
  O  O63  1  0.48467233  0.52978922  0.64592850  1
  O  O64  1  0.35292005  0.83518687  0.92335147  1
  O  O65  1  0.64707995  0.66481313  0.42335147  1
  O  O66  1  0.64707995  0.16481313  0.07664853  1
  O  O67  1  0.35292005  0.33518687  0.57664853  1
  O  O68  1  0.55928055  0.77252386  0.84152562  1
  O  O69  1  0.44071945  0.72747614  0.34152562  1
  O  O70  1  0.44071945  0.22747614  0.15847438  1
  O  O71  1  0.55928055  0.27252386  0.65847438  1
  O  O72  1  0.64960302  0.94544496  0.78279036  1
  O  O73  1  0.35039698  0.55455504  0.28279036  1
  O  O74  1  0.35039698  0.05455504  0.21720964  1
  O  O75  1  0.64960302  0.44544496  0.71720964  1
  O  O76  1  0.53052601  0.22656555  0.89325802  1
  O  O77  1  0.46947399  0.27343445  0.39325802  1
  O  O78  1  0.46947399  0.77343445  0.10674198  1
  O  O79  1  0.53052601  0.72656555  0.60674198  1
  O  O80  1  0.22750625  0.02755161  0.90070556  1
  O  O81  1  0.77249375  0.47244839  0.40070556  1
  O  O82  1  0.77249375  0.97244839  0.09929444  1
  O  O83  1  0.22750625  0.52755161  0.59929444  1
  O  O84  1  0.33560628  0.12419347  0.76571611  1
  O  O85  1  0.66439372  0.37580653  0.26571611  1
  O  O86  1  0.66439372  0.87580653  0.23428389  1
  O  O87  1  0.33560628  0.62419347  0.73428389  1
  O  O88  1  0.31806550  0.22577717  0.94050691  1
  O  O89  1  0.68193450  0.27422283  0.44050691  1
  O  O90  1  0.68193450  0.77422283  0.05949309  1
  O  O91  1  0.31806550  0.72577717  0.55949309  1
  O  O92  1  0.41342758  0.07966506  0.02467126  1
  O  O93  1  0.58657242  0.42033494  0.52467126  1
  O  O94  1  0.58657242  0.92033494  0.97532874  1
  O  O95  1  0.41342758  0.57966506  0.47532874  1
  O  O96  1  0.19441457  0.32859453  0.78537764  1
  O  O97  1  0.80558543  0.17140547  0.28537764  1
  O  O98  1  0.80558543  0.67140547  0.21462236  1
  O  O99  1  0.19441457  0.82859453  0.71462236  1
  O  O100  1  0.81627123  0.40307936  0.76586734  1
  O  O101  1  0.18372877  0.09692064  0.26586734  1
  O  O102  1  0.18372877  0.59692064  0.23413266  1
  O  O103  1  0.81627123  0.90307936  0.73413266  1
  O  O104  1  0.70830934  0.20928762  0.71459395  1
  O  O105  1  0.29169066  0.29071238  0.21459395  1
  O  O106  1  0.29169066  0.79071238  0.28540605  1
  O  O107  1  0.70830934  0.70928762  0.78540605  1
  O  O108  1  0.05594584  0.48309764  0.67798642  1
  O  O109  1  0.94405416  0.01690236  0.17798642  1
  O  O110  1  0.94405416  0.51690236  0.32201358  1
  O  O111  1  0.05594584  0.98309764  0.82201358  1
  O  O112  1  0.15640563  0.28416828  0.59494574  1
  O  O113  1  0.84359437  0.21583172  0.09494574  1
  O  O114  1  0.84359437  0.71583172  0.40505426  1
  O  O115  1  0.15640563  0.78416828  0.90505426  1
  O  O116  1  0.36175787  0.38527372  0.98105083  1
  O  O117  1  0.63824213  0.11472628  0.48105083  1
  O  O118  1  0.63824213  0.61472628  0.01894917  1
  O  O119  1  0.36175787  0.88527372  0.51894917  1
  O  O120  1  0.59604770  0.38534729  0.93314715  1
  O  O121  1  0.40395230  0.11465271  0.43314715  1
  O  O122  1  0.40395230  0.61465271  0.06685285  1
  O  O123  1  0.59604770  0.88534729  0.56685285  1
  O  O124  1  0.19002357  0.06559478  0.66379181  1
  O  O125  1  0.80997643  0.43440522  0.16379181  1
  O  O126  1  0.80997643  0.93440522  0.33620819  1
  O  O127  1  0.19002357  0.56559478  0.83620819  1
  O  O128  1  0.97063166  0.09927006  0.96453858  1
  O  O129  1  0.02936834  0.40072994  0.46453858  1
  O  O130  1  0.02936834  0.90072994  0.03546142  1
  O  O131  1  0.97063166  0.59927006  0.53546142  1
  O  O132  1  0.05248383  0.16213270  0.99536980  1
  O  O133  1  0.94751617  0.33786730  0.49536980  1
  O  O134  1  0.94751617  0.83786730  0.00463020  1
  O  O135  1  0.05248383  0.66213270  0.50463020  1
  O  O136  1  0.93569356  0.07015617  0.65926664  1
  O  O137  1  0.06430644  0.42984383  0.15926664  1
  O  O138  1  0.06430644  0.92984383  0.34073336  1
  O  O139  1  0.93569356  0.57015617  0.84073336  1
  O  O140  1  0.89674710  0.32330959  0.92550383  1
  O  O141  1  0.10325290  0.17669041  0.42550383  1
  O  O142  1  0.10325290  0.67669041  0.07449617  1
  O  O143  1  0.89674710  0.82330959  0.57449617  1
  O  O144  1  0.15049993  0.11472617  0.45989347  1
  O  O145  1  0.84950007  0.38527383  0.95989347  1
  O  O146  1  0.84950007  0.88527383  0.54010653  1
  O  O147  1  0.15049993  0.61472617  0.04010653  1
