# generated using pymatgen
data_H6N4O9
_symmetry_space_group_name_H-M   'P 1'
_cell_length_a   4.57028500
_cell_length_b   6.10595900
_cell_length_c   16.03075100
_cell_angle_alpha   90.00000000
_cell_angle_beta   90.00000000
_cell_angle_gamma   90.00000000
_symmetry_Int_Tables_number   1
_chemical_formula_structural   H6N4O9
_chemical_formula_sum   'H12 N8 O18'
_cell_volume   447.35370182
_cell_formula_units_Z   2
loop_
 _symmetry_equiv_pos_site_id
 _symmetry_equiv_pos_as_xyz
  1  'x, y, z'
loop_
 _atom_site_type_symbol
 _atom_site_label
 _atom_site_symmetry_multiplicity
 _atom_site_fract_x
 _atom_site_fract_y
 _atom_site_fract_z
 _atom_site_occupancy
  H  H0  1  0.09589400  0.95954400  0.04357100  1
  H  H1  1  0.90410600  0.95954400  0.95642900  1
  H  H2  1  0.59589400  0.04045600  0.45642900  1
  H  H3  1  0.40410600  0.04045600  0.54357100  1
  H  H4  1  0.16067300  0.75394900  0.97539200  1
  H  H5  1  0.83932700  0.75394900  0.02460800  1
  H  H6  1  0.66067300  0.24605100  0.52460800  1
  H  H7  1  0.33932700  0.24605100  0.47539200  1
  H  H8  1  0.79009300  0.12805700  0.68060100  1
  H  H9  1  0.20990700  0.12805700  0.31939900  1
  H  H10  1  0.29009300  0.87194300  0.81939900  1
  H  H11  1  0.70990700  0.87194300  0.18060100  1
  N  N12  1  0.50000000  0.14043500  0.50000000  1
  N  N13  1  0.00000000  0.85956500  0.00000000  1
  N  N14  1  0.50000000  0.40949900  0.00000000  1
  N  N15  1  0.00000000  0.59050100  0.50000000  1
  N  N16  1  0.13535200  0.22998800  0.73394400  1
  N  N17  1  0.86464800  0.22998800  0.26605600  1
  N  N18  1  0.63535200  0.77001200  0.76605600  1
  N  N19  1  0.36464800  0.77001200  0.23394400  1
  O  O20  1  0.50000000  0.20293600  0.00000000  1
  O  O21  1  0.00000000  0.79706400  0.50000000  1
  O  O22  1  0.33599200  0.51340000  0.94946800  1
  O  O23  1  0.66400800  0.51340000  0.05053200  1
  O  O24  1  0.83599200  0.48660000  0.55053200  1
  O  O25  1  0.16400800  0.48660000  0.44946800  1
  O  O26  1  0.38881700  0.28331700  0.72080300  1
  O  O27  1  0.61118300  0.28331700  0.27919700  1
  O  O28  1  0.88881700  0.71668300  0.77919700  1
  O  O29  1  0.11118300  0.71668300  0.22080300  1
  O  O30  1  0.99892500  0.12975300  0.66454300  1
  O  O31  1  0.00107500  0.12975300  0.33545700  1
  O  O32  1  0.49892500  0.87024700  0.83545700  1
  O  O33  1  0.50107500  0.87024700  0.16454300  1
  O  O34  1  0.99112100  0.24632400  0.79770100  1
  O  O35  1  0.00887900  0.24632400  0.20229900  1
  O  O36  1  0.49112100  0.75367600  0.70229900  1
  O  O37  1  0.50887900  0.75367600  0.29770100  1
