# generated using pymatgen
data_Ge7H18O23
_symmetry_space_group_name_H-M   'P 1'
_cell_length_a   7.71626800
_cell_length_b   7.76643680
_cell_length_c   7.95422749
_cell_angle_alpha   88.06026905
_cell_angle_beta   89.58332804
_cell_angle_gamma   89.43485575
_symmetry_Int_Tables_number   1
_chemical_formula_structural   Ge7H18O23
_chemical_formula_sum   'Ge7 H18 O23'
_cell_volume   476.37240991
_cell_formula_units_Z   1
loop_
 _symmetry_equiv_pos_site_id
 _symmetry_equiv_pos_as_xyz
  1  'x, y, z'
loop_
 _atom_site_type_symbol
 _atom_site_label
 _atom_site_symmetry_multiplicity
 _atom_site_fract_x
 _atom_site_fract_y
 _atom_site_fract_z
 _atom_site_occupancy
  Ge  Ge0  1  0.15378200  0.14256900  0.86905600  1
  Ge  Ge1  1  0.89180600  0.87854400  0.86043100  1
  Ge  Ge2  1  0.87318000  0.14651100  0.12682700  1
  Ge  Ge3  1  0.14868700  0.86468100  0.14164400  1
  Ge  Ge4  1  0.50288800  0.01467600  0.00535300  1
  Ge  Ge5  1  0.01068300  0.51524600  0.99496900  1
  Ge  Ge6  1  0.00187600  0.00516100  0.48243700  1
  H  H7  1  0.43316800  0.91936900  0.54124500  1
  H  H8  1  0.64157600  0.94369200  0.57503800  1
  H  H9  1  0.60634700  0.73791800  0.92970500  1
  H  H10  1  0.43621900  0.55939600  0.04878500  1
  H  H11  1  0.62729200  0.47788400  0.04676300  1
  H  H12  1  0.98411000  0.47249400  0.36831000  1
  H  H13  1  0.93282300  0.42814100  0.55358100  1
  H  H14  1  0.45579600  0.25731600  0.32051100  1
  H  H15  1  0.29134400  0.36814800  0.28261200  1
  H  H16  1  0.23086000  0.20648200  0.53806800  1
  H  H17  1  0.56665500  0.33252900  0.70305100  1
  H  H18  1  0.66679400  0.50018600  0.72953400  1
  H  H19  1  0.17364800  0.58320300  0.55742800  1
  H  H20  1  0.21561300  0.48235300  0.75099600  1
  H  H21  1  0.37767400  0.53107900  0.59931000  1
  H  H22  1  0.59487000  0.56698100  0.40009500  1
  H  H23  1  0.77749000  0.64562700  0.42438900  1
  H  H24  1  0.59393900  0.80224500  0.42343000  1
  O  O25  1  0.13309600  0.12946300  0.10811000  1
  O  O26  1  0.89701300  0.13002100  0.87720900  1
  O  O27  1  0.13708100  0.89708000  0.87291500  1
  O  O28  1  0.90175300  0.88911500  0.11056000  1
  O  O29  1  0.39267500  0.14036200  0.84920200  1
  O  O30  1  0.14499000  0.38774700  0.85633600  1
  O  O31  1  0.14268500  0.14405200  0.60899000  1
  O  O32  1  0.63578500  0.86210300  0.88552800  1
  O  O33  1  0.88897400  0.64236900  0.85167300  1
  O  O34  1  0.85836800  0.90601300  0.62802100  1
  O  O35  1  0.63245500  0.14506400  0.12494300  1
  O  O36  1  0.86927200  0.38717200  0.11660900  1
  O  O37  1  0.88014300  0.14846000  0.35853500  1
  O  O38  1  0.38451600  0.87176700  0.13402500  1
  O  O39  1  0.15190100  0.62279200  0.12876200  1
  O  O40  1  0.14220400  0.86736100  0.37620000  1
  O  O41  1  0.54787400  0.93156600  0.48883300  1
  O  O42  1  0.54407700  0.55142000  0.98368300  1
  O  O43  1  0.97479100  0.52279300  0.47953500  1
  O  O44  1  0.36891900  0.33184600  0.37394200  1
  O  O45  1  0.60953600  0.43561900  0.64223700  1
  O  O46  1  0.26865200  0.58168100  0.64349300  1
  O  O47  1  0.66313400  0.67000300  0.36996500  1
