# generated using pymatgen
data_HoMnO3
_symmetry_space_group_name_H-M   'P 1'
_cell_length_a   5.97633100
_cell_length_b   13.07490300
_cell_length_c   3.37455600
_cell_angle_alpha   90.00000000
_cell_angle_beta   90.00000000
_cell_angle_gamma   90.00000000
_symmetry_Int_Tables_number   1
_chemical_formula_structural   HoMnO3
_chemical_formula_sum   'Ho4 Mn4 O12'
_cell_volume   263.68763077
_cell_formula_units_Z   4
loop_
 _symmetry_equiv_pos_site_id
 _symmetry_equiv_pos_as_xyz
  1  'x, y, z'
loop_
 _atom_site_type_symbol
 _atom_site_label
 _atom_site_symmetry_multiplicity
 _atom_site_fract_x
 _atom_site_fract_y
 _atom_site_fract_z
 _atom_site_occupancy
  Ho  Ho0  1  0.68919500  0.25000000  0.75868400  1
  Ho  Ho1  1  0.18919500  0.25000000  0.74131600  1
  Ho  Ho2  1  0.31080500  0.75000000  0.24131600  1
  Ho  Ho3  1  0.81080500  0.75000000  0.25868400  1
  Mn  Mn4  1  0.50000000  0.00000000  0.50000000  1
  Mn  Mn5  1  0.00000000  0.50000000  0.00000000  1
  Mn  Mn6  1  0.50000000  0.50000000  0.50000000  1
  Mn  Mn7  1  0.00000000  0.00000000  0.00000000  1
  O  O8  1  0.94921000  0.25000000  0.24501800  1
  O  O9  1  0.44921000  0.25000000  0.25498200  1
  O  O10  1  0.05079000  0.75000000  0.75498200  1
  O  O11  1  0.55079000  0.75000000  0.74501800  1
  O  O12  1  0.73779000  0.07819800  0.77732500  1
  O  O13  1  0.23779000  0.42180200  0.72267500  1
  O  O14  1  0.26221000  0.57819800  0.22267500  1
  O  O15  1  0.76221000  0.92180200  0.27732500  1
  O  O16  1  0.26221000  0.92180200  0.22267500  1
  O  O17  1  0.76221000  0.57819800  0.27732500  1
  O  O18  1  0.73779000  0.42180200  0.77732500  1
  O  O19  1  0.23779000  0.07819800  0.72267500  1
