# generated using pymatgen
data_H4SO5
_symmetry_space_group_name_H-M   'P 1'
_cell_length_a   6.74894200
_cell_length_b   7.03068100
_cell_length_c   8.07470800
_cell_angle_alpha   90.00000000
_cell_angle_beta   90.00000000
_cell_angle_gamma   90.00000000
_symmetry_Int_Tables_number   1
_chemical_formula_structural   H4SO5
_chemical_formula_sum   'H16 S4 O20'
_cell_volume   383.14213539
_cell_formula_units_Z   4
loop_
 _symmetry_equiv_pos_site_id
 _symmetry_equiv_pos_as_xyz
  1  'x, y, z'
loop_
 _atom_site_type_symbol
 _atom_site_label
 _atom_site_symmetry_multiplicity
 _atom_site_fract_x
 _atom_site_fract_y
 _atom_site_fract_z
 _atom_site_occupancy
  H  H0  1  0.09953600  0.10858900  0.56510200  1
  H  H1  1  0.40046400  0.89141100  0.06510200  1
  H  H2  1  0.59953600  0.39141100  0.43489800  1
  H  H3  1  0.90046400  0.60858900  0.93489800  1
  H  H4  1  0.24632500  0.59781600  0.29088400  1
  H  H5  1  0.25367500  0.40218400  0.79088400  1
  H  H6  1  0.74632500  0.90218400  0.70911600  1
  H  H7  1  0.75367500  0.09781600  0.20911600  1
  H  H8  1  0.11120200  0.44839200  0.40763600  1
  H  H9  1  0.38879800  0.55160800  0.90763600  1
  H  H10  1  0.61120200  0.05160800  0.59236400  1
  H  H11  1  0.88879800  0.94839200  0.09236400  1
  H  H12  1  0.20847000  0.37222800  0.22298800  1
  H  H13  1  0.29153000  0.62777200  0.72298800  1
  H  H14  1  0.70847000  0.12777200  0.77701200  1
  H  H15  1  0.79153000  0.87222800  0.27701200  1
  S  S16  1  0.30025300  0.92124300  0.44337300  1
  S  S17  1  0.19974700  0.07875700  0.94337300  1
  S  S18  1  0.80025300  0.57875700  0.55662700  1
  S  S19  1  0.69974700  0.42124300  0.05662700  1
  O  O20  1  0.27928000  0.82649500  0.28177100  1
  O  O21  1  0.22072000  0.17350500  0.78177100  1
  O  O22  1  0.77928000  0.67350500  0.71822900  1
  O  O23  1  0.72072000  0.32649500  0.21822900  1
  O  O24  1  0.47258500  0.05059500  0.44751000  1
  O  O25  1  0.02741500  0.94940500  0.94751000  1
  O  O26  1  0.97258500  0.44940500  0.55249000  1
  O  O27  1  0.52741500  0.55059500  0.05249000  1
  O  O28  1  0.29431700  0.79081800  0.58282500  1
  O  O29  1  0.20568300  0.20918200  0.08282500  1
  O  O30  1  0.79431700  0.70918200  0.41717500  1
  O  O31  1  0.70568300  0.29081800  0.91717500  1
  O  O32  1  0.10731300  0.05189400  0.45271500  1
  O  O33  1  0.39268700  0.94810600  0.95271500  1
  O  O34  1  0.60731300  0.44810600  0.54728500  1
  O  O35  1  0.89268700  0.55189400  0.04728500  1
  O  O36  1  0.22505200  0.45880200  0.32131500  1
  O  O37  1  0.27494800  0.54119800  0.82131500  1
  O  O38  1  0.72505200  0.04119800  0.67868500  1
  O  O39  1  0.77494800  0.95880200  0.17868500  1
