# generated using pymatgen
data_FeAgAs(S2N3)2
_symmetry_space_group_name_H-M   'P 1'
_cell_length_a   10.00057200
_cell_length_b   10.00057200
_cell_length_c   6.59183200
_cell_angle_alpha   90.00000000
_cell_angle_beta   90.00000000
_cell_angle_gamma   90.00000000
_symmetry_Int_Tables_number   1
_chemical_formula_structural   FeAgAs(S2N3)2
_chemical_formula_sum   'Fe2 Ag2 As2 S8 N12'
_cell_volume   659.25861271
_cell_formula_units_Z   2
loop_
 _symmetry_equiv_pos_site_id
 _symmetry_equiv_pos_as_xyz
  1  'x, y, z'
loop_
 _atom_site_type_symbol
 _atom_site_label
 _atom_site_symmetry_multiplicity
 _atom_site_fract_x
 _atom_site_fract_y
 _atom_site_fract_z
 _atom_site_occupancy
  Fe  Fe0  1  0.00000000  0.50000000  0.75000000  1
  Fe  Fe1  1  0.50000000  0.00000000  0.25000000  1
  Ag  Ag2  1  0.50000000  0.50000000  0.00000000  1
  Ag  Ag3  1  0.00000000  0.00000000  0.50000000  1
  As  As4  1  0.50000000  0.50000000  0.50000000  1
  As  As5  1  0.00000000  0.00000000  0.00000000  1
  S  S6  1  0.58990700  0.35564300  0.28742500  1
  S  S7  1  0.91009300  0.85564300  0.78742500  1
  S  S8  1  0.35564300  0.41009300  0.71257500  1
  S  S9  1  0.14435700  0.91009300  0.21257500  1
  S  S10  1  0.41009300  0.64435700  0.28742500  1
  S  S11  1  0.08990700  0.14435700  0.78742500  1
  S  S12  1  0.64435700  0.58990700  0.71257500  1
  S  S13  1  0.85564300  0.08990700  0.21257500  1
  N  N14  1  0.95128000  0.34653000  0.87456200  1
  N  N15  1  0.54872000  0.84653000  0.37456200  1
  N  N16  1  0.34653000  0.04872000  0.12543800  1
  N  N17  1  0.15347000  0.54872000  0.62543800  1
  N  N18  1  0.04872000  0.65347000  0.87456200  1
  N  N19  1  0.45128000  0.15347000  0.37456200  1
  N  N20  1  0.65347000  0.95128000  0.12543800  1
  N  N21  1  0.84653000  0.45128000  0.62543800  1
  N  N22  1  0.15422700  0.65422700  0.75000000  1
  N  N23  1  0.34577300  0.15422700  0.25000000  1
  N  N24  1  0.65422700  0.84577300  0.25000000  1
  N  N25  1  0.84577300  0.34577300  0.75000000  1
