# generated using pymatgen
data_HgC4Br3N
_symmetry_space_group_name_H-M   'P 1'
_cell_length_a   17.84299100
_cell_length_b   8.66486700
_cell_length_c   9.42788664
_cell_angle_alpha   82.64039158
_cell_angle_beta   90.00000000
_cell_angle_gamma   90.00000000
_symmetry_Int_Tables_number   1
_chemical_formula_structural   HgC4Br3N
_chemical_formula_sum   'Hg4 C16 Br12 N4'
_cell_volume   1445.61034519
_cell_formula_units_Z   4
loop_
 _symmetry_equiv_pos_site_id
 _symmetry_equiv_pos_as_xyz
  1  'x, y, z'
loop_
 _atom_site_type_symbol
 _atom_site_label
 _atom_site_symmetry_multiplicity
 _atom_site_fract_x
 _atom_site_fract_y
 _atom_site_fract_z
 _atom_site_occupancy
  Hg  Hg0  1  0.51406300  0.07323500  0.93717800  1
  Hg  Hg1  1  0.01406300  0.92676500  0.06282200  1
  Hg  Hg2  1  0.60567900  0.59295400  0.70643800  1
  Hg  Hg3  1  0.10567900  0.40704600  0.29356200  1
  C  C4  1  0.36636900  0.42471300  0.45031900  1
  C  C5  1  0.86636900  0.57528700  0.54968100  1
  C  C6  1  0.36621900  0.43871300  0.58076800  1
  C  C7  1  0.86621900  0.56128700  0.41923200  1
  C  C8  1  0.36915600  0.41562200  0.18843300  1
  C  C9  1  0.86915600  0.58437800  0.81156700  1
  C  C10  1  0.37277700  0.41925500  0.05082400  1
  C  C11  1  0.87277700  0.58074500  0.94917600  1
  C  C12  1  0.83073500  0.04365500  0.34714600  1
  C  C13  1  0.33073500  0.95634500  0.65285400  1
  C  C14  1  0.56275100  0.08999600  0.43594000  1
  C  C15  1  0.06275100  0.91000400  0.56406000  1
  C  C16  1  0.76052500  0.05484300  0.33897900  1
  C  C17  1  0.26052500  0.94515700  0.66102100  1
  C  C18  1  0.68826300  0.07025000  0.32509800  1
  C  C19  1  0.18826300  0.92975000  0.67490200  1
  Br  Br20  1  0.42305000  0.00204200  0.58679700  1
  Br  Br21  1  0.92305000  0.99795800  0.41320300  1
  Br  Br22  1  0.39411400  0.97357100  0.02962000  1
  Br  Br23  1  0.89411400  0.02642900  0.97038000  1
  Br  Br24  1  0.63283800  0.18626500  0.84666000  1
  Br  Br25  1  0.13283800  0.81373500  0.15334000  1
  Br  Br26  1  0.36898600  0.43880800  0.77308500  1
  Br  Br27  1  0.86898600  0.56119200  0.22691500  1
  Br  Br28  1  0.61588600  0.54537000  0.45850500  1
  Br  Br29  1  0.11588600  0.45463000  0.54149500  1
  Br  Br30  1  0.59575400  0.67265700  0.94443200  1
  Br  Br31  1  0.09575400  0.32734300  0.05556800  1
  N  N32  1  0.36603600  0.41408600  0.31975600  1
  N  N33  1  0.86603600  0.58591400  0.68024400  1
  N  N34  1  0.62379900  0.08175300  0.38195100  1
  N  N35  1  0.12379900  0.91824700  0.61804900  1
