# generated using pymatgen
data_Mg(B3O8)2
_symmetry_space_group_name_H-M   'P 1'
_cell_length_a   10.34048800
_cell_length_b   10.58977500
_cell_length_c   11.58213088
_cell_angle_alpha   87.49012372
_cell_angle_beta   90.00000000
_cell_angle_gamma   90.00000000
_symmetry_Int_Tables_number   1
_chemical_formula_structural   Mg(B3O8)2
_chemical_formula_sum   'Mg4 B24 O64'
_cell_volume   1267.06650947
_cell_formula_units_Z   4
loop_
 _symmetry_equiv_pos_site_id
 _symmetry_equiv_pos_as_xyz
  1  'x, y, z'
loop_
 _atom_site_type_symbol
 _atom_site_label
 _atom_site_symmetry_multiplicity
 _atom_site_fract_x
 _atom_site_fract_y
 _atom_site_fract_z
 _atom_site_occupancy
  Mg  Mg0  1  0.50000000  0.00000000  0.50000000  1
  Mg  Mg1  1  0.00000000  0.50000000  0.50000000  1
  Mg  Mg2  1  0.50000000  0.50000000  0.00000000  1
  Mg  Mg3  1  0.00000000  0.00000000  0.00000000  1
  B  B4  1  0.61381100  0.20937500  0.30254800  1
  B  B5  1  0.11381100  0.29062500  0.69745200  1
  B  B6  1  0.38618900  0.79062500  0.69745200  1
  B  B7  1  0.88618900  0.70937500  0.30254800  1
  B  B8  1  0.41610300  0.09205500  0.23155000  1
  B  B9  1  0.91610300  0.40794500  0.76845000  1
  B  B10  1  0.58389700  0.90794500  0.76845000  1
  B  B11  1  0.08389700  0.59205500  0.23155000  1
  B  B12  1  0.39100400  0.26785500  0.37284700  1
  B  B13  1  0.89100400  0.23214500  0.62715300  1
  B  B14  1  0.60899600  0.73214500  0.62715300  1
  B  B15  1  0.10899600  0.76785500  0.37284700  1
  B  B16  1  0.62097700  0.08208900  0.13693400  1
  B  B17  1  0.12097700  0.41791100  0.86306600  1
  B  B18  1  0.37902300  0.91791100  0.86306600  1
  B  B19  1  0.87902300  0.58208900  0.13693400  1
  B  B20  1  0.57499100  0.41358400  0.38331200  1
  B  B21  1  0.07499100  0.08641600  0.61668800  1
  B  B22  1  0.42500900  0.58641600  0.61668800  1
  B  B23  1  0.92500900  0.91358400  0.38331200  1
  B  B24  1  0.21549800  0.19779600  0.25505700  1
  B  B25  1  0.71549800  0.30220400  0.74494300  1
  B  B26  1  0.78450200  0.80220400  0.74494300  1
  B  B27  1  0.28450200  0.69779600  0.25505700  1
  O  O28  1  0.61375700  0.11470300  0.40043300  1
  O  O29  1  0.11375700  0.38529700  0.59956700  1
  O  O30  1  0.38624300  0.88529700  0.59956700  1
  O  O31  1  0.88624300  0.61470300  0.40043300  1
  O  O32  1  0.43154100  0.00765800  0.33489800  1
  O  O33  1  0.93154100  0.49234200  0.66510200  1
  O  O34  1  0.56845900  0.99234200  0.66510200  1
  O  O35  1  0.06845900  0.50765800  0.33489800  1
  O  O36  1  0.41124400  0.16940500  0.46490500  1
  O  O37  1  0.91124400  0.33059500  0.53509500  1
  O  O38  1  0.58875600  0.83059500  0.53509500  1
  O  O39  1  0.08875600  0.66940500  0.46490500  1
  O  O40  1  0.69822200  0.02678400  0.04375800  1
  O  O41  1  0.19822200  0.47321600  0.95624200  1
  O  O42  1  0.30177800  0.97321600  0.95624200  1
  O  O43  1  0.80177800  0.52678400  0.04375800  1
  O  O44  1  0.62422400  0.53209200  0.39876800  1
  O  O45  1  0.12422400  0.96790800  0.60123200  1
  O  O46  1  0.37577600  0.46790800  0.60123200  1
  O  O47  1  0.87577600  0.03209200  0.39876800  1
  O  O48  1  0.07989500  0.22569700  0.21663500  1
  O  O49  1  0.57989500  0.27430300  0.78336500  1
  O  O50  1  0.92010500  0.77430300  0.78336500  1
  O  O51  1  0.42010500  0.72569700  0.21663500  1
  O  O52  1  0.40685200  0.40239200  0.12483500  1
  O  O53  1  0.90685200  0.09760800  0.87516500  1
  O  O54  1  0.59314800  0.59760800  0.87516500  1
  O  O55  1  0.09314800  0.90239200  0.12483500  1
  O  O56  1  0.67819200  0.52191600  0.07588500  1
  O  O57  1  0.17819200  0.97808400  0.92411500  1
  O  O58  1  0.32180800  0.47808400  0.92411500  1
  O  O59  1  0.82180800  0.02191600  0.07588500  1
  O  O60  1  0.52883100  0.34626600  0.86116300  1
  O  O61  1  0.02883100  0.15373400  0.13883700  1
  O  O62  1  0.47116900  0.65373400  0.13883700  1
  O  O63  1  0.97116900  0.84626600  0.86116300  1
  O  O64  1  0.46885800  0.22054100  0.26882300  1
  O  O65  1  0.96885800  0.27945900  0.73117700  1
  O  O66  1  0.53114200  0.77945900  0.73117700  1
  O  O67  1  0.03114200  0.72054100  0.26882300  1
  O  O68  1  0.65986000  0.32840800  0.33883100  1
  O  O69  1  0.15986000  0.17159200  0.66116900  1
  O  O70  1  0.34014000  0.67159200  0.66116900  1
  O  O71  1  0.84014000  0.82840800  0.33883100  1
  O  O72  1  0.68297800  0.16130300  0.20514300  1
  O  O73  1  0.18297800  0.33869700  0.79485700  1
  O  O74  1  0.31702200  0.83869700  0.79485700  1
  O  O75  1  0.81702200  0.66130300  0.20514300  1
  O  O76  1  0.49540600  0.04831700  0.13735200  1
  O  O77  1  0.99540600  0.45168300  0.86264800  1
  O  O78  1  0.50459400  0.95168300  0.86264800  1
  O  O79  1  0.00459400  0.54831700  0.13735200  1
  O  O80  1  0.28097800  0.10946600  0.19967700  1
  O  O81  1  0.78097800  0.39053400  0.80032300  1
  O  O82  1  0.71902200  0.89053400  0.80032300  1
  O  O83  1  0.21902200  0.60946600  0.19967700  1
  O  O84  1  0.44568800  0.38703700  0.40397400  1
  O  O85  1  0.94568800  0.11296300  0.59602600  1
  O  O86  1  0.55431200  0.61296300  0.59602600  1
  O  O87  1  0.05431200  0.88703700  0.40397400  1
  O  O88  1  0.25439800  0.27260000  0.33896300  1
  O  O89  1  0.75439800  0.22740000  0.66103700  1
  O  O90  1  0.74560200  0.72740000  0.66103700  1
  O  O91  1  0.24560200  0.77260000  0.33896300  1
