# generated using pymatgen
data_Ge(PO2)3
_symmetry_space_group_name_H-M   'P 1'
_cell_length_a   7.92491231
_cell_length_b   7.92491231
_cell_length_c   7.92491236
_cell_angle_alpha   104.67746692
_cell_angle_beta   104.67746692
_cell_angle_gamma   104.67746911
_symmetry_Int_Tables_number   1
_chemical_formula_structural   Ge(PO2)3
_chemical_formula_sum   'Ge2 P6 O12'
_cell_volume   438.12357288
_cell_formula_units_Z   2
loop_
 _symmetry_equiv_pos_site_id
 _symmetry_equiv_pos_as_xyz
  1  'x, y, z'
loop_
 _atom_site_type_symbol
 _atom_site_label
 _atom_site_symmetry_multiplicity
 _atom_site_fract_x
 _atom_site_fract_y
 _atom_site_fract_z
 _atom_site_occupancy
  Ge  Ge0  1  0.50000000  0.50000000  0.50000000  1
  Ge  Ge1  1  0.00000000  0.00000000  0.00000000  1
  P  P2  1  0.97715000  0.57398800  0.76166300  1
  P  P3  1  0.76166300  0.97715000  0.57398800  1
  P  P4  1  0.57398800  0.76166300  0.97715000  1
  P  P5  1  0.02285000  0.42601200  0.23833700  1
  P  P6  1  0.23833700  0.02285000  0.42601200  1
  P  P7  1  0.42601200  0.23833700  0.02285000  1
  O  O8  1  0.00703600  0.75330300  0.91939200  1
  O  O9  1  0.91939200  0.00703600  0.75330300  1
  O  O10  1  0.75330300  0.91939200  0.00703600  1
  O  O11  1  0.99296400  0.24669700  0.08060800  1
  O  O12  1  0.08060800  0.99296400  0.24669700  1
  O  O13  1  0.24669700  0.08060800  0.99296400  1
  O  O14  1  0.80978300  0.51978000  0.59118400  1
  O  O15  1  0.59118400  0.80978300  0.51978000  1
  O  O16  1  0.51978000  0.59118400  0.80978300  1
  O  O17  1  0.19021700  0.48022000  0.40881600  1
  O  O18  1  0.40881600  0.19021700  0.48022000  1
  O  O19  1  0.48022000  0.40881600  0.19021700  1
