# generated using pymatgen
data_CaMn2O4
_symmetry_space_group_name_H-M   'P 1'
_cell_length_a   6.15183549
_cell_length_b   6.15183549
_cell_length_c   11.74534031
_cell_angle_alpha   89.58572163
_cell_angle_beta   89.58572163
_cell_angle_gamma   54.73930272
_symmetry_Int_Tables_number   1
_chemical_formula_structural   CaMn2O4
_chemical_formula_sum   'Ca4 Mn8 O16'
_cell_volume   362.93996658
_cell_formula_units_Z   4
loop_
 _symmetry_equiv_pos_site_id
 _symmetry_equiv_pos_as_xyz
  1  'x, y, z'
loop_
 _atom_site_type_symbol
 _atom_site_label
 _atom_site_symmetry_multiplicity
 _atom_site_fract_x
 _atom_site_fract_y
 _atom_site_fract_z
 _atom_site_occupancy
  Ca  Ca0  1  0.21055800  0.78944200  0.50000000  1
  Ca  Ca1  1  0.27150600  0.72849400  0.00000000  1
  Ca  Ca2  1  0.75737000  0.73620100  0.24854900  1
  Ca  Ca3  1  0.26379900  0.24263000  0.75145100  1
  Mn  Mn4  1  0.47640300  0.46179500  0.27289800  1
  Mn  Mn5  1  0.02510400  0.02611700  0.23120700  1
  Mn  Mn6  1  0.53820500  0.52359700  0.72710200  1
  Mn  Mn7  1  0.97388300  0.97489600  0.76879300  1
  Mn  Mn8  1  0.51904900  0.03609700  0.01936900  1
  Mn  Mn9  1  0.96390300  0.48095100  0.98063100  1
  Mn  Mn10  1  0.52685200  0.02671200  0.51612400  1
  Mn  Mn11  1  0.97328800  0.47314800  0.48387600  1
  O  O12  1  0.35067200  0.82395700  0.32087300  1
  O  O13  1  0.83774600  0.34156900  0.32664400  1
  O  O14  1  0.33433000  0.84433100  0.81981700  1
  O  O15  1  0.85646800  0.33492100  0.82140900  1
  O  O16  1  0.64709900  0.67826100  0.07072000  1
  O  O17  1  0.15686100  0.15059100  0.07242900  1
  O  O18  1  0.64018600  0.66767100  0.57210900  1
  O  O19  1  0.17330500  0.15641700  0.57367500  1
  O  O20  1  0.66507900  0.14353200  0.17859100  1
  O  O21  1  0.15566900  0.66567000  0.18018300  1
  O  O22  1  0.65843100  0.16225400  0.67335600  1
  O  O23  1  0.17604300  0.64932800  0.67912700  1
  O  O24  1  0.33232900  0.35981400  0.42789100  1
  O  O25  1  0.84358300  0.82669500  0.42632500  1
  O  O26  1  0.32173900  0.35290100  0.92928000  1
  O  O27  1  0.84940900  0.84313900  0.92757100  1
