# generated using pymatgen
data_MnFeH4NF6
_symmetry_space_group_name_H-M   'P 1'
_cell_length_a   8.10778100
_cell_length_b   10.82845600
_cell_length_c   13.04836700
_cell_angle_alpha   90.00000000
_cell_angle_beta   90.00000000
_cell_angle_gamma   90.00000000
_symmetry_Int_Tables_number   1
_chemical_formula_structural   MnFeH4NF6
_chemical_formula_sum   'Mn8 Fe8 H32 N8 F48'
_cell_volume   1145.57811627
_cell_formula_units_Z   8
loop_
 _symmetry_equiv_pos_site_id
 _symmetry_equiv_pos_as_xyz
  1  'x, y, z'
loop_
 _atom_site_type_symbol
 _atom_site_label
 _atom_site_symmetry_multiplicity
 _atom_site_fract_x
 _atom_site_fract_y
 _atom_site_fract_z
 _atom_site_occupancy
  Mn  Mn0  1  0.72048900  0.32096000  0.62054800  1
  Mn  Mn1  1  0.27951100  0.67904000  0.62054800  1
  Mn  Mn2  1  0.22048900  0.67904000  0.12054800  1
  Mn  Mn3  1  0.77951100  0.32096000  0.12054800  1
  Mn  Mn4  1  0.75626500  0.81430600  0.87957400  1
  Mn  Mn5  1  0.24373500  0.18569400  0.87957400  1
  Mn  Mn6  1  0.25626500  0.18569400  0.37957400  1
  Mn  Mn7  1  0.74373500  0.81430600  0.37957400  1
  Fe  Fe8  1  0.24483500  0.32201700  0.59801600  1
  Fe  Fe9  1  0.75516500  0.67798300  0.59801600  1
  Fe  Fe10  1  0.74483500  0.67798300  0.09801600  1
  Fe  Fe11  1  0.25516500  0.32201700  0.09801600  1
  Fe  Fe12  1  0.25403600  0.83171900  0.88795600  1
  Fe  Fe13  1  0.74596400  0.16828100  0.88795600  1
  Fe  Fe14  1  0.75403600  0.16828100  0.38795600  1
  Fe  Fe15  1  0.24596400  0.83171900  0.38795600  1
  H  H16  1  0.40249700  0.64240300  0.98383700  1
  H  H17  1  0.59750300  0.35759700  0.98383700  1
  H  H18  1  0.90249700  0.35759700  0.48383700  1
  H  H19  1  0.09750300  0.64240300  0.48383700  1
  H  H20  1  0.56892800  0.55455300  0.83373300  1
  H  H21  1  0.43107200  0.44544700  0.83373300  1
  H  H22  1  0.06892800  0.44544700  0.33373300  1
  H  H23  1  0.93107200  0.55455300  0.33373300  1
  H  H24  1  0.40877500  0.53726200  0.36994700  1
  H  H25  1  0.59122500  0.46273800  0.36994700  1
  H  H26  1  0.90877500  0.46273800  0.86994700  1
  H  H27  1  0.09122500  0.53726200  0.86994700  1
  H  H28  1  0.44743000  0.43194200  0.27941000  1
  H  H29  1  0.55257000  0.56805800  0.27941000  1
  H  H30  1  0.94743000  0.56805800  0.77941000  1
  H  H31  1  0.05257000  0.43194200  0.77941000  1
  H  H32  1  0.41909700  0.05113100  0.58512100  1
  H  H33  1  0.58090300  0.94886900  0.58512100  1
  H  H34  1  0.91909700  0.94886900  0.08512100  1
  H  H35  1  0.08090300  0.05113100  0.08512100  1
  H  H36  1  0.43420800  0.94095400  0.67587600  1
  H  H37  1  0.56579200  0.05904600  0.67587600  1
  H  H38  1  0.93420800  0.05904600  0.17587600  1
  H  H39  1  0.06579200  0.94095400  0.17587600  1
  H  H40  1  0.41832100  0.04951200  0.11169400  1
  H  H41  1  0.58167900  0.95048800  0.11169400  1
  H  H42  1  0.91832100  0.95048800  0.61169400  1
  H  H43  1  0.08167900  0.04951200  0.61169400  1
  H  H44  1  0.43545500  0.93885900  0.20304400  1
  H  H45  1  0.56454500  0.06114100  0.20304400  1
  H  H46  1  0.93545500  0.06114100  0.70304400  1
  H  H47  1  0.06454500  0.93885900  0.70304400  1
  N  N48  1  0.50000000  0.50000000  0.78466700  1
  N  N49  1  0.00000000  0.50000000  0.28466700  1
  N  N50  1  0.50000000  0.50000000  0.32427300  1
  N  N51  1  0.00000000  0.50000000  0.82427300  1
  N  N52  1  0.50000000  0.00000000  0.62991900  1
  N  N53  1  0.00000000  0.00000000  0.12991900  1
  N  N54  1  0.50000000  0.00000000  0.15787400  1
  N  N55  1  0.00000000  0.00000000  0.65787400  1
  F  F56  1  0.22849000  0.49622600  0.64343800  1
  F  F57  1  0.77151000  0.50377400  0.64343800  1
  F  F58  1  0.72849000  0.50377400  0.14343800  1
  F  F59  1  0.27151000  0.49622600  0.14343800  1
  F  F60  1  0.22008000  0.36137800  0.95190900  1
  F  F61  1  0.77992000  0.63862200  0.95190900  1
  F  F62  1  0.72008000  0.63862200  0.45190900  1
  F  F63  1  0.27992000  0.36137800  0.45190900  1
  F  F64  1  0.27219500  0.85369700  0.03545000  1
  F  F65  1  0.72780500  0.14630300  0.03545000  1
  F  F66  1  0.77219500  0.14630300  0.53545000  1
  F  F67  1  0.22780500  0.85369700  0.53545000  1
  F  F68  1  0.20398600  0.77840300  0.74689000  1
  F  F69  1  0.79601400  0.22159700  0.74689000  1
  F  F70  1  0.70398600  0.22159700  0.24689000  1
  F  F71  1  0.29601400  0.77840300  0.24689000  1
  F  F72  1  0.47833000  0.28172600  0.62416400  1
  F  F73  1  0.52167000  0.71827400  0.62416400  1
  F  F74  1  0.97833000  0.71827400  0.12416400  1
  F  F75  1  0.02167000  0.28172600  0.12416400  1
  F  F76  1  0.48852300  0.80528300  0.86437200  1
  F  F77  1  0.51147700  0.19471700  0.86437200  1
  F  F78  1  0.98852300  0.19471700  0.36437200  1
  F  F79  1  0.01147700  0.80528300  0.36437200  1
  F  F80  1  0.27312400  0.99856600  0.83544900  1
  F  F81  1  0.72687600  0.00143400  0.83544900  1
  F  F82  1  0.77312400  0.00143400  0.33544900  1
  F  F83  1  0.22687600  0.99856600  0.33544900  1
  F  F84  1  0.74065600  0.35322000  0.93354200  1
  F  F85  1  0.25934400  0.64678000  0.93354200  1
  F  F86  1  0.24065600  0.64678000  0.43354200  1
  F  F87  1  0.75934400  0.35322000  0.43354200  1
  F  F88  1  0.72402800  0.85760700  0.04499500  1
  F  F89  1  0.27597200  0.14239300  0.04499500  1
  F  F90  1  0.22402800  0.14239300  0.54499500  1
  F  F91  1  0.77597200  0.85760700  0.54499500  1
  F  F92  1  0.82713000  0.72853700  0.73662100  1
  F  F93  1  0.17287000  0.27146300  0.73662100  1
  F  F94  1  0.32713000  0.27146300  0.23662100  1
  F  F95  1  0.67287000  0.72853700  0.23662100  1
  F  F96  1  0.98072200  0.35068500  0.54737400  1
  F  F97  1  0.01927800  0.64931500  0.54737400  1
  F  F98  1  0.48072200  0.64931500  0.04737400  1
  F  F99  1  0.51927800  0.35068500  0.04737400  1
  F  F100  1  0.01744600  0.84739400  0.90417400  1
  F  F101  1  0.98255400  0.15260600  0.90417400  1
  F  F102  1  0.51744600  0.15260600  0.40417400  1
  F  F103  1  0.48255400  0.84739400  0.40417400  1
