# generated using pymatgen
data_Dy(BrO2)3
_symmetry_space_group_name_H-M   'P 1'
_cell_length_a   6.27653100
_cell_length_b   5.94899900
_cell_length_c   11.18686538
_cell_angle_alpha   71.72302951
_cell_angle_beta   90.00000000
_cell_angle_gamma   90.00000000
_symmetry_Int_Tables_number   1
_chemical_formula_structural   Dy(BrO2)3
_chemical_formula_sum   'Dy2 Br6 O12'
_cell_volume   396.63456567
_cell_formula_units_Z   2
loop_
 _symmetry_equiv_pos_site_id
 _symmetry_equiv_pos_as_xyz
  1  'x, y, z'
loop_
 _atom_site_type_symbol
 _atom_site_label
 _atom_site_symmetry_multiplicity
 _atom_site_fract_x
 _atom_site_fract_y
 _atom_site_fract_z
 _atom_site_occupancy
  Dy  Dy0  1  0.68589600  0.50000000  0.75000000  1
  Dy  Dy1  1  0.31410400  0.50000000  0.25000000  1
  Br  Br2  1  0.08163300  0.00000000  0.75000000  1
  Br  Br3  1  0.91836700  0.00000000  0.25000000  1
  Br  Br4  1  0.21090800  0.68919900  0.54891500  1
  Br  Br5  1  0.78909200  0.31080100  0.45108500  1
  Br  Br6  1  0.21090800  0.31080100  0.95108500  1
  Br  Br7  1  0.78909200  0.68919900  0.04891500  1
  O  O8  1  0.92050000  0.81593300  0.69319900  1
  O  O9  1  0.07950000  0.18406700  0.30680100  1
  O  O10  1  0.92050000  0.18406700  0.80680100  1
  O  O11  1  0.07950000  0.81593300  0.19319900  1
  O  O12  1  0.71281500  0.44200100  0.56252700  1
  O  O13  1  0.28718500  0.55799900  0.43747300  1
  O  O14  1  0.71281500  0.55799900  0.93747300  1
  O  O15  1  0.28718500  0.44200100  0.06252700  1
  O  O16  1  0.42721400  0.74081200  0.63822000  1
  O  O17  1  0.57278600  0.25918800  0.36178000  1
  O  O18  1  0.42721400  0.25918800  0.86178000  1
  O  O19  1  0.57278600  0.74081200  0.13822000  1
