# generated using pymatgen
data_FeS6(NO2)9
_symmetry_space_group_name_H-M   'P 1'
_cell_length_a   7.26332900
_cell_length_b   10.69530090
_cell_length_c   11.09378424
_cell_angle_alpha   118.72332928
_cell_angle_beta   89.12953818
_cell_angle_gamma   92.37483345
_symmetry_Int_Tables_number   1
_chemical_formula_structural   FeS6(NO2)9
_chemical_formula_sum   'Fe1 S6 N9 O18'
_cell_volume   755.09931638
_cell_formula_units_Z   1
loop_
 _symmetry_equiv_pos_site_id
 _symmetry_equiv_pos_as_xyz
  1  'x, y, z'
loop_
 _atom_site_type_symbol
 _atom_site_label
 _atom_site_symmetry_multiplicity
 _atom_site_fract_x
 _atom_site_fract_y
 _atom_site_fract_z
 _atom_site_occupancy
  Fe  Fe0  1  0.00000000  0.00000000  0.00000000  1
  S  S1  1  0.79748000  0.01905000  0.71201000  1
  S  S2  1  0.84035600  0.69170900  0.97478700  1
  S  S3  1  0.79395200  0.28947600  0.30641900  1
  S  S4  1  0.20252000  0.98095000  0.28799000  1
  S  S5  1  0.15964400  0.30829100  0.02521300  1
  S  S6  1  0.20604800  0.71052400  0.69358100  1
  N  N7  1  0.65020700  0.65832800  0.61662800  1
  N  N8  1  0.65272100  0.95119200  0.33748900  1
  N  N9  1  0.65267600  0.38561500  0.04596500  1
  N  N10  1  0.34979300  0.34167200  0.38337200  1
  N  N11  1  0.34727900  0.04880800  0.66251100  1
  N  N12  1  0.34732400  0.61438500  0.95403500  1
  N  N13  1  0.01560500  0.66661300  0.33269400  1
  N  N14  1  0.98439500  0.33338700  0.66730600  1
  N  N15  1  0.50000000  0.00000000  0.00000000  1
  O  O16  1  0.81694800  0.90853000  0.57283600  1
  O  O17  1  0.80026700  0.67875300  0.09820500  1
  O  O18  1  0.81317100  0.43564600  0.33713600  1
  O  O19  1  0.18305200  0.09147000  0.42716400  1
  O  O20  1  0.19973300  0.32124700  0.90179500  1
  O  O21  1  0.18682900  0.56435400  0.66286400  1
  O  O22  1  0.74322000  0.15935500  0.74652500  1
  O  O23  1  0.73158600  0.60466700  0.84940200  1
  O  O24  1  0.74331000  0.24937400  0.40889400  1
  O  O25  1  0.25678000  0.84064500  0.25347500  1
  O  O26  1  0.26841400  0.39533300  0.15059800  1
  O  O27  1  0.25669000  0.75062600  0.59110600  1
  O  O28  1  0.83162800  0.98439200  0.82037900  1
  O  O29  1  0.84412900  0.85173200  0.01127700  1
  O  O30  1  0.82784600  0.17902200  0.16795400  1
  O  O31  1  0.16837200  0.01560800  0.17962100  1
  O  O32  1  0.15587100  0.14826800  0.98872300  1
  O  O33  1  0.17215400  0.82097800  0.83204600  1
