# generated using pymatgen
data_Ca5Pt3
_symmetry_space_group_name_H-M   'P 1'
_cell_length_a   8.64694847
_cell_length_b   8.64694847
_cell_length_c   8.64694847
_cell_angle_alpha   96.85132508
_cell_angle_beta   96.85132508
_cell_angle_gamma   139.58893945
_symmetry_Int_Tables_number   1
_chemical_formula_structural   Ca5Pt3
_chemical_formula_sum   'Ca10 Pt6'
_cell_volume   393.33091416
_cell_formula_units_Z   2
loop_
 _symmetry_equiv_pos_site_id
 _symmetry_equiv_pos_as_xyz
  1  'x, y, z'
loop_
 _atom_site_type_symbol
 _atom_site_label
 _atom_site_symmetry_multiplicity
 _atom_site_fract_x
 _atom_site_fract_y
 _atom_site_fract_z
 _atom_site_occupancy
  Ca  Ca0  1  0.71164600  0.58212100  0.29376700  1
  Ca  Ca1  1  0.28835400  0.41787900  0.70623300  1
  Ca  Ca2  1  0.78835400  0.08212100  0.87047500  1
  Ca  Ca3  1  0.21164600  0.91787900  0.12952500  1
  Ca  Ca4  1  0.58212100  0.28835400  0.87047500  1
  Ca  Ca5  1  0.41787900  0.71164600  0.12952500  1
  Ca  Ca6  1  0.08212100  0.21164600  0.29376700  1
  Ca  Ca7  1  0.91787900  0.78835400  0.70623300  1
  Ca  Ca8  1  0.75000000  0.25000000  0.50000000  1
  Ca  Ca9  1  0.25000000  0.75000000  0.50000000  1
  Pt  Pt10  1  0.15591700  0.65591700  0.81183400  1
  Pt  Pt11  1  0.84408300  0.34408300  0.18816600  1
  Pt  Pt12  1  0.34408300  0.15591700  0.50000000  1
  Pt  Pt13  1  0.65591700  0.84408300  0.50000000  1
  Pt  Pt14  1  0.25000000  0.25000000  0.00000000  1
  Pt  Pt15  1  0.75000000  0.75000000  0.00000000  1
