# generated using pymatgen
data_CuClO
_symmetry_space_group_name_H-M   'P 1'
_cell_length_a   6.68572700
_cell_length_b   10.97341800
_cell_length_c   12.83170900
_cell_angle_alpha   90.00000000
_cell_angle_beta   90.00000000
_cell_angle_gamma   90.00000000
_symmetry_Int_Tables_number   1
_chemical_formula_structural   CuClO
_chemical_formula_sum   'Cu16 Cl16 O16'
_cell_volume   941.40188523
_cell_formula_units_Z   16
loop_
 _symmetry_equiv_pos_site_id
 _symmetry_equiv_pos_as_xyz
  1  'x, y, z'
loop_
 _atom_site_type_symbol
 _atom_site_label
 _atom_site_symmetry_multiplicity
 _atom_site_fract_x
 _atom_site_fract_y
 _atom_site_fract_z
 _atom_site_occupancy
  Cu  Cu0  1  0.52605700  0.53956000  0.01030500  1
  Cu  Cu1  1  0.47394300  0.46044000  0.51030500  1
  Cu  Cu2  1  0.02605700  0.96044000  0.51030500  1
  Cu  Cu3  1  0.97394300  0.03956000  0.01030500  1
  Cu  Cu4  1  0.02820400  0.55935100  0.98738100  1
  Cu  Cu5  1  0.97179600  0.44064900  0.48738100  1
  Cu  Cu6  1  0.52820400  0.94064900  0.48738100  1
  Cu  Cu7  1  0.47179600  0.05935100  0.98738100  1
  Cu  Cu8  1  0.30166300  0.82502700  0.96400100  1
  Cu  Cu9  1  0.69833800  0.17497300  0.46400100  1
  Cu  Cu10  1  0.80166200  0.67497300  0.46400100  1
  Cu  Cu11  1  0.19833700  0.32502700  0.96400100  1
  Cu  Cu12  1  0.69583900  0.77595200  0.03753800  1
  Cu  Cu13  1  0.30416100  0.22404800  0.53753800  1
  Cu  Cu14  1  0.19583900  0.72404800  0.53753800  1
  Cu  Cu15  1  0.80416100  0.27595200  0.03753800  1
  Cl  Cl16  1  0.76316500  0.47255700  0.80810900  1
  Cl  Cl17  1  0.23683500  0.52744300  0.30810800  1
  Cl  Cl18  1  0.26316500  0.02744300  0.30810800  1
  Cl  Cl19  1  0.73683500  0.97255700  0.80810900  1
  Cl  Cl20  1  0.24494600  0.65654600  0.19580000  1
  Cl  Cl21  1  0.75505400  0.34345400  0.69580000  1
  Cl  Cl22  1  0.74494600  0.84345400  0.69580000  1
  Cl  Cl23  1  0.25505400  0.15654600  0.19580000  1
  Cl  Cl24  1  0.57037700  0.38008600  0.11695900  1
  Cl  Cl25  1  0.42962300  0.61991400  0.61695900  1
  Cl  Cl26  1  0.07037700  0.11991400  0.61695900  1
  Cl  Cl27  1  0.92962300  0.88008600  0.11695900  1
  Cl  Cl28  1  0.07324600  0.71972600  0.88074100  1
  Cl  Cl29  1  0.92675400  0.28027400  0.38074100  1
  Cl  Cl30  1  0.57324600  0.78027400  0.38074100  1
  Cl  Cl31  1  0.42675400  0.21972600  0.88074100  1
  O  O32  1  0.28221700  0.48708000  0.95507200  1
  O  O33  1  0.71778300  0.51292000  0.45507200  1
  O  O34  1  0.78221700  0.01292000  0.45507200  1
  O  O35  1  0.21778300  0.98708000  0.95507200  1
  O  O36  1  0.78260200  0.61249000  0.03940300  1
  O  O37  1  0.21739800  0.38751000  0.53940300  1
  O  O38  1  0.28260200  0.88751000  0.53940300  1
  O  O39  1  0.71739800  0.11249000  0.03940300  1
  O  O40  1  0.48716200  0.70030200  0.96537700  1
  O  O41  1  0.51283800  0.29969800  0.46537700  1
  O  O42  1  0.98716200  0.79969800  0.46537700  1
  O  O43  1  0.01283800  0.20030200  0.96537700  1
  O  O44  1  0.99395100  0.40080600  0.03931400  1
  O  O45  1  0.00604900  0.59919400  0.53931400  1
  O  O46  1  0.49395100  0.09919400  0.53931400  1
  O  O47  1  0.50604900  0.90080600  0.03931400  1
