# generated using pymatgen
data_ErI3O10
_symmetry_space_group_name_H-M   'P 1'
_cell_length_a   10.22452800
_cell_length_b   7.25553800
_cell_length_c   12.95343411
_cell_angle_alpha   77.94461025
_cell_angle_beta   90.00000000
_cell_angle_gamma   90.00000000
_symmetry_Int_Tables_number   1
_chemical_formula_structural   ErI3O10
_chemical_formula_sum   'Er4 I12 O40'
_cell_volume   939.75090071
_cell_formula_units_Z   4
loop_
 _symmetry_equiv_pos_site_id
 _symmetry_equiv_pos_as_xyz
  1  'x, y, z'
loop_
 _atom_site_type_symbol
 _atom_site_label
 _atom_site_symmetry_multiplicity
 _atom_site_fract_x
 _atom_site_fract_y
 _atom_site_fract_z
 _atom_site_occupancy
  Er  Er0  1  0.69012900  0.85732400  0.63695600  1
  Er  Er1  1  0.19012900  0.14267600  0.86304400  1
  Er  Er2  1  0.30987100  0.14267600  0.36304400  1
  Er  Er3  1  0.80987100  0.85732400  0.13695600  1
  I  I4  1  0.32524900  0.84113000  0.63334300  1
  I  I5  1  0.82524900  0.15887000  0.86665700  1
  I  I6  1  0.67475100  0.15887000  0.36665700  1
  I  I7  1  0.17475100  0.84113000  0.13334300  1
  I  I8  1  0.89544100  0.65445800  0.88404900  1
  I  I9  1  0.39544100  0.34554200  0.61595100  1
  I  I10  1  0.10455900  0.34554200  0.11595100  1
  I  I11  1  0.60455900  0.65445800  0.38404900  1
  I  I12  1  0.48829000  0.82233700  0.93541800  1
  I  I13  1  0.98829000  0.17766300  0.56458200  1
  I  I14  1  0.51171000  0.17766300  0.06458200  1
  I  I15  1  0.01171000  0.82233700  0.43541800  1
  O  O16  1  0.75773700  0.13191300  0.69453800  1
  O  O17  1  0.25773700  0.86808700  0.80546200  1
  O  O18  1  0.24226300  0.86808700  0.30546200  1
  O  O19  1  0.74226300  0.13191300  0.19453800  1
  O  O20  1  0.88061000  0.97007100  0.53038800  1
  O  O21  1  0.38061000  0.02992900  0.96961200  1
  O  O22  1  0.11939000  0.02992900  0.46961200  1
  O  O23  1  0.61939000  0.97007100  0.03038800  1
  O  O24  1  0.90381300  0.63505800  0.70677400  1
  O  O25  1  0.40381300  0.36494200  0.79322600  1
  O  O26  1  0.09618700  0.36494200  0.29322600  1
  O  O27  1  0.59618700  0.63505800  0.20677400  1
  O  O28  1  0.74496000  0.78261500  0.82160100  1
  O  O29  1  0.24496000  0.21738500  0.67839900  1
  O  O30  1  0.25504000  0.21738500  0.17839900  1
  O  O31  1  0.75504000  0.78261500  0.32160100  1
  O  O32  1  0.62320600  0.10429500  0.50870100  1
  O  O33  1  0.12320600  0.89570500  0.99129900  1
  O  O34  1  0.37679400  0.89570500  0.49129900  1
  O  O35  1  0.87679400  0.10429500  0.00870100  1
  O  O36  1  0.65394600  0.67599200  0.52277700  1
  O  O37  1  0.15394600  0.32400800  0.97722300  1
  O  O38  1  0.34605400  0.32400800  0.47722300  1
  O  O39  1  0.84605400  0.67599200  0.02277700  1
  O  O40  1  0.59015000  0.51377600  0.72623900  1
  O  O41  1  0.09015000  0.48622400  0.77376100  1
  O  O42  1  0.40985000  0.48622400  0.27376100  1
  O  O43  1  0.90985000  0.51377600  0.22623900  1
  O  O44  1  0.48571900  0.90441200  0.68681000  1
  O  O45  1  0.98571900  0.09558800  0.81319000  1
  O  O46  1  0.51428100  0.09558800  0.31319000  1
  O  O47  1  0.01428100  0.90441200  0.18681000  1
  O  O48  1  0.81782900  0.27175600  0.61389200  1
  O  O49  1  0.31782900  0.72824400  0.88610800  1
  O  O50  1  0.18217100  0.72824400  0.38610800  1
  O  O51  1  0.68217100  0.27175600  0.11389200  1
  O  O52  1  0.01312500  0.52531300  0.68810900  1
  O  O53  1  0.51312500  0.47468700  0.81189100  1
  O  O54  1  0.98687500  0.47468700  0.31189100  1
  O  O55  1  0.48687500  0.52531300  0.18810900  1
