# generated using pymatgen
data_Fe3O4
_symmetry_space_group_name_H-M   'P 1'
_cell_length_a   6.08817200
_cell_length_b   6.08913800
_cell_length_c   17.29273300
_cell_angle_alpha   90.00000000
_cell_angle_beta   90.00000000
_cell_angle_gamma   90.00000000
_symmetry_Int_Tables_number   1
_chemical_formula_structural   Fe3O4
_chemical_formula_sum   'Fe24 O32'
_cell_volume   641.07134674
_cell_formula_units_Z   8
loop_
 _symmetry_equiv_pos_site_id
 _symmetry_equiv_pos_as_xyz
  1  'x, y, z'
loop_
 _atom_site_type_symbol
 _atom_site_label
 _atom_site_symmetry_multiplicity
 _atom_site_fract_x
 _atom_site_fract_y
 _atom_site_fract_z
 _atom_site_occupancy
  Fe  Fe0  1  0.50650400  0.00000000  0.80995900  1
  Fe  Fe1  1  0.24563200  0.50000000  0.37622900  1
  Fe  Fe2  1  0.75445900  0.00000000  0.62463500  1
  Fe  Fe3  1  0.49349600  0.00000000  0.30995900  1
  Fe  Fe4  1  0.99801500  0.50000000  0.06319600  1
  Fe  Fe5  1  0.50731100  0.50000000  0.68513700  1
  Fe  Fe6  1  0.00198500  0.50000000  0.56319600  1
  Fe  Fe7  1  0.50025000  0.25105400  0.49870300  1
  Fe  Fe8  1  0.49268900  0.50000000  0.18513700  1
  Fe  Fe9  1  0.99910900  0.00000000  0.43829400  1
  Fe  Fe10  1  0.00839200  0.74656100  0.75056300  1
  Fe  Fe11  1  0.50025000  0.74894600  0.49870300  1
  Fe  Fe12  1  0.74180400  0.50000000  0.37804000  1
  Fe  Fe13  1  0.74150400  0.00000000  0.12263700  1
  Fe  Fe14  1  0.25819600  0.50000000  0.87804000  1
  Fe  Fe15  1  0.25849600  0.00000000  0.62263700  1
  Fe  Fe16  1  0.75436800  0.50000000  0.87622900  1
  Fe  Fe17  1  0.00089100  0.00000000  0.93829400  1
  Fe  Fe18  1  0.49975000  0.25105400  0.99870300  1
  Fe  Fe19  1  0.49975000  0.74894600  0.99870300  1
  Fe  Fe20  1  0.99160800  0.25343900  0.25056300  1
  Fe  Fe21  1  0.99160800  0.74656100  0.25056300  1
  Fe  Fe22  1  0.24554100  0.00000000  0.12463500  1
  Fe  Fe23  1  0.00839200  0.25343900  0.75056300  1
  O  O24  1  0.99585900  0.26299200  0.37142100  1
  O  O25  1  0.00577900  0.77427300  0.63448400  1
  O  O26  1  0.49454200  0.73423900  0.37089400  1
  O  O27  1  0.99422100  0.77427300  0.13448400  1
  O  O28  1  0.76149600  0.00000000  0.24838100  1
  O  O29  1  0.77132300  0.50000000  0.25781700  1
  O  O30  1  0.50633900  0.78023300  0.62491900  1
  O  O31  1  0.22867700  0.50000000  0.75781700  1
  O  O32  1  0.49366100  0.21976700  0.12491900  1
  O  O33  1  0.75230600  0.00000000  0.00502900  1
  O  O34  1  0.50633900  0.21976700  0.62491900  1
  O  O35  1  0.25188200  0.00000000  0.00473900  1
  O  O36  1  0.21511500  0.50000000  0.25784900  1
  O  O37  1  0.99585900  0.73700800  0.37142100  1
  O  O38  1  0.24769400  0.00000000  0.50502900  1
  O  O39  1  0.78488500  0.50000000  0.75784900  1
  O  O40  1  0.77488800  0.00000000  0.74833300  1
  O  O41  1  0.22511200  0.00000000  0.24833300  1
  O  O42  1  0.25458100  0.50000000  0.99004100  1
  O  O43  1  0.49454200  0.26576100  0.37089400  1
  O  O44  1  0.74811800  0.00000000  0.50473900  1
  O  O45  1  0.00414100  0.26299200  0.87142100  1
  O  O46  1  0.74541900  0.50000000  0.49004100  1
  O  O47  1  0.49366100  0.78023300  0.12491900  1
  O  O48  1  0.26342000  0.50000000  0.48951900  1
  O  O49  1  0.99422100  0.22572700  0.13448400  1
  O  O50  1  0.00577900  0.22572700  0.63448400  1
  O  O51  1  0.50545800  0.26576100  0.87089400  1
  O  O52  1  0.50545800  0.73423900  0.87089400  1
  O  O53  1  0.73658000  0.50000000  0.98951900  1
  O  O54  1  0.00414100  0.73700800  0.87142100  1
  O  O55  1  0.23850400  0.00000000  0.74838100  1
