# generated using pymatgen
data_Eu2Mg3H10
_symmetry_space_group_name_H-M   'P 1'
_cell_length_a   9.12648679
_cell_length_b   9.12648679
_cell_length_c   7.30441144
_cell_angle_alpha   69.95109052
_cell_angle_beta   69.95109052
_cell_angle_gamma   36.02671522
_symmetry_Int_Tables_number   1
_chemical_formula_structural   Eu2Mg3H10
_chemical_formula_sum   'Eu4 Mg6 H20'
_cell_volume   333.78034494
_cell_formula_units_Z   2
loop_
 _symmetry_equiv_pos_site_id
 _symmetry_equiv_pos_as_xyz
  1  'x, y, z'
loop_
 _atom_site_type_symbol
 _atom_site_label
 _atom_site_symmetry_multiplicity
 _atom_site_fract_x
 _atom_site_fract_y
 _atom_site_fract_z
 _atom_site_occupancy
  Eu  Eu0  1  0.61663500  0.61663500  0.27814900  1
  Eu  Eu1  1  0.38336500  0.38336500  0.72185100  1
  Eu  Eu2  1  0.72146400  0.72146400  0.68374300  1
  Eu  Eu3  1  0.27853600  0.27853600  0.31625700  1
  Mg  Mg4  1  0.74112300  0.25887700  0.00000000  1
  Mg  Mg5  1  0.25887700  0.74112300  0.00000000  1
  Mg  Mg6  1  0.82475300  0.82475300  0.02247000  1
  Mg  Mg7  1  0.17524700  0.17524700  0.97753000  1
  Mg  Mg8  1  0.92439800  0.92439800  0.44715800  1
  Mg  Mg9  1  0.07560200  0.07560200  0.55284200  1
  H  H10  1  0.86444900  0.86444900  0.74045300  1
  H  H11  1  0.13555100  0.13555100  0.25954700  1
  H  H12  1  0.60665500  0.16368900  0.02865300  1
  H  H13  1  0.39334500  0.83631100  0.97134700  1
  H  H14  1  0.83631100  0.39334500  0.97134700  1
  H  H15  1  0.16368900  0.60665500  0.02865300  1
  H  H16  1  0.76155700  0.23844300  0.50000000  1
  H  H17  1  0.23844300  0.76155700  0.50000000  1
  H  H18  1  0.97990900  0.97990900  0.17699600  1
  H  H19  1  0.02009100  0.02009100  0.82300400  1
  H  H20  1  0.48393300  0.48393300  0.19622400  1
  H  H21  1  0.51606700  0.51606700  0.80377600  1
  H  H22  1  0.75964300  0.75964300  0.29676300  1
  H  H23  1  0.24035700  0.24035700  0.70323700  1
  H  H24  1  0.50000000  0.00000000  0.00000000  1
  H  H25  1  0.00000000  0.50000000  0.00000000  1
  H  H26  1  0.59598800  0.09314100  0.48408900  1
  H  H27  1  0.40401200  0.90685900  0.51591100  1
  H  H28  1  0.90685900  0.40401200  0.51591100  1
  H  H29  1  0.09314100  0.59598800  0.48408900  1
