# generated using pymatgen
data_NaBeSi3O8
_symmetry_space_group_name_H-M   'P 1'
_cell_length_a   9.03695600
_cell_length_b   16.18046000
_cell_length_c   16.85689300
_cell_angle_alpha   90.00000000
_cell_angle_beta   90.00000000
_cell_angle_gamma   90.00000000
_symmetry_Int_Tables_number   1
_chemical_formula_structural   NaBeSi3O8
_chemical_formula_sum   'Na8 Be8 Si24 O64'
_cell_volume   2464.85037956
_cell_formula_units_Z   8
loop_
 _symmetry_equiv_pos_site_id
 _symmetry_equiv_pos_as_xyz
  1  'x, y, z'
loop_
 _atom_site_type_symbol
 _atom_site_label
 _atom_site_symmetry_multiplicity
 _atom_site_fract_x
 _atom_site_fract_y
 _atom_site_fract_z
 _atom_site_occupancy
  Na  Na0  1  0.50000000  0.00000000  0.50000000  1
  Na  Na1  1  0.00000000  0.50000000  0.00000000  1
  Na  Na2  1  0.50000000  0.50000000  0.50000000  1
  Na  Na3  1  0.00000000  0.00000000  0.00000000  1
  Na  Na4  1  0.00000000  0.00000000  0.50000000  1
  Na  Na5  1  0.50000000  0.50000000  0.00000000  1
  Na  Na6  1  0.00000000  0.50000000  0.50000000  1
  Na  Na7  1  0.50000000  0.00000000  0.00000000  1
  Be  Be8  1  0.11153700  0.34314700  0.85636100  1
  Be  Be9  1  0.38846300  0.15685300  0.35636100  1
  Be  Be10  1  0.88846300  0.84314700  0.14363900  1
  Be  Be11  1  0.61153700  0.65685300  0.64363900  1
  Be  Be12  1  0.88846300  0.65685300  0.14363900  1
  Be  Be13  1  0.61153700  0.84314700  0.64363900  1
  Be  Be14  1  0.11153700  0.15685300  0.85636100  1
  Be  Be15  1  0.38846300  0.34314700  0.35636100  1
  Si  Si16  1  0.67975700  0.43747600  0.37004300  1
  Si  Si17  1  0.82024300  0.06252400  0.87004300  1
  Si  Si18  1  0.32024300  0.93747600  0.62995700  1
  Si  Si19  1  0.17975700  0.56252400  0.12995700  1
  Si  Si20  1  0.32024300  0.56252400  0.62995700  1
  Si  Si21  1  0.17975700  0.93747600  0.12995700  1
  Si  Si22  1  0.67975700  0.06252400  0.37004300  1
  Si  Si23  1  0.82024300  0.43747600  0.87004300  1
  Si  Si24  1  0.42330700  0.82155200  0.09810000  1
  Si  Si25  1  0.07669300  0.67844800  0.59810000  1
  Si  Si26  1  0.57669300  0.32155200  0.90190000  1
  Si  Si27  1  0.92330700  0.17844800  0.40190000  1
  Si  Si28  1  0.57669300  0.17844800  0.90190000  1
  Si  Si29  1  0.92330700  0.32155200  0.40190000  1
  Si  Si30  1  0.42330700  0.67844800  0.09810000  1
  Si  Si31  1  0.07669300  0.82155200  0.59810000  1
  Si  Si32  1  0.16341200  0.03577200  0.29521300  1
  Si  Si33  1  0.33658800  0.46422800  0.79521300  1
  Si  Si34  1  0.83658800  0.53577200  0.70478700  1
  Si  Si35  1  0.66341200  0.96422800  0.20478700  1
  Si  Si36  1  0.83658800  0.96422800  0.70478700  1
  Si  Si37  1  0.66341200  0.53577200  0.20478700  1
  Si  Si38  1  0.16341200  0.46422800  0.29521300  1
  Si  Si39  1  0.33658800  0.03577200  0.79521300  1
  O  O40  1  0.51658800  0.10143700  0.38386000  1
  O  O41  1  0.98341200  0.39856300  0.88386000  1
  O  O42  1  0.48341200  0.60143700  0.61614000  1
  O  O43  1  0.01658800  0.89856300  0.11614000  1
  O  O44  1  0.48341200  0.89856300  0.61614000  1
  O  O45  1  0.01658800  0.60143700  0.11614000  1
  O  O46  1  0.51658800  0.39856300  0.38386000  1
  O  O47  1  0.98341200  0.10143700  0.88386000  1
  O  O48  1  0.02063300  0.13850100  0.46621100  1
  O  O49  1  0.47936700  0.36149900  0.96621100  1
  O  O50  1  0.97936700  0.63850100  0.53378900  1
  O  O51  1  0.52063300  0.86149900  0.03378900  1
  O  O52  1  0.97936700  0.86149900  0.53378900  1
  O  O53  1  0.52063300  0.63850100  0.03378900  1
  O  O54  1  0.02063300  0.36149900  0.46621100  1
  O  O55  1  0.47936700  0.13850100  0.96621100  1
  O  O56  1  0.23032700  0.51551700  0.05067100  1
  O  O57  1  0.26967300  0.98448300  0.55067100  1
  O  O58  1  0.76967300  0.01551700  0.94932900  1
  O  O59  1  0.73032700  0.48448300  0.44932900  1
  O  O60  1  0.76967300  0.48448300  0.94932900  1
  O  O61  1  0.73032700  0.01551700  0.44932900  1
  O  O62  1  0.23032700  0.98448300  0.05067100  1
  O  O63  1  0.26967300  0.51551700  0.55067100  1
  O  O64  1  0.67946800  0.99933500  0.29319200  1
  O  O65  1  0.82053200  0.50066500  0.79319200  1
  O  O66  1  0.32053200  0.49933500  0.70680800  1
  O  O67  1  0.17946800  0.00066500  0.20680800  1
  O  O68  1  0.32053200  0.00066500  0.70680800  1
  O  O69  1  0.17946800  0.49933500  0.20680800  1
  O  O70  1  0.67946800  0.50066500  0.29319200  1
  O  O71  1  0.82053200  0.99933500  0.79319200  1
  O  O72  1  0.05162500  0.99446600  0.35310700  1
  O  O73  1  0.44837500  0.50553400  0.85310700  1
  O  O74  1  0.94837500  0.49446600  0.64689300  1
  O  O75  1  0.55162500  0.00553400  0.14689300  1
  O  O76  1  0.94837500  0.00553400  0.64689300  1
  O  O77  1  0.55162500  0.49446600  0.14689300  1
  O  O78  1  0.05162500  0.50553400  0.35310700  1
  O  O79  1  0.44837500  0.99446600  0.85310700  1
  O  O80  1  0.25797900  0.11537900  0.31219700  1
  O  O81  1  0.24202100  0.38462100  0.81219700  1
  O  O82  1  0.74202100  0.61537900  0.68780300  1
  O  O83  1  0.75797900  0.88462100  0.18780300  1
  O  O84  1  0.74202100  0.88462100  0.68780300  1
  O  O85  1  0.75797900  0.61537900  0.18780300  1
  O  O86  1  0.25797900  0.38462100  0.31219700  1
  O  O87  1  0.24202100  0.11537900  0.81219700  1
  O  O88  1  0.29682900  0.86019100  0.15435100  1
  O  O89  1  0.20317100  0.63980900  0.65435100  1
  O  O90  1  0.70317100  0.36019100  0.84564900  1
  O  O91  1  0.79682900  0.13980900  0.34564900  1
  O  O92  1  0.70317100  0.13980900  0.84564900  1
  O  O93  1  0.79682900  0.36019100  0.34564900  1
  O  O94  1  0.29682900  0.63980900  0.15435100  1
  O  O95  1  0.20317100  0.86019100  0.65435100  1
  O  O96  1  0.36579000  0.25000000  0.66469200  1
  O  O97  1  0.13421000  0.25000000  0.16469200  1
  O  O98  1  0.63421000  0.75000000  0.33530800  1
  O  O99  1  0.86579000  0.75000000  0.83530800  1
  O  O100  1  0.38570900  0.25000000  0.36940900  1
  O  O101  1  0.11429100  0.25000000  0.86940900  1
  O  O102  1  0.61429100  0.75000000  0.63059100  1
  O  O103  1  0.88570900  0.75000000  0.13059100  1
