# generated using pymatgen
data_Cu2PO5
_symmetry_space_group_name_H-M   'P 1'
_cell_length_a   8.61177750
_cell_length_b   7.30889313
_cell_length_c   6.21473800
_cell_angle_alpha   89.99757570
_cell_angle_beta   89.99810492
_cell_angle_gamma   90.10223585
_symmetry_Int_Tables_number   1
_chemical_formula_structural   Cu2PO5
_chemical_formula_sum   'Cu8 P4 O20'
_cell_volume   391.17090473
_cell_formula_units_Z   4
loop_
 _symmetry_equiv_pos_site_id
 _symmetry_equiv_pos_as_xyz
  1  'x, y, z'
loop_
 _atom_site_type_symbol
 _atom_site_label
 _atom_site_symmetry_multiplicity
 _atom_site_fract_x
 _atom_site_fract_y
 _atom_site_fract_z
 _atom_site_occupancy
  Cu  Cu0  1  0.50029600  0.99944900  0.73379400  1
  Cu  Cu1  1  0.00071100  0.49890000  0.76549700  1
  Cu  Cu2  1  0.50029500  0.99944300  0.26627000  1
  Cu  Cu3  1  0.00071100  0.49889900  0.23449900  1
  Cu  Cu4  1  0.76726200  0.21734000  0.50003200  1
  Cu  Cu5  1  0.22901300  0.78136900  0.50004000  1
  Cu  Cu6  1  0.27118000  0.28278600  0.99998700  1
  Cu  Cu7  1  0.72922800  0.71851100  0.99998100  1
  P  P8  1  0.75013000  0.29885400  0.99998300  1
  P  P9  1  0.25029700  0.70162000  0.99998600  1
  P  P10  1  0.25030500  0.20060000  0.50001900  1
  P  P11  1  0.75049400  0.79869200  0.50001400  1
  O  O12  1  0.62531200  0.38453900  0.49999500  1
  O  O13  1  0.37282500  0.61609700  0.49998900  1
  O  O14  1  0.12795100  0.11609200  0.99999000  1
  O  O15  1  0.87110300  0.88691700  0.99998300  1
  O  O16  1  0.65836300  0.47755400  0.99999800  1
  O  O17  1  0.34306600  0.52368000  0.99999300  1
  O  O18  1  0.15789700  0.02206900  0.50000000  1
  O  O19  1  0.84189100  0.97813700  0.49999000  1
  O  O20  1  0.63898500  0.13366200  0.99997700  1
  O  O21  1  0.36018400  0.86793200  0.99998000  1
  O  O22  1  0.14025000  0.36625000  0.50004000  1
  O  O23  1  0.86120500  0.63376500  0.50003500  1
  O  O24  1  0.86333600  0.29385300  0.79829100  1
  O  O25  1  0.13651500  0.70564300  0.79875700  1
  O  O26  1  0.36399100  0.20539700  0.70137000  1
  O  O27  1  0.63667700  0.79353200  0.70122200  1
  O  O28  1  0.13652100  0.70566700  0.20120200  1
  O  O29  1  0.86332700  0.29382700  0.20165200  1
  O  O30  1  0.63668600  0.79351000  0.29879100  1
  O  O31  1  0.36399000  0.20541500  0.29864100  1
