# generated using pymatgen
data_Cu2H3NO6
_symmetry_space_group_name_H-M   'P 1'
_cell_length_a   5.77504500
_cell_length_b   5.98257300
_cell_length_c   8.76581460
_cell_angle_alpha   88.55085780
_cell_angle_beta   90.00000000
_cell_angle_gamma   90.00000000
_symmetry_Int_Tables_number   1
_chemical_formula_structural   Cu2H3NO6
_chemical_formula_sum   'Cu4 H6 N2 O12'
_cell_volume   302.75877276
_cell_formula_units_Z   2
loop_
 _symmetry_equiv_pos_site_id
 _symmetry_equiv_pos_as_xyz
  1  'x, y, z'
loop_
 _atom_site_type_symbol
 _atom_site_label
 _atom_site_symmetry_multiplicity
 _atom_site_fract_x
 _atom_site_fract_y
 _atom_site_fract_z
 _atom_site_occupancy
  Cu  Cu0  1  0.44385700  0.99984600  0.99640100  1
  Cu  Cu1  1  0.94385700  0.00015400  0.00359900  1
  Cu  Cu2  1  0.68819500  0.50223100  0.98577600  1
  Cu  Cu3  1  0.18819500  0.49776900  0.01422400  1
  H  H4  1  0.84252700  0.03481500  0.45770500  1
  H  H5  1  0.34252700  0.96518500  0.54229500  1
  H  H6  1  0.61325500  0.71660400  0.58534400  1
  H  H7  1  0.11325500  0.28339600  0.41465600  1
  H  H8  1  0.52624500  0.04435400  0.66435000  1
  H  H9  1  0.02624500  0.95564600  0.33565000  1
  N  N10  1  0.70388300  0.55870900  0.58272400  1
  N  N11  1  0.20388300  0.44129100  0.41727600  1
  O  O12  1  0.69952300  0.99660800  0.87677900  1
  O  O13  1  0.19952300  0.00339200  0.12322100  1
  O  O14  1  0.43143800  0.69608300  0.96718700  1
  O  O15  1  0.93143800  0.30391700  0.03281300  1
  O  O16  1  0.43620600  0.30618300  0.96777700  1
  O  O17  1  0.93620600  0.69381700  0.03222300  1
  O  O18  1  0.77726800  0.47397600  0.70417500  1
  O  O19  1  0.27726800  0.52602400  0.29582500  1
  O  O20  1  0.72936200  0.47461100  0.45609400  1
  O  O21  1  0.22936200  0.52538900  0.54390600  1
  O  O22  1  0.50854200  0.97512600  0.56461700  1
  O  O23  1  0.00854200  0.02487400  0.43538300  1
