# generated using pymatgen
data_Fe(MoO5)2
_symmetry_space_group_name_H-M   'P 1'
_cell_length_a   6.46096900
_cell_length_b   8.06122548
_cell_length_c   9.39104825
_cell_angle_alpha   110.46689614
_cell_angle_beta   89.59508454
_cell_angle_gamma   105.63014484
_symmetry_Int_Tables_number   1
_chemical_formula_structural   Fe(MoO5)2
_chemical_formula_sum   'Fe2 Mo4 O20'
_cell_volume   439.23270512
_cell_formula_units_Z   2
loop_
 _symmetry_equiv_pos_site_id
 _symmetry_equiv_pos_as_xyz
  1  'x, y, z'
loop_
 _atom_site_type_symbol
 _atom_site_label
 _atom_site_symmetry_multiplicity
 _atom_site_fract_x
 _atom_site_fract_y
 _atom_site_fract_z
 _atom_site_occupancy
  Fe  Fe0  1  0.09859600  0.20730000  0.36836500  1
  Fe  Fe1  1  0.90140400  0.79270000  0.63163500  1
  Mo  Mo2  1  0.77826400  0.71596900  0.23959700  1
  Mo  Mo3  1  0.22173600  0.28403100  0.76040300  1
  Mo  Mo4  1  0.90614900  0.30883500  0.06802400  1
  Mo  Mo5  1  0.09385100  0.69116500  0.93197600  1
  O  O6  1  0.36269100  0.66824000  0.53236600  1
  O  O7  1  0.63730900  0.33176000  0.46763400  1
  O  O8  1  0.49303800  0.26470900  0.36131100  1
  O  O9  1  0.50696200  0.73529100  0.63868900  1
  O  O10  1  0.95193900  0.96351900  0.30738500  1
  O  O11  1  0.04806100  0.03648100  0.69261500  1
  O  O12  1  0.52278700  0.73998500  0.25729600  1
  O  O13  1  0.47721300  0.26001500  0.74270400  1
  O  O14  1  0.84875400  0.68544300  0.42323300  1
  O  O15  1  0.15124600  0.31455700  0.57676700  1
  O  O16  1  0.70172700  0.43009000  0.14852100  1
  O  O17  1  0.29827300  0.56991000  0.85147900  1
  O  O18  1  0.92261400  0.35709900  0.87290900  1
  O  O19  1  0.07738600  0.64290100  0.12709100  1
  O  O20  1  0.19344900  0.30884400  0.97474300  1
  O  O21  1  0.80655100  0.69115600  0.02525700  1
  O  O22  1  0.05912000  0.33763100  0.25148800  1
  O  O23  1  0.94088000  0.66236900  0.74851200  1
  O  O24  1  0.76118400  0.08005200  0.00121600  1
  O  O25  1  0.23881600  0.91994800  0.99878400  1
