# generated using pymatgen
data_K3Mo4CSNO16
_symmetry_space_group_name_H-M   'P 1'
_cell_length_a   10.77915759
_cell_length_b   15.30773489
_cell_length_c   11.83285838
_cell_angle_alpha   90.00000000
_cell_angle_beta   102.19771798
_cell_angle_gamma   90.00000000
_symmetry_Int_Tables_number   1
_chemical_formula_structural   K3Mo4CSNO16
_chemical_formula_sum   'K12 Mo16 C4 S4 N4 O64'
_cell_volume   1908.39625908
_cell_formula_units_Z   4
loop_
 _symmetry_equiv_pos_site_id
 _symmetry_equiv_pos_as_xyz
  1  'x, y, z'
loop_
 _atom_site_type_symbol
 _atom_site_label
 _atom_site_symmetry_multiplicity
 _atom_site_fract_x
 _atom_site_fract_y
 _atom_site_fract_z
 _atom_site_occupancy
  K  K0  1  0.20169001  0.30177671  0.02173881  1
  K  K1  1  0.79830999  0.80177671  0.47826119  1
  K  K2  1  0.79830999  0.69822329  0.97826119  1
  K  K3  1  0.20169001  0.19822329  0.52173881  1
  K  K4  1  0.54535004  0.36337892  0.46503197  1
  K  K5  1  0.45464996  0.86337892  0.03496803  1
  K  K6  1  0.45464996  0.63662108  0.53496803  1
  K  K7  1  0.54535004  0.13662108  0.96503197  1
  K  K8  1  0.79300177  0.35235307  0.85542587  1
  K  K9  1  0.20699823  0.85235307  0.64457413  1
  K  K10  1  0.20699823  0.64764693  0.14457413  1
  K  K11  1  0.79300177  0.14764693  0.35542587  1
  Mo  Mo12  1  0.93847859  0.39746960  0.44849171  1
  Mo  Mo13  1  0.06152141  0.89746960  0.05150829  1
  Mo  Mo14  1  0.06152141  0.60253040  0.55150829  1
  Mo  Mo15  1  0.93847859  0.10253040  0.94849171  1
  Mo  Mo16  1  0.91722915  0.45191539  0.15932866  1
  Mo  Mo17  1  0.08277085  0.95191539  0.34067134  1
  Mo  Mo18  1  0.08277085  0.54808461  0.84067134  1
  Mo  Mo19  1  0.91722915  0.04808461  0.65932866  1
  Mo  Mo20  1  0.25011388  0.43073646  0.61474386  1
  Mo  Mo21  1  0.74988612  0.93073646  0.88525614  1
  Mo  Mo22  1  0.74988612  0.56926354  0.38525614  1
  Mo  Mo23  1  0.25011388  0.06926354  0.11474386  1
  Mo  Mo24  1  0.20864957  0.44892003  0.32756355  1
  Mo  Mo25  1  0.79135043  0.94892003  0.17243645  1
  Mo  Mo26  1  0.79135043  0.55107997  0.67243645  1
  Mo  Mo27  1  0.20864957  0.05107997  0.82756355  1
  C  C28  1  0.66764463  0.32880709  0.17003796  1
  C  C29  1  0.33235537  0.82880709  0.32996204  1
  C  C30  1  0.33235537  0.67119291  0.82996204  1
  C  C31  1  0.66764463  0.17119291  0.67003796  1
  S  S32  1  0.54728173  0.27183967  0.18797710  1
  S  S33  1  0.45271827  0.77183967  0.31202290  1
  S  S34  1  0.45271827  0.72816033  0.81202290  1
  S  S35  1  0.54728173  0.22816033  0.68797710  1
  N  N36  1  0.75601875  0.37003200  0.15538587  1
  N  N37  1  0.24398125  0.87003200  0.34461413  1
  N  N38  1  0.24398125  0.62996800  0.84461413  1
  N  N39  1  0.75601875  0.12996800  0.65538587  1
  O  O40  1  0.81273423  0.32328660  0.43305713  1
  O  O41  1  0.18726577  0.82328660  0.06694287  1
  O  O42  1  0.18726577  0.67671340  0.56694287  1
  O  O43  1  0.81273423  0.17671340  0.93305713  1
  O  O44  1  0.96730784  0.37926921  0.06355490  1
  O  O45  1  0.03269216  0.87926921  0.43644510  1
  O  O46  1  0.03269216  0.62073079  0.93644510  1
  O  O47  1  0.96730784  0.12073079  0.56355490  1
  O  O48  1  0.83321139  0.53234297  0.07176359  1
  O  O49  1  0.16678861  0.03234297  0.42823641  1
  O  O50  1  0.16678861  0.46765703  0.92823641  1
  O  O51  1  0.83321139  0.96765703  0.57176359  1
  O  O52  1  0.38529678  0.49696763  0.63348129  1
  O  O53  1  0.61470322  0.99696763  0.86651871  1
  O  O54  1  0.61470322  0.50303237  0.36651871  1
  O  O55  1  0.38529678  0.00303237  0.13348129  1
  O  O56  1  0.29511470  0.34382584  0.70847937  1
  O  O57  1  0.70488530  0.84382584  0.79152063  1
  O  O58  1  0.70488530  0.65617416  0.29152063  1
  O  O59  1  0.29511470  0.15617416  0.20847937  1
  O  O60  1  0.31459775  0.53722227  0.34837503  1
  O  O61  1  0.68540225  0.03722227  0.15162497  1
  O  O62  1  0.68540225  0.46277773  0.65162497  1
  O  O63  1  0.31459775  0.96277773  0.84837503  1
  O  O64  1  0.26310095  0.38095653  0.23114548  1
  O  O65  1  0.73689905  0.88095653  0.26885452  1
  O  O66  1  0.73689905  0.61904347  0.76885452  1
  O  O67  1  0.26310095  0.11904347  0.73114548  1
  O  O68  1  0.05873292  0.35220104  0.55993880  1
  O  O69  1  0.94126708  0.85220104  0.94006120  1
  O  O70  1  0.94126708  0.64779896  0.44006120  1
  O  O71  1  0.05873292  0.14779896  0.05993880  1
  O  O72  1  0.07431656  0.51216756  0.21785375  1
  O  O73  1  0.92568344  0.01216756  0.28214625  1
  O  O74  1  0.92568344  0.48783244  0.78214625  1
  O  O75  1  0.07431656  0.98783244  0.71785375  1
  O  O76  1  0.27275496  0.37892012  0.46659034  1
  O  O77  1  0.72724504  0.87892012  0.03340966  1
  O  O78  1  0.72724504  0.62107988  0.53340966  1
  O  O79  1  0.27275496  0.12107988  0.96659034  1
  O  O80  1  0.85624846  0.49164078  0.31487296  1
  O  O81  1  0.14375154  0.99164078  0.18512704  1
  O  O82  1  0.14375154  0.50835922  0.68512704  1
  O  O83  1  0.85624846  0.00835922  0.81487296  1
  O  O84  1  0.01971597  0.37331046  0.31933714  1
  O  O85  1  0.98028403  0.87331046  0.18066286  1
  O  O86  1  0.98028403  0.62668954  0.68066286  1
  O  O87  1  0.01971597  0.12668954  0.81933714  1
  O  O88  1  0.11584382  0.50506285  0.46896793  1
  O  O89  1  0.88415618  0.00506285  0.03103207  1
  O  O90  1  0.88415618  0.49493715  0.53103207  1
  O  O91  1  0.11584382  0.99493715  0.96896793  1
  O  O92  1  0.47783376  0.35176570  0.93068823  1
  O  O93  1  0.52216624  0.85176570  0.56931177  1
  O  O94  1  0.52216624  0.64823430  0.06931177  1
  O  O95  1  0.47783376  0.14823430  0.43068823  1
  O  O96  1  0.01798726  0.27310929  0.81095569  1
  O  O97  1  0.98201274  0.77310929  0.68904431  1
  O  O98  1  0.98201274  0.72689071  0.18904431  1
  O  O99  1  0.01798726  0.22689071  0.31095569  1
  O  O100  1  0.46248134  0.58344608  0.09020324  1
  O  O101  1  0.53751866  0.08344608  0.40979676  1
  O  O102  1  0.53751866  0.41655392  0.90979676  1
  O  O103  1  0.46248134  0.91655392  0.59020324  1
