# generated using pymatgen
data_Fe(SeO3)3
_symmetry_space_group_name_H-M   'P 1'
_cell_length_a   12.20057400
_cell_length_b   8.12414900
_cell_length_c   11.19935277
_cell_angle_alpha   49.23034354
_cell_angle_beta   90.00000000
_cell_angle_gamma   90.00000000
_symmetry_Int_Tables_number   1
_chemical_formula_structural   Fe(SeO3)3
_chemical_formula_sum   'Fe4 Se12 O36'
_cell_volume   840.70288064
_cell_formula_units_Z   4
loop_
 _symmetry_equiv_pos_site_id
 _symmetry_equiv_pos_as_xyz
  1  'x, y, z'
loop_
 _atom_site_type_symbol
 _atom_site_label
 _atom_site_symmetry_multiplicity
 _atom_site_fract_x
 _atom_site_fract_y
 _atom_site_fract_z
 _atom_site_occupancy
  Fe  Fe0  1  0.19666500  0.44985600  0.78052400  1
  Fe  Fe1  1  0.69666500  0.55014400  0.71947600  1
  Fe  Fe2  1  0.80333500  0.55014400  0.21947600  1
  Fe  Fe3  1  0.30333500  0.44985600  0.28052400  1
  Se  Se4  1  0.35735500  0.28111400  0.63473000  1
  Se  Se5  1  0.85735500  0.71888600  0.86527000  1
  Se  Se6  1  0.64264500  0.71888600  0.36527000  1
  Se  Se7  1  0.14264500  0.28111400  0.13473000  1
  Se  Se8  1  0.17655000  0.91743400  0.10852800  1
  Se  Se9  1  0.67655000  0.08256600  0.39147200  1
  Se  Se10  1  0.82345000  0.08256600  0.89147200  1
  Se  Se11  1  0.32345000  0.91743400  0.60852800  1
  Se  Se12  1  0.03983400  0.30299500  0.45840800  1
  Se  Se13  1  0.53983400  0.69700500  0.04159200  1
  Se  Se14  1  0.96016600  0.69700500  0.54159200  1
  Se  Se15  1  0.46016600  0.30299500  0.95840800  1
  O  O16  1  0.27139600  0.46065900  0.61152100  1
  O  O17  1  0.77139600  0.53934100  0.88847900  1
  O  O18  1  0.72860400  0.53934100  0.38847900  1
  O  O19  1  0.22860400  0.46065900  0.11152100  1
  O  O20  1  0.40375800  0.39266300  0.45459600  1
  O  O21  1  0.90375800  0.60733700  0.04540400  1
  O  O22  1  0.59624200  0.60733700  0.54540400  1
  O  O23  1  0.09624200  0.39266300  0.95459600  1
  O  O24  1  0.45350900  0.19426600  0.76524100  1
  O  O25  1  0.95350900  0.80573400  0.73475900  1
  O  O26  1  0.54649100  0.80573400  0.23475900  1
  O  O27  1  0.04649100  0.19426600  0.26524100  1
  O  O28  1  0.29411900  0.77525800  0.15629300  1
  O  O29  1  0.79411900  0.22474200  0.34370700  1
  O  O30  1  0.70588100  0.22474200  0.84370700  1
  O  O31  1  0.20588100  0.77525800  0.65629300  1
  O  O32  1  0.19704200  0.12543800  0.91358200  1
  O  O33  1  0.69704200  0.87456200  0.58641800  1
  O  O34  1  0.80295800  0.87456200  0.08641800  1
  O  O35  1  0.30295800  0.12543800  0.41358200  1
  O  O36  1  0.22077000  0.05168100  0.19348100  1
  O  O37  1  0.72077000  0.94831900  0.30651900  1
  O  O38  1  0.77923000  0.94831900  0.80651900  1
  O  O39  1  0.27923000  0.05168100  0.69348100  1
  O  O40  1  0.15979500  0.44670100  0.36995900  1
  O  O41  1  0.65979500  0.55329900  0.13004100  1
  O  O42  1  0.84020500  0.55329900  0.63004100  1
  O  O43  1  0.34020500  0.44670100  0.86995900  1
  O  O44  1  0.94411100  0.50341900  0.33668000  1
  O  O45  1  0.44411100  0.49658100  0.16332000  1
  O  O46  1  0.05588900  0.49658100  0.66332000  1
  O  O47  1  0.55588900  0.50341900  0.83668000  1
  O  O48  1  0.03412900  0.24386000  0.63213100  1
  O  O49  1  0.53412900  0.75614000  0.86786900  1
  O  O50  1  0.96587100  0.75614000  0.36786900  1
  O  O51  1  0.46587100  0.24386000  0.13213100  1
