# generated using pymatgen
data_Co(ClO3)2
_symmetry_space_group_name_H-M   'P 1'
_cell_length_a   5.95192974
_cell_length_b   5.95192974
_cell_length_c   4.77072655
_cell_angle_alpha   71.30651765
_cell_angle_beta   71.30651765
_cell_angle_gamma   72.69934205
_symmetry_Int_Tables_number   1
_chemical_formula_structural   Co(ClO3)2
_chemical_formula_sum   'Co1 Cl2 O6'
_cell_volume   148.03270630
_cell_formula_units_Z   1
loop_
 _symmetry_equiv_pos_site_id
 _symmetry_equiv_pos_as_xyz
  1  'x, y, z'
loop_
 _atom_site_type_symbol
 _atom_site_label
 _atom_site_symmetry_multiplicity
 _atom_site_fract_x
 _atom_site_fract_y
 _atom_site_fract_z
 _atom_site_occupancy
  Co  Co0  1  0.00000000  0.00000000  0.00000000  1
  Cl  Cl1  1  0.27218700  0.27218700  0.90608400  1
  Cl  Cl2  1  0.72781300  0.72781300  0.09391600  1
  O  O3  1  0.84633700  0.23258600  0.74970600  1
  O  O4  1  0.23258600  0.84633700  0.74970600  1
  O  O5  1  0.15366300  0.76741400  0.25029400  1
  O  O6  1  0.76741400  0.15366300  0.25029400  1
  O  O7  1  0.28999200  0.28999200  0.21269700  1
  O  O8  1  0.71000800  0.71000800  0.78730300  1
