# generated using pymatgen
data_MgH16C4S4N2(O4F3)4
_symmetry_space_group_name_H-M   'P 1'
_cell_length_a   16.03411700
_cell_length_b   6.87209400
_cell_length_c   16.74685119
_cell_angle_alpha   74.09674592
_cell_angle_beta   90.00000000
_cell_angle_gamma   90.00000000
_symmetry_Int_Tables_number   1
_chemical_formula_structural   MgH16C4S4N2(O4F3)4
_chemical_formula_sum   'Mg2 H32 C8 S8 N4 O32 F24'
_cell_volume   1774.67382844
_cell_formula_units_Z   2
loop_
 _symmetry_equiv_pos_site_id
 _symmetry_equiv_pos_as_xyz
  1  'x, y, z'
loop_
 _atom_site_type_symbol
 _atom_site_label
 _atom_site_symmetry_multiplicity
 _atom_site_fract_x
 _atom_site_fract_y
 _atom_site_fract_z
 _atom_site_occupancy
  Mg  Mg0  1  0.00000000  0.00000000  0.00000000  1
  Mg  Mg1  1  0.50000000  0.00000000  0.50000000  1
  H  H2  1  0.05336700  0.10071300  0.22662700  1
  H  H3  1  0.23710200  0.56116800  0.65869100  1
  H  H4  1  0.17807200  0.46941900  0.38708800  1
  H  H5  1  0.44663300  0.10071300  0.72662700  1
  H  H6  1  0.60806400  0.98449600  0.36781300  1
  H  H7  1  0.82192800  0.53058100  0.61291200  1
  H  H8  1  0.13372100  0.24594300  0.19671400  1
  H  H9  1  0.76289800  0.43883200  0.34130900  1
  H  H10  1  0.39193600  0.01550400  0.63218700  1
  H  H11  1  0.32585100  0.62350200  0.63006000  1
  H  H12  1  0.82585100  0.37649800  0.86994000  1
  H  H13  1  0.90426400  0.11590800  0.20400600  1
  H  H14  1  0.55336700  0.89928700  0.27337300  1
  H  H15  1  0.86627900  0.75405700  0.80328600  1
  H  H16  1  0.73710200  0.43883200  0.84130900  1
  H  H17  1  0.10806400  0.01550400  0.13218700  1
  H  H18  1  0.81664300  0.15001600  0.65918700  1
  H  H19  1  0.40426400  0.88409200  0.29599400  1
  H  H20  1  0.18335700  0.84998400  0.34081300  1
  H  H21  1  0.26289800  0.56116800  0.15869100  1
  H  H22  1  0.94663300  0.89928700  0.77337300  1
  H  H23  1  0.67807200  0.53058100  0.11291200  1
  H  H24  1  0.31664300  0.84998400  0.84081300  1
  H  H25  1  0.67414900  0.37649800  0.36994000  1
  H  H26  1  0.32192800  0.46941900  0.88708800  1
  H  H27  1  0.09573600  0.88409200  0.79599400  1
  H  H28  1  0.63372100  0.75405700  0.30328600  1
  H  H29  1  0.89193600  0.98449600  0.86781300  1
  H  H30  1  0.59573600  0.11590800  0.70400600  1
  H  H31  1  0.68335700  0.15001600  0.15918700  1
  H  H32  1  0.17414900  0.62350200  0.13006000  1
  H  H33  1  0.36627900  0.24594300  0.69671400  1
  C  C34  1  0.88033500  0.54407300  0.57742700  1
  C  C35  1  0.64145400  0.16536800  0.89457400  1
  C  C36  1  0.85854600  0.16536800  0.39457400  1
  C  C37  1  0.35854600  0.83463200  0.10542600  1
  C  C38  1  0.38033500  0.45592700  0.92257300  1
  C  C39  1  0.11966500  0.45592700  0.42257300  1
  C  C40  1  0.14145400  0.83463200  0.60542600  1
  C  C41  1  0.61966500  0.54407300  0.07742700  1
  S  S42  1  0.66706200  0.88887600  0.50229100  1
  S  S43  1  0.75567700  0.04913500  0.71041300  1
  S  S44  1  0.33293800  0.11112400  0.49770900  1
  S  S45  1  0.83293800  0.88887600  0.00229100  1
  S  S46  1  0.25567700  0.95086500  0.78958700  1
  S  S47  1  0.24432300  0.95086500  0.28958700  1
  S  S48  1  0.16706200  0.11112400  0.99770900  1
  S  S49  1  0.74432300  0.04913500  0.21041300  1
  N  N50  1  0.82668600  0.18932500  0.16342400  1
  N  N51  1  0.17331400  0.81067500  0.83657600  1
  N  N52  1  0.67331400  0.18932500  0.66342400  1
  N  N53  1  0.32668600  0.81067500  0.33657600  1
  O  O54  1  0.20486100  0.51416100  0.16814300  1
  O  O55  1  0.97823300  0.52094900  0.22810400  1
  O  O56  1  0.61348000  0.89425700  0.28991500  1
  O  O57  1  0.79513900  0.48583900  0.83185700  1
  O  O58  1  0.26690200  0.96867300  0.49158000  1
  O  O59  1  0.50360500  0.49660100  0.66013900  1
  O  O60  1  0.00360500  0.50339900  0.83986100  1
  O  O61  1  0.09945100  0.96887600  0.07960700  1
  O  O62  1  0.68076800  0.33805300  0.60368000  1
  O  O63  1  0.76690200  0.03132700  0.00842000  1
  O  O64  1  0.73309800  0.03132700  0.50842000  1
  O  O65  1  0.23309800  0.96867300  0.99158000  1
  O  O66  1  0.70486100  0.48583900  0.33185700  1
  O  O67  1  0.49639500  0.50339900  0.33986100  1
  O  O68  1  0.11348000  0.10574300  0.21008500  1
  O  O69  1  0.02176700  0.47905100  0.77189600  1
  O  O70  1  0.90105300  0.88195100  0.06767300  1
  O  O71  1  0.31923200  0.66194700  0.39632000  1
  O  O72  1  0.59894700  0.88195100  0.56767300  1
  O  O73  1  0.29513900  0.51416100  0.66814300  1
  O  O74  1  0.40105300  0.11804900  0.43232700  1
  O  O75  1  0.40054900  0.96887600  0.57960700  1
  O  O76  1  0.81923200  0.33805300  0.10368000  1
  O  O77  1  0.52176700  0.52094900  0.72810400  1
  O  O78  1  0.09894700  0.11804900  0.93232700  1
  O  O79  1  0.88652000  0.89425700  0.78991500  1
  O  O80  1  0.99639500  0.49660100  0.16013900  1
  O  O81  1  0.59945100  0.03112400  0.42039300  1
  O  O82  1  0.90054900  0.03112400  0.92039300  1
  O  O83  1  0.47823300  0.47905100  0.27189600  1
  O  O84  1  0.38652000  0.10574300  0.71008500  1
  O  O85  1  0.18076800  0.66194700  0.89632000  1
  F  F86  1  0.57171400  0.37512800  0.10693800  1
  F  F87  1  0.95666500  0.05537700  0.23878900  1
  F  F88  1  0.57506000  0.70643300  0.08409500  1
  F  F89  1  0.13545500  0.43574100  0.50395600  1
  F  F90  1  0.64256000  0.98264400  0.88245300  1
  F  F91  1  0.07506000  0.29356700  0.41590500  1
  F  F92  1  0.35744000  0.01735600  0.11754700  1
  F  F93  1  0.45666500  0.94462300  0.26121100  1
  F  F94  1  0.63545500  0.56425900  0.99604400  1
  F  F95  1  0.42828600  0.62487200  0.89306200  1
  F  F96  1  0.04333500  0.94462300  0.76121100  1
  F  F97  1  0.07171400  0.62487200  0.39306200  1
  F  F98  1  0.91133900  0.15135500  0.45610100  1
  F  F99  1  0.08866100  0.84864500  0.54389900  1
  F  F100  1  0.42494000  0.29356700  0.91590500  1
  F  F101  1  0.14256000  0.01735600  0.61754700  1
  F  F102  1  0.85744000  0.98264400  0.38245300  1
  F  F103  1  0.54333500  0.05537700  0.73878900  1
  F  F104  1  0.92828600  0.37512800  0.60693800  1
  F  F105  1  0.36454500  0.43574100  0.00395600  1
  F  F106  1  0.41133900  0.84864500  0.04389900  1
  F  F107  1  0.86454500  0.56425900  0.49604400  1
  F  F108  1  0.58866100  0.15135500  0.95610100  1
  F  F109  1  0.92494000  0.70643300  0.58409500  1
