# generated using pymatgen
data_Fe2C4Cl2O9
_symmetry_space_group_name_H-M   'P 1'
_cell_length_a   13.51702990
_cell_length_b   12.26952188
_cell_length_c   8.64943600
_cell_angle_alpha   78.40957667
_cell_angle_beta   62.77279043
_cell_angle_gamma   38.81763290
_symmetry_Int_Tables_number   1
_chemical_formula_structural   Fe2C4Cl2O9
_chemical_formula_sum   'Fe4 C8 Cl4 O18'
_cell_volume   767.79686481
_cell_formula_units_Z   2
loop_
 _symmetry_equiv_pos_site_id
 _symmetry_equiv_pos_as_xyz
  1  'x, y, z'
loop_
 _atom_site_type_symbol
 _atom_site_label
 _atom_site_symmetry_multiplicity
 _atom_site_fract_x
 _atom_site_fract_y
 _atom_site_fract_z
 _atom_site_occupancy
  Fe  Fe0  1  0.92771600  0.18939200  0.92536300  1
  Fe  Fe1  1  0.95752900  0.92536300  0.18939200  1
  Fe  Fe2  1  0.32463700  0.29247100  0.32228400  1
  Fe  Fe3  1  0.06060800  0.32228400  0.29247100  1
  C  C4  1  0.06682300  0.15586100  0.55944700  1
  C  C5  1  0.21786900  0.55944700  0.15586100  1
  C  C6  1  0.69055300  0.03213100  0.18317700  1
  C  C7  1  0.09413900  0.18317700  0.03213100  1
  C  C8  1  0.93623700  0.34907100  0.65203700  1
  C  C9  1  0.06265500  0.65203700  0.34907100  1
  C  C10  1  0.59796300  0.18734500  0.31376300  1
  C  C11  1  0.90092900  0.31376300  0.18734500  1
  Cl  Cl12  1  0.68105300  0.31241000  0.95946100  1
  Cl  Cl13  1  0.04707600  0.95946100  0.31241000  1
  Cl  Cl14  1  0.29053900  0.20292400  0.56894700  1
  Cl  Cl15  1  0.93759000  0.56894700  0.20292400  1
  O  O16  1  0.85825900  0.39510100  0.82248700  1
  O  O17  1  0.92415300  0.82248700  0.39510100  1
  O  O18  1  0.42751300  0.32584700  0.39174100  1
  O  O19  1  0.85489900  0.39174100  0.32584700  1
  O  O20  1  0.14835700  0.10826500  0.38800100  1
  O  O21  1  0.35537700  0.38800100  0.10826500  1
  O  O22  1  0.86199900  0.89462300  0.10164300  1
  O  O23  1  0.14173500  0.10164300  0.89462300  1
  O  O24  1  0.91228900  0.45108600  0.55057600  1
  O  O25  1  0.08604900  0.55057600  0.45108600  1
  O  O26  1  0.69942400  0.16395100  0.33771100  1
  O  O27  1  0.79891400  0.33771100  0.16395100  1
  O  O28  1  0.08163900  0.05872700  0.66146700  1
  O  O29  1  0.19816700  0.66146700  0.05872700  1
  O  O30  1  0.58853300  0.05183300  0.16836100  1
  O  O31  1  0.19127300  0.16836100  0.05183300  1
  O  O32  1  0.01125400  0.98874600  0.98874600  1
  O  O33  1  0.26125400  0.23874600  0.23874600  1
