# generated using pymatgen
data_Cu3H4SeO8
_symmetry_space_group_name_H-M   'P 1'
_cell_length_a   7.74016366
_cell_length_b   6.72610166
_cell_length_c   15.01568097
_cell_angle_alpha   91.36057997
_cell_angle_beta   90.06968538
_cell_angle_gamma   87.28791829
_symmetry_Int_Tables_number   1
_chemical_formula_structural   Cu3H4SeO8
_chemical_formula_sum   'Cu12 H16 Se4 O32'
_cell_volume   780.63752337
_cell_formula_units_Z   4
loop_
 _symmetry_equiv_pos_site_id
 _symmetry_equiv_pos_as_xyz
  1  'x, y, z'
loop_
 _atom_site_type_symbol
 _atom_site_label
 _atom_site_symmetry_multiplicity
 _atom_site_fract_x
 _atom_site_fract_y
 _atom_site_fract_z
 _atom_site_occupancy
  Cu  Cu0  1  0.40818600  0.24658400  0.45001700  1
  Cu  Cu1  1  0.91009000  0.25494100  0.04957500  1
  Cu  Cu2  1  0.59082400  0.75138300  0.55300700  1
  Cu  Cu3  1  0.09837700  0.74443000  0.94787600  1
  Cu  Cu4  1  0.64612000  0.98121200  0.37652800  1
  Cu  Cu5  1  0.17582400  0.52300700  0.13471100  1
  Cu  Cu6  1  0.35529400  0.47493700  0.62265300  1
  Cu  Cu7  1  0.79856600  0.98713100  0.88147800  1
  Cu  Cu8  1  0.29450900  0.98927500  0.61495900  1
  Cu  Cu9  1  0.86052600  0.46971000  0.87577000  1
  Cu  Cu10  1  0.69367900  0.49144200  0.38696400  1
  Cu  Cu11  1  0.17576900  0.00704900  0.11021800  1
  H  H12  1  0.11741300  0.23811300  0.74767900  1
  H  H13  1  0.61871400  0.23148100  0.75211600  1
  H  H14  1  0.89180000  0.69867600  0.25784600  1
  H  H15  1  0.37950500  0.80351000  0.24655500  1
  H  H16  1  0.64652900  0.71020200  0.10519900  1
  H  H17  1  0.15850900  0.66777600  0.39352300  1
  H  H18  1  0.35879300  0.19216400  0.89639300  1
  H  H19  1  0.85772600  0.20472300  0.60510500  1
  H  H20  1  0.10348000  0.86615100  0.44380600  1
  H  H21  1  0.58444600  0.64757900  0.97475200  1
  H  H22  1  0.89825700  0.38616600  0.54749300  1
  H  H23  1  0.40374200  0.15869200  0.02476200  1
  H  H24  1  0.91250300  0.13649600  0.47607100  1
  H  H25  1  0.39741900  0.39040300  0.94793100  1
  H  H26  1  0.08971700  0.64301000  0.52374800  1
  H  H27  1  0.61700600  0.89253800  0.04560900  1
  Se  Se28  1  0.52681800  0.25098400  0.16864700  1
  Se  Se29  1  0.02848500  0.21637900  0.33393300  1
  Se  Se30  1  0.46662100  0.73281000  0.83071500  1
  Se  Se31  1  0.96883600  0.73661800  0.66895100  1
  O  O32  1  0.74036700  0.24614500  0.14417000  1
  O  O33  1  0.24299100  0.23555400  0.35221600  1
  O  O34  1  0.25217800  0.78004400  0.84932300  1
  O  O35  1  0.75333200  0.77152700  0.65087300  1
  O  O36  1  0.85758300  0.22792500  0.93198900  1
  O  O37  1  0.35340500  0.22742700  0.56697400  1
  O  O38  1  0.14129900  0.75491700  0.06619800  1
  O  O39  1  0.64040800  0.74237900  0.43440000  1
  O  O40  1  0.44164300  0.07475100  0.08169000  1
  O  O41  1  0.94391600  0.43763600  0.37804100  1
  O  O42  1  0.53314700  0.56746000  0.92090900  1
  O  O43  1  0.04768500  0.95469700  0.63104900  1
  O  O44  1  0.54962100  0.95107800  0.86954200  1
  O  O45  1  0.04071900  0.56636000  0.57861100  1
  O  O46  1  0.44520800  0.47080300  0.12941000  1
  O  O47  1  0.95976000  0.04988000  0.42077700  1
  O  O48  1  0.59150400  0.24989500  0.37041900  1
  O  O49  1  0.09390500  0.26755900  0.12807500  1
  O  O50  1  0.40372000  0.73963900  0.62993500  1
  O  O51  1  0.90549600  0.73365700  0.87313100  1
  O  O52  1  0.83031100  0.26389800  0.54723700  1
  O  O53  1  0.32951100  0.26806200  0.95153000  1
  O  O54  1  0.17565000  0.73977000  0.45050700  1
  O  O55  1  0.67738800  0.75954300  0.04660200  1
  O  O56  1  0.83488900  0.36455300  0.75693600  1
  O  O57  1  0.24285200  0.19769600  0.74892900  1
  O  O58  1  0.25619300  0.85057600  0.24301700  1
  O  O59  1  0.76522400  0.67549600  0.25314800  1
  O  O60  1  0.16240900  0.67058500  0.24924400  1
  O  O61  1  0.68268300  0.86968300  0.25828700  1
  O  O62  1  0.74246200  0.18450000  0.75067500  1
  O  O63  1  0.32845700  0.38073800  0.74156600  1
