# generated using pymatgen
data_FeSO8
_symmetry_space_group_name_H-M   'P 1'
_cell_length_a   13.64468400
_cell_length_b   6.63898200
_cell_length_c   11.77317055
_cell_angle_alpha   57.76320941
_cell_angle_beta   90.00000000
_cell_angle_gamma   90.00000000
_symmetry_Int_Tables_number   1
_chemical_formula_structural   FeSO8
_chemical_formula_sum   'Fe4 S4 O32'
_cell_volume   902.09481167
_cell_formula_units_Z   4
loop_
 _symmetry_equiv_pos_site_id
 _symmetry_equiv_pos_as_xyz
  1  'x, y, z'
loop_
 _atom_site_type_symbol
 _atom_site_label
 _atom_site_symmetry_multiplicity
 _atom_site_fract_x
 _atom_site_fract_y
 _atom_site_fract_z
 _atom_site_occupancy
  Fe  Fe0  1  0.88192900  0.18557000  0.69001100  1
  Fe  Fe1  1  0.61807100  0.18557000  0.19001100  1
  Fe  Fe2  1  0.11807100  0.81443000  0.30998900  1
  Fe  Fe3  1  0.38192900  0.81443000  0.80998900  1
  S  S4  1  0.89115000  0.76989800  0.12655000  1
  S  S5  1  0.60885000  0.76989800  0.62655000  1
  S  S6  1  0.10885000  0.23010200  0.87345000  1
  S  S7  1  0.39115000  0.23010200  0.37345000  1
  O  O8  1  0.95417500  0.83327300  0.20128400  1
  O  O9  1  0.54582500  0.83327300  0.70128400  1
  O  O10  1  0.04582500  0.16672700  0.79871600  1
  O  O11  1  0.45417500  0.16672700  0.29871600  1
  O  O12  1  0.93379300  0.72533800  0.03069900  1
  O  O13  1  0.56620700  0.72533800  0.53069900  1
  O  O14  1  0.06620700  0.27466200  0.96930100  1
  O  O15  1  0.43379300  0.27466200  0.46930100  1
  O  O16  1  0.90707100  0.25574700  0.33536500  1
  O  O17  1  0.59292900  0.25574700  0.83536500  1
  O  O18  1  0.09292900  0.74425300  0.66463500  1
  O  O19  1  0.40707100  0.74425300  0.16463500  1
  O  O20  1  0.78765600  0.75473800  0.14906000  1
  O  O21  1  0.71234400  0.75473800  0.64906000  1
  O  O22  1  0.21234400  0.24526200  0.85094000  1
  O  O23  1  0.28765600  0.24526200  0.35094000  1
  O  O24  1  0.93109100  0.02625700  0.63197800  1
  O  O25  1  0.56890900  0.02625700  0.13197800  1
  O  O26  1  0.06890900  0.97374300  0.36802200  1
  O  O27  1  0.43109100  0.97374300  0.86802200  1
  O  O28  1  0.64745200  0.16348300  0.93170100  1
  O  O29  1  0.85254800  0.16348300  0.43170100  1
  O  O30  1  0.35254800  0.83651700  0.06829900  1
  O  O31  1  0.14745200  0.83651700  0.56829900  1
  O  O32  1  0.88772300  0.47322400  0.59697600  1
  O  O33  1  0.61227700  0.47322400  0.09697600  1
  O  O34  1  0.11227700  0.52677600  0.40302400  1
  O  O35  1  0.38772300  0.52677600  0.90302400  1
  O  O36  1  0.79452300  0.07411700  0.80095600  1
  O  O37  1  0.70547700  0.07411700  0.30095600  1
  O  O38  1  0.20547700  0.92588300  0.19904400  1
  O  O39  1  0.29452300  0.92588300  0.69904400  1
