# generated using pymatgen
data_Cs3H(SeO4)2
_symmetry_space_group_name_H-M   'P 1'
_cell_length_a   6.50205100
_cell_length_b   8.72888400
_cell_length_c   11.05596401
_cell_angle_alpha   68.20416052
_cell_angle_beta   90.00000000
_cell_angle_gamma   90.00000000
_symmetry_Int_Tables_number   1
_chemical_formula_structural   Cs3H(SeO4)2
_chemical_formula_sum   'Cs6 H2 Se4 O16'
_cell_volume   582.63101679
_cell_formula_units_Z   2
loop_
 _symmetry_equiv_pos_site_id
 _symmetry_equiv_pos_as_xyz
  1  'x, y, z'
loop_
 _atom_site_type_symbol
 _atom_site_label
 _atom_site_symmetry_multiplicity
 _atom_site_fract_x
 _atom_site_fract_y
 _atom_site_fract_z
 _atom_site_occupancy
  Cs  Cs0  1  0.25000000  0.00254700  0.26259800  1
  Cs  Cs1  1  0.75000000  0.99745300  0.73740200  1
  Cs  Cs2  1  0.25000000  0.38624500  0.44831700  1
  Cs  Cs3  1  0.75000000  0.61375500  0.55168300  1
  Cs  Cs4  1  0.25000000  0.60367500  0.05189400  1
  Cs  Cs5  1  0.75000000  0.39632500  0.94810600  1
  H  H6  1  0.25000000  0.00184700  0.77476000  1
  H  H7  1  0.75000000  0.99815300  0.22524000  1
  Se  Se8  1  0.25000000  0.76585300  0.67886300  1
  Se  Se9  1  0.75000000  0.23414700  0.32113700  1
  Se  Se10  1  0.25000000  0.23721100  0.82391700  1
  Se  Se11  1  0.75000000  0.76278900  0.17608300  1
  O  O12  1  0.03778900  0.68777200  0.76601400  1
  O  O13  1  0.53778900  0.31222800  0.23398600  1
  O  O14  1  0.96221100  0.31222800  0.23398600  1
  O  O15  1  0.46221100  0.68777200  0.76601400  1
  O  O16  1  0.25000000  0.97327100  0.64701100  1
  O  O17  1  0.75000000  0.02672900  0.35298900  1
  O  O18  1  0.25000000  0.73271700  0.53960800  1
  O  O19  1  0.75000000  0.26728300  0.46039200  1
  O  O20  1  0.03699800  0.30480300  0.73756300  1
  O  O21  1  0.53699800  0.69519700  0.26243700  1
  O  O22  1  0.96300200  0.69519700  0.26243700  1
  O  O23  1  0.46300200  0.30480300  0.73756300  1
  O  O24  1  0.25000000  0.02006700  0.86395800  1
  O  O25  1  0.75000000  0.97993300  0.13604200  1
  O  O26  1  0.25000000  0.25823600  0.96637100  1
  O  O27  1  0.75000000  0.74176400  0.03362900  1
