# generated using pymatgen
data_K2U2Cr2H2O17
_symmetry_space_group_name_H-M   'P 1'
_cell_length_a   13.70363542
_cell_length_b   9.64343083
_cell_length_c   13.26388884
_cell_angle_alpha   90.00000000
_cell_angle_beta   101.63188870
_cell_angle_gamma   90.00000000
_symmetry_Int_Tables_number   1
_chemical_formula_structural   K2U2Cr2H2O17
_chemical_formula_sum   'K8 U8 Cr8 H8 O68'
_cell_volume   1716.82629384
_cell_formula_units_Z   4
loop_
 _symmetry_equiv_pos_site_id
 _symmetry_equiv_pos_as_xyz
  1  'x, y, z'
loop_
 _atom_site_type_symbol
 _atom_site_label
 _atom_site_symmetry_multiplicity
 _atom_site_fract_x
 _atom_site_fract_y
 _atom_site_fract_z
 _atom_site_occupancy
  K  K0  1  0.42114440  0.85152529  0.07896019  1
  K  K1  1  0.57885560  0.35152529  0.42103981  1
  K  K2  1  0.57885560  0.14847471  0.92103981  1
  K  K3  1  0.42114440  0.64847471  0.57896019  1
  K  K4  1  0.01654121  0.11009462  0.67613380  1
  K  K5  1  0.98345879  0.61009462  0.82386620  1
  K  K6  1  0.98345879  0.88990538  0.32386620  1
  K  K7  1  0.01654121  0.38990538  0.17613380  1
  U  U8  1  0.25313917  0.17429223  0.93133196  1
  U  U9  1  0.74686083  0.67429223  0.56866804  1
  U  U10  1  0.74686083  0.82570777  0.06866804  1
  U  U11  1  0.25313917  0.32570777  0.43133196  1
  U  U12  1  0.25171366  0.81318571  0.79375909  1
  U  U13  1  0.74828634  0.31318571  0.70624091  1
  U  U14  1  0.74828634  0.18681429  0.20624091  1
  U  U15  1  0.25171366  0.68681429  0.29375909  1
  Cr  Cr16  1  0.22708632  0.95062436  0.52115984  1
  Cr  Cr17  1  0.77291368  0.45062436  0.97884016  1
  Cr  Cr18  1  0.77291368  0.04937564  0.47884016  1
  Cr  Cr19  1  0.22708632  0.54937564  0.02115984  1
  Cr  Cr20  1  0.22099910  0.06284784  0.20870880  1
  Cr  Cr21  1  0.77900090  0.56284784  0.29129120  1
  Cr  Cr22  1  0.77900090  0.93715216  0.79129120  1
  Cr  Cr23  1  0.22099910  0.43715216  0.70870880  1
  H  H24  1  0.51508591  0.79510444  0.31745526  1
  H  H25  1  0.48491409  0.29510444  0.18254474  1
  H  H26  1  0.48491409  0.20489556  0.68254474  1
  H  H27  1  0.51508591  0.70489556  0.81745526  1
  H  H28  1  0.55594716  0.94239312  0.30571357  1
  H  H29  1  0.44405284  0.44239312  0.19428643  1
  H  H30  1  0.44405284  0.05760688  0.69428643  1
  H  H31  1  0.55594716  0.55760688  0.80571357  1
  O  O32  1  0.38700248  0.13773323  0.97600767  1
  O  O33  1  0.61299752  0.63773323  0.52399233  1
  O  O34  1  0.61299752  0.86226677  0.02399233  1
  O  O35  1  0.38700248  0.36226677  0.47600767  1
  O  O36  1  0.12092984  0.21465072  0.89105014  1
  O  O37  1  0.87907016  0.71465072  0.60894986  1
  O  O38  1  0.87907016  0.78534928  0.10894986  1
  O  O39  1  0.12092984  0.28534928  0.39105014  1
  O  O40  1  0.38662364  0.81736166  0.84739508  1
  O  O41  1  0.61337636  0.31736166  0.65260492  1
  O  O42  1  0.61337636  0.18263834  0.15260492  1
  O  O43  1  0.38662364  0.68263834  0.34739508  1
  O  O44  1  0.11827623  0.80055041  0.73940644  1
  O  O45  1  0.88172377  0.30055041  0.76059356  1
  O  O46  1  0.88172377  0.19944959  0.26059356  1
  O  O47  1  0.11827623  0.69944959  0.23940644  1
  O  O48  1  0.28555136  0.86711288  0.62920689  1
  O  O49  1  0.71444864  0.36711288  0.87079311  1
  O  O50  1  0.71444864  0.13288712  0.37079311  1
  O  O51  1  0.28555136  0.63288712  0.12920689  1
  O  O52  1  0.28379811  0.10156568  0.51168583  1
  O  O53  1  0.71620189  0.60156568  0.98831417  1
  O  O54  1  0.71620189  0.89843432  0.48831417  1
  O  O55  1  0.28379811  0.39843432  0.01168583  1
  O  O56  1  0.23247271  0.85154321  0.41762526  1
  O  O57  1  0.76752729  0.35154321  0.08237474  1
  O  O58  1  0.76752729  0.14845679  0.58237474  1
  O  O59  1  0.23247271  0.64845679  0.91762526  1
  O  O60  1  0.11190433  0.97922789  0.52526975  1
  O  O61  1  0.88809567  0.47922789  0.97473025  1
  O  O62  1  0.88809567  0.02077211  0.47473025  1
  O  O63  1  0.11190433  0.52077211  0.02526975  1
  O  O64  1  0.27811028  0.16421876  0.30574197  1
  O  O65  1  0.72188972  0.66421876  0.19425803  1
  O  O66  1  0.72188972  0.83578124  0.69425803  1
  O  O67  1  0.27811028  0.33578124  0.80574197  1
  O  O68  1  0.27470080  0.90500043  0.21641294  1
  O  O69  1  0.72529920  0.40500043  0.28358706  1
  O  O70  1  0.72529920  0.09499957  0.78358706  1
  O  O71  1  0.27470080  0.59499957  0.71641294  1
  O  O72  1  0.23042394  0.13632944  0.09579849  1
  O  O73  1  0.76957606  0.63632944  0.40420151  1
  O  O74  1  0.76957606  0.86367056  0.90420151  1
  O  O75  1  0.23042394  0.36367056  0.59579849  1
  O  O76  1  0.10475305  0.04920618  0.21521848  1
  O  O77  1  0.89524695  0.54920618  0.28478152  1
  O  O78  1  0.89524695  0.95079382  0.78478152  1
  O  O79  1  0.10475305  0.45079382  0.71521848  1
  O  O80  1  0.24331604  0.04551606  0.78729533  1
  O  O81  1  0.75668396  0.54551606  0.71270467  1
  O  O82  1  0.75668396  0.95448394  0.21270467  1
  O  O83  1  0.24331604  0.45448394  0.28729533  1
  O  O84  1  0.22510309  0.94138123  0.92988437  1
  O  O85  1  0.77489691  0.44138123  0.57011563  1
  O  O86  1  0.77489691  0.05861877  0.07011563  1
  O  O87  1  0.22510309  0.55861877  0.42988437  1
  O  O88  1  0.95787194  0.34194838  0.52159252  1
  O  O89  1  0.04212806  0.84194838  0.97840748  1
  O  O90  1  0.04212806  0.65805162  0.47840748  1
  O  O91  1  0.95787194  0.15805162  0.02159252  1
  O  O92  1  0.49943287  0.53035981  0.04053721  1
  O  O93  1  0.50056713  0.03035981  0.45946279  1
  O  O94  1  0.50056713  0.46964019  0.95946279  1
  O  O95  1  0.49943287  0.96964019  0.54053721  1
  O  O96  1  0.53681380  0.85706545  0.26789410  1
  O  O97  1  0.46318620  0.35706545  0.23210590  1
  O  O98  1  0.46318620  0.14293455  0.73210590  1
  O  O99  1  0.53681380  0.64293455  0.76789410  1
