# generated using pymatgen
data_CuP3NO9
_symmetry_space_group_name_H-M   'P 1'
_cell_length_a   11.49009200
_cell_length_b   5.16666100
_cell_length_c   13.23615983
_cell_angle_alpha   79.54272082
_cell_angle_beta   90.00000000
_cell_angle_gamma   90.00000000
_symmetry_Int_Tables_number   1
_chemical_formula_structural   CuP3NO9
_chemical_formula_sum   'Cu4 P12 N4 O36'
_cell_volume   772.71882020
_cell_formula_units_Z   4
loop_
 _symmetry_equiv_pos_site_id
 _symmetry_equiv_pos_as_xyz
  1  'x, y, z'
loop_
 _atom_site_type_symbol
 _atom_site_label
 _atom_site_symmetry_multiplicity
 _atom_site_fract_x
 _atom_site_fract_y
 _atom_site_fract_z
 _atom_site_occupancy
  Cu  Cu0  1  0.00000000  0.00000000  0.50000000  1
  Cu  Cu1  1  0.50000000  0.00000000  0.00000000  1
  Cu  Cu2  1  0.50000000  0.00000000  0.50000000  1
  Cu  Cu3  1  0.00000000  0.00000000  0.00000000  1
  P  P4  1  0.75278900  0.24897600  0.49178000  1
  P  P5  1  0.25278900  0.75102400  0.00822000  1
  P  P6  1  0.24721100  0.75102400  0.50822000  1
  P  P7  1  0.74721100  0.24897600  0.99178000  1
  P  P8  1  0.91132600  0.47406100  0.62905700  1
  P  P9  1  0.41132600  0.52593900  0.87094300  1
  P  P10  1  0.08867400  0.52593900  0.37094300  1
  P  P11  1  0.58867400  0.47406100  0.12905700  1
  P  P12  1  0.92042400  0.51740300  0.85018700  1
  P  P13  1  0.42042400  0.48259700  0.64981300  1
  P  P14  1  0.07957600  0.48259700  0.14981300  1
  P  P15  1  0.57957600  0.51740300  0.35018700  1
  N  N16  1  0.71164700  0.93659200  0.74844700  1
  N  N17  1  0.21164700  0.06340800  0.75155300  1
  N  N18  1  0.28835300  0.06340800  0.25155300  1
  N  N19  1  0.78835300  0.93659200  0.24844700  1
  O  O20  1  0.88036300  0.40735100  0.74923200  1
  O  O21  1  0.38036300  0.59264900  0.75076800  1
  O  O22  1  0.11963700  0.59264900  0.25076800  1
  O  O23  1  0.61963700  0.40735100  0.24923200  1
  O  O24  1  0.78726100  0.38152900  0.58685900  1
  O  O25  1  0.28726100  0.61847100  0.91314100  1
  O  O26  1  0.21273900  0.61847100  0.41314100  1
  O  O27  1  0.71273900  0.38152900  0.08685900  1
  O  O28  1  0.79749500  0.49026200  0.91130000  1
  O  O29  1  0.29749500  0.50973800  0.58870000  1
  O  O30  1  0.20250500  0.50973800  0.08870000  1
  O  O31  1  0.70250500  0.49026200  0.41130000  1
  O  O32  1  0.65922000  0.04277600  0.52454900  1
  O  O33  1  0.15922000  0.95722400  0.97545100  1
  O  O34  1  0.34078000  0.95722400  0.47545100  1
  O  O35  1  0.84078000  0.04277600  0.02454900  1
  O  O36  1  0.64150800  0.14916800  0.94147200  1
  O  O37  1  0.14150800  0.85083200  0.55852800  1
  O  O38  1  0.35849200  0.85083200  0.05852800  1
  O  O39  1  0.85849200  0.14916800  0.44147200  1
  O  O40  1  0.91408600  0.77522700  0.60333500  1
  O  O41  1  0.41408600  0.22477300  0.89666500  1
  O  O42  1  0.08591400  0.22477300  0.39666500  1
  O  O43  1  0.58591400  0.77522700  0.10333500  1
  O  O44  1  0.95973000  0.79465900  0.82967900  1
  O  O45  1  0.45973000  0.20534100  0.67032100  1
  O  O46  1  0.04027000  0.20534100  0.17032100  1
  O  O47  1  0.54027000  0.79465900  0.32967900  1
  O  O48  1  0.00905900  0.31359900  0.60149500  1
  O  O49  1  0.50905900  0.68640100  0.89850500  1
  O  O50  1  0.99094100  0.68640100  0.39850500  1
  O  O51  1  0.49094100  0.31359900  0.10149500  1
  O  O52  1  0.00865800  0.32697800  0.91146600  1
  O  O53  1  0.50865800  0.67302200  0.58853400  1
  O  O54  1  0.99134200  0.67302200  0.08853400  1
  O  O55  1  0.49134200  0.32697800  0.41146600  1
