# generated using pymatgen
data_BaReH9
_symmetry_space_group_name_H-M   'P 1'
_cell_length_a   7.16993264
_cell_length_b   7.16993264
_cell_length_c   7.48315700
_cell_angle_alpha   90.00000000
_cell_angle_beta   90.00000000
_cell_angle_gamma   120.00000595
_symmetry_Int_Tables_number   1
_chemical_formula_structural   BaReH9
_chemical_formula_sum   'Ba3 Re3 H27'
_cell_volume   333.15444680
_cell_formula_units_Z   3
loop_
 _symmetry_equiv_pos_site_id
 _symmetry_equiv_pos_as_xyz
  1  'x, y, z'
loop_
 _atom_site_type_symbol
 _atom_site_label
 _atom_site_symmetry_multiplicity
 _atom_site_fract_x
 _atom_site_fract_y
 _atom_site_fract_z
 _atom_site_occupancy
  Ba  Ba0  1  0.66666700  0.33333300  0.50737500  1
  Ba  Ba1  1  0.33333300  0.66666700  0.17939300  1
  Ba  Ba2  1  0.00000000  0.00000000  0.80753800  1
  Re  Re3  1  0.66666700  0.33333300  0.01624800  1
  Re  Re4  1  0.33333300  0.66666700  0.68769400  1
  Re  Re5  1  0.00000000  0.00000000  0.29308400  1
  H  H6  1  0.43666000  0.09675700  0.01169300  1
  H  H7  1  0.66009700  0.56334000  0.01169300  1
  H  H8  1  0.90324300  0.33990300  0.01169300  1
  H  H9  1  0.64165100  0.15306800  0.17970400  1
  H  H10  1  0.51141700  0.35834900  0.17970400  1
  H  H11  1  0.84693200  0.48858300  0.17970400  1
  H  H12  1  0.69104200  0.17512200  0.85533500  1
  H  H13  1  0.48408000  0.30895800  0.85533500  1
  H  H14  1  0.82487800  0.51592000  0.85533500  1
  H  H15  1  0.08376500  0.44866400  0.68919900  1
  H  H16  1  0.36489800  0.91623500  0.68919900  1
  H  H17  1  0.55133600  0.63510200  0.68919900  1
  H  H18  1  0.24245500  0.01787400  0.29185000  1
  H  H19  1  0.77541900  0.75754500  0.29185000  1
  H  H20  1  0.98212600  0.22458100  0.29185000  1
  H  H21  1  0.30114700  0.48257700  0.84865300  1
  H  H22  1  0.18143000  0.69885300  0.84865300  1
  H  H23  1  0.51742300  0.81857000  0.84865300  1
  H  H24  1  0.03118800  0.84899800  0.13061600  1
  H  H25  1  0.81781000  0.96881200  0.13061600  1
  H  H26  1  0.15100200  0.18219000  0.13061600  1
  H  H27  1  0.31932700  0.48968600  0.52751600  1
  H  H28  1  0.17035900  0.68067300  0.52751600  1
  H  H29  1  0.51031400  0.82964100  0.52751600  1
  H  H30  1  0.99929900  0.82714600  0.45266000  1
  H  H31  1  0.82784600  0.00070100  0.45266000  1
  H  H32  1  0.17285400  0.17215400  0.45266000  1
