# generated using pymatgen
data_BaYMn2O5
_symmetry_space_group_name_H-M   'P 1'
_cell_length_a   5.61621500
_cell_length_b   5.61621500
_cell_length_c   7.80145700
_cell_angle_alpha   90.00000000
_cell_angle_beta   90.00020484
_cell_angle_gamma   90.00063251
_symmetry_Int_Tables_number   1
_chemical_formula_structural   BaYMn2O5
_chemical_formula_sum   'Ba2 Y2 Mn4 O10'
_cell_volume   246.07254972
_cell_formula_units_Z   2
loop_
 _symmetry_equiv_pos_site_id
 _symmetry_equiv_pos_as_xyz
  1  'x, y, z'
loop_
 _atom_site_type_symbol
 _atom_site_label
 _atom_site_symmetry_multiplicity
 _atom_site_fract_x
 _atom_site_fract_y
 _atom_site_fract_z
 _atom_site_occupancy
  Ba  Ba0  1  0.25000200  0.25000000  0.00001200  1
  Ba  Ba1  1  0.74999800  0.74999900  0.00001200  1
  Y  Y2  1  0.25000200  0.25000000  0.50000100  1
  Y  Y3  1  0.74999800  0.75000000  0.50000100  1
  Mn  Mn4  1  0.74999900  0.25000000  0.72300000  1
  Mn  Mn5  1  0.25000300  0.75000100  0.27699300  1
  Mn  Mn6  1  0.25000100  0.75000000  0.74657200  1
  Mn  Mn7  1  0.75000000  0.25000000  0.25340500  1
  O  O8  1  0.24999700  0.75000000  0.00794200  1
  O  O9  1  0.75000400  0.25000000  0.99204400  1
  O  O10  1  0.00935500  0.99064100  0.31930500  1
  O  O11  1  0.49063600  0.50936100  0.31930300  1
  O  O12  1  0.49063900  0.99064200  0.31930300  1
  O  O13  1  0.00935400  0.50935600  0.31930500  1
  O  O14  1  0.50936600  0.49063700  0.68070200  1
  O  O15  1  0.99063900  0.00936300  0.68070000  1
  O  O16  1  0.50936400  0.00936100  0.68070100  1
  O  O17  1  0.99064300  0.49063900  0.68069900  1
