# generated using pymatgen
data_MnP(HO)7
_symmetry_space_group_name_H-M   'P 1'
_cell_length_a   10.28862900
_cell_length_b   10.56290400
_cell_length_c   10.95790200
_cell_angle_alpha   90.00000000
_cell_angle_beta   90.00000000
_cell_angle_gamma   90.00000000
_symmetry_Int_Tables_number   1
_chemical_formula_structural   MnP(HO)7
_chemical_formula_sum   'Mn8 P8 H56 O56'
_cell_volume   1190.88068656
_cell_formula_units_Z   8
loop_
 _symmetry_equiv_pos_site_id
 _symmetry_equiv_pos_as_xyz
  1  'x, y, z'
loop_
 _atom_site_type_symbol
 _atom_site_label
 _atom_site_symmetry_multiplicity
 _atom_site_fract_x
 _atom_site_fract_y
 _atom_site_fract_z
 _atom_site_occupancy
  Mn  Mn0  1  0.40948000  0.80147500  0.24890600  1
  Mn  Mn1  1  0.59052000  0.30147500  0.25109400  1
  Mn  Mn2  1  0.09052000  0.19852500  0.74890600  1
  Mn  Mn3  1  0.90948000  0.69852500  0.75109400  1
  Mn  Mn4  1  0.59052000  0.19852500  0.75109400  1
  Mn  Mn5  1  0.40948000  0.69852500  0.74890600  1
  Mn  Mn6  1  0.90948000  0.80147500  0.25109400  1
  Mn  Mn7  1  0.09052000  0.30147500  0.24890600  1
  P  P8  1  0.34971900  0.49492800  0.13371500  1
  P  P9  1  0.65028100  0.99492800  0.36628500  1
  P  P10  1  0.15028100  0.50507200  0.63371500  1
  P  P11  1  0.84971900  0.00507200  0.86628500  1
  P  P12  1  0.65028100  0.50507200  0.86628500  1
  P  P13  1  0.34971900  0.00507200  0.63371500  1
  P  P14  1  0.84971900  0.49492800  0.36628500  1
  P  P15  1  0.15028100  0.99492800  0.13371500  1
  H  H16  1  0.65620200  0.67425400  0.32808200  1
  H  H17  1  0.34379800  0.17425400  0.17191800  1
  H  H18  1  0.84379800  0.32574600  0.82808200  1
  H  H19  1  0.15620200  0.82574600  0.67191800  1
  H  H20  1  0.34379800  0.32574600  0.67191800  1
  H  H21  1  0.65620200  0.82574600  0.82808200  1
  H  H22  1  0.15620200  0.67425400  0.17191800  1
  H  H23  1  0.84379800  0.17425400  0.32808200  1
  H  H24  1  0.54487000  0.58425900  0.28372000  1
  H  H25  1  0.45513000  0.08425900  0.21628000  1
  H  H26  1  0.95513000  0.41574100  0.78372000  1
  H  H27  1  0.04487000  0.91574100  0.71628000  1
  H  H28  1  0.45513000  0.41574100  0.71628000  1
  H  H29  1  0.54487000  0.91574100  0.78372000  1
  H  H30  1  0.04487000  0.58425900  0.21628000  1
  H  H31  1  0.95513000  0.08425900  0.28372000  1
  H  H32  1  0.31980300  0.79606800  0.49881300  1
  H  H33  1  0.68019700  0.29606800  0.00118700  1
  H  H34  1  0.18019700  0.20393200  0.99881300  1
  H  H35  1  0.81980300  0.70393200  0.50118700  1
  H  H36  1  0.68019700  0.20393200  0.50118700  1
  H  H37  1  0.31980300  0.70393200  0.99881300  1
  H  H38  1  0.81980300  0.79606800  0.00118700  1
  H  H39  1  0.18019700  0.29606800  0.49881300  1
  H  H40  1  0.26412900  0.67131900  0.43874900  1
  H  H41  1  0.73587100  0.17131900  0.06125100  1
  H  H42  1  0.23587100  0.32868100  0.93874900  1
  H  H43  1  0.76412900  0.82868100  0.56125100  1
  H  H44  1  0.73587100  0.32868100  0.56125100  1
  H  H45  1  0.26412900  0.82868100  0.93874900  1
  H  H46  1  0.76412900  0.67131900  0.06125100  1
  H  H47  1  0.23587100  0.17131900  0.43874900  1
  H  H48  1  0.62311600  0.86687200  0.11227800  1
  H  H49  1  0.37688400  0.36687200  0.38772200  1
  H  H50  1  0.87688400  0.13312800  0.61227800  1
  H  H51  1  0.12311600  0.63312800  0.88772200  1
  H  H52  1  0.37688400  0.13312800  0.88772200  1
  H  H53  1  0.62311600  0.63312800  0.61227800  1
  H  H54  1  0.12311600  0.86687200  0.38772200  1
  H  H55  1  0.87688400  0.36687200  0.11227800  1
  H  H56  1  0.52345300  0.85007500  0.00434200  1
  H  H57  1  0.47654700  0.35007500  0.49565800  1
  H  H58  1  0.97654700  0.14992500  0.50434200  1
  H  H59  1  0.02345300  0.64992500  0.99565800  1
  H  H60  1  0.47654700  0.14992500  0.99565800  1
  H  H61  1  0.52345300  0.64992500  0.50434200  1
  H  H62  1  0.02345300  0.85007500  0.49565800  1
  H  H63  1  0.97654700  0.35007500  0.00434200  1
  H  H64  1  0.39502100  0.48824000  0.93451900  1
  H  H65  1  0.60497900  0.98824000  0.56548100  1
  H  H66  1  0.10497900  0.51176000  0.43451900  1
  H  H67  1  0.89502100  0.01176000  0.06548100  1
  H  H68  1  0.60497900  0.51176000  0.06548100  1
  H  H69  1  0.39502100  0.01176000  0.43451900  1
  H  H70  1  0.89502100  0.48824000  0.56548100  1
  H  H71  1  0.10497900  0.98824000  0.93451900  1
  O  O72  1  0.25633600  0.41514500  0.20722400  1
  O  O73  1  0.74366400  0.91514500  0.29277600  1
  O  O74  1  0.24366400  0.58485500  0.70722400  1
  O  O75  1  0.75633600  0.08485500  0.79277600  1
  O  O76  1  0.74366400  0.58485500  0.79277600  1
  O  O77  1  0.25633600  0.08485500  0.70722400  1
  O  O78  1  0.75633600  0.41514500  0.29277600  1
  O  O79  1  0.24366400  0.91514500  0.20722400  1
  O  O80  1  0.49496700  0.46481600  0.16012000  1
  O  O81  1  0.50503300  0.96481600  0.33988000  1
  O  O82  1  0.00503300  0.53518400  0.66012000  1
  O  O83  1  0.99496700  0.03518400  0.83988000  1
  O  O84  1  0.50503300  0.53518400  0.83988000  1
  O  O85  1  0.49496700  0.03518400  0.66012000  1
  O  O86  1  0.99496700  0.46481600  0.33988000  1
  O  O87  1  0.00503300  0.96481600  0.16012000  1
  O  O88  1  0.32644500  0.63954200  0.14716700  1
  O  O89  1  0.67355500  0.13954200  0.35283300  1
  O  O90  1  0.17355500  0.36045800  0.64716700  1
  O  O91  1  0.82644500  0.86045800  0.85283300  1
  O  O92  1  0.67355500  0.36045800  0.85283300  1
  O  O93  1  0.32644500  0.86045800  0.64716700  1
  O  O94  1  0.82644500  0.63954200  0.35283300  1
  O  O95  1  0.17355500  0.13954200  0.14716700  1
  O  O96  1  0.32288000  0.46063800  0.99216600  1
  O  O97  1  0.67712000  0.96063800  0.50783400  1
  O  O98  1  0.17712000  0.53936200  0.49216600  1
  O  O99  1  0.82288000  0.03936200  0.00783400  1
  O  O100  1  0.67712000  0.53936200  0.00783400  1
  O  O101  1  0.32288000  0.03936200  0.49216600  1
  O  O102  1  0.82288000  0.46063800  0.50783400  1
  O  O103  1  0.17712000  0.96063800  0.99216600  1
  O  O104  1  0.56003900  0.66564200  0.32582200  1
  O  O105  1  0.43996100  0.16564200  0.17417800  1
  O  O106  1  0.93996100  0.33435800  0.82582200  1
  O  O107  1  0.06003900  0.83435800  0.67417800  1
  O  O108  1  0.43996100  0.33435800  0.67417800  1
  O  O109  1  0.56003900  0.83435800  0.82582200  1
  O  O110  1  0.06003900  0.66564200  0.17417800  1
  O  O111  1  0.93996100  0.16564200  0.32582200  1
  O  O112  1  0.30426200  0.75385700  0.41882200  1
  O  O113  1  0.69573800  0.25385700  0.08117800  1
  O  O114  1  0.19573800  0.24614300  0.91882200  1
  O  O115  1  0.80426200  0.74614300  0.58117800  1
  O  O116  1  0.69573800  0.24614300  0.58117800  1
  O  O117  1  0.30426200  0.74614300  0.91882200  1
  O  O118  1  0.80426200  0.75385700  0.08117800  1
  O  O119  1  0.19573800  0.25385700  0.41882200  1
  O  O120  1  0.53005400  0.86490900  0.09295700  1
  O  O121  1  0.46994600  0.36490900  0.40704300  1
  O  O122  1  0.96994600  0.13509100  0.59295700  1
  O  O123  1  0.03005400  0.63509100  0.90704300  1
  O  O124  1  0.46994600  0.13509100  0.90704300  1
  O  O125  1  0.53005400  0.63509100  0.59295700  1
  O  O126  1  0.03005400  0.86490900  0.40704300  1
  O  O127  1  0.96994600  0.36490900  0.09295700  1
