# generated using pymatgen
data_Ga2P4C6NO14
_symmetry_space_group_name_H-M   'P 1'
_cell_length_a   12.39643752
_cell_length_b   12.39643752
_cell_length_c   10.52904615
_cell_angle_alpha   75.65947761
_cell_angle_beta   75.65947761
_cell_angle_gamma   43.84979138
_symmetry_Int_Tables_number   1
_chemical_formula_structural   Ga2P4C6NO14
_chemical_formula_sum   'Ga4 P8 C12 N2 O28'
_cell_volume   1080.22172500
_cell_formula_units_Z   2
loop_
 _symmetry_equiv_pos_site_id
 _symmetry_equiv_pos_as_xyz
  1  'x, y, z'
loop_
 _atom_site_type_symbol
 _atom_site_label
 _atom_site_symmetry_multiplicity
 _atom_site_fract_x
 _atom_site_fract_y
 _atom_site_fract_z
 _atom_site_occupancy
  Ga  Ga0  1  0.26890400  0.28335400  0.56135600  1
  Ga  Ga1  1  0.71664600  0.73109600  0.93864400  1
  Ga  Ga2  1  0.73109600  0.71664600  0.43864400  1
  Ga  Ga3  1  0.28335400  0.26890400  0.06135600  1
  P  P4  1  0.07693000  0.41694300  0.31702400  1
  P  P5  1  0.58305700  0.92307000  0.18297600  1
  P  P6  1  0.92307000  0.58305700  0.68297600  1
  P  P7  1  0.41694300  0.07693000  0.81702400  1
  P  P8  1  0.14382800  0.62627400  0.34511700  1
  P  P9  1  0.37372600  0.85617200  0.15488300  1
  P  P10  1  0.85617200  0.37372600  0.65488300  1
  P  P11  1  0.62627400  0.14382800  0.84511700  1
  C  C12  1  0.17142100  0.49237300  0.25383400  1
  C  C13  1  0.50762700  0.82857900  0.24616600  1
  C  C14  1  0.82857900  0.50762700  0.74616600  1
  C  C15  1  0.49237300  0.17142100  0.75383400  1
  C  C16  1  0.69927100  0.27074900  0.34017700  1
  C  C17  1  0.72925100  0.30072900  0.15982300  1
  C  C18  1  0.30072900  0.72925100  0.65982300  1
  C  C19  1  0.27074900  0.69927100  0.84017700  1
  C  C20  1  0.70437400  0.20143300  0.23909800  1
  C  C21  1  0.79856700  0.29562600  0.26090200  1
  C  C22  1  0.29562600  0.79856700  0.76090200  1
  C  C23  1  0.20143300  0.70437400  0.73909800  1
  N  N24  1  0.86694400  0.13305600  0.25000000  1
  N  N25  1  0.13305600  0.86694400  0.75000000  1
  O  O26  1  0.13738500  0.31978900  0.45022200  1
  O  O27  1  0.68021100  0.86261500  0.04977800  1
  O  O28  1  0.86261500  0.68021100  0.54977800  1
  O  O29  1  0.31978900  0.13738500  0.95022200  1
  O  O30  1  0.90049000  0.56099700  0.32701100  1
  O  O31  1  0.43900300  0.09951000  0.17298900  1
  O  O32  1  0.09951000  0.43900300  0.67298900  1
  O  O33  1  0.56099700  0.90049000  0.82701100  1
  O  O34  1  0.07768600  0.77702500  0.27222900  1
  O  O35  1  0.22297500  0.92231400  0.22777100  1
  O  O36  1  0.92231400  0.22297500  0.72777100  1
  O  O37  1  0.77702500  0.07768600  0.77222900  1
  O  O38  1  0.21017900  0.54430400  0.47248400  1
  O  O39  1  0.45569600  0.78982100  0.02751600  1
  O  O40  1  0.78982100  0.45569600  0.52751600  1
  O  O41  1  0.54430400  0.21017900  0.97248400  1
  O  O42  1  0.12720300  0.32599400  0.20517700  1
  O  O43  1  0.67400600  0.87279700  0.29482300  1
  O  O44  1  0.87279700  0.67400600  0.79482300  1
  O  O45  1  0.32599400  0.12720300  0.70517700  1
  O  O46  1  0.25595100  0.45483600  0.15038800  1
  O  O47  1  0.54516400  0.74404900  0.34961200  1
  O  O48  1  0.74404900  0.54516400  0.84961200  1
  O  O49  1  0.45483600  0.25595100  0.65038800  1
  O  O50  1  0.43088400  0.21030700  0.43300500  1
  O  O51  1  0.78969300  0.56911600  0.06699500  1
  O  O52  1  0.56911600  0.78969300  0.56699500  1
  O  O53  1  0.21030700  0.43088400  0.93300500  1
