# generated using pymatgen
data_CaH6(SO4)4
_symmetry_space_group_name_H-M   'P 1'
_cell_length_a   5.48322264
_cell_length_b   8.31389710
_cell_length_c   8.56009896
_cell_angle_alpha   87.90845334
_cell_angle_beta   83.87831599
_cell_angle_gamma   84.15577757
_symmetry_Int_Tables_number   1
_chemical_formula_structural   CaH6(SO4)4
_chemical_formula_sum   'Ca1 H6 S4 O16'
_cell_volume   385.85721390
_cell_formula_units_Z   1
loop_
 _symmetry_equiv_pos_site_id
 _symmetry_equiv_pos_as_xyz
  1  'x, y, z'
loop_
 _atom_site_type_symbol
 _atom_site_label
 _atom_site_symmetry_multiplicity
 _atom_site_fract_x
 _atom_site_fract_y
 _atom_site_fract_z
 _atom_site_occupancy
  Ca  Ca0  1  0.00000000  0.00000000  0.00000000  1
  H  H1  1  0.44881600  0.30419000  0.56902700  1
  H  H2  1  0.55118400  0.69580900  0.43097300  1
  H  H3  1  0.17617700  0.41031100  0.76907900  1
  H  H4  1  0.82382300  0.58968900  0.23092100  1
  H  H5  1  0.65070500  0.84360400  0.61689700  1
  H  H6  1  0.34929500  0.15639600  0.38310300  1
  S  S7  1  0.54309000  0.13482700  0.75408200  1
  S  S8  1  0.45691000  0.86517300  0.24591800  1
  S  S9  1  0.08509400  0.66124200  0.72773800  1
  S  S10  1  0.91490600  0.33875800  0.27226200  1
  O  O11  1  0.51161500  0.68481100  0.31908400  1
  O  O12  1  0.48838500  0.31518900  0.68091600  1
  O  O13  1  0.67221100  0.03824500  0.62549500  1
  O  O14  1  0.32778900  0.96175500  0.37450500  1
  O  O15  1  0.70031200  0.91667100  0.19109200  1
  O  O16  1  0.29968800  0.08332900  0.80890800  1
  O  O17  1  0.69081800  0.15841100  0.88196100  1
  O  O18  1  0.30918200  0.84158900  0.11803900  1
  O  O19  1  0.95732100  0.77456500  0.84454700  1
  O  O20  1  0.04267900  0.22543500  0.15545300  1
  O  O21  1  0.34421500  0.27858600  0.39222300  1
  O  O22  1  0.65578500  0.72141400  0.60777700  1
  O  O23  1  0.07552300  0.31862900  0.42885700  1
  O  O24  1  0.92447700  0.68137100  0.57114300  1
  O  O25  1  0.03046900  0.48767100  0.80369100  1
  O  O26  1  0.96953100  0.51232900  0.19630900  1
