# generated using pymatgen
data_BaCoCu3Se4
_symmetry_space_group_name_H-M   'P 1'
_cell_length_a   6.15596322
_cell_length_b   6.07831848
_cell_length_c   6.15796122
_cell_angle_alpha   89.96865878
_cell_angle_beta   89.99345264
_cell_angle_gamma   90.03105557
_symmetry_Int_Tables_number   1
_chemical_formula_structural   BaCoCu3Se4
_chemical_formula_sum   'Ba1 Co1 Cu3 Se4'
_cell_volume   230.41793840
_cell_formula_units_Z   1
loop_
 _symmetry_equiv_pos_site_id
 _symmetry_equiv_pos_as_xyz
  1  'x, y, z'
loop_
 _atom_site_type_symbol
 _atom_site_label
 _atom_site_symmetry_multiplicity
 _atom_site_fract_x
 _atom_site_fract_y
 _atom_site_fract_z
 _atom_site_occupancy
  Ba  Ba0  1  0.49989500  0.49999200  0.50010100  1
  Co  Co1  1  0.00049000  0.00003800  0.99951000  1
  Cu  Cu2  1  0.99990000  0.50000300  0.00009500  1
  Cu  Cu3  1  0.99987600  0.99997800  0.50018600  1
  Cu  Cu4  1  0.49982100  0.99997600  0.00012200  1
  Se  Se5  1  0.21801100  0.21740500  0.21817300  1
  Se  Se6  1  0.78199500  0.78279800  0.21801900  1
  Se  Se7  1  0.21817100  0.78240200  0.78181900  1
  Se  Se8  1  0.78184100  0.21740800  0.78197400  1
