# generated using pymatgen
data_Dy(NO5)3
_symmetry_space_group_name_H-M   'P 1'
_cell_length_a   7.62399351
_cell_length_b   9.13159179
_cell_length_c   12.41129516
_cell_angle_alpha   69.19533493
_cell_angle_beta   87.69119739
_cell_angle_gamma   61.60774449
_symmetry_Int_Tables_number   1
_chemical_formula_structural   Dy(NO5)3
_chemical_formula_sum   'Dy2 N6 O30'
_cell_volume   701.82269230
_cell_formula_units_Z   2
loop_
 _symmetry_equiv_pos_site_id
 _symmetry_equiv_pos_as_xyz
  1  'x, y, z'
loop_
 _atom_site_type_symbol
 _atom_site_label
 _atom_site_symmetry_multiplicity
 _atom_site_fract_x
 _atom_site_fract_y
 _atom_site_fract_z
 _atom_site_occupancy
  Dy  Dy0  1  0.93477400  0.63596300  0.71735900  1
  Dy  Dy1  1  0.06522600  0.36403700  0.28264100  1
  N  N2  1  0.91333500  0.84420000  0.48974700  1
  N  N3  1  0.08666500  0.15580000  0.51025300  1
  N  N4  1  0.84406700  0.73718300  0.18587200  1
  N  N5  1  0.15593300  0.26281700  0.81412800  1
  N  N6  1  0.92240200  0.84743000  0.83112500  1
  N  N7  1  0.07759800  0.15257000  0.16887500  1
  O  O8  1  0.56912000  0.64664600  0.47698900  1
  O  O9  1  0.43088000  0.35335400  0.52301100  1
  O  O10  1  0.09545900  0.35532300  0.70155100  1
  O  O11  1  0.90454100  0.64467700  0.29844900  1
  O  O12  1  0.47116100  0.58774200  0.71550400  1
  O  O13  1  0.52883900  0.41225800  0.28449600  1
  O  O14  1  0.75841100  0.86049600  0.79069400  1
  O  O15  1  0.24158900  0.13950400  0.20930600  1
  O  O16  1  0.08300200  0.71607600  0.55966000  1
  O  O17  1  0.91699800  0.28392400  0.44034000  1
  O  O18  1  0.09039900  0.71376100  0.82120000  1
  O  O19  1  0.90960100  0.28623900  0.17880000  1
  O  O20  1  0.72527100  0.89648600  0.14471500  1
  O  O21  1  0.27472900  0.10351400  0.85528500  1
  O  O22  1  0.55500900  0.66291900  0.96363100  1
  O  O23  1  0.44499100  0.33708100  0.03636900  1
  O  O24  1  0.07852300  0.36089200  0.87687000  1
  O  O25  1  0.92147700  0.63910800  0.12313000  1
  O  O26  1  0.75201200  0.85223400  0.53184100  1
  O  O27  1  0.24798800  0.14776600  0.46815900  1
  O  O28  1  0.90982900  0.94708400  0.39445900  1
  O  O29  1  0.09017100  0.05291600  0.60554100  1
  O  O30  1  0.56012900  0.24823000  0.61046900  1
  O  O31  1  0.43987100  0.75177000  0.38953100  1
  O  O32  1  0.92366200  0.94759400  0.87314600  1
  O  O33  1  0.07633800  0.05240600  0.12685400  1
  O  O34  1  0.63196100  0.56596100  0.75281500  1
  O  O35  1  0.36803900  0.43403900  0.24718500  1
  O  O36  1  0.59190700  0.27060400  0.98936700  1
  O  O37  1  0.40809300  0.72939600  0.01063300  1
