# generated using pymatgen
data_CdH4(C2O3)2
_symmetry_space_group_name_H-M   'P 1'
_cell_length_a   8.54656599
_cell_length_b   8.54656599
_cell_length_c   8.54656694
_cell_angle_alpha   88.67947425
_cell_angle_beta   88.67947425
_cell_angle_gamma   88.67947244
_symmetry_Int_Tables_number   1
_chemical_formula_structural   CdH4(C2O3)2
_chemical_formula_sum   'Cd3 H12 C12 O18'
_cell_volume   623.78376783
_cell_formula_units_Z   3
loop_
 _symmetry_equiv_pos_site_id
 _symmetry_equiv_pos_as_xyz
  1  'x, y, z'
loop_
 _atom_site_type_symbol
 _atom_site_label
 _atom_site_symmetry_multiplicity
 _atom_site_fract_x
 _atom_site_fract_y
 _atom_site_fract_z
 _atom_site_occupancy
  Cd  Cd0  1  0.00000000  0.00000000  0.50000000  1
  Cd  Cd1  1  0.50000000  0.00000000  0.00000000  1
  Cd  Cd2  1  0.00000000  0.50000000  0.00000000  1
  H  H3  1  0.18516300  0.94015000  0.76220700  1
  H  H4  1  0.76220700  0.18516300  0.94015100  1
  H  H5  1  0.94015100  0.76220700  0.18516300  1
  H  H6  1  0.81483700  0.05984900  0.23779300  1
  H  H7  1  0.23779300  0.81483700  0.05984900  1
  H  H8  1  0.05984900  0.23779300  0.81483700  1
  H  H9  1  0.05404400  0.80724700  0.76248200  1
  H  H10  1  0.76248200  0.05404400  0.80724700  1
  H  H11  1  0.80724700  0.76248200  0.05404400  1
  H  H12  1  0.94595600  0.19275300  0.23751800  1
  H  H13  1  0.23751800  0.94595600  0.19275300  1
  H  H14  1  0.19275300  0.23751800  0.94595600  1
  C  C15  1  0.00580300  0.38773800  0.55053300  1
  C  C16  1  0.55053300  0.00580300  0.38773800  1
  C  C17  1  0.38773800  0.55053300  0.00580300  1
  C  C18  1  0.99419700  0.61226200  0.44946700  1
  C  C19  1  0.44946700  0.99419700  0.61226200  1
  C  C20  1  0.61226200  0.44946700  0.99419700  1
  C  C21  1  0.38897400  0.00198600  0.45191400  1
  C  C22  1  0.45191400  0.38897400  0.00198600  1
  C  C23  1  0.00198600  0.45191400  0.38897400  1
  C  C24  1  0.61102600  0.99801400  0.54808600  1
  C  C25  1  0.54808600  0.61102600  0.99801400  1
  C  C26  1  0.99801400  0.54808600  0.61102600  1
  O  O27  1  0.01351100  0.25246500  0.61305900  1
  O  O28  1  0.61305900  0.01351100  0.25246500  1
  O  O29  1  0.25246500  0.61305900  0.01351100  1
  O  O30  1  0.98648900  0.74753500  0.38694100  1
  O  O31  1  0.38694100  0.98648900  0.74753500  1
  O  O32  1  0.74753500  0.38694100  0.98648900  1
  O  O33  1  0.25560000  0.00463900  0.39118100  1
  O  O34  1  0.39118100  0.25560000  0.00463900  1
  O  O35  1  0.00463900  0.39118100  0.25560000  1
  O  O36  1  0.74440000  0.99536100  0.60881900  1
  O  O37  1  0.60881900  0.74440000  0.99536100  1
  O  O38  1  0.99536100  0.60881900  0.74440000  1
  O  O39  1  0.07375700  0.91973100  0.74137000  1
  O  O40  1  0.74137000  0.07375700  0.91973100  1
  O  O41  1  0.91973100  0.74137000  0.07375700  1
  O  O42  1  0.92624300  0.08026900  0.25863000  1
  O  O43  1  0.25863000  0.92624300  0.08026900  1
  O  O44  1  0.08026900  0.25863000  0.92624300  1
