# generated using pymatgen
data_HgPb2Br3O2
_symmetry_space_group_name_H-M   'P 1'
_cell_length_a   7.85475100
_cell_length_b   8.34704433
_cell_length_c   14.85016800
_cell_angle_alpha   90.00000000
_cell_angle_beta   90.00000000
_cell_angle_gamma   118.06747042
_symmetry_Int_Tables_number   1
_chemical_formula_structural   HgPb2Br3O2
_chemical_formula_sum   'Hg4 Pb8 Br12 O8'
_cell_volume   859.13047419
_cell_formula_units_Z   4
loop_
 _symmetry_equiv_pos_site_id
 _symmetry_equiv_pos_as_xyz
  1  'x, y, z'
loop_
 _atom_site_type_symbol
 _atom_site_label
 _atom_site_symmetry_multiplicity
 _atom_site_fract_x
 _atom_site_fract_y
 _atom_site_fract_z
 _atom_site_occupancy
  Hg  Hg0  1  0.42556500  0.33017100  0.14366900  1
  Hg  Hg1  1  0.09539400  0.66982900  0.85633100  1
  Hg  Hg2  1  0.92556500  0.33017100  0.35633100  1
  Hg  Hg3  1  0.59539400  0.66982900  0.64366900  1
  Pb  Pb4  1  0.30613600  0.82527200  0.09979900  1
  Pb  Pb5  1  0.48086400  0.17472800  0.90020100  1
  Pb  Pb6  1  0.80613600  0.82527200  0.40020100  1
  Pb  Pb7  1  0.98086400  0.17472800  0.59979900  1
  Pb  Pb8  1  0.79487500  0.17513500  0.07638400  1
  Pb  Pb9  1  0.61973900  0.82486500  0.92361600  1
  Pb  Pb10  1  0.29487500  0.17513500  0.42361600  1
  Pb  Pb11  1  0.11973900  0.82486500  0.57638400  1
  Br  Br12  1  0.40883600  0.54517100  0.25540200  1
  Br  Br13  1  0.86366500  0.45482900  0.74459800  1
  Br  Br14  1  0.90883600  0.54517100  0.24459800  1
  Br  Br15  1  0.36366500  0.45482900  0.75540200  1
  Br  Br16  1  0.20743000  0.41346700  0.99911900  1
  Br  Br17  1  0.79396300  0.58653300  0.00088100  1
  Br  Br18  1  0.70743000  0.41346700  0.50088100  1
  Br  Br19  1  0.29396300  0.58653300  0.49911900  1
  Br  Br20  1  0.01752400  0.04139400  0.20660100  1
  Br  Br21  1  0.97613000  0.95860600  0.79339900  1
  Br  Br22  1  0.51752400  0.04139400  0.29339900  1
  Br  Br23  1  0.47613000  0.95860600  0.70660100  1
  O  O24  1  0.48044600  0.14922500  0.06549000  1
  O  O25  1  0.33122100  0.85077500  0.93451000  1
  O  O26  1  0.98044600  0.14922500  0.43451000  1
  O  O27  1  0.83122100  0.85077500  0.56549000  1
  O  O28  1  0.61464000  0.87470800  0.07075100  1
  O  O29  1  0.73993100  0.12529200  0.92924900  1
  O  O30  1  0.11464000  0.87470800  0.42924900  1
  O  O31  1  0.23993100  0.12529200  0.57075100  1
