# generated using pymatgen
data_Co3P2O9
_symmetry_space_group_name_H-M   'P 1'
_cell_length_a   8.04392200
_cell_length_b   9.37753900
_cell_length_c   11.71730320
_cell_angle_alpha   68.41397818
_cell_angle_beta   90.00000000
_cell_angle_gamma   90.00000000
_symmetry_Int_Tables_number   1
_chemical_formula_structural   Co3P2O9
_chemical_formula_sum   'Co12 P8 O36'
_cell_volume   821.87333666
_cell_formula_units_Z   4
loop_
 _symmetry_equiv_pos_site_id
 _symmetry_equiv_pos_as_xyz
  1  'x, y, z'
loop_
 _atom_site_type_symbol
 _atom_site_label
 _atom_site_symmetry_multiplicity
 _atom_site_fract_x
 _atom_site_fract_y
 _atom_site_fract_z
 _atom_site_occupancy
  Co  Co0  1  0.70855200  0.85418400  0.32961800  1
  Co  Co1  1  0.20855200  0.64581600  0.67038200  1
  Co  Co2  1  0.29144800  0.14581600  0.67038200  1
  Co  Co3  1  0.79144800  0.35418400  0.32961800  1
  Co  Co4  1  0.24430000  0.19012700  0.08417700  1
  Co  Co5  1  0.74430000  0.30987300  0.91582300  1
  Co  Co6  1  0.75570000  0.80987300  0.91582300  1
  Co  Co7  1  0.25570000  0.69012700  0.08417700  1
  Co  Co8  1  0.31948200  0.03791300  0.42658800  1
  Co  Co9  1  0.81948200  0.46208700  0.57341200  1
  Co  Co10  1  0.68051800  0.96208700  0.57341200  1
  Co  Co11  1  0.18051800  0.53791300  0.42658800  1
  P  P12  1  0.01062500  0.37367300  0.84899800  1
  P  P13  1  0.51062500  0.12632700  0.15100200  1
  P  P14  1  0.98937500  0.62632700  0.15100200  1
  P  P15  1  0.48937500  0.87367300  0.84899800  1
  P  P16  1  0.49060900  0.69717600  0.49499600  1
  P  P17  1  0.99060900  0.80282400  0.50500400  1
  P  P18  1  0.50939100  0.30282400  0.50500400  1
  P  P19  1  0.00939100  0.19717600  0.49499600  1
  O  O20  1  0.09252600  0.53046300  0.81958000  1
  O  O21  1  0.59252600  0.96953700  0.18042000  1
  O  O22  1  0.90747400  0.46953700  0.18042000  1
  O  O23  1  0.40747400  0.03046300  0.81958000  1
  O  O24  1  0.41830600  0.14887600  0.25840400  1
  O  O25  1  0.91830600  0.35112400  0.74159600  1
  O  O26  1  0.58169400  0.85112400  0.74159600  1
  O  O27  1  0.08169400  0.64887600  0.25840400  1
  O  O28  1  0.61691100  0.26150900  0.07204700  1
  O  O29  1  0.11691100  0.23849100  0.92795300  1
  O  O30  1  0.38308900  0.73849100  0.92795300  1
  O  O31  1  0.88308900  0.76150900  0.07204700  1
  O  O32  1  0.26596800  0.41011000  0.04906100  1
  O  O33  1  0.76596800  0.08989000  0.95093900  1
  O  O34  1  0.73403200  0.58989000  0.95093900  1
  O  O35  1  0.23403200  0.91011000  0.04906100  1
  O  O36  1  0.17022000  0.85416000  0.52982900  1
  O  O37  1  0.67022000  0.64584000  0.47017100  1
  O  O38  1  0.82978000  0.14584000  0.47017100  1
  O  O39  1  0.32978000  0.35416000  0.52982900  1
  O  O40  1  0.43424600  0.61793000  0.62898700  1
  O  O41  1  0.93424600  0.88207000  0.37101300  1
  O  O42  1  0.56575400  0.38207000  0.37101300  1
  O  O43  1  0.06575400  0.11793000  0.62898700  1
  O  O44  1  0.52326000  0.87698800  0.46249500  1
  O  O45  1  0.02326000  0.62301200  0.53750500  1
  O  O46  1  0.47674000  0.12301200  0.53750500  1
  O  O47  1  0.97674000  0.37698800  0.46249500  1
  O  O48  1  0.36994500  0.68012200  0.40008000  1
  O  O49  1  0.86994500  0.81987800  0.59992000  1
  O  O50  1  0.63005500  0.31987800  0.59992000  1
  O  O51  1  0.13005500  0.18012200  0.40008000  1
  O  O52  1  0.23029300  0.97161500  0.13574400  1
  O  O53  1  0.73029300  0.52838500  0.86425600  1
  O  O54  1  0.76970700  0.02838500  0.86425600  1
  O  O55  1  0.26970700  0.47161500  0.13574400  1
