# generated using pymatgen
data_Ba2CuO6
_symmetry_space_group_name_H-M   'P 1'
_cell_length_a   6.70531300
_cell_length_b   5.33354200
_cell_length_c   10.20011458
_cell_angle_alpha   58.80859484
_cell_angle_beta   90.00000000
_cell_angle_gamma   90.00000000
_symmetry_Int_Tables_number   1
_chemical_formula_structural   Ba2CuO6
_chemical_formula_sum   'Ba4 Cu2 O12'
_cell_volume   312.05444516
_cell_formula_units_Z   2
loop_
 _symmetry_equiv_pos_site_id
 _symmetry_equiv_pos_as_xyz
  1  'x, y, z'
loop_
 _atom_site_type_symbol
 _atom_site_label
 _atom_site_symmetry_multiplicity
 _atom_site_fract_x
 _atom_site_fract_y
 _atom_site_fract_z
 _atom_site_occupancy
  Ba  Ba0  1  0.43258700  0.21057000  0.26181200  1
  Ba  Ba1  1  0.93258700  0.78943000  0.23818800  1
  Ba  Ba2  1  0.56741300  0.78943000  0.73818800  1
  Ba  Ba3  1  0.06741300  0.21057000  0.76181200  1
  Cu  Cu4  1  0.50000000  0.00000000  0.00000000  1
  Cu  Cu5  1  0.00000000  0.00000000  0.50000000  1
  O  O6  1  0.17552400  0.73921400  0.48923600  1
  O  O7  1  0.67552400  0.26078600  0.01076400  1
  O  O8  1  0.82447600  0.26078600  0.51076400  1
  O  O9  1  0.32447600  0.73921400  0.98923600  1
  O  O10  1  0.75092400  0.89430200  0.46548300  1
  O  O11  1  0.25092400  0.10569800  0.03451700  1
  O  O12  1  0.24907600  0.10569800  0.53451700  1
  O  O13  1  0.74907600  0.89430200  0.96548300  1
  O  O14  1  0.02579800  0.24873800  0.28816000  1
  O  O15  1  0.52579700  0.75126200  0.21184000  1
  O  O16  1  0.97420200  0.75126200  0.71184000  1
  O  O17  1  0.47420200  0.24873800  0.78816000  1
