# generated using pymatgen
data_Na4P2NO16
_symmetry_space_group_name_H-M   'P 1'
_cell_length_a   12.12347965
_cell_length_b   12.12347965
_cell_length_c   16.30923812
_cell_angle_alpha   50.79057970
_cell_angle_beta   50.79057970
_cell_angle_gamma   24.73991046
_symmetry_Int_Tables_number   1
_chemical_formula_structural   Na4P2NO16
_chemical_formula_sum   'Na8 P4 N2 O32'
_cell_volume   764.76864111
_cell_formula_units_Z   2
loop_
 _symmetry_equiv_pos_site_id
 _symmetry_equiv_pos_as_xyz
  1  'x, y, z'
loop_
 _atom_site_type_symbol
 _atom_site_label
 _atom_site_symmetry_multiplicity
 _atom_site_fract_x
 _atom_site_fract_y
 _atom_site_fract_z
 _atom_site_occupancy
  Na  Na0  1  0.60843300  0.09668500  0.03831100  1
  Na  Na1  1  0.90331500  0.39156700  0.46168900  1
  Na  Na2  1  0.39156700  0.90331500  0.96168900  1
  Na  Na3  1  0.09668500  0.60843300  0.53831100  1
  Na  Na4  1  0.29228900  0.83700100  0.26103300  1
  Na  Na5  1  0.16299900  0.70771100  0.23896700  1
  Na  Na6  1  0.70771100  0.16299900  0.73896700  1
  Na  Na7  1  0.83700100  0.29228900  0.76103300  1
  P  P8  1  0.22646900  0.62494400  0.86297000  1
  P  P9  1  0.37505600  0.77353100  0.63703000  1
  P  P10  1  0.77353100  0.37505600  0.13703000  1
  P  P11  1  0.62494400  0.22646900  0.36297000  1
  N  N12  1  0.15408000  0.84592000  0.75000000  1
  N  N13  1  0.84592000  0.15408000  0.25000000  1
  O  O14  1  0.52404600  0.35113700  0.86944300  1
  O  O15  1  0.64886300  0.47595400  0.63055700  1
  O  O16  1  0.47595400  0.64886300  0.13055700  1
  O  O17  1  0.35113700  0.52404600  0.36944300  1
  O  O18  1  0.04497600  0.74118300  0.96377700  1
  O  O19  1  0.25881700  0.95502400  0.53622300  1
  O  O20  1  0.95502400  0.25881700  0.03622300  1
  O  O21  1  0.74118300  0.04497600  0.46377700  1
  O  O22  1  0.14147500  0.65185500  0.80147900  1
  O  O23  1  0.34814500  0.85852500  0.69852100  1
  O  O24  1  0.85852500  0.34814500  0.19852100  1
  O  O25  1  0.65185500  0.14147500  0.30147900  1
  O  O26  1  0.43762100  0.50206200  0.54368300  1
  O  O27  1  0.49793800  0.56237900  0.95631700  1
  O  O28  1  0.56237900  0.49793800  0.45631700  1
  O  O29  1  0.50206200  0.43762100  0.04368300  1
  O  O30  1  0.78301100  0.74476300  0.48184200  1
  O  O31  1  0.25523700  0.21698900  0.01815800  1
  O  O32  1  0.21698900  0.25523700  0.51815800  1
  O  O33  1  0.74476300  0.78301100  0.98184200  1
  O  O34  1  0.83637300  0.76454100  0.71856600  1
  O  O35  1  0.23545900  0.16362700  0.78143400  1
  O  O36  1  0.16362700  0.23545900  0.28143400  1
  O  O37  1  0.76454100  0.83637300  0.21856600  1
  O  O38  1  0.06390600  0.39192200  0.58651800  1
  O  O39  1  0.60807800  0.93609400  0.91348200  1
  O  O40  1  0.93609400  0.60807800  0.41348200  1
  O  O41  1  0.39192200  0.06390600  0.08651800  1
  O  O42  1  0.07895900  0.19415500  0.82547900  1
  O  O43  1  0.80584500  0.92104100  0.67452100  1
  O  O44  1  0.92104100  0.80584500  0.17452100  1
  O  O45  1  0.19415500  0.07895900  0.32547900  1
