# generated using pymatgen
data_BiSe
_symmetry_space_group_name_H-M   'P 1'
_cell_length_a   7.63912700
_cell_length_b   5.77493500
_cell_length_c   8.29711112
_cell_angle_alpha   47.81897013
_cell_angle_beta   90.00000000
_cell_angle_gamma   90.00000000
_symmetry_Int_Tables_number   1
_chemical_formula_structural   BiSe
_chemical_formula_sum   'Bi4 Se4'
_cell_volume   271.23875587
_cell_formula_units_Z   4
loop_
 _symmetry_equiv_pos_site_id
 _symmetry_equiv_pos_as_xyz
  1  'x, y, z'
loop_
 _atom_site_type_symbol
 _atom_site_label
 _atom_site_symmetry_multiplicity
 _atom_site_fract_x
 _atom_site_fract_y
 _atom_site_fract_z
 _atom_site_occupancy
  Bi  Bi0  1  0.81687400  0.62949800  0.88894900  1
  Bi  Bi1  1  0.68312600  0.62949800  0.38894900  1
  Bi  Bi2  1  0.18312600  0.37050200  0.11105100  1
  Bi  Bi3  1  0.31687400  0.37050200  0.61105100  1
  Se  Se4  1  0.84934400  0.24768400  0.78389300  1
  Se  Se5  1  0.65065600  0.24768400  0.28389300  1
  Se  Se6  1  0.15065600  0.75231600  0.21610700  1
  Se  Se7  1  0.34934400  0.75231600  0.71610700  1
