# generated using pymatgen
data_BiNF4
_symmetry_space_group_name_H-M   'P 1'
_cell_length_a   7.25591100
_cell_length_b   6.60510800
_cell_length_c   8.52842695
_cell_angle_alpha   87.94649499
_cell_angle_beta   90.00000000
_cell_angle_gamma   90.00000000
_symmetry_Int_Tables_number   1
_chemical_formula_structural   BiNF4
_chemical_formula_sum   'Bi4 N4 F16'
_cell_volume   408.47154768
_cell_formula_units_Z   4
loop_
 _symmetry_equiv_pos_site_id
 _symmetry_equiv_pos_as_xyz
  1  'x, y, z'
loop_
 _atom_site_type_symbol
 _atom_site_label
 _atom_site_symmetry_multiplicity
 _atom_site_fract_x
 _atom_site_fract_y
 _atom_site_fract_z
 _atom_site_occupancy
  Bi  Bi0  1  0.65797800  0.25522700  0.89019600  1
  Bi  Bi1  1  0.15797800  0.24477300  0.10980400  1
  Bi  Bi2  1  0.34202200  0.74477300  0.10980400  1
  Bi  Bi3  1  0.84202200  0.75522700  0.89019600  1
  N  N4  1  0.68487400  0.20752200  0.39633000  1
  N  N5  1  0.18487400  0.29247800  0.60367000  1
  N  N6  1  0.31512600  0.79247800  0.60367000  1
  N  N7  1  0.81512600  0.70752200  0.39633000  1
  F  F8  1  0.67837900  0.95369200  0.05680000  1
  F  F9  1  0.17837900  0.54630800  0.94320000  1
  F  F10  1  0.32162100  0.04630800  0.94320000  1
  F  F11  1  0.82162100  0.45369200  0.05680000  1
  F  F12  1  0.69434500  0.98226500  0.72847400  1
  F  F13  1  0.19434500  0.51773500  0.27152600  1
  F  F14  1  0.30565500  0.01773500  0.27152600  1
  F  F15  1  0.80565500  0.48226500  0.72847400  1
  F  F16  1  0.55133000  0.64736700  0.89864000  1
  F  F17  1  0.05133000  0.85263300  0.10136000  1
  F  F18  1  0.44867000  0.35263300  0.10136000  1
  F  F19  1  0.94867000  0.14736700  0.89864000  1
  F  F20  1  0.63566800  0.66276800  0.37854900  1
  F  F21  1  0.13566800  0.83723200  0.62145100  1
  F  F22  1  0.36433200  0.33723200  0.62145100  1
  F  F23  1  0.86433200  0.16276800  0.37854900  1
