# generated using pymatgen
data_CaAl2(SiO5)2
_symmetry_space_group_name_H-M   'P 1'
_cell_length_a   13.98693800
_cell_length_b   4.76203400
_cell_length_c   5.11773074
_cell_angle_alpha   76.81949374
_cell_angle_beta   90.00000000
_cell_angle_gamma   90.00000000
_symmetry_Int_Tables_number   1
_chemical_formula_structural   CaAl2(SiO5)2
_chemical_formula_sum   'Ca2 Al4 Si4 O20'
_cell_volume   331.89320354
_cell_formula_units_Z   2
loop_
 _symmetry_equiv_pos_site_id
 _symmetry_equiv_pos_as_xyz
  1  'x, y, z'
loop_
 _atom_site_type_symbol
 _atom_site_label
 _atom_site_symmetry_multiplicity
 _atom_site_fract_x
 _atom_site_fract_y
 _atom_site_fract_z
 _atom_site_occupancy
  Ca  Ca0  1  0.25000000  0.08961700  0.31593600  1
  Ca  Ca1  1  0.75000000  0.91038300  0.68406400  1
  Al  Al2  1  0.50000000  0.00000000  0.50000000  1
  Al  Al3  1  0.00000000  0.00000000  0.50000000  1
  Al  Al4  1  0.50000000  0.50000000  0.00000000  1
  Al  Al5  1  0.00000000  0.50000000  0.00000000  1
  Si  Si6  1  0.65719500  0.60545400  0.27259000  1
  Si  Si7  1  0.15719500  0.39454600  0.72741000  1
  Si  Si8  1  0.34280500  0.39454600  0.72741000  1
  Si  Si9  1  0.84280500  0.60545400  0.27259000  1
  O  O10  1  0.25000000  0.15692500  0.86825200  1
  O  O11  1  0.75000000  0.84307500  0.13174800  1
  O  O12  1  0.63228000  0.52004000  0.97436900  1
  O  O13  1  0.13228000  0.47996000  0.02563100  1
  O  O14  1  0.36772000  0.47996000  0.02563100  1
  O  O15  1  0.86772000  0.52004000  0.97436900  1
  O  O16  1  0.88542200  0.84327600  0.44173800  1
  O  O17  1  0.38542200  0.15672400  0.55826200  1
  O  O18  1  0.11457800  0.15672400  0.55826200  1
  O  O19  1  0.61457800  0.84327600  0.44173800  1
  O  O20  1  0.52325100  0.91783900  0.92067600  1
  O  O21  1  0.02325100  0.08216100  0.07932400  1
  O  O22  1  0.47674900  0.08216100  0.07932400  1
  O  O23  1  0.97674900  0.91783900  0.92067600  1
  O  O24  1  0.54916900  0.38505800  0.36992500  1
  O  O25  1  0.04916900  0.61494200  0.63007500  1
  O  O26  1  0.45083100  0.61494200  0.63007500  1
  O  O27  1  0.95083100  0.38505800  0.36992500  1
  O  O28  1  0.25000000  0.59586700  0.54836000  1
  O  O29  1  0.75000000  0.40413300  0.45164000  1
