# generated using pymatgen
data_CaPNO11
_symmetry_space_group_name_H-M   'P 1'
_cell_length_a   11.59454600
_cell_length_b   6.10952600
_cell_length_c   8.15540065
_cell_angle_alpha   68.13558210
_cell_angle_beta   90.00000000
_cell_angle_gamma   90.00000000
_symmetry_Int_Tables_number   1
_chemical_formula_structural   CaPNO11
_chemical_formula_sum   'Ca2 P2 N2 O22'
_cell_volume   536.14989970
_cell_formula_units_Z   2
loop_
 _symmetry_equiv_pos_site_id
 _symmetry_equiv_pos_as_xyz
  1  'x, y, z'
loop_
 _atom_site_type_symbol
 _atom_site_label
 _atom_site_symmetry_multiplicity
 _atom_site_fract_x
 _atom_site_fract_y
 _atom_site_fract_z
 _atom_site_occupancy
  Ca  Ca0  1  0.37544500  0.77129900  0.94511100  1
  Ca  Ca1  1  0.87544500  0.22870100  0.05488900  1
  P  P2  1  0.64444200  0.51294900  0.17007700  1
  P  P3  1  0.14444200  0.48705100  0.82992300  1
  N  N4  1  0.87585400  0.90329600  0.64713700  1
  N  N5  1  0.37585400  0.09670400  0.35286300  1
  O  O6  1  0.52340200  0.57806600  0.09348100  1
  O  O7  1  0.02340200  0.42193400  0.90651900  1
  O  O8  1  0.65788700  0.40207800  0.36592900  1
  O  O9  1  0.15788700  0.59792200  0.63407100  1
  O  O10  1  0.72199800  0.42326700  0.05793000  1
  O  O11  1  0.22199800  0.57673300  0.94207000  1
  O  O12  1  0.69409200  0.81059800  0.12535900  1
  O  O13  1  0.19409200  0.18940200  0.87464100  1
  O  O14  1  0.80513800  0.85220800  0.07438600  1
  O  O15  1  0.30513800  0.14779200  0.92561400  1
  O  O16  1  0.71903600  0.43610600  0.68709400  1
  O  O17  1  0.21903600  0.56389400  0.31290600  1
  O  O18  1  0.46819700  0.00328800  0.35475900  1
  O  O19  1  0.96819700  0.99671200  0.64524100  1
  O  O20  1  0.97170100  0.64456900  0.34275800  1
  O  O21  1  0.47170100  0.35543100  0.65724200  1
  O  O22  1  0.80054100  0.29678900  0.73591200  1
  O  O23  1  0.30054100  0.70321100  0.26408800  1
  O  O24  1  0.80780900  0.90934000  0.53283000  1
  O  O25  1  0.30780900  0.09066000  0.46717000  1
  O  O26  1  0.47005800  0.51714900  0.71232600  1
  O  O27  1  0.97005800  0.48285100  0.28767400  1
