# generated using pymatgen
data_BaBiO3
_symmetry_space_group_name_H-M   'P 1'
_cell_length_a   12.78814342
_cell_length_b   4.24422182
_cell_length_c   7.68608929
_cell_angle_alpha   119.85280283
_cell_angle_beta   144.65878278
_cell_angle_gamma   62.14360354
_symmetry_Int_Tables_number   1
_chemical_formula_structural   BaBiO3
_chemical_formula_sum   'Ba2 Bi2 O6'
_cell_volume   207.72494216
_cell_formula_units_Z   2
loop_
 _symmetry_equiv_pos_site_id
 _symmetry_equiv_pos_as_xyz
  1  'x, y, z'
loop_
 _atom_site_type_symbol
 _atom_site_label
 _atom_site_symmetry_multiplicity
 _atom_site_fract_x
 _atom_site_fract_y
 _atom_site_fract_z
 _atom_site_occupancy
  Ba  Ba0  1  0.30821600  0.88674600  0.01426800  1
  Ba  Ba1  1  0.64377500  0.97785500  0.97010600  1
  Bi  Bi2  1  0.09845600  0.61803400  0.23699900  1
  Bi  Bi3  1  0.80346500  0.96055800  0.64262500  1
  O  O4  1  0.61432500  0.70932100  0.17646400  1
  O  O5  1  0.56648400  0.42329300  0.48382900  1
  O  O6  1  0.17883700  0.18531700  0.58404400  1
  O  O7  1  0.28117800  0.29918200  0.59577200  1
  O  O8  1  0.55646500  0.27268300  0.61014000  1
  O  O9  1  0.94880000  0.16700700  0.68575700  1
