# generated using pymatgen
data_Cs3V(Cl3O2)2
_symmetry_space_group_name_H-M   'P 1'
_cell_length_a   10.29289488
_cell_length_b   10.29289488
_cell_length_c   10.29289488
_cell_angle_alpha   145.93891329
_cell_angle_beta   133.87088942
_cell_angle_gamma   58.56865194
_symmetry_Int_Tables_number   1
_chemical_formula_structural   Cs3V(Cl3O2)2
_chemical_formula_sum   'Cs3 V1 Cl6 O4'
_cell_volume   436.52697300
_cell_formula_units_Z   1
loop_
 _symmetry_equiv_pos_site_id
 _symmetry_equiv_pos_as_xyz
  1  'x, y, z'
loop_
 _atom_site_type_symbol
 _atom_site_label
 _atom_site_symmetry_multiplicity
 _atom_site_fract_x
 _atom_site_fract_y
 _atom_site_fract_z
 _atom_site_occupancy
  Cs  Cs0  1  0.50000000  0.00000000  0.50000000  1
  Cs  Cs1  1  0.69022300  0.69022300  0.00000000  1
  Cs  Cs2  1  0.30977700  0.30977700  0.00000000  1
  V  V3  1  0.00000000  0.50000000  0.50000000  1
  Cl  Cl4  1  0.59524000  0.84625000  0.74899100  1
  Cl  Cl5  1  0.90274100  0.15375000  0.74899100  1
  Cl  Cl6  1  0.09725900  0.84625000  0.25100900  1
  Cl  Cl7  1  0.40476000  0.15375000  0.25100900  1
  Cl  Cl8  1  0.29780400  0.50000000  0.79780400  1
  Cl  Cl9  1  0.70219600  0.50000000  0.20219600  1
  O  O10  1  0.07000100  0.79133000  0.72132900  1
  O  O11  1  0.92999900  0.20867000  0.27867100  1
  O  O12  1  0.07000100  0.34867100  0.27867100  1
  O  O13  1  0.92999900  0.65132800  0.72132900  1
