# generated using pymatgen
data_Ca2SiO5
_symmetry_space_group_name_H-M   'P 1'
_cell_length_a   7.32584800
_cell_length_b   10.65972300
_cell_length_c   10.93442800
_cell_angle_alpha   90.00000000
_cell_angle_beta   90.00000000
_cell_angle_gamma   90.00000000
_symmetry_Int_Tables_number   1
_chemical_formula_structural   Ca2SiO5
_chemical_formula_sum   'Ca16 Si8 O40'
_cell_volume   853.88599810
_cell_formula_units_Z   8
loop_
 _symmetry_equiv_pos_site_id
 _symmetry_equiv_pos_as_xyz
  1  'x, y, z'
loop_
 _atom_site_type_symbol
 _atom_site_label
 _atom_site_symmetry_multiplicity
 _atom_site_fract_x
 _atom_site_fract_y
 _atom_site_fract_z
 _atom_site_occupancy
  Ca  Ca0  1  0.99935100  0.69573400  0.76053300  1
  Ca  Ca1  1  0.49935100  0.80426600  0.23946700  1
  Ca  Ca2  1  0.00064900  0.19573400  0.73946700  1
  Ca  Ca3  1  0.50064900  0.30426600  0.26053300  1
  Ca  Ca4  1  0.00064900  0.30426600  0.23946700  1
  Ca  Ca5  1  0.50064900  0.19573400  0.76053300  1
  Ca  Ca6  1  0.99935100  0.80426600  0.26053300  1
  Ca  Ca7  1  0.49935100  0.69573400  0.73946700  1
  Ca  Ca8  1  0.75507200  0.06640500  0.07750900  1
  Ca  Ca9  1  0.25507200  0.43359500  0.92249100  1
  Ca  Ca10  1  0.24492800  0.56640500  0.42249100  1
  Ca  Ca11  1  0.74492800  0.93359500  0.57750900  1
  Ca  Ca12  1  0.24492800  0.93359500  0.92249100  1
  Ca  Ca13  1  0.74492800  0.56640500  0.07750900  1
  Ca  Ca14  1  0.75507200  0.43359500  0.57750900  1
  Ca  Ca15  1  0.25507200  0.06640500  0.42249100  1
  Si  Si16  1  0.23157600  0.31674900  0.54140700  1
  Si  Si17  1  0.73157600  0.18325100  0.45859300  1
  Si  Si18  1  0.76842400  0.81674900  0.95859300  1
  Si  Si19  1  0.26842400  0.68325100  0.04140700  1
  Si  Si20  1  0.76842400  0.68325100  0.45859300  1
  Si  Si21  1  0.26842400  0.81674900  0.54140700  1
  Si  Si22  1  0.23157600  0.18325100  0.04140700  1
  Si  Si23  1  0.73157600  0.31674900  0.95859300  1
  O  O24  1  0.97309300  0.42472300  0.80753000  1
  O  O25  1  0.47309300  0.07527700  0.19247000  1
  O  O26  1  0.02690700  0.92472300  0.69247000  1
  O  O27  1  0.52690700  0.57527700  0.30753000  1
  O  O28  1  0.02690700  0.57527700  0.19247000  1
  O  O29  1  0.52690700  0.92472300  0.80753000  1
  O  O30  1  0.97309300  0.07527700  0.30753000  1
  O  O31  1  0.47309300  0.42472300  0.69247000  1
  O  O32  1  0.05052000  0.38278800  0.59245500  1
  O  O33  1  0.55052000  0.11721200  0.40754500  1
  O  O34  1  0.94948000  0.88278800  0.90754500  1
  O  O35  1  0.44948000  0.61721200  0.09245500  1
  O  O36  1  0.94948000  0.61721200  0.40754500  1
  O  O37  1  0.44948000  0.88278800  0.59245500  1
  O  O38  1  0.05052000  0.11721200  0.09245500  1
  O  O39  1  0.55052000  0.38278800  0.90754500  1
  O  O40  1  0.26406500  0.18225500  0.60936300  1
  O  O41  1  0.76406500  0.31774500  0.39063700  1
  O  O42  1  0.73593500  0.68225500  0.89063700  1
  O  O43  1  0.23593500  0.81774500  0.10936300  1
  O  O44  1  0.73593500  0.81774500  0.39063700  1
  O  O45  1  0.23593500  0.68225500  0.60936300  1
  O  O46  1  0.26406500  0.31774500  0.10936300  1
  O  O47  1  0.76406500  0.18225500  0.89063700  1
  O  O48  1  0.41637900  0.41055100  0.55904800  1
  O  O49  1  0.91637900  0.08944900  0.44095200  1
  O  O50  1  0.58362100  0.91055100  0.94095200  1
  O  O51  1  0.08362100  0.58944900  0.05904800  1
  O  O52  1  0.58362100  0.58944900  0.44095200  1
  O  O53  1  0.08362100  0.91055100  0.55904800  1
  O  O54  1  0.41637900  0.08944900  0.05904800  1
  O  O55  1  0.91637900  0.41055100  0.94095200  1
  O  O56  1  0.23599600  0.31145600  0.38995600  1
  O  O57  1  0.73599600  0.18854400  0.61004400  1
  O  O58  1  0.76400400  0.81145600  0.11004400  1
  O  O59  1  0.26400400  0.68854400  0.88995600  1
  O  O60  1  0.76400400  0.68854400  0.61004400  1
  O  O61  1  0.26400400  0.81145600  0.38995600  1
  O  O62  1  0.23599600  0.18854400  0.88995600  1
  O  O63  1  0.73599600  0.31145600  0.11004400  1
