# generated using pymatgen
data_CdC2S2(N4Cl)2
_symmetry_space_group_name_H-M   'P 1'
_cell_length_a   6.28535400
_cell_length_b   10.23220700
_cell_length_c   15.57839530
_cell_angle_alpha   58.22877196
_cell_angle_beta   90.00000000
_cell_angle_gamma   90.00000000
_symmetry_Int_Tables_number   1
_chemical_formula_structural   CdC2S2(N4Cl)2
_chemical_formula_sum   'Cd2 C4 S4 N16 Cl4'
_cell_volume   851.76741070
_cell_formula_units_Z   2
loop_
 _symmetry_equiv_pos_site_id
 _symmetry_equiv_pos_as_xyz
  1  'x, y, z'
loop_
 _atom_site_type_symbol
 _atom_site_label
 _atom_site_symmetry_multiplicity
 _atom_site_fract_x
 _atom_site_fract_y
 _atom_site_fract_z
 _atom_site_occupancy
  Cd  Cd0  1  0.50000000  0.00000000  0.50000000  1
  Cd  Cd1  1  0.00000000  0.00000000  0.00000000  1
  C  C2  1  0.51570900  0.48763000  0.36815900  1
  C  C3  1  0.01570900  0.51237000  0.13184100  1
  C  C4  1  0.48429100  0.51237000  0.63184100  1
  C  C5  1  0.98429100  0.48763000  0.86815900  1
  S  S6  1  0.34128500  0.36396600  0.38933800  1
  S  S7  1  0.84128500  0.63603400  0.11066200  1
  S  S8  1  0.65871500  0.63603400  0.61066200  1
  S  S9  1  0.15871500  0.36396600  0.88933800  1
  N  N10  1  0.84287000  0.26051400  0.54893500  1
  N  N11  1  0.34287000  0.73948600  0.95106500  1
  N  N12  1  0.15713000  0.73948600  0.45106500  1
  N  N13  1  0.65713000  0.26051400  0.04893500  1
  N  N14  1  0.79311800  0.14083100  0.57522000  1
  N  N15  1  0.29311800  0.85916900  0.92478000  1
  N  N16  1  0.20688200  0.85916900  0.42478000  1
  N  N17  1  0.70688200  0.14083100  0.07522000  1
  N  N18  1  0.65235300  0.58219900  0.35621100  1
  N  N19  1  0.15235300  0.41780100  0.14378900  1
  N  N20  1  0.34764700  0.41780100  0.64378900  1
  N  N21  1  0.84764700  0.58219900  0.85621100  1
  N  N22  1  0.78658500  0.67325800  0.34388100  1
  N  N23  1  0.28658500  0.32674200  0.15611900  1
  N  N24  1  0.21341500  0.32674200  0.65611900  1
  N  N25  1  0.71341500  0.67325800  0.84388100  1
  Cl  Cl26  1  0.73572400  0.07787700  0.36558600  1
  Cl  Cl27  1  0.23572400  0.92212300  0.13441400  1
  Cl  Cl28  1  0.26427600  0.92212300  0.63441400  1
  Cl  Cl29  1  0.76427600  0.07787700  0.86558600  1
