# generated using pymatgen
data_Fe6P4H17O27
_symmetry_space_group_name_H-M   'P 1'
_cell_length_a   11.02353828
_cell_length_b   11.02353828
_cell_length_c   19.40176259
_cell_angle_alpha   85.98376142
_cell_angle_beta   85.98376142
_cell_angle_gamma   27.21057662
_symmetry_Int_Tables_number   1
_chemical_formula_structural   Fe6P4H17O27
_chemical_formula_sum   'Fe12 P8 H34 O54'
_cell_volume   1075.27086232
_cell_formula_units_Z   2
loop_
 _symmetry_equiv_pos_site_id
 _symmetry_equiv_pos_as_xyz
  1  'x, y, z'
loop_
 _atom_site_type_symbol
 _atom_site_label
 _atom_site_symmetry_multiplicity
 _atom_site_fract_x
 _atom_site_fract_y
 _atom_site_fract_z
 _atom_site_occupancy
  Fe  Fe0  1  0.00000000  0.00000000  0.00000000  1
  Fe  Fe1  1  0.00000000  0.00000000  0.50000000  1
  Fe  Fe2  1  0.00000000  0.50000000  0.00000000  1
  Fe  Fe3  1  0.50000000  0.00000000  0.50000000  1
  Fe  Fe4  1  0.22745800  0.68486800  0.17287200  1
  Fe  Fe5  1  0.31513200  0.77254200  0.32712800  1
  Fe  Fe6  1  0.77254200  0.31513200  0.82712800  1
  Fe  Fe7  1  0.68486800  0.22745800  0.67287200  1
  Fe  Fe8  1  0.92841200  0.85311500  0.42014600  1
  Fe  Fe9  1  0.14688500  0.07158800  0.07985400  1
  Fe  Fe10  1  0.07158800  0.14688500  0.57985400  1
  Fe  Fe11  1  0.85311500  0.92841200  0.92014600  1
  P  P12  1  0.36669000  0.42093900  0.02705800  1
  P  P13  1  0.57906100  0.63331000  0.47294200  1
  P  P14  1  0.63331000  0.57906100  0.97294200  1
  P  P15  1  0.42093900  0.36669000  0.52705800  1
  P  P16  1  0.63706700  0.54698000  0.17953000  1
  P  P17  1  0.45302000  0.36293300  0.32047000  1
  P  P18  1  0.36293300  0.45302000  0.82047000  1
  P  P19  1  0.54698000  0.63706700  0.67953000  1
  H  H20  1  0.84180600  0.14824000  0.37310100  1
  H  H21  1  0.85176000  0.15819400  0.12689900  1
  H  H22  1  0.15819400  0.85176000  0.62689900  1
  H  H23  1  0.14824000  0.84180600  0.87310100  1
  H  H24  1  0.99755000  0.61181800  0.49775900  1
  H  H25  1  0.38818200  0.00245000  0.00224100  1
  H  H26  1  0.00245000  0.38818200  0.50224100  1
  H  H27  1  0.61181800  0.99755000  0.99775900  1
  H  H28  1  0.91982500  0.08017500  0.25000000  1
  H  H29  1  0.08017500  0.91982500  0.75000000  1
  H  H30  1  0.90872500  0.30524000  0.30844100  1
  H  H31  1  0.69476000  0.09127500  0.19155900  1
  H  H32  1  0.09127500  0.69476000  0.69155900  1
  H  H33  1  0.30524000  0.90872500  0.80844100  1
  H  H34  1  0.13302800  0.12224700  0.25454700  1
  H  H35  1  0.87775300  0.86697200  0.24545300  1
  H  H36  1  0.86697200  0.87775300  0.74545300  1
  H  H37  1  0.12224700  0.13302800  0.75454700  1
  H  H38  1  0.96516500  0.55028500  0.13954400  1
  H  H39  1  0.44971500  0.03483500  0.36045600  1
  H  H40  1  0.03483500  0.44971500  0.86045600  1
  H  H41  1  0.55028500  0.96516500  0.63954400  1
  H  H42  1  0.70124600  0.71923800  0.11542800  1
  H  H43  1  0.28076200  0.29875400  0.38457200  1
  H  H44  1  0.29875400  0.28076200  0.88457200  1
  H  H45  1  0.71923800  0.70124600  0.61542800  1
  H  H46  1  0.24660500  0.38842900  0.22629300  1
  H  H47  1  0.61157100  0.75339500  0.27370700  1
  H  H48  1  0.75339500  0.61157100  0.77370700  1
  H  H49  1  0.38842900  0.24660500  0.72629300  1
  H  H50  1  0.32315700  0.18359700  0.23466600  1
  H  H51  1  0.81640300  0.67684300  0.26533400  1
  H  H52  1  0.67684300  0.81640300  0.76533400  1
  H  H53  1  0.18359700  0.32315700  0.73466600  1
  O  O54  1  0.30442800  0.33986100  0.02176600  1
  O  O55  1  0.66013900  0.69557200  0.47823400  1
  O  O56  1  0.69557200  0.66013900  0.97823400  1
  O  O57  1  0.33986100  0.30442800  0.52176600  1
  O  O58  1  0.82897100  0.32577000  0.01842100  1
  O  O59  1  0.67423000  0.17102900  0.48157900  1
  O  O60  1  0.17102900  0.67423000  0.98157900  1
  O  O61  1  0.32577000  0.82897100  0.51842100  1
  O  O62  1  0.81060000  0.34492000  0.50127900  1
  O  O63  1  0.65508000  0.18940000  0.99872100  1
  O  O64  1  0.18940000  0.65508000  0.49872100  1
  O  O65  1  0.34492000  0.81060000  0.00127900  1
  O  O66  1  0.34990600  0.47107200  0.10198800  1
  O  O67  1  0.52892800  0.65009400  0.39801200  1
  O  O68  1  0.65009400  0.52892800  0.89801200  1
  O  O69  1  0.47107200  0.34990600  0.60198800  1
  O  O70  1  0.56946000  0.47382100  0.16552200  1
  O  O71  1  0.52617900  0.43054000  0.33447800  1
  O  O72  1  0.43054000  0.52617900  0.83447800  1
  O  O73  1  0.47382100  0.56946000  0.66552200  1
  O  O74  1  0.38881500  0.41188900  0.24254000  1
  O  O75  1  0.58811100  0.61118500  0.25746000  1
  O  O76  1  0.61118500  0.58811100  0.75746000  1
  O  O77  1  0.41188900  0.38881500  0.74254000  1
  O  O78  1  0.93562900  0.30454200  0.16247500  1
  O  O79  1  0.69545800  0.06437100  0.33752500  1
  O  O80  1  0.06437100  0.69545800  0.83752500  1
  O  O81  1  0.30454200  0.93562900  0.66247500  1
  O  O82  1  0.21326800  0.52703500  0.36514700  1
  O  O83  1  0.47296500  0.78673200  0.13485300  1
  O  O84  1  0.78673200  0.47296500  0.63485300  1
  O  O85  1  0.52703500  0.21326800  0.86514700  1
  O  O86  1  0.01929700  0.96836600  0.39235600  1
  O  O87  1  0.03163400  0.98070300  0.10764400  1
  O  O88  1  0.98070300  0.03163400  0.60764400  1
  O  O89  1  0.96836600  0.01929700  0.89235600  1
  O  O90  1  0.84191800  0.77225000  0.46851700  1
  O  O91  1  0.22775000  0.15808200  0.03148300  1
  O  O92  1  0.15808200  0.22775000  0.53148300  1
  O  O93  1  0.77225000  0.84191800  0.96851700  1
  O  O94  1  0.10804900  0.89195100  0.25000000  1
  O  O95  1  0.89195100  0.10804900  0.75000000  1
  O  O96  1  0.10478000  0.12741100  0.30457300  1
  O  O97  1  0.87258900  0.89522000  0.19542700  1
  O  O98  1  0.89522000  0.87258900  0.69542700  1
  O  O99  1  0.12741100  0.10478000  0.80457300  1
  O  O100  1  0.84233900  0.65277400  0.10047000  1
  O  O101  1  0.34722600  0.15766100  0.39953000  1
  O  O102  1  0.15766100  0.34722600  0.89953000  1
  O  O103  1  0.65277400  0.84233900  0.60047000  1
  O  O104  1  0.62744200  0.82814300  0.27694100  1
  O  O105  1  0.17185700  0.37255800  0.22305900  1
  O  O106  1  0.37255800  0.17185700  0.72305900  1
  O  O107  1  0.82814300  0.62744200  0.77694100  1
