# generated using pymatgen
data_Cd3S3O20
_symmetry_space_group_name_H-M   'P 1'
_cell_length_a   9.70449700
_cell_length_b   10.00816722
_cell_length_c   10.00874666
_cell_angle_alpha   85.21223766
_cell_angle_beta   85.26911889
_cell_angle_gamma   85.23411239
_symmetry_Int_Tables_number   1
_chemical_formula_structural   Cd3S3O20
_chemical_formula_sum   'Cd6 S6 O40'
_cell_volume   962.55359684
_cell_formula_units_Z   2
loop_
 _symmetry_equiv_pos_site_id
 _symmetry_equiv_pos_as_xyz
  1  'x, y, z'
loop_
 _atom_site_type_symbol
 _atom_site_label
 _atom_site_symmetry_multiplicity
 _atom_site_fract_x
 _atom_site_fract_y
 _atom_site_fract_z
 _atom_site_occupancy
  Cd  Cd0  1  0.75156600  0.00244000  0.99776000  1
  Cd  Cd1  1  0.24930900  0.00048700  0.99932100  1
  Cd  Cd2  1  0.49908200  0.75452100  0.49823600  1
  Cd  Cd3  1  0.99989800  0.50182700  0.24488700  1
  Cd  Cd4  1  0.49889800  0.24597000  0.49625000  1
  Cd  Cd5  1  0.99911900  0.50279300  0.75278500  1
  S  S6  1  0.74917100  0.48682800  0.51195000  1
  S  S7  1  0.24903200  0.51425200  0.48536400  1
  S  S8  1  0.47613100  0.00008400  0.24896900  1
  S  S9  1  0.02546300  0.75083000  0.99732400  1
  S  S10  1  0.52619000  0.99414000  0.74851200  1
  S  S11  1  0.97295600  0.25146300  0.00524100  1
  O  O12  1  0.86004600  0.45192400  0.60579300  1
  O  O13  1  0.63730800  0.39409000  0.54591300  1
  O  O14  1  0.13584300  0.55029800  0.39459200  1
  O  O15  1  0.36051000  0.60676100  0.44949900  1
  O  O16  1  0.69263500  0.62808000  0.52663300  1
  O  O17  1  0.80665800  0.47155100  0.37110500  1
  O  O18  1  0.30518400  0.37304500  0.46865500  1
  O  O19  1  0.19415900  0.52810100  0.62734300  1
  O  O20  1  0.57605000  0.05091100  0.13905000  1
  O  O21  1  0.92819300  0.86331000  0.94641600  1
  O  O22  1  0.42569100  0.94889700  0.86066300  1
  O  O23  1  0.07009600  0.13635400  0.05075300  1
  O  O24  1  0.52899600  0.86257400  0.30000600  1
  O  O25  1  0.96812500  0.69754100  0.13247300  1
  O  O26  1  0.47282700  0.12826200  0.68966000  1
  O  O27  1  0.03032500  0.31115900  0.87299500  1
  O  O28  1  0.33816800  0.99488200  0.19649700  1
  O  O29  1  0.16353900  0.80114500  0.00810400  1
  O  O30  1  0.66355800  0.00408100  0.80065100  1
  O  O31  1  0.83472900  0.20254300  0.99147400  1
  O  O32  1  0.46047900  0.09112300  0.35978200  1
  O  O33  1  0.04259500  0.64282700  0.90312100  1
  O  O34  1  0.54385900  0.89476800  0.64547100  1
  O  O35  1  0.95547400  0.35284100  0.10627200  1
  O  O36  1  0.86729400  0.93696200  0.31754800  1
  O  O37  1  0.63293500  0.68077100  0.05795100  1
  O  O38  1  0.12904800  0.07674600  0.68111400  1
  O  O39  1  0.36742600  0.31347300  0.92498300  1
  O  O40  1  0.85668900  0.79786000  0.67337200  1
  O  O41  1  0.63101000  0.33183300  0.19810600  1
  O  O42  1  0.14464500  0.19248000  0.33371100  1
  O  O43  1  0.35923700  0.66147000  0.80937700  1
  O  O44  1  0.79689800  0.71974600  0.75574500  1
  O  O45  1  0.69572000  0.25007400  0.27290000  1
  O  O46  1  0.19865900  0.27475800  0.25158500  1
  O  O47  1  0.30558900  0.74276400  0.72620200  1
  O  O48  1  0.97894100  0.89363700  0.36071200  1
  O  O49  1  0.53602600  0.62521300  0.12039600  1
  O  O50  1  0.01347900  0.11447500  0.64353800  1
  O  O51  1  0.48435500  0.34967400  0.89089900  1
