# generated using pymatgen
data_Ca(BH4)2
_symmetry_space_group_name_H-M   'P 1'
_cell_length_a   13.46758800
_cell_length_b   8.56120500
_cell_length_c   7.50148000
_cell_angle_alpha   90.00000000
_cell_angle_beta   90.00000000
_cell_angle_gamma   90.00000000
_symmetry_Int_Tables_number   1
_chemical_formula_structural   Ca(BH4)2
_chemical_formula_sum   'Ca8 B16 H64'
_cell_volume   864.91150512
_cell_formula_units_Z   8
loop_
 _symmetry_equiv_pos_site_id
 _symmetry_equiv_pos_as_xyz
  1  'x, y, z'
loop_
 _atom_site_type_symbol
 _atom_site_label
 _atom_site_symmetry_multiplicity
 _atom_site_fract_x
 _atom_site_fract_y
 _atom_site_fract_z
 _atom_site_occupancy
  Ca  Ca0  1  0.12189300  0.37636200  0.15318200  1
  Ca  Ca1  1  0.62189300  0.12363800  0.84681800  1
  Ca  Ca2  1  0.87810700  0.87636200  0.34681800  1
  Ca  Ca3  1  0.37810700  0.62363800  0.65318200  1
  Ca  Ca4  1  0.87810700  0.62363800  0.84681800  1
  Ca  Ca5  1  0.37810700  0.87636200  0.15318200  1
  Ca  Ca6  1  0.12189300  0.12363800  0.65318200  1
  Ca  Ca7  1  0.62189300  0.37636200  0.34681800  1
  B  B8  1  0.71351100  0.41566200  0.03925900  1
  B  B9  1  0.21351100  0.08433800  0.96074100  1
  B  B10  1  0.28648900  0.91566200  0.46074100  1
  B  B11  1  0.78648900  0.58433800  0.53925900  1
  B  B12  1  0.28648900  0.58433800  0.96074100  1
  B  B13  1  0.78648900  0.91566200  0.03925900  1
  B  B14  1  0.71351100  0.08433800  0.53925900  1
  B  B15  1  0.21351100  0.41566200  0.46074100  1
  B  B16  1  0.99895700  0.84322800  0.66540500  1
  B  B17  1  0.49895700  0.65677200  0.33459500  1
  B  B18  1  0.00104300  0.34322800  0.83459500  1
  B  B19  1  0.50104300  0.15677200  0.16540500  1
  B  B20  1  0.00104300  0.15677200  0.33459500  1
  B  B21  1  0.50104300  0.34322800  0.66540500  1
  B  B22  1  0.99895700  0.65677200  0.16540500  1
  B  B23  1  0.49895700  0.84322800  0.83459500  1
  H  H24  1  0.75727600  0.32250100  0.13606900  1
  H  H25  1  0.25727600  0.17749900  0.86393100  1
  H  H26  1  0.24272400  0.82250100  0.36393100  1
  H  H27  1  0.74272400  0.67749900  0.63606900  1
  H  H28  1  0.24272400  0.67749900  0.86393100  1
  H  H29  1  0.74272400  0.82250100  0.13606900  1
  H  H30  1  0.75727600  0.17749900  0.63606900  1
  H  H31  1  0.25727600  0.32250100  0.36393100  1
  H  H32  1  0.75774100  0.43433900  0.89963400  1
  H  H33  1  0.25774100  0.06566100  0.10036600  1
  H  H34  1  0.24225900  0.93433900  0.60036600  1
  H  H35  1  0.74225900  0.56566100  0.39963400  1
  H  H36  1  0.24225900  0.56566100  0.10036600  1
  H  H37  1  0.74225900  0.93433900  0.89963400  1
  H  H38  1  0.75774100  0.06566100  0.39963400  1
  H  H39  1  0.25774100  0.43433900  0.60036600  1
  H  H40  1  0.69989300  0.53935800  0.11689900  1
  H  H41  1  0.19989300  0.96064200  0.88310100  1
  H  H42  1  0.30010700  0.03935800  0.38310100  1
  H  H43  1  0.80010700  0.46064200  0.61689900  1
  H  H44  1  0.30010700  0.46064200  0.88310100  1
  H  H45  1  0.80010700  0.03935800  0.11689900  1
  H  H46  1  0.69989300  0.96064200  0.61689900  1
  H  H47  1  0.19989300  0.53935800  0.38310100  1
  H  H48  1  0.62990500  0.36709800  0.00190500  1
  H  H49  1  0.12990500  0.13290200  0.99809500  1
  H  H50  1  0.37009500  0.86709800  0.49809500  1
  H  H51  1  0.87009500  0.63290200  0.50190500  1
  H  H52  1  0.37009500  0.63290200  0.99809500  1
  H  H53  1  0.87009500  0.86709800  0.00190500  1
  H  H54  1  0.62990500  0.13290200  0.50190500  1
  H  H55  1  0.12990500  0.36709800  0.49809500  1
  H  H56  1  0.01956100  0.70793100  0.70133300  1
  H  H57  1  0.51956100  0.79206900  0.29866700  1
  H  H58  1  0.98043900  0.20793100  0.79866700  1
  H  H59  1  0.48043900  0.29206900  0.20133300  1
  H  H60  1  0.98043900  0.29206900  0.29866700  1
  H  H61  1  0.48043900  0.20793100  0.70133300  1
  H  H62  1  0.01956100  0.79206900  0.20133300  1
  H  H63  1  0.51956100  0.70793100  0.79866700  1
  H  H64  1  0.90842500  0.86639200  0.66235900  1
  H  H65  1  0.40842500  0.63360800  0.33764100  1
  H  H66  1  0.09157500  0.36639200  0.83764100  1
  H  H67  1  0.59157500  0.13360800  0.16235900  1
  H  H68  1  0.09157500  0.13360800  0.33764100  1
  H  H69  1  0.59157500  0.36639200  0.66235900  1
  H  H70  1  0.90842500  0.63360800  0.16235900  1
  H  H71  1  0.40842500  0.86639200  0.83764100  1
  H  H72  1  0.03585500  0.86843300  0.51893800  1
  H  H73  1  0.53585500  0.63156700  0.48106200  1
  H  H74  1  0.96414500  0.36843300  0.98106200  1
  H  H75  1  0.46414500  0.13156700  0.01893800  1
  H  H76  1  0.96414500  0.13156700  0.48106200  1
  H  H77  1  0.46414500  0.36843300  0.51893800  1
  H  H78  1  0.03585500  0.63156700  0.01893800  1
  H  H79  1  0.53585500  0.86843300  0.98106200  1
  H  H80  1  0.03117000  0.92741700  0.78286000  1
  H  H81  1  0.53117000  0.57258300  0.21714000  1
  H  H82  1  0.96883000  0.42741700  0.71714000  1
  H  H83  1  0.46883000  0.07258300  0.28286000  1
  H  H84  1  0.96883000  0.07258300  0.21714000  1
  H  H85  1  0.46883000  0.42741700  0.78286000  1
  H  H86  1  0.03117000  0.57258300  0.28286000  1
  H  H87  1  0.53117000  0.92741700  0.71714000  1
