# generated using pymatgen
data_P2O5
_symmetry_space_group_name_H-M   'P 1'
_cell_length_a   12.53731457
_cell_length_b   9.91110917
_cell_length_c   11.91680101
_cell_angle_alpha   102.36627646
_cell_angle_beta   121.73796272
_cell_angle_gamma   65.97583794
_symmetry_Int_Tables_number   1
_chemical_formula_structural   P2O5
_chemical_formula_sum   'P8 O20'
_cell_volume   1150.24497714
_cell_formula_units_Z   4
loop_
 _symmetry_equiv_pos_site_id
 _symmetry_equiv_pos_as_xyz
  1  'x, y, z'
loop_
 _atom_site_type_symbol
 _atom_site_label
 _atom_site_symmetry_multiplicity
 _atom_site_fract_x
 _atom_site_fract_y
 _atom_site_fract_z
 _atom_site_occupancy
  P  P0  1  0.34079000  0.68460300  0.02177300  1
  P  P1  1  0.31901700  0.18460300  0.97822700  1
  P  P2  1  0.01198200  0.50245600  0.37941000  1
  P  P3  1  0.63257200  0.00245600  0.62059000  1
  P  P4  1  0.93641400  0.20542500  0.85015700  1
  P  P5  1  0.85939600  0.27968400  0.18324100  1
  P  P6  1  0.67615500  0.77968400  0.81675900  1
  P  P7  1  0.08625700  0.70542500  0.14984300  1
  O  O8  1  0.43092700  0.70027800  0.98367800  1
  O  O9  1  0.44724900  0.20027800  0.01632200  1
  O  O10  1  0.21435700  0.62866000  0.26502400  1
  O  O11  1  0.94933300  0.12866000  0.73497600  1
  O  O12  1  0.17795500  0.29038200  0.91666500  1
  O  O13  1  0.16177800  0.31234300  0.16535500  1
  O  O14  1  0.99642200  0.81234300  0.83464500  1
  O  O15  1  0.26129000  0.79038200  0.08333500  1
  O  O16  1  0.93759700  0.70929200  0.17009500  1
  O  O17  1  0.76750200  0.20929200  0.82990500  1
  O  O18  1  0.96708000  0.17017900  0.15806900  1
  O  O19  1  0.96810300  0.83462400  0.21390500  1
  O  O20  1  0.75419800  0.33462400  0.78609500  1
  O  O21  1  0.80901100  0.67017900  0.84193100  1
  O  O22  1  0.08905000  0.46302600  0.52036900  1
  O  O23  1  0.56868100  0.96302600  0.47963100  1
  O  O24  1  0.92579800  0.82450600  0.71398300  1
  O  O25  1  0.91397600  0.40384400  0.29148400  1
  O  O26  1  0.62249300  0.90384400  0.70851600  1
  O  O27  1  0.21181400  0.32450600  0.28601700  1
