# generated using pymatgen
data_Be(NF2)2
_symmetry_space_group_name_H-M   'P 1'
_cell_length_a   7.39502700
_cell_length_b   12.22791100
_cell_length_c   13.61964100
_cell_angle_alpha   90.00000000
_cell_angle_beta   90.00000000
_cell_angle_gamma   90.00000000
_symmetry_Int_Tables_number   1
_chemical_formula_structural   Be(NF2)2
_chemical_formula_sum   'Be8 N16 F32'
_cell_volume   1231.56600698
_cell_formula_units_Z   8
loop_
 _symmetry_equiv_pos_site_id
 _symmetry_equiv_pos_as_xyz
  1  'x, y, z'
loop_
 _atom_site_type_symbol
 _atom_site_label
 _atom_site_symmetry_multiplicity
 _atom_site_fract_x
 _atom_site_fract_y
 _atom_site_fract_z
 _atom_site_occupancy
  Be  Be0  1  0.79770300  0.54708400  0.38564900  1
  Be  Be1  1  0.20229700  0.04708400  0.61435100  1
  Be  Be2  1  0.29770300  0.04708400  0.11435100  1
  Be  Be3  1  0.70229700  0.54708400  0.88564900  1
  Be  Be4  1  0.70063500  0.93327900  0.05995200  1
  Be  Be5  1  0.29936500  0.43327900  0.94004800  1
  Be  Be6  1  0.20063500  0.43327900  0.44004800  1
  Be  Be7  1  0.79936500  0.93327900  0.55995200  1
  N  N8  1  0.72188800  0.90038000  0.36546700  1
  N  N9  1  0.27811200  0.40038000  0.63453300  1
  N  N10  1  0.22188800  0.40038000  0.13453300  1
  N  N11  1  0.77811200  0.90038000  0.86546700  1
  N  N12  1  0.73412300  0.21297200  0.25853900  1
  N  N13  1  0.26587700  0.71297200  0.74146100  1
  N  N14  1  0.23412300  0.71297200  0.24146100  1
  N  N15  1  0.76587700  0.21297200  0.75853900  1
  N  N16  1  0.79155200  0.63118500  0.19855000  1
  N  N17  1  0.20844800  0.13118500  0.80145000  1
  N  N18  1  0.29155200  0.13118500  0.30145000  1
  N  N19  1  0.70844800  0.63118500  0.69855000  1
  N  N20  1  0.86615200  0.32329800  0.99831200  1
  N  N21  1  0.13384800  0.82329800  0.00168800  1
  N  N22  1  0.36615200  0.82329800  0.50168800  1
  N  N23  1  0.63384800  0.32329800  0.49831200  1
  F  F24  1  0.79172000  0.59125800  0.48116200  1
  F  F25  1  0.20828000  0.09125800  0.51883800  1
  F  F26  1  0.29172000  0.09125800  0.01883800  1
  F  F27  1  0.70828000  0.59125800  0.98116200  1
  F  F28  1  0.79393500  0.45008600  0.32877000  1
  F  F29  1  0.20606500  0.95008600  0.67123000  1
  F  F30  1  0.29393500  0.95008600  0.17123000  1
  F  F31  1  0.70606500  0.45008600  0.82877000  1
  F  F32  1  0.61226900  0.62386400  0.19851700  1
  F  F33  1  0.38773100  0.12386400  0.80148300  1
  F  F34  1  0.11226900  0.12386400  0.30148300  1
  F  F35  1  0.88773100  0.62386400  0.69851700  1
  F  F36  1  0.83049100  0.65748800  0.30448600  1
  F  F37  1  0.16950900  0.15748800  0.69551400  1
  F  F38  1  0.33049100  0.15748800  0.19551400  1
  F  F39  1  0.66950900  0.65748800  0.80448600  1
  F  F40  1  0.81910100  0.91427400  0.28393000  1
  F  F41  1  0.18089900  0.41427400  0.71607000  1
  F  F42  1  0.31910100  0.41427400  0.21607000  1
  F  F43  1  0.68089900  0.91427400  0.78393000  1
  F  F44  1  0.75674200  0.04138200  0.07362000  1
  F  F45  1  0.24325800  0.54138200  0.92638000  1
  F  F46  1  0.25674200  0.54138200  0.42638000  1
  F  F47  1  0.74325800  0.04138200  0.57362000  1
  F  F48  1  0.99102000  0.84134200  0.06190100  1
  F  F49  1  0.00898000  0.34134200  0.93809900  1
  F  F50  1  0.49102000  0.34134200  0.43809900  1
  F  F51  1  0.50898000  0.84134200  0.56190100  1
  F  F52  1  0.61723300  0.83201100  0.06154600  1
  F  F53  1  0.38276700  0.33201100  0.93845400  1
  F  F54  1  0.11723300  0.33201100  0.43845400  1
  F  F55  1  0.88276700  0.83201100  0.56154600  1
