# generated using pymatgen
data_CaZn2(PO5)2
_symmetry_space_group_name_H-M   'P 1'
_cell_length_a   16.69606971
_cell_length_b   22.80552191
_cell_length_c   6.71686001
_cell_angle_alpha   90.00000000
_cell_angle_beta   90.00000000
_cell_angle_gamma   90.00000000
_symmetry_Int_Tables_number   1
_chemical_formula_structural   CaZn2(PO5)2
_chemical_formula_sum   'Ca12 Zn24 P24 O120'
_cell_volume   2557.52897097
_cell_formula_units_Z   12
loop_
 _symmetry_equiv_pos_site_id
 _symmetry_equiv_pos_as_xyz
  1  'x, y, z'
loop_
 _atom_site_type_symbol
 _atom_site_label
 _atom_site_symmetry_multiplicity
 _atom_site_fract_x
 _atom_site_fract_y
 _atom_site_fract_z
 _atom_site_occupancy
  Ca  Ca0  1  0.73793201  0.54498768  0.25632351  1
  Ca  Ca1  1  0.26206799  0.45501232  0.75632351  1
  Ca  Ca2  1  0.73793201  0.95501232  0.75632351  1
  Ca  Ca3  1  0.26206799  0.04498768  0.25632351  1
  Ca  Ca4  1  0.75426694  0.62077881  0.75206003  1
  Ca  Ca5  1  0.24573306  0.37922119  0.25206003  1
  Ca  Ca6  1  0.75426694  0.87922119  0.25206003  1
  Ca  Ca7  1  0.24573306  0.12077881  0.75206003  1
  Ca  Ca8  1  0.75763473  0.28864084  0.76684227  1
  Ca  Ca9  1  0.24236527  0.71135916  0.26684227  1
  Ca  Ca10  1  0.75763473  0.21135916  0.26684227  1
  Ca  Ca11  1  0.24236527  0.78864084  0.76684227  1
  Zn  Zn12  1  0.54115693  0.41972872  0.19958958  1
  Zn  Zn13  1  0.45884307  0.58027128  0.69958958  1
  Zn  Zn14  1  0.54115693  0.08027128  0.69958958  1
  Zn  Zn15  1  0.45884307  0.91972872  0.19958958  1
  Zn  Zn16  1  0.97226560  0.41701416  0.32192241  1
  Zn  Zn17  1  0.02773440  0.58298584  0.82192241  1
  Zn  Zn18  1  0.97226560  0.08298584  0.82192241  1
  Zn  Zn19  1  0.02773440  0.91701416  0.32192241  1
  Zn  Zn20  1  0.46361687  0.58573879  0.20119727  1
  Zn  Zn21  1  0.53638313  0.41426121  0.70119727  1
  Zn  Zn22  1  0.46361687  0.91426121  0.70119727  1
  Zn  Zn23  1  0.53638313  0.08573879  0.20119727  1
  Zn  Zn24  1  0.03121757  0.58435640  0.31996279  1
  Zn  Zn25  1  0.96878243  0.41564360  0.81996279  1
  Zn  Zn26  1  0.03121757  0.91564360  0.81996279  1
  Zn  Zn27  1  0.96878243  0.08435640  0.31996279  1
  Zn  Zn28  1  0.47421352  0.24876608  0.19193328  1
  Zn  Zn29  1  0.52578648  0.75123392  0.69193328  1
  Zn  Zn30  1  0.47421352  0.25123392  0.69193328  1
  Zn  Zn31  1  0.52578648  0.74876608  0.19193328  1
  Zn  Zn32  1  0.95698173  0.74581591  0.81353371  1
  Zn  Zn33  1  0.04301827  0.25418409  0.31353371  1
  Zn  Zn34  1  0.95698173  0.75418409  0.31353371  1
  Zn  Zn35  1  0.04301827  0.24581591  0.81353371  1
  P  P36  1  0.59950474  0.52519620  0.94242722  1
  P  P37  1  0.40049526  0.47480380  0.44242722  1
  P  P38  1  0.59950474  0.97480380  0.44242722  1
  P  P39  1  0.40049526  0.02519620  0.94242722  1
  P  P40  1  0.89755915  0.52057906  0.56448766  1
  P  P41  1  0.10244085  0.47942094  0.06448766  1
  P  P42  1  0.89755915  0.97942094  0.06448766  1
  P  P43  1  0.10244085  0.02057906  0.56448766  1
  P  P44  1  0.59554297  0.64474023  0.45243395  1
  P  P45  1  0.40445703  0.35525977  0.95243395  1
  P  P46  1  0.59554297  0.85525977  0.95243395  1
  P  P47  1  0.40445703  0.14474023  0.45243395  1
  P  P48  1  0.89190174  0.64337050  0.07191172  1
  P  P49  1  0.10809826  0.35662950  0.57191172  1
  P  P50  1  0.89190174  0.85662950  0.57191172  1
  P  P51  1  0.10809826  0.14337050  0.07191172  1
  P  P52  1  0.60915124  0.31226524  0.44731128  1
  P  P53  1  0.39084876  0.68773476  0.94731128  1
  P  P54  1  0.60915124  0.18773476  0.94731128  1
  P  P55  1  0.39084876  0.81226524  0.44731128  1
  P  P56  1  0.90670354  0.30889993  0.06826659  1
  P  P57  1  0.09329646  0.69110007  0.56826659  1
  P  P58  1  0.90670354  0.19110007  0.56826659  1
  P  P59  1  0.09329646  0.80889993  0.06826659  1
  O  O60  1  0.60562426  0.49047236  0.14337883  1
  O  O61  1  0.39437574  0.50952764  0.64337883  1
  O  O62  1  0.60562426  0.00952764  0.64337883  1
  O  O63  1  0.39437574  0.99047236  0.14337883  1
  O  O64  1  0.59617581  0.48597974  0.75768608  1
  O  O65  1  0.40382419  0.51402026  0.25768608  1
  O  O66  1  0.59617581  0.01402026  0.25768608  1
  O  O67  1  0.40382419  0.98597974  0.75768608  1
  O  O68  1  0.52096347  0.56430944  0.94882057  1
  O  O69  1  0.47903653  0.43569056  0.44882057  1
  O  O70  1  0.52096347  0.93569056  0.44882057  1
  O  O71  1  0.47903653  0.06430944  0.94882057  1
  O  O72  1  0.67398712  0.56484023  0.94177524  1
  O  O73  1  0.32601288  0.43515977  0.44177524  1
  O  O74  1  0.67398712  0.93515977  0.44177524  1
  O  O75  1  0.32601288  0.06484023  0.94177524  1
  O  O76  1  0.90289525  0.48375169  0.75598313  1
  O  O77  1  0.09710475  0.51624831  0.25598313  1
  O  O78  1  0.90289525  0.01624831  0.25598313  1
  O  O79  1  0.09710475  0.98375169  0.75598313  1
  O  O80  1  0.90407171  0.48479263  0.36933976  1
  O  O81  1  0.09592829  0.51520737  0.86933976  1
  O  O82  1  0.90407171  0.01520737  0.86933976  1
  O  O83  1  0.09592829  0.98479263  0.36933976  1
  O  O84  1  0.96893221  0.56685714  0.56794186  1
  O  O85  1  0.03106779  0.43314286  0.06794186  1
  O  O86  1  0.96893221  0.93314286  0.06794186  1
  O  O87  1  0.03106779  0.06685714  0.56794186  1
  O  O88  1  0.81716238  0.55414948  0.55493872  1
  O  O89  1  0.18283762  0.44585052  0.05493872  1
  O  O90  1  0.81716238  0.94585052  0.05493872  1
  O  O91  1  0.18283762  0.05414948  0.55493872  1
  O  O92  1  0.59320282  0.68243818  0.64366971  1
  O  O93  1  0.40679718  0.31756182  0.14366971  1
  O  O94  1  0.59320282  0.81756182  0.14366971  1
  O  O95  1  0.40679718  0.18243818  0.64366971  1
  O  O96  1  0.58904244  0.67976925  0.25761502  1
  O  O97  1  0.41095756  0.32023075  0.75761502  1
  O  O98  1  0.58904244  0.82023075  0.75761502  1
  O  O99  1  0.41095756  0.17976925  0.25761502  1
  O  O100  1  0.52214921  0.59994416  0.45628702  1
  O  O101  1  0.47785079  0.40005584  0.95628702  1
  O  O102  1  0.52214921  0.90005584  0.95628702  1
  O  O103  1  0.47785079  0.09994416  0.45628702  1
  O  O104  1  0.67442057  0.60934932  0.45849595  1
  O  O105  1  0.32557943  0.39065068  0.95849595  1
  O  O106  1  0.67442057  0.89065068  0.95849595  1
  O  O107  1  0.32557943  0.10934932  0.45849595  1
  O  O108  1  0.89524886  0.68375601  0.25353129  1
  O  O109  1  0.10475114  0.31624399  0.75353129  1
  O  O110  1  0.89524886  0.81624399  0.75353129  1
  O  O111  1  0.10475114  0.18375601  0.25353129  1
  O  O112  1  0.88888538  0.67686703  0.86811003  1
  O  O113  1  0.11111462  0.32313297  0.36811003  1
  O  O114  1  0.88888538  0.82313297  0.36811003  1
  O  O115  1  0.11111462  0.17686703  0.86811003  1
  O  O116  1  0.96895544  0.60259943  0.07216421  1
  O  O117  1  0.03104456  0.39740057  0.57216421  1
  O  O118  1  0.96895544  0.89740057  0.57216421  1
  O  O119  1  0.03104456  0.10259943  0.07216421  1
  O  O120  1  0.81632867  0.60481224  0.07222260  1
  O  O121  1  0.18367133  0.39518776  0.57222260  1
  O  O122  1  0.81632867  0.89518776  0.57222260  1
  O  O123  1  0.18367133  0.10481224  0.07222260  1
  O  O124  1  0.60587446  0.34665574  0.64760574  1
  O  O125  1  0.39412554  0.65334426  0.14760574  1
  O  O126  1  0.60587446  0.15334426  0.14760574  1
  O  O127  1  0.39412554  0.84665574  0.64760574  1
  O  O128  1  0.60689870  0.35153127  0.26142503  1
  O  O129  1  0.39310130  0.64846873  0.76142503  1
  O  O130  1  0.60689870  0.14846873  0.76142503  1
  O  O131  1  0.39310130  0.85153127  0.26142503  1
  O  O132  1  0.53466837  0.26889951  0.44125292  1
  O  O133  1  0.46533163  0.73110049  0.94125292  1
  O  O134  1  0.53466837  0.23110049  0.94125292  1
  O  O135  1  0.46533163  0.76889951  0.44125292  1
  O  O136  1  0.68696648  0.27582476  0.45499276  1
  O  O137  1  0.31303352  0.72417524  0.95499276  1
  O  O138  1  0.68696648  0.22417524  0.95499276  1
  O  O139  1  0.31303352  0.77582476  0.45499276  1
  O  O140  1  0.90291551  0.34532459  0.87216938  1
  O  O141  1  0.09708449  0.65467541  0.37216938  1
  O  O142  1  0.90291551  0.15467541  0.37216938  1
  O  O143  1  0.09708449  0.84532459  0.87216938  1
  O  O144  1  0.91411889  0.34557396  0.25847277  1
  O  O145  1  0.08588111  0.65442604  0.75847277  1
  O  O146  1  0.91411889  0.15442604  0.75847277  1
  O  O147  1  0.08588111  0.84557396  0.25847277  1
  O  O148  1  0.82943724  0.27187513  0.07040701  1
  O  O149  1  0.17056276  0.72812487  0.57040701  1
  O  O150  1  0.82943724  0.22812487  0.57040701  1
  O  O151  1  0.17056276  0.77187513  0.07040701  1
  O  O152  1  0.98245893  0.26673003  0.05983424  1
  O  O153  1  0.01754107  0.73326997  0.55983424  1
  O  O154  1  0.98245893  0.23326997  0.55983424  1
  O  O155  1  0.01754107  0.76673003  0.05983424  1
  O  O156  1  0.73060137  0.43659278  0.50225720  1
  O  O157  1  0.26939863  0.56340722  0.00225720  1
  O  O158  1  0.73060137  0.06340722  0.00225720  1
  O  O159  1  0.26939863  0.93659278  0.50225720  1
  O  O160  1  0.78307010  0.43868076  0.06715601  1
  O  O161  1  0.21692990  0.56131924  0.56715601  1
  O  O162  1  0.78307010  0.06131924  0.56715601  1
  O  O163  1  0.21692990  0.93868076  0.06715601  1
  O  O164  1  0.71942966  0.72754155  0.96547510  1
  O  O165  1  0.28057034  0.27245845  0.46547510  1
  O  O166  1  0.71942966  0.77245845  0.46547510  1
  O  O167  1  0.28057034  0.22754155  0.96547510  1
  O  O168  1  0.76374254  0.73252919  0.52178350  1
  O  O169  1  0.23625746  0.26747081  0.02178350  1
  O  O170  1  0.76374254  0.76747081  0.02178350  1
  O  O171  1  0.23625746  0.23252919  0.52178350  1
  O  O172  1  0.74334583  0.39760142  0.00072183  1
  O  O173  1  0.25665417  0.60239858  0.50072183  1
  O  O174  1  0.74334583  0.10239858  0.50072183  1
  O  O175  1  0.25665417  0.89760142  0.00072183  1
  O  O176  1  0.77997875  0.39900556  0.55038326  1
  O  O177  1  0.22002125  0.60099444  0.05038326  1
  O  O178  1  0.77997875  0.10099444  0.05038326  1
  O  O179  1  0.22002125  0.89900556  0.55038326  1
