# generated using pymatgen
data_BaCr2PO13
_symmetry_space_group_name_H-M   'P 1'
_cell_length_a   10.05799702
_cell_length_b   8.64454355
_cell_length_c   7.65504298
_cell_angle_alpha   109.89561497
_cell_angle_beta   104.57245258
_cell_angle_gamma   93.51863593
_symmetry_Int_Tables_number   1
_chemical_formula_structural   BaCr2PO13
_chemical_formula_sum   'Ba2 Cr4 P2 O26'
_cell_volume   597.76831739
_cell_formula_units_Z   2
loop_
 _symmetry_equiv_pos_site_id
 _symmetry_equiv_pos_as_xyz
  1  'x, y, z'
loop_
 _atom_site_type_symbol
 _atom_site_label
 _atom_site_symmetry_multiplicity
 _atom_site_fract_x
 _atom_site_fract_y
 _atom_site_fract_z
 _atom_site_occupancy
  Ba  Ba0  1  0.83600800  0.74751600  0.83443600  1
  Ba  Ba1  1  0.16399200  0.25248400  0.16556400  1
  Cr  Cr2  1  0.42287600  0.62229000  0.70272700  1
  Cr  Cr3  1  0.57712400  0.37771000  0.29727300  1
  Cr  Cr4  1  0.00575200  0.29814700  0.62564300  1
  Cr  Cr5  1  0.99424800  0.70185300  0.37435700  1
  P  P6  1  0.21902300  0.87200900  0.79039600  1
  P  P7  1  0.78097700  0.12799100  0.20960400  1
  O  O8  1  0.11554000  0.90285400  0.90651400  1
  O  O9  1  0.88446000  0.09714600  0.09348600  1
  O  O10  1  0.31410800  0.04304400  0.85059600  1
  O  O11  1  0.68589200  0.95695600  0.14940400  1
  O  O12  1  0.30652500  0.73745500  0.83077300  1
  O  O13  1  0.69347500  0.26254500  0.16922700  1
  O  O14  1  0.15509600  0.81428200  0.56448300  1
  O  O15  1  0.84490400  0.18571800  0.43551700  1
  O  O16  1  0.66999000  0.47546200  0.52274100  1
  O  O17  1  0.33001000  0.52453800  0.47725900  1
  O  O18  1  0.48330400  0.49030500  0.79886000  1
  O  O19  1  0.51669600  0.50969500  0.20114000  1
  O  O20  1  0.54932900  0.75602700  0.71400500  1
  O  O21  1  0.45067100  0.24397300  0.28599500  1
  O  O22  1  0.13064500  0.26822800  0.52412100  1
  O  O23  1  0.86935500  0.73177200  0.47587900  1
  O  O24  1  0.02871900  0.22175300  0.79617700  1
  O  O25  1  0.97128100  0.77824700  0.20382300  1
  O  O26  1  0.99436900  0.49507900  0.71260600  1
  O  O27  1  0.00563100  0.50492100  0.28739400  1
  O  O28  1  0.66526100  0.99619400  0.51116100  1
  O  O29  1  0.33473900  0.00380600  0.48883900  1
  O  O30  1  0.70335800  0.45472800  0.85348200  1
  O  O31  1  0.29664200  0.54527200  0.14651800  1
  O  O32  1  0.40228700  0.06543000  0.65803400  1
  O  O33  1  0.59771300  0.93457000  0.34196600  1
