# generated using pymatgen
data_Ba3(H6Ir)2
_symmetry_space_group_name_H-M   'P 1'
_cell_length_a   7.77080087
_cell_length_b   8.06713985
_cell_length_c   5.30447108
_cell_angle_alpha   90.00000243
_cell_angle_beta   83.59215994
_cell_angle_gamma   121.26972523
_symmetry_Int_Tables_number   1
_chemical_formula_structural   Ba3(H6Ir)2
_chemical_formula_sum   'Ba3 H12 Ir2'
_cell_volume   281.78892174
_cell_formula_units_Z   1
loop_
 _symmetry_equiv_pos_site_id
 _symmetry_equiv_pos_as_xyz
  1  'x, y, z'
loop_
 _atom_site_type_symbol
 _atom_site_label
 _atom_site_symmetry_multiplicity
 _atom_site_fract_x
 _atom_site_fract_y
 _atom_site_fract_z
 _atom_site_occupancy
  Ba  Ba0  1  0.00000000  0.00000000  0.00000000  1
  Ba  Ba1  1  0.57433800  0.28716900  0.28901700  1
  Ba  Ba2  1  0.42566200  0.71283100  0.71098300  1
  H  H3  1  0.61279400  0.67389500  0.19513400  1
  H  H4  1  0.61279400  0.93889900  0.19513400  1
  H  H5  1  0.19185000  0.09592500  0.39036800  1
  H  H6  1  0.38720600  0.32610500  0.80486600  1
  H  H7  1  0.38720600  0.06110100  0.80486600  1
  H  H8  1  0.80815000  0.90407500  0.60963200  1
  H  H9  1  0.68078100  0.15271700  0.77108300  1
  H  H10  1  0.68078100  0.52806400  0.77108300  1
  H  H11  1  0.82854000  0.41427000  0.76666000  1
  H  H12  1  0.31921900  0.84728300  0.22891700  1
  H  H13  1  0.31921900  0.47193600  0.22891700  1
  H  H14  1  0.17146000  0.58573000  0.23334000  1
  Ir  Ir15  1  0.58113000  0.29056500  0.78697800  1
  Ir  Ir16  1  0.41887000  0.70943500  0.21302200  1
