# generated using pymatgen
data_Ca2Mn2B4O13
_symmetry_space_group_name_H-M   'P 1'
_cell_length_a   9.16118704
_cell_length_b   12.01130740
_cell_length_c   8.68742100
_cell_angle_alpha   89.99996411
_cell_angle_beta   89.99996079
_cell_angle_gamma   90.08729734
_symmetry_Int_Tables_number   1
_chemical_formula_structural   Ca2Mn2B4O13
_chemical_formula_sum   'Ca8 Mn8 B16 O52'
_cell_volume   955.94387780
_cell_formula_units_Z   4
loop_
 _symmetry_equiv_pos_site_id
 _symmetry_equiv_pos_as_xyz
  1  'x, y, z'
loop_
 _atom_site_type_symbol
 _atom_site_label
 _atom_site_symmetry_multiplicity
 _atom_site_fract_x
 _atom_site_fract_y
 _atom_site_fract_z
 _atom_site_occupancy
  Ca  Ca0  1  0.75948100  0.37870600  0.22424200  1
  Ca  Ca1  1  0.24812500  0.62909500  0.22986100  1
  Ca  Ca2  1  0.25148100  0.12859100  0.77020300  1
  Ca  Ca3  1  0.73971500  0.87995800  0.77496600  1
  Ca  Ca4  1  0.24812500  0.62909400  0.77014000  1
  Ca  Ca5  1  0.75948100  0.37870700  0.77575900  1
  Ca  Ca6  1  0.73971400  0.87995800  0.22503400  1
  Ca  Ca7  1  0.25148300  0.12859100  0.22979700  1
  Mn  Mn8  1  0.49444200  0.49727300  0.00000000  1
  Mn  Mn9  1  0.00668800  0.99706300  0.00000000  1
  Mn  Mn10  1  0.03723500  0.49582600  0.00000100  1
  Mn  Mn11  1  0.46143200  0.99494300  0.99999900  1
  Mn  Mn12  1  0.02374900  0.26144000  0.00000000  1
  Mn  Mn13  1  0.97219500  0.72989000  0.00000000  1
  Mn  Mn14  1  0.52308600  0.22983200  0.99999900  1
  Mn  Mn15  1  0.48072400  0.76052900  0.99999900  1
  B  B16  1  0.77714600  0.22169500  0.50000000  1
  B  B17  1  0.22506100  0.78115300  0.50000000  1
  B  B18  1  0.27450900  0.28118600  0.50000000  1
  B  B19  1  0.72388000  0.72145100  0.50000000  1
  B  B20  1  0.76888000  0.03182000  0.50000000  1
  B  B21  1  0.23196700  0.97059600  0.50000000  1
  B  B22  1  0.26757200  0.47068100  0.50000000  1
  B  B23  1  0.73223600  0.53144700  0.50000000  1
  B  B24  1  0.90330100  0.12476700  0.28762900  1
  B  B25  1  0.09917000  0.87634600  0.28776200  1
  B  B26  1  0.40010800  0.37670600  0.71224300  1
  B  B27  1  0.59792300  0.62424900  0.71222800  1
  B  B28  1  0.09917100  0.87634500  0.71223900  1
  B  B29  1  0.90330000  0.12476700  0.71237100  1
  B  B30  1  0.59792200  0.62424800  0.28777300  1
  B  B31  1  0.40010700  0.37670500  0.28775900  1
  O  O32  1  0.69636300  0.33265700  0.49999900  1
  O  O33  1  0.30651700  0.66971300  0.50000000  1
  O  O34  1  0.19305700  0.16953500  0.50000000  1
  O  O35  1  0.80457400  0.83282800  0.49999900  1
  O  O36  1  0.68578400  0.92162400  0.50000000  1
  O  O37  1  0.31314600  0.08152800  0.50000000  1
  O  O38  1  0.18638100  0.58147100  0.50000000  1
  O  O39  1  0.81519400  0.42158400  0.50000000  1
  O  O40  1  0.67922300  0.12880600  0.49999900  1
  O  O41  1  0.32275000  0.87407900  0.50000000  1
  O  O42  1  0.17689000  0.37402600  0.50000100  1
  O  O43  1  0.82172600  0.62871200  0.49999900  1
  O  O44  1  0.86887300  0.22393700  0.35599900  1
  O  O45  1  0.13312100  0.77786400  0.35766100  1
  O  O46  1  0.36639500  0.27822800  0.64240700  1
  O  O47  1  0.63217200  0.72345400  0.64394000  1
  O  O48  1  0.13312100  0.77786400  0.64234000  1
  O  O49  1  0.86887100  0.22393700  0.64400200  1
  O  O50  1  0.63217200  0.72345400  0.35606000  1
  O  O51  1  0.36639600  0.27822800  0.35759400  1
  O  O52  1  0.85784200  0.02713500  0.35385700  1
  O  O53  1  0.14316800  0.97444200  0.35376900  1
  O  O54  1  0.35636700  0.47491000  0.64622400  1
  O  O55  1  0.64309400  0.52654200  0.64610900  1
  O  O56  1  0.14316800  0.97444200  0.64623100  1
  O  O57  1  0.85784200  0.02713500  0.64614300  1
  O  O58  1  0.64309400  0.52654200  0.35389100  1
  O  O59  1  0.35636600  0.47491000  0.35377600  1
  O  O60  1  0.98918700  0.12586200  0.15237900  1
  O  O61  1  0.01699200  0.87211800  0.15105800  1
  O  O62  1  0.48195700  0.37260900  0.84910300  1
  O  O63  1  0.51216600  0.62532500  0.84751900  1
  O  O64  1  0.01699200  0.87211800  0.84894200  1
  O  O65  1  0.98918700  0.12586200  0.84762000  1
  O  O66  1  0.51216600  0.62532500  0.15248200  1
  O  O67  1  0.48195700  0.37260900  0.15089800  1
  O  O68  1  0.69426500  0.48133900  0.00000100  1
  O  O69  1  0.27925400  0.51842800  0.00000000  1
  O  O70  1  0.21977900  0.01621200  0.00000000  1
  O  O71  1  0.80601100  0.98161000  0.00000000  1
  O  O72  1  0.71355800  0.25914200  0.00000000  1
  O  O73  1  0.28854800  0.73638100  0.00000000  1
  O  O74  1  0.21579900  0.23768300  0.00000000  1
  O  O75  1  0.78155600  0.76112900  0.00000000  1
  O  O76  1  0.00503200  0.37369700  0.14076400  1
  O  O77  1  0.00731700  0.62021400  0.14041300  1
  O  O78  1  0.49056300  0.11945200  0.85961700  1
  O  O79  1  0.49586700  0.87313800  0.85919300  1
  O  O80  1  0.00731600  0.62021400  0.85958800  1
  O  O81  1  0.00503200  0.37369800  0.85923700  1
  O  O82  1  0.49586600  0.87313800  0.14080600  1
  O  O83  1  0.49056300  0.11945200  0.14038100  1
