# generated using pymatgen
data_Co2CN9(Cl2O3)2
_symmetry_space_group_name_H-M   'P 1'
_cell_length_a   9.97060200
_cell_length_b   11.46429800
_cell_length_c   18.09063400
_cell_angle_alpha   90.00000000
_cell_angle_beta   90.00000000
_cell_angle_gamma   90.00000000
_symmetry_Int_Tables_number   1
_chemical_formula_structural   Co2CN9(Cl2O3)2
_chemical_formula_sum   'Co8 C4 N36 Cl16 O24'
_cell_volume   2067.86715192
_cell_formula_units_Z   4
loop_
 _symmetry_equiv_pos_site_id
 _symmetry_equiv_pos_as_xyz
  1  'x, y, z'
loop_
 _atom_site_type_symbol
 _atom_site_label
 _atom_site_symmetry_multiplicity
 _atom_site_fract_x
 _atom_site_fract_y
 _atom_site_fract_z
 _atom_site_occupancy
  Co  Co0  1  0.66090700  0.03344900  0.11506900  1
  Co  Co1  1  0.16090700  0.46655100  0.38493100  1
  Co  Co2  1  0.33909300  0.96655100  0.61506900  1
  Co  Co3  1  0.83909300  0.53344900  0.88493100  1
  Co  Co4  1  0.33909300  0.96655100  0.88493100  1
  Co  Co5  1  0.83909300  0.53344900  0.61506900  1
  Co  Co6  1  0.66090700  0.03344900  0.38493100  1
  Co  Co7  1  0.16090700  0.46655100  0.11506900  1
  C  C8  1  0.58153200  0.71019700  0.25000000  1
  C  C9  1  0.08153200  0.78980300  0.25000000  1
  C  C10  1  0.41846800  0.28980300  0.75000000  1
  C  C11  1  0.91846800  0.21019700  0.75000000  1
  N  N12  1  0.78426200  0.98003800  0.25000000  1
  N  N13  1  0.28426200  0.51996200  0.25000000  1
  N  N14  1  0.21573800  0.01996200  0.75000000  1
  N  N15  1  0.71573800  0.48003800  0.75000000  1
  N  N16  1  0.79144400  0.97697200  0.18468400  1
  N  N17  1  0.29144400  0.52302800  0.31531600  1
  N  N18  1  0.20855600  0.02302800  0.68468400  1
  N  N19  1  0.70855600  0.47697200  0.81531600  1
  N  N20  1  0.20855600  0.02302800  0.81531600  1
  N  N21  1  0.70855600  0.47697200  0.68468400  1
  N  N22  1  0.79144400  0.97697200  0.31531600  1
  N  N23  1  0.29144400  0.52302800  0.18468400  1
  N  N24  1  0.52458800  0.08478300  0.17173500  1
  N  N25  1  0.02458800  0.41521700  0.32826500  1
  N  N26  1  0.47541200  0.91521700  0.67173500  1
  N  N27  1  0.97541200  0.58478300  0.82826500  1
  N  N28  1  0.47541200  0.91521700  0.82826500  1
  N  N29  1  0.97541200  0.58478300  0.67173500  1
  N  N30  1  0.52458800  0.08478300  0.32826500  1
  N  N31  1  0.02458800  0.41521700  0.17173500  1
  N  N32  1  0.70746600  0.15741800  0.06865600  1
  N  N33  1  0.20746600  0.34258200  0.43134400  1
  N  N34  1  0.29253400  0.84258200  0.56865600  1
  N  N35  1  0.79253400  0.65741800  0.93134400  1
  N  N36  1  0.29253400  0.84258200  0.93134400  1
  N  N37  1  0.79253400  0.65741800  0.56865600  1
  N  N38  1  0.70746600  0.15741800  0.43134400  1
  N  N39  1  0.20746600  0.34258200  0.06865600  1
  N  N40  1  0.61409300  0.93177100  0.06447300  1
  N  N41  1  0.11409300  0.56822900  0.43552700  1
  N  N42  1  0.38590700  0.06822900  0.56447300  1
  N  N43  1  0.88590700  0.43177100  0.93552700  1
  N  N44  1  0.38590700  0.06822900  0.93552700  1
  N  N45  1  0.88590700  0.43177100  0.56447300  1
  N  N46  1  0.61409300  0.93177100  0.43552700  1
  N  N47  1  0.11409300  0.56822900  0.06447300  1
  Cl  Cl48  1  0.56006400  0.27558300  0.25000000  1
  Cl  Cl49  1  0.06006400  0.22441700  0.25000000  1
  Cl  Cl50  1  0.43993600  0.72441700  0.75000000  1
  Cl  Cl51  1  0.93993600  0.77558300  0.75000000  1
  Cl  Cl52  1  0.47545400  0.01396300  0.25000000  1
  Cl  Cl53  1  0.97545400  0.48603700  0.25000000  1
  Cl  Cl54  1  0.52454600  0.98603700  0.75000000  1
  Cl  Cl55  1  0.02454600  0.51396300  0.75000000  1
  Cl  Cl56  1  0.17815500  0.29679900  0.98616200  1
  Cl  Cl57  1  0.67815500  0.20320100  0.51383800  1
  Cl  Cl58  1  0.82184500  0.70320100  0.48616200  1
  Cl  Cl59  1  0.32184500  0.79679900  0.01383800  1
  Cl  Cl60  1  0.82184500  0.70320100  0.01383800  1
  Cl  Cl61  1  0.32184500  0.79679900  0.48616200  1
  Cl  Cl62  1  0.17815500  0.29679900  0.51383800  1
  Cl  Cl63  1  0.67815500  0.20320100  0.98616200  1
  O  O64  1  0.58151100  0.71078400  0.18501100  1
  O  O65  1  0.08151100  0.78921600  0.31498900  1
  O  O66  1  0.41848900  0.28921600  0.68501100  1
  O  O67  1  0.91848900  0.21078400  0.81498900  1
  O  O68  1  0.41848900  0.28921600  0.81498900  1
  O  O69  1  0.91848900  0.21078400  0.68501100  1
  O  O70  1  0.58151100  0.71078400  0.31498900  1
  O  O71  1  0.08151100  0.78921600  0.18501100  1
  O  O72  1  0.65541000  0.45092500  0.10674000  1
  O  O73  1  0.15541000  0.04907500  0.39326000  1
  O  O74  1  0.34459000  0.54907500  0.60674000  1
  O  O75  1  0.84459000  0.95092500  0.89326000  1
  O  O76  1  0.34459000  0.54907500  0.89326000  1
  O  O77  1  0.84459000  0.95092500  0.60674000  1
  O  O78  1  0.65541000  0.45092500  0.39326000  1
  O  O79  1  0.15541000  0.04907500  0.10674000  1
  O  O80  1  0.54726900  0.45582100  0.07404300  1
  O  O81  1  0.04726900  0.04417900  0.42595700  1
  O  O82  1  0.45273100  0.54417900  0.57404300  1
  O  O83  1  0.95273100  0.95582100  0.92595700  1
  O  O84  1  0.45273100  0.54417900  0.92595700  1
  O  O85  1  0.95273100  0.95582100  0.57404300  1
  O  O86  1  0.54726900  0.45582100  0.42595700  1
  O  O87  1  0.04726900  0.04417900  0.07404300  1
