# generated using pymatgen
data_KCa4Si8H16O28F
_symmetry_space_group_name_H-M   'P 1'
_cell_length_a   10.43290500
_cell_length_b   10.43290500
_cell_length_c   12.78315400
_cell_angle_alpha   90.00000000
_cell_angle_beta   90.00000000
_cell_angle_gamma   90.00000000
_symmetry_Int_Tables_number   1
_chemical_formula_structural   KCa4Si8H16O28F
_chemical_formula_sum   'K2 Ca8 Si16 H32 O56 F2'
_cell_volume   1391.38887485
_cell_formula_units_Z   2
loop_
 _symmetry_equiv_pos_site_id
 _symmetry_equiv_pos_as_xyz
  1  'x, y, z'
loop_
 _atom_site_type_symbol
 _atom_site_label
 _atom_site_symmetry_multiplicity
 _atom_site_fract_x
 _atom_site_fract_y
 _atom_site_fract_z
 _atom_site_occupancy
  K  K0  1  0.50000000  0.50000000  0.00000000  1
  K  K1  1  0.00000000  0.00000000  0.50000000  1
  Ca  Ca2  1  0.68568200  0.73665600  0.00000000  1
  Ca  Ca3  1  0.23665600  0.18568200  0.50000000  1
  Ca  Ca4  1  0.26334400  0.68568200  0.00000000  1
  Ca  Ca5  1  0.18568200  0.76334400  0.50000000  1
  Ca  Ca6  1  0.76334400  0.81431800  0.50000000  1
  Ca  Ca7  1  0.31431800  0.26334400  0.00000000  1
  Ca  Ca8  1  0.81431800  0.23665600  0.50000000  1
  Ca  Ca9  1  0.73665600  0.31431800  0.00000000  1
  Si  Si10  1  0.55070300  0.70203100  0.24163900  1
  Si  Si11  1  0.79796900  0.94929700  0.25836100  1
  Si  Si12  1  0.70203100  0.44929700  0.24163900  1
  Si  Si13  1  0.05070300  0.79796900  0.74163900  1
  Si  Si14  1  0.79796900  0.94929700  0.74163900  1
  Si  Si15  1  0.70203100  0.44929700  0.75836100  1
  Si  Si16  1  0.94929700  0.20203100  0.25836100  1
  Si  Si17  1  0.55070300  0.70203100  0.75836100  1
  Si  Si18  1  0.20203100  0.05070300  0.74163900  1
  Si  Si19  1  0.94929700  0.20203100  0.74163900  1
  Si  Si20  1  0.20203100  0.05070300  0.25836100  1
  Si  Si21  1  0.44929700  0.29796900  0.75836100  1
  Si  Si22  1  0.05070300  0.79796900  0.25836100  1
  Si  Si23  1  0.29796900  0.55070300  0.75836100  1
  Si  Si24  1  0.29796900  0.55070300  0.24163900  1
  Si  Si25  1  0.44929700  0.29796900  0.24163900  1
  H  H26  1  0.85658800  0.49500200  0.62005000  1
  H  H27  1  0.49500200  0.14341200  0.37995000  1
  H  H28  1  0.40576400  0.69972200  0.47030300  1
  H  H29  1  0.35658800  0.00499800  0.87995000  1
  H  H30  1  0.80027800  0.09423600  0.02969700  1
  H  H31  1  0.90576400  0.80027800  0.02969700  1
  H  H32  1  0.49500200  0.14341200  0.62005000  1
  H  H33  1  0.59423600  0.30027800  0.47030300  1
  H  H34  1  0.50499800  0.85658800  0.62005000  1
  H  H35  1  0.80027800  0.09423600  0.97030300  1
  H  H36  1  0.14341200  0.50499800  0.37995000  1
  H  H37  1  0.19972200  0.90576400  0.97030300  1
  H  H38  1  0.00499800  0.64341200  0.12005000  1
  H  H39  1  0.69972200  0.59423600  0.52969700  1
  H  H40  1  0.09423600  0.19972200  0.97030300  1
  H  H41  1  0.35658800  0.00499800  0.12005000  1
  H  H42  1  0.90576400  0.80027800  0.97030300  1
  H  H43  1  0.30027800  0.40576400  0.47030300  1
  H  H44  1  0.99500200  0.35658800  0.87995000  1
  H  H45  1  0.64341200  0.99500200  0.87995000  1
  H  H46  1  0.85658800  0.49500200  0.37995000  1
  H  H47  1  0.50499800  0.85658800  0.37995000  1
  H  H48  1  0.69972200  0.59423600  0.47030300  1
  H  H49  1  0.14341200  0.50499800  0.62005000  1
  H  H50  1  0.30027800  0.40576400  0.52969700  1
  H  H51  1  0.99500200  0.35658800  0.12005000  1
  H  H52  1  0.64341200  0.99500200  0.12005000  1
  H  H53  1  0.00499800  0.64341200  0.87995000  1
  H  H54  1  0.59423600  0.30027800  0.52969700  1
  H  H55  1  0.40576400  0.69972200  0.52969700  1
  H  H56  1  0.19972200  0.90576400  0.02969700  1
  H  H57  1  0.09423600  0.19972200  0.02969700  1
  O  O58  1  0.03305600  0.78453900  0.38401300  1
  O  O59  1  0.66005000  0.59725900  0.72067800  1
  O  O60  1  0.83995000  0.09725900  0.77932200  1
  O  O61  1  0.70909500  0.92882400  0.12763000  1
  O  O62  1  0.21546100  0.03305600  0.38401300  1
  O  O63  1  0.46694400  0.28453900  0.11598700  1
  O  O64  1  0.20909500  0.57117600  0.62763000  1
  O  O65  1  0.28453900  0.53305600  0.88401300  1
  O  O66  1  0.66005000  0.59725900  0.27932200  1
  O  O67  1  0.92882400  0.29090500  0.12763000  1
  O  O68  1  0.96694400  0.21546100  0.61598700  1
  O  O69  1  0.36274100  0.13725900  0.75000000  1
  O  O70  1  0.71546100  0.46694400  0.88401300  1
  O  O71  1  0.07117600  0.70909500  0.87237000  1
  O  O72  1  0.96694400  0.21546100  0.38401300  1
  O  O73  1  0.13725900  0.63725900  0.75000000  1
  O  O74  1  0.53305600  0.71546100  0.11598700  1
  O  O75  1  0.86274100  0.36274100  0.25000000  1
  O  O76  1  0.36274100  0.13725900  0.25000000  1
  O  O77  1  0.86274100  0.36274100  0.75000000  1
  O  O78  1  0.21546100  0.03305600  0.61598700  1
  O  O79  1  0.40274100  0.66005000  0.72067800  1
  O  O80  1  0.16005000  0.90274100  0.77932200  1
  O  O81  1  0.33995000  0.40274100  0.72067800  1
  O  O82  1  0.83995000  0.09725900  0.22067800  1
  O  O83  1  0.16005000  0.90274100  0.22067800  1
  O  O84  1  0.92882400  0.29090500  0.87237000  1
  O  O85  1  0.03305600  0.78453900  0.61598700  1
  O  O86  1  0.70909500  0.92882400  0.87237000  1
  O  O87  1  0.07117600  0.70909500  0.12763000  1
  O  O88  1  0.29090500  0.07117600  0.87237000  1
  O  O89  1  0.63725900  0.86274100  0.25000000  1
  O  O90  1  0.13725900  0.63725900  0.25000000  1
  O  O91  1  0.40274100  0.66005000  0.27932200  1
  O  O92  1  0.78453900  0.96694400  0.38401300  1
  O  O93  1  0.63725900  0.86274100  0.75000000  1
  O  O94  1  0.79090500  0.42882400  0.62763000  1
  O  O95  1  0.29090500  0.07117600  0.12763000  1
  O  O96  1  0.53305600  0.71546100  0.88401300  1
  O  O97  1  0.20909500  0.57117600  0.37237000  1
  O  O98  1  0.90274100  0.83995000  0.22067800  1
  O  O99  1  0.90274100  0.83995000  0.77932200  1
  O  O100  1  0.42882400  0.20909500  0.37237000  1
  O  O101  1  0.57117600  0.79090500  0.62763000  1
  O  O102  1  0.59725900  0.33995000  0.27932200  1
  O  O103  1  0.71546100  0.46694400  0.11598700  1
  O  O104  1  0.09725900  0.16005000  0.22067800  1
  O  O105  1  0.33995000  0.40274100  0.27932200  1
  O  O106  1  0.09725900  0.16005000  0.77932200  1
  O  O107  1  0.28453900  0.53305600  0.11598700  1
  O  O108  1  0.42882400  0.20909500  0.62763000  1
  O  O109  1  0.59725900  0.33995000  0.72067800  1
  O  O110  1  0.78453900  0.96694400  0.61598700  1
  O  O111  1  0.46694400  0.28453900  0.88401300  1
  O  O112  1  0.57117600  0.79090500  0.37237000  1
  O  O113  1  0.79090500  0.42882400  0.37237000  1
  F  F114  1  0.50000000  0.50000000  0.50000000  1
  F  F115  1  0.00000000  0.00000000  0.00000000  1
