# generated using pymatgen
data_Mo2C8Br8N2O3
_symmetry_space_group_name_H-M   'P 1'
_cell_length_a   11.20310000
_cell_length_b   11.37214300
_cell_length_c   26.24130900
_cell_angle_alpha   90.00000000
_cell_angle_beta   90.00000000
_cell_angle_gamma   90.00000000
_symmetry_Int_Tables_number   1
_chemical_formula_structural   Mo2C8Br8N2O3
_chemical_formula_sum   'Mo8 C32 Br32 N8 O12'
_cell_volume   3343.22818845
_cell_formula_units_Z   4
loop_
 _symmetry_equiv_pos_site_id
 _symmetry_equiv_pos_as_xyz
  1  'x, y, z'
loop_
 _atom_site_type_symbol
 _atom_site_label
 _atom_site_symmetry_multiplicity
 _atom_site_fract_x
 _atom_site_fract_y
 _atom_site_fract_z
 _atom_site_occupancy
  Mo  Mo0  1  0.99553100  0.04316500  0.41134600  1
  Mo  Mo1  1  0.49553100  0.45683500  0.58865400  1
  Mo  Mo2  1  0.50446900  0.95683500  0.91134600  1
  Mo  Mo3  1  0.00446900  0.54316500  0.08865400  1
  Mo  Mo4  1  0.73789500  0.98841900  0.34307200  1
  Mo  Mo5  1  0.23789500  0.51158100  0.65692800  1
  Mo  Mo6  1  0.76210500  0.01158100  0.84307200  1
  Mo  Mo7  1  0.26210500  0.48841900  0.15692800  1
  C  C8  1  0.14350700  0.13388000  0.71747800  1
  C  C9  1  0.64350700  0.36612000  0.28252200  1
  C  C10  1  0.35649300  0.86612000  0.21747800  1
  C  C11  1  0.85649300  0.63388000  0.78252200  1
  C  C12  1  0.18704600  0.02962000  0.73686400  1
  C  C13  1  0.68704600  0.47038000  0.26313600  1
  C  C14  1  0.31295400  0.97038000  0.23686400  1
  C  C15  1  0.81295400  0.52962000  0.76313600  1
  C  C16  1  0.25002500  0.13401500  0.74373600  1
  C  C17  1  0.75002500  0.36598500  0.25626400  1
  C  C18  1  0.24997500  0.86598500  0.24373600  1
  C  C19  1  0.74997500  0.63401500  0.75626400  1
  C  C20  1  0.15870800  0.81361300  0.75280500  1
  C  C21  1  0.65870800  0.68638700  0.24719500  1
  C  C22  1  0.34129200  0.18638700  0.25280500  1
  C  C23  1  0.84129200  0.31361300  0.74719500  1
  C  C24  1  0.79629300  0.00074400  0.60736700  1
  C  C25  1  0.29629300  0.49925600  0.39263300  1
  C  C26  1  0.70370700  0.99925600  0.10736700  1
  C  C27  1  0.20370700  0.50074400  0.89263300  1
  C  C28  1  0.72623700  0.88907200  0.60322500  1
  C  C29  1  0.22623700  0.61092800  0.39677500  1
  C  C30  1  0.77376300  0.11092800  0.10322500  1
  C  C31  1  0.27376300  0.38907200  0.89677500  1
  C  C32  1  0.63623700  0.97819600  0.61991100  1
  C  C33  1  0.13623700  0.52180400  0.38008900  1
  C  C34  1  0.86376300  0.02180400  0.11991100  1
  C  C35  1  0.36376300  0.47819600  0.88008900  1
  C  C36  1  0.69648300  0.95405800  0.55537400  1
  C  C37  1  0.19648300  0.54594200  0.44462600  1
  C  C38  1  0.80351700  0.04594200  0.05537400  1
  C  C39  1  0.30351700  0.45405800  0.94462600  1
  Br  Br40  1  0.94450800  0.87507100  0.34285800  1
  Br  Br41  1  0.44450800  0.62492900  0.65714200  1
  Br  Br42  1  0.55549200  0.12492900  0.84285800  1
  Br  Br43  1  0.05549200  0.37507100  0.15714200  1
  Br  Br44  1  0.89391600  0.16718500  0.33678600  1
  Br  Br45  1  0.39391600  0.33281500  0.66321400  1
  Br  Br46  1  0.60608400  0.83281500  0.83678600  1
  Br  Br47  1  0.10608400  0.66718500  0.16321400  1
  Br  Br48  1  0.92199000  0.19547600  0.47000200  1
  Br  Br49  1  0.42199000  0.30452400  0.52999800  1
  Br  Br50  1  0.57801000  0.80452400  0.97000200  1
  Br  Br51  1  0.07801000  0.69547600  0.02999800  1
  Br  Br52  1  0.98352200  0.88483500  0.47576700  1
  Br  Br53  1  0.48352200  0.61516500  0.52423300  1
  Br  Br54  1  0.51647800  0.11516500  0.97576700  1
  Br  Br55  1  0.01647800  0.38483500  0.02423300  1
  Br  Br56  1  0.20163900  0.08180500  0.39076800  1
  Br  Br57  1  0.70163900  0.41819500  0.60923200  1
  Br  Br58  1  0.29836100  0.91819500  0.89076800  1
  Br  Br59  1  0.79836100  0.58180500  0.10923200  1
  Br  Br60  1  0.65366900  0.81669500  0.38834500  1
  Br  Br61  1  0.15366900  0.68330500  0.61165500  1
  Br  Br62  1  0.84633100  0.18330500  0.88834500  1
  Br  Br63  1  0.34633100  0.31669500  0.11165500  1
  Br  Br64  1  0.60436700  0.12505000  0.38788200  1
  Br  Br65  1  0.10436700  0.37495000  0.61211800  1
  Br  Br66  1  0.89563300  0.87495000  0.88788200  1
  Br  Br67  1  0.39563300  0.62505000  0.11211800  1
  Br  Br68  1  0.69863400  0.98392600  0.25277200  1
  Br  Br69  1  0.19863400  0.51607400  0.74722800  1
  Br  Br70  1  0.80136600  0.01607400  0.75277200  1
  Br  Br71  1  0.30136600  0.48392600  0.24722800  1
  N  N72  1  0.17569500  0.91553200  0.74452400  1
  N  N73  1  0.67569500  0.58446800  0.25547600  1
  N  N74  1  0.32430500  0.08446800  0.24452400  1
  N  N75  1  0.82430500  0.41553200  0.75547600  1
  N  N76  1  0.69327000  0.06496500  0.58515100  1
  N  N77  1  0.19327000  0.43503500  0.41484900  1
  N  N78  1  0.80673000  0.93503500  0.08515100  1
  N  N79  1  0.30673000  0.56496500  0.91484900  1
  O  O80  1  0.18892400  0.04980400  0.03484000  1
  O  O81  1  0.68892400  0.45019600  0.96516000  1
  O  O82  1  0.31107600  0.95019600  0.53484000  1
  O  O83  1  0.81107600  0.54980400  0.46516000  1
  O  O84  1  0.26658400  0.96766000  0.04100100  1
  O  O85  1  0.76658400  0.53234000  0.95899900  1
  O  O86  1  0.23341600  0.03234000  0.54100100  1
  O  O87  1  0.73341600  0.46766000  0.45899900  1
  O  O88  1  0.14645000  0.06617000  0.98983500  1
  O  O89  1  0.64645000  0.43383000  0.01016500  1
  O  O90  1  0.35355000  0.93383000  0.48983500  1
  O  O91  1  0.85355000  0.56617000  0.51016500  1
