# generated using pymatgen
data_Cs2CdBr4
_symmetry_space_group_name_H-M   'P 1'
_cell_length_a   10.25251600
_cell_length_b   8.75757850
_cell_length_c   14.25994565
_cell_angle_alpha   87.92224184
_cell_angle_beta   90.00000000
_cell_angle_gamma   90.00000000
_symmetry_Int_Tables_number   1
_chemical_formula_structural   Cs2CdBr4
_chemical_formula_sum   'Cs8 Cd4 Br16'
_cell_volume   1279.51900508
_cell_formula_units_Z   4
loop_
 _symmetry_equiv_pos_site_id
 _symmetry_equiv_pos_as_xyz
  1  'x, y, z'
loop_
 _atom_site_type_symbol
 _atom_site_label
 _atom_site_symmetry_multiplicity
 _atom_site_fract_x
 _atom_site_fract_y
 _atom_site_fract_z
 _atom_site_occupancy
  Cs  Cs0  1  0.61602300  0.24184800  0.39961600  1
  Cs  Cs1  1  0.38397700  0.75815200  0.60038400  1
  Cs  Cs2  1  0.88397700  0.74184800  0.89961600  1
  Cs  Cs3  1  0.11602300  0.25815200  0.10038400  1
  Cs  Cs4  1  0.48159100  0.23304100  0.81929900  1
  Cs  Cs5  1  0.51840900  0.76695900  0.18070100  1
  Cs  Cs6  1  0.01840900  0.73304100  0.31929900  1
  Cs  Cs7  1  0.98159100  0.26695900  0.68070100  1
  Cd  Cd8  1  0.72060300  0.25150300  0.07641600  1
  Cd  Cd9  1  0.27939700  0.74849700  0.92358400  1
  Cd  Cd10  1  0.77939700  0.75150300  0.57641600  1
  Cd  Cd11  1  0.22060300  0.24849700  0.42358400  1
  Br  Br12  1  0.46776700  0.23912200  0.07968400  1
  Br  Br13  1  0.53223300  0.76087800  0.92031600  1
  Br  Br14  1  0.03223300  0.73912200  0.57968400  1
  Br  Br15  1  0.96776700  0.26087800  0.42031600  1
  Br  Br16  1  0.82287500  0.20138100  0.91117700  1
  Br  Br17  1  0.17712500  0.79861900  0.08882300  1
  Br  Br18  1  0.67712500  0.70138100  0.41117700  1
  Br  Br19  1  0.32287500  0.29861900  0.58882300  1
  Br  Br20  1  0.82134000  0.51302900  0.12811500  1
  Br  Br21  1  0.17866000  0.48697100  0.87188500  1
  Br  Br22  1  0.67866000  0.01302900  0.62811500  1
  Br  Br23  1  0.32134000  0.98697100  0.37188500  1
  Br  Br24  1  0.80804900  0.03490300  0.19385200  1
  Br  Br25  1  0.19195100  0.96509700  0.80614800  1
  Br  Br26  1  0.69195100  0.53490300  0.69385200  1
  Br  Br27  1  0.30804900  0.46509700  0.30614800  1
