# generated using pymatgen
data_Co(N4Cl)2
_symmetry_space_group_name_H-M   'P 1'
_cell_length_a   10.84177300
_cell_length_b   8.61016500
_cell_length_c   11.76450132
_cell_angle_alpha   66.74881062
_cell_angle_beta   90.00000000
_cell_angle_gamma   90.00000000
_symmetry_Int_Tables_number   1
_chemical_formula_structural   Co(N4Cl)2
_chemical_formula_sum   'Co4 N32 Cl8'
_cell_volume   1009.01649324
_cell_formula_units_Z   4
loop_
 _symmetry_equiv_pos_site_id
 _symmetry_equiv_pos_as_xyz
  1  'x, y, z'
loop_
 _atom_site_type_symbol
 _atom_site_label
 _atom_site_symmetry_multiplicity
 _atom_site_fract_x
 _atom_site_fract_y
 _atom_site_fract_z
 _atom_site_occupancy
  Co  Co0  1  0.89981600  0.59362500  0.21621600  1
  Co  Co1  1  0.60018400  0.59362500  0.71621600  1
  Co  Co2  1  0.10018400  0.40637500  0.78378400  1
  Co  Co3  1  0.39981600  0.40637500  0.28378400  1
  N  N4  1  0.98602000  0.11124500  0.35866500  1
  N  N5  1  0.51398000  0.11124500  0.85866500  1
  N  N6  1  0.01398000  0.88875500  0.64133500  1
  N  N7  1  0.48602000  0.88875500  0.14133500  1
  N  N8  1  0.02114500  0.10687900  0.25844100  1
  N  N9  1  0.47885500  0.10687900  0.75844100  1
  N  N10  1  0.97885500  0.89312100  0.74155900  1
  N  N11  1  0.52114500  0.89312100  0.24155900  1
  N  N12  1  0.07146600  0.09849500  0.17579100  1
  N  N13  1  0.42853400  0.09849500  0.67579100  1
  N  N14  1  0.92853400  0.90150500  0.82420900  1
  N  N15  1  0.57146600  0.90150500  0.32420900  1
  N  N16  1  0.75379400  0.62580800  0.22392100  1
  N  N17  1  0.74620600  0.62580800  0.72392100  1
  N  N18  1  0.24620600  0.37419200  0.77607900  1
  N  N19  1  0.25379400  0.37419200  0.27607900  1
  N  N20  1  0.85991000  0.14449300  0.35632400  1
  N  N21  1  0.64009000  0.14449300  0.85632400  1
  N  N22  1  0.14009000  0.85550700  0.64367600  1
  N  N23  1  0.35991000  0.85550700  0.14367600  1
  N  N24  1  0.98889700  0.55745500  0.34428800  1
  N  N25  1  0.51110300  0.55745500  0.84428800  1
  N  N26  1  0.01110300  0.44254500  0.65571200  1
  N  N27  1  0.48889700  0.44254500  0.15571200  1
  N  N28  1  0.95156700  0.55972400  0.10286600  1
  N  N29  1  0.54843300  0.55972400  0.60286600  1
  N  N30  1  0.04843300  0.44027600  0.89713400  1
  N  N31  1  0.45156700  0.44027600  0.39713400  1
  N  N32  1  0.83212700  0.15784200  0.45522700  1
  N  N33  1  0.66787300  0.15784200  0.95522700  1
  N  N34  1  0.16787300  0.84215800  0.54477300  1
  N  N35  1  0.33212700  0.84215800  0.04477300  1
  Cl  Cl36  1  0.67605900  0.20404100  0.45551700  1
  Cl  Cl37  1  0.82394100  0.20404100  0.95551700  1
  Cl  Cl38  1  0.32394100  0.79595900  0.54448300  1
  Cl  Cl39  1  0.17605900  0.79595900  0.04448300  1
  Cl  Cl40  1  0.61413200  0.53226400  0.09751500  1
  Cl  Cl41  1  0.88586800  0.53226400  0.59751500  1
  Cl  Cl42  1  0.38586800  0.46773600  0.90248500  1
  Cl  Cl43  1  0.11413200  0.46773600  0.40248500  1
