# generated using pymatgen
data_Ba2ZrC8O19
_symmetry_space_group_name_H-M   'P 1'
_cell_length_a   8.86767500
_cell_length_b   9.20871042
_cell_length_c   15.61472062
_cell_angle_alpha   100.31015011
_cell_angle_beta   99.30035502
_cell_angle_gamma   114.15640175
_symmetry_Int_Tables_number   1
_chemical_formula_structural   Ba2ZrC8O19
_chemical_formula_sum   'Ba4 Zr2 C16 O38'
_cell_volume   1104.78641161
_cell_formula_units_Z   2
loop_
 _symmetry_equiv_pos_site_id
 _symmetry_equiv_pos_as_xyz
  1  'x, y, z'
loop_
 _atom_site_type_symbol
 _atom_site_label
 _atom_site_symmetry_multiplicity
 _atom_site_fract_x
 _atom_site_fract_y
 _atom_site_fract_z
 _atom_site_occupancy
  Ba  Ba0  1  0.02377600  0.77468300  0.05282700  1
  Ba  Ba1  1  0.97622400  0.22531700  0.94717300  1
  Ba  Ba2  1  0.76555000  0.51606300  0.52958800  1
  Ba  Ba3  1  0.23445000  0.48393700  0.47041200  1
  Zr  Zr4  1  0.61317200  0.86515500  0.22855700  1
  Zr  Zr5  1  0.38682800  0.13484500  0.77144300  1
  C  C6  1  0.72553200  0.10075100  0.10612600  1
  C  C7  1  0.37814500  0.50502800  0.10748600  1
  C  C8  1  0.27446800  0.89924900  0.89387400  1
  C  C9  1  0.62185500  0.49497200  0.89251400  1
  C  C10  1  0.84660800  0.01773200  0.11293500  1
  C  C11  1  0.26383000  0.59532300  0.11425200  1
  C  C12  1  0.15339200  0.98226800  0.88706500  1
  C  C13  1  0.73617000  0.40467700  0.88574800  1
  C  C14  1  0.58916200  0.14656100  0.35738300  1
  C  C15  1  0.76675300  0.71074400  0.35611100  1
  C  C16  1  0.41083800  0.85343900  0.64261700  1
  C  C17  1  0.23324700  0.28925600  0.64388900  1
  C  C18  1  0.78400000  0.20070700  0.37327700  1
  C  C19  1  0.58870000  0.67380000  0.37323700  1
  C  C20  1  0.21600000  0.79929300  0.62672300  1
  C  C21  1  0.41130000  0.32620000  0.62676300  1
  O  O22  1  0.74899500  0.20420700  0.06236800  1
  O  O23  1  0.31084900  0.35778200  0.06402900  1
  O  O24  1  0.25100500  0.79579300  0.93763200  1
  O  O25  1  0.68915100  0.64221800  0.93597100  1
  O  O26  1  0.97386800  0.06398200  0.08191500  1
  O  O27  1  0.10583300  0.51745600  0.08292200  1
  O  O28  1  0.02613200  0.93601800  0.91808500  1
  O  O29  1  0.89416700  0.48254400  0.91707800  1
  O  O30  1  0.80331700  0.89879400  0.15108900  1
  O  O31  1  0.34456200  0.75253400  0.15192900  1
  O  O32  1  0.19668300  0.10120600  0.84891100  1
  O  O33  1  0.65543800  0.24746600  0.84807100  1
  O  O34  1  0.61006200  0.04653900  0.14888600  1
  O  O35  1  0.53638000  0.60228000  0.14961000  1
  O  O36  1  0.38993800  0.95346100  0.85111400  1
  O  O37  1  0.46362000  0.39772000  0.85039000  1
  O  O38  1  0.49617000  0.00540000  0.30014900  1
  O  O39  1  0.80268100  0.79597200  0.29938100  1
  O  O40  1  0.50383000  0.99460000  0.69985100  1
  O  O41  1  0.19731900  0.20402800  0.70061900  1
  O  O42  1  0.82558600  0.10147700  0.32648900  1
  O  O43  1  0.50014700  0.72680700  0.32724900  1
  O  O44  1  0.17441400  0.89852300  0.67351100  1
  O  O45  1  0.49985300  0.27319300  0.67275100  1
  O  O46  1  0.88769400  0.33578700  0.43010100  1
  O  O47  1  0.54310700  0.59582400  0.43040800  1
  O  O48  1  0.11230600  0.66421300  0.56989900  1
  O  O49  1  0.45689300  0.40417600  0.56959200  1
  O  O50  1  0.54035000  0.23958600  0.39994600  1
  O  O51  1  0.85708000  0.65821400  0.39745600  1
  O  O52  1  0.45965000  0.76041400  0.60005400  1
  O  O53  1  0.14292000  0.34178600  0.60254400  1
  O  O54  1  0.34344200  0.10613400  0.12637200  1
  O  O55  1  0.78155100  0.52404800  0.12679700  1
  O  O56  1  0.65655800  0.89386600  0.87362800  1
  O  O57  1  0.21844900  0.47595200  0.87320300  1
  O  O58  1  0.12082600  0.87895500  0.25626800  1
  O  O59  1  0.87917400  0.12104500  0.74373200  1
