# generated using pymatgen
data_B24N4O
_symmetry_space_group_name_H-M   'P 1'
_cell_length_a   5.83847000
_cell_length_b   9.16937400
_cell_length_c   16.52476200
_cell_angle_alpha   90.00000000
_cell_angle_beta   90.00000000
_cell_angle_gamma   90.00000000
_symmetry_Int_Tables_number   1
_chemical_formula_structural   B24N4O
_chemical_formula_sum   'B96 N16 O4'
_cell_volume   884.65503431
_cell_formula_units_Z   4
loop_
 _symmetry_equiv_pos_site_id
 _symmetry_equiv_pos_as_xyz
  1  'x, y, z'
loop_
 _atom_site_type_symbol
 _atom_site_label
 _atom_site_symmetry_multiplicity
 _atom_site_fract_x
 _atom_site_fract_y
 _atom_site_fract_z
 _atom_site_occupancy
  B  B0  1  0.18165500  0.67047100  0.80182400  1
  B  B1  1  0.68165500  0.32952900  0.19817600  1
  B  B2  1  0.68165500  0.17047100  0.69817600  1
  B  B3  1  0.18165500  0.82952900  0.30182400  1
  B  B4  1  0.84605300  0.70389500  0.79027100  1
  B  B5  1  0.34605300  0.29610500  0.20972900  1
  B  B6  1  0.34605300  0.20389500  0.70972900  1
  B  B7  1  0.84605300  0.79610500  0.29027100  1
  B  B8  1  0.02993900  0.62880000  0.71212800  1
  B  B9  1  0.52993900  0.37120000  0.28787200  1
  B  B10  1  0.52993900  0.12880000  0.78787200  1
  B  B11  1  0.02993900  0.87120000  0.21212800  1
  B  B12  1  0.29939900  0.66104500  0.67908400  1
  B  B13  1  0.79939900  0.33895500  0.32091600  1
  B  B14  1  0.79939900  0.16104500  0.82091600  1
  B  B15  1  0.29939900  0.83895500  0.17908400  1
  B  B16  1  0.29937900  0.85248600  0.80658700  1
  B  B17  1  0.79937900  0.14751400  0.19341300  1
  B  B18  1  0.79937900  0.35248600  0.69341300  1
  B  B19  1  0.29937900  0.64751400  0.30658700  1
  B  B20  1  0.02796800  0.81295000  0.84338600  1
  B  B21  1  0.52796800  0.18705000  0.15661400  1
  B  B22  1  0.52796800  0.31295000  0.65661400  1
  B  B23  1  0.02796800  0.68705000  0.34338600  1
  B  B24  1  0.78284700  0.73844100  0.69383500  1
  B  B25  1  0.28284700  0.26155900  0.30616500  1
  B  B26  1  0.28284700  0.23844100  0.80616500  1
  B  B27  1  0.78284700  0.76155900  0.19383500  1
  B  B28  1  0.01578000  0.77792300  0.62766700  1
  B  B29  1  0.51578000  0.22207700  0.37233300  1
  B  B30  1  0.51578000  0.27792300  0.87233300  1
  B  B31  1  0.01578000  0.72207700  0.12766700  1
  B  B32  1  0.25245800  0.89707300  0.64827400  1
  B  B33  1  0.75245800  0.10292700  0.35172600  1
  B  B34  1  0.75245800  0.39707300  0.85172600  1
  B  B35  1  0.25245800  0.60292700  0.14827400  1
  B  B36  1  0.09110200  0.98801800  0.81585800  1
  B  B37  1  0.59110200  0.01198200  0.18414200  1
  B  B38  1  0.59110200  0.48801800  0.68414200  1
  B  B39  1  0.09110200  0.51198200  0.31585800  1
  B  B40  1  0.83891900  0.89933000  0.77397300  1
  B  B41  1  0.33891900  0.10067000  0.22602700  1
  B  B42  1  0.33891900  0.39933000  0.72602700  1
  B  B43  1  0.83891900  0.60067000  0.27397300  1
  B  B44  1  0.91032600  0.93531400  0.67693700  1
  B  B45  1  0.41032600  0.06468600  0.32306300  1
  B  B46  1  0.41032600  0.43531400  0.82306300  1
  B  B47  1  0.91032600  0.56468600  0.17693700  1
  B  B48  1  0.17948500  0.41782500  0.59476900  1
  B  B49  1  0.67948500  0.58217500  0.40523100  1
  B  B50  1  0.67948500  0.91782500  0.90523100  1
  B  B51  1  0.17948500  0.08217500  0.09476900  1
  B  B52  1  0.40206700  0.29212100  0.56290700  1
  B  B53  1  0.90206700  0.70787900  0.43709300  1
  B  B54  1  0.90206700  0.79212100  0.93709300  1
  B  B55  1  0.40206700  0.20787900  0.06290700  1
  B  B56  1  0.19032900  0.22038000  0.62551300  1
  B  B57  1  0.69032900  0.77962000  0.37448700  1
  B  B58  1  0.69032900  0.72038000  0.87448700  1
  B  B59  1  0.19032900  0.27962000  0.12551300  1
  B  B60  1  0.94384100  0.32294900  0.60816700  1
  B  B61  1  0.44384100  0.67705100  0.39183300  1
  B  B62  1  0.44384100  0.82294900  0.89183300  1
  B  B63  1  0.94384100  0.17705100  0.10816700  1
  B  B64  1  0.97326000  0.44088500  0.52150700  1
  B  B65  1  0.47326000  0.55911500  0.47849300  1
  B  B66  1  0.47326000  0.94088500  0.97849300  1
  B  B67  1  0.97326000  0.05911500  0.02150700  1
  B  B68  1  0.28914600  0.42066500  0.49688700  1
  B  B69  1  0.78914600  0.57933500  0.50311300  1
  B  B70  1  0.78914600  0.92066500  0.00311300  1
  B  B71  1  0.28914600  0.07933500  0.99688700  1
  B  B72  1  0.26119100  0.10266200  0.54658200  1
  B  B73  1  0.76119100  0.89733800  0.45341800  1
  B  B74  1  0.76119100  0.60266200  0.95341800  1
  B  B75  1  0.26119100  0.39733800  0.04658200  1
  B  B76  1  0.95724800  0.13841700  0.57960000  1
  B  B77  1  0.45724800  0.86158300  0.42040000  1
  B  B78  1  0.45724800  0.63841700  0.92040000  1
  B  B79  1  0.95724800  0.36158300  0.07960000  1
  B  B80  1  0.87085800  0.27129300  0.51352300  1
  B  B81  1  0.37085800  0.72870700  0.48647700  1
  B  B82  1  0.37085800  0.77129300  0.98647700  1
  B  B83  1  0.87085800  0.22870700  0.01352300  1
  B  B84  1  0.08017000  0.32293900  0.44022400  1
  B  B85  1  0.58017000  0.67706100  0.55977600  1
  B  B86  1  0.58017000  0.82293900  0.05977600  1
  B  B87  1  0.08017000  0.17706100  0.94022400  1
  B  B88  1  0.35532200  0.23433600  0.46459600  1
  B  B89  1  0.85532200  0.76566400  0.53540400  1
  B  B90  1  0.85532200  0.73433600  0.03540400  1
  B  B91  1  0.35532200  0.26566400  0.96459600  1
  B  B92  1  0.01950100  0.12853600  0.47253800  1
  B  B93  1  0.51950100  0.87146400  0.52746200  1
  B  B94  1  0.51950100  0.62853600  0.02746200  1
  B  B95  1  0.01950100  0.37146400  0.97253800  1
  N  N96  1  0.31343700  0.56356500  0.85630000  1
  N  N97  1  0.81343700  0.43643500  0.14370000  1
  N  N98  1  0.81343700  0.06356500  0.64370000  1
  N  N99  1  0.31343700  0.93643500  0.35630000  1
  N  N100  1  0.56058000  0.64886700  0.65717200  1
  N  N101  1  0.06058000  0.35113300  0.34282800  1
  N  N102  1  0.06058000  0.14886700  0.84282800  1
  N  N103  1  0.56058000  0.85113300  0.15717200  1
  N  N104  1  0.19156900  0.50823100  0.67266800  1
  N  N105  1  0.69156900  0.49176900  0.32733200  1
  N  N106  1  0.69156900  0.00823100  0.82733200  1
  N  N107  1  0.19156900  0.99176900  0.17266800  1
  N  N108  1  0.36801800  0.96462900  0.57801600  1
  N  N109  1  0.86801800  0.03537100  0.42198400  1
  N  N110  1  0.86801800  0.46462900  0.92198400  1
  N  N111  1  0.36801800  0.53537100  0.07801600  1
  O  O112  1  0.85895400  0.40495000  0.77545600  1
  O  O113  1  0.35895400  0.59505000  0.22454400  1
  O  O114  1  0.35895400  0.90495000  0.72454400  1
  O  O115  1  0.85895400  0.09505000  0.27545600  1
