# generated using pymatgen
data_B9C
_symmetry_space_group_name_H-M   'P 1'
_cell_length_a   11.60926824
_cell_length_b   11.60926824
_cell_length_c   11.60926824
_cell_angle_alpha   98.14799840
_cell_angle_beta   98.14799840
_cell_angle_gamma   135.76945915
_symmetry_Int_Tables_number   1
_chemical_formula_structural   B9C
_chemical_formula_sum   'B9 C1'
_cell_volume   1011.11354690
_cell_formula_units_Z   1
loop_
 _symmetry_equiv_pos_site_id
 _symmetry_equiv_pos_as_xyz
  1  'x, y, z'
loop_
 _atom_site_type_symbol
 _atom_site_label
 _atom_site_symmetry_multiplicity
 _atom_site_fract_x
 _atom_site_fract_y
 _atom_site_fract_z
 _atom_site_occupancy
  B  B0  1  0.00000000  0.55310500  0.55310500  1
  B  B1  1  0.00000000  0.44689500  0.44689500  1
  B  B2  1  0.44689500  0.00000000  0.44689500  1
  B  B3  1  0.55310500  0.00000000  0.55310500  1
  B  B4  1  0.65828800  0.15828800  0.50000000  1
  B  B5  1  0.34171200  0.84171200  0.50000000  1
  B  B6  1  0.84171200  0.34171200  0.50000000  1
  B  B7  1  0.15828800  0.65828800  0.50000000  1
  B  B8  1  0.00000000  0.00000000  0.00000000  1
  C  C9  1  0.50000000  0.50000000  0.00000000  1
