# generated using pymatgen
data_K5Cr10F31
_symmetry_space_group_name_H-M   'P 1'
_cell_length_a   7.80173321
_cell_length_b   11.68381942
_cell_length_c   31.89405330
_cell_angle_alpha   87.69235595
_cell_angle_beta   82.99074239
_cell_angle_gamma   70.48124150
_symmetry_Int_Tables_number   1
_chemical_formula_structural   K5Cr10F31
_chemical_formula_sum   'K20 Cr40 F124'
_cell_volume   2719.71781077
_cell_formula_units_Z   4
loop_
 _symmetry_equiv_pos_site_id
 _symmetry_equiv_pos_as_xyz
  1  'x, y, z'
loop_
 _atom_site_type_symbol
 _atom_site_label
 _atom_site_symmetry_multiplicity
 _atom_site_fract_x
 _atom_site_fract_y
 _atom_site_fract_z
 _atom_site_occupancy
  K  K0  1  0.24375775  0.01573162  0.49663144  1
  K  K1  1  0.25828316  0.48844590  0.99545164  1
  K  K2  1  0.83862284  0.52851270  0.79470717  1
  K  K3  1  0.56412201  0.48203559  0.39329738  1
  K  K4  1  0.14909285  0.00216345  0.69933609  1
  K  K5  1  0.36795929  0.96074656  0.29973445  1
  K  K6  1  0.65486091  0.49219990  0.19307735  1
  K  K7  1  0.03450728  0.04113691  0.88626348  1
  K  K8  1  0.15831272  0.47296349  0.20471944  1
  K  K9  1  0.84703923  0.00071408  0.30093907  1
  K  K10  1  0.07623018  0.46937894  0.37820313  1
  K  K11  1  0.34267899  0.50805583  0.80690770  1
  K  K12  1  0.92078169  0.53279817  0.62177378  1
  K  K13  1  0.62914923  0.03914346  0.69986726  1
  K  K14  1  0.55645186  0.00026249  0.88815434  1
  K  K15  1  0.75541974  0.98351455  0.50300280  1
  K  K16  1  0.74359277  0.51069480  0.00530495  1
  K  K17  1  0.43381529  0.51945463  0.60689968  1
  K  K18  1  0.44493822  0.99947611  0.11155837  1
  K  K19  1  0.96152294  0.96384987  0.11362209  1
  Cr  Cr20  1  0.74551773  0.21360983  0.79448007  1
  Cr  Cr21  1  0.61755551  0.36880559  0.90567400  1
  Cr  Cr22  1  0.95732875  0.28942024  0.29332239  1
  Cr  Cr23  1  0.77013149  0.65250350  0.30182676  1
  Cr  Cr24  1  0.57604801  0.14641236  0.19911179  1
  Cr  Cr25  1  0.45447439  0.69165152  0.90203929  1
  Cr  Cr26  1  0.04621910  0.30752658  0.09815419  1
  Cr  Cr27  1  0.32980878  0.83077421  0.01238490  1
  Cr  Cr28  1  0.38276248  0.63482007  0.09390278  1
  Cr  Cr29  1  0.88570753  0.63395274  0.09409197  1
  Cr  Cr30  1  0.27548209  0.65059570  0.30168743  1
  Cr  Cr31  1  0.33999442  0.33116666  0.48743069  1
  Cr  Cr32  1  0.54476371  0.30803786  0.09794320  1
  Cr  Cr33  1  0.51661367  0.87201993  0.59514809  1
  Cr  Cr34  1  0.07437652  0.14668277  0.19926588  1
  Cr  Cr35  1  0.35144289  0.19480220  0.59783745  1
  Cr  Cr36  1  0.95233757  0.69305609  0.90178563  1
  Cr  Cr37  1  0.15891105  0.67003629  0.51245001  1
  Cr  Cr38  1  0.17172975  0.17071392  0.98792597  1
  Cr  Cr39  1  0.84120307  0.33017399  0.48737724  1
  Cr  Cr40  1  0.22794403  0.34979915  0.69856059  1
  Cr  Cr41  1  0.04071964  0.71249811  0.70649080  1
  Cr  Cr42  1  0.92272959  0.85196691  0.80093731  1
  Cr  Cr43  1  0.42146688  0.85240080  0.80106463  1
  Cr  Cr44  1  0.45891357  0.28734724  0.29322379  1
  Cr  Cr45  1  0.11553058  0.36702185  0.90571353  1
  Cr  Cr46  1  0.64797534  0.80522224  0.40213367  1
  Cr  Cr47  1  0.24541823  0.21441423  0.79448984  1
  Cr  Cr48  1  0.72311820  0.34994410  0.69842278  1
  Cr  Cr49  1  0.75194895  0.78651822  0.20542918  1
  Cr  Cr50  1  0.14513974  0.80621769  0.40194229  1
  Cr  Cr51  1  0.48330387  0.12991628  0.40497801  1
  Cr  Cr52  1  0.85402227  0.19424146  0.59772222  1
  Cr  Cr53  1  0.98232710  0.12996798  0.40471265  1
  Cr  Cr54  1  0.25242653  0.78717828  0.20536843  1
  Cr  Cr55  1  0.65936229  0.66947782  0.51264711  1
  Cr  Cr56  1  0.82938444  0.83080920  0.01223509  1
  Cr  Cr57  1  0.67095098  0.17061703  0.98796521  1
  Cr  Cr58  1  0.01781872  0.87274396  0.59522355  1
  Cr  Cr59  1  0.53938190  0.71318802  0.70657903  1
  F  F60  1  0.76628546  0.85829723  0.07210738  1
  F  F61  1  0.34739431  0.30789661  0.54906660  1
  F  F62  1  0.30244064  0.00120750  0.00093546  1
  F  F63  1  0.07589681  0.64835425  0.76234003  1
  F  F64  1  0.19481943  0.50099876  0.49924330  1
  F  F65  1  0.39085821  0.82069051  0.39857301  1
  F  F66  1  0.10087161  0.90898663  0.35364052  1
  F  F67  1  0.69795295  0.00059173  0.00004667  1
  F  F68  1  0.89290780  0.70778304  0.50690974  1
  F  F69  1  0.15546692  0.86082030  0.25953158  1
  F  F70  1  0.42521954  0.63244185  0.51753975  1
  F  F71  1  0.63013331  0.16336543  0.13422454  1
  F  F72  1  0.37279988  0.68958786  0.15493597  1
  F  F73  1  0.08279252  0.13188573  0.26390199  1
  F  F74  1  0.65931743  0.64290017  0.57260423  1
  F  F75  1  0.89348960  0.16226860  0.47411229  1
  F  F76  1  0.63808487  0.90556911  0.35329823  1
  F  F77  1  0.89611498  0.09091651  0.64595689  1
  F  F78  1  0.18213449  0.37156664  0.76331452  1
  F  F79  1  0.83547253  0.44236900  0.32218069  1
  F  F80  1  0.76577896  0.88607907  0.58438545  1
  F  F81  1  0.53715169  0.55306501  0.93799245  1
  F  F82  1  0.36663666  0.83596123  0.86582859  1
  F  F83  1  0.88526436  0.33986776  0.89605940  1
  F  F84  1  0.53149343  0.83769630  0.52580545  1
  F  F85  1  0.56746323  0.80281873  0.65459091  1
  F  F86  1  0.43251981  0.19792022  0.34543145  1
  F  F87  1  0.90829578  0.77871295  0.40593473  1
  F  F88  1  0.80684067  0.67481139  0.71089039  1
  F  F89  1  0.48235864  0.35232335  0.23737010  1
  F  F90  1  0.47713754  0.87030800  0.73645644  1
  F  F91  1  0.10807971  0.83767155  0.52585345  1
  F  F92  1  0.50721119  0.19909643  0.78564628  1
  F  F93  1  0.47009610  0.16310408  0.47436453  1
  F  F94  1  0.26486903  0.86481698  0.60749980  1
  F  F95  1  0.10771118  0.29143538  0.49259334  1
  F  F96  1  0.31458012  0.27032375  0.09733943  1
  F  F97  1  0.27521701  0.14421496  0.73967152  1
  F  F98  1  0.75053558  0.34158616  0.63324985  1
  F  F99  1  0.20944663  0.69580629  0.45115008  1
  F  F100  1  0.94109771  0.13602481  0.98323939  1
  F  F101  1  0.80306594  0.49969908  0.50010323  1
  F  F102  1  0.64835003  0.69350599  0.45116637  1
  F  F103  1  0.06096104  0.33904404  0.97409722  1
  F  F104  1  0.42231586  0.05317004  0.56244355  1
  F  F105  1  0.72395508  0.25135613  0.29914551  1
  F  F106  1  0.27168590  0.34209313  0.63336113  1
  F  F107  1  0.01096583  0.59033107  0.85357575  1
  F  F108  1  0.92088611  0.35501324  0.23775256  1
  F  F109  1  0.72031162  0.86021994  0.25961376  1
  F  F110  1  0.59895479  0.56053954  0.67751208  1
  F  F111  1  0.96175791  0.05284825  0.56222605  1
  F  F112  1  0.84116574  0.14213592  0.73990342  1
  F  F113  1  0.89751605  0.80688200  0.95063628  1
  F  F114  1  0.23569624  0.14224762  0.92810348  1
  F  F115  1  0.31033931  0.06182847  0.82470600  1
  F  F116  1  0.98072763  0.23293599  0.80522390  1
  F  F117  1  0.16231753  0.87944113  0.79325503  1
  F  F118  1  0.12313598  0.64216676  0.57220361  1
  F  F119  1  0.06648958  0.16307343  0.13436030  1
  F  F120  1  0.34993047  0.39155114  0.91503072  1
  F  F121  1  0.21600739  0.66595512  0.90306982  1
  F  F122  1  0.63061464  0.33855952  0.97448264  1
  F  F123  1  0.19959308  0.93868163  0.17457603  1
  F  F124  1  0.19272340  0.32448769  0.28837262  1
  F  F125  1  0.73391342  0.13923941  0.39304875  1
  F  F126  1  0.39961514  0.20845934  0.99351842  1
  F  F127  1  0.62757671  0.30978179  0.84521956  1
  F  F128  1  0.65404204  0.19312908  0.04956758  1
  F  F129  1  0.57365751  0.94751949  0.43731742  1
  F  F130  1  0.49876895  0.30337254  0.69883849  1
  F  F131  1  0.10148958  0.19414901  0.04938836  1
  F  F132  1  0.93984634  0.66204294  0.02557935  1
  F  F133  1  0.45132739  0.41357043  0.14541421  1
  F  F134  1  0.11613006  0.66107958  0.10328639  1
  F  F135  1  0.80167486  0.06115184  0.82466429  1
  F  F136  1  0.09027503  0.22188301  0.59514107  1
  F  F137  1  0.87699381  0.35647538  0.42744386  1
  F  F138  1  0.39887505  0.43999078  0.32230738  1
  F  F139  1  0.68439387  0.72917281  0.90259981  1
  F  F140  1  0.68580304  0.93811233  0.17467910  1
  F  F141  1  0.03861770  0.94821185  0.43709964  1
  F  F142  1  0.27369603  0.75133980  0.70055957  1
  F  F143  1  0.97740920  0.79832971  0.65375952  1
  F  F144  1  0.61049468  0.17739384  0.59938659  1
  F  F145  1  0.83401960  0.12089682  0.20738638  1
  F  F146  1  0.60016286  0.79438949  0.00745797  1
  F  F147  1  0.46457649  0.44652918  0.06184217  1
  F  F148  1  0.95981038  0.38399096  0.69581747  1
  F  F149  1  0.02476300  0.44634517  0.06222160  1
  F  F150  1  0.97460294  0.55328993  0.93720175  1
  F  F151  1  0.34917061  0.80625798  0.95078096  1
  F  F152  1  0.57368570  0.36910202  0.48297051  1
  F  F153  1  0.30624471  0.85660100  0.07241072  1
  F  F154  1  0.51356208  0.64759730  0.76225264  1
  F  F155  1  0.79300901  0.30627308  0.54884275  1
  F  F156  1  0.91350705  0.86964026  0.73609608  1
  F  F157  1  0.02232310  0.20255790  0.34581903  1
  F  F158  1  0.50005116  0.69588441  0.30206420  1
  F  F159  1  0.68174836  0.37063247  0.76316655  1
  F  F160  1  0.16491516  0.55934216  0.67789671  1
  F  F161  1  0.78346650  0.33344815  0.09653830  1
  F  F162  1  0.73175559  0.65709156  0.36709435  1
  F  F163  1  0.65079545  0.61049112  0.08490414  1
  F  F164  1  0.68198120  0.82371168  0.80972175  1
  F  F165  1  0.33956589  0.35771045  0.42749755  1
  F  F166  1  0.49065522  0.80048488  0.21485972  1
  F  F167  1  0.54847300  0.58519390  0.85467853  1
  F  F168  1  0.23576026  0.11361275  0.41525055  1
  F  F169  1  0.05989579  0.86546461  0.01710556  1
  F  F170  1  0.69325752  0.14254544  0.92818591  1
  F  F171  1  0.92747575  0.83867666  0.86599842  1
  F  F172  1  0.98721893  0.41166057  0.14593370  1
  F  F173  1  0.52203637  0.12965054  0.26380507  1
  F  F174  1  0.22039717  0.31202653  0.84479492  1
  F  F175  1  0.37131841  0.66236744  0.02547442  1
  F  F176  1  0.31434571  0.63075456  0.23699714  1
  F  F177  1  0.24666369  0.65770407  0.36690993  1
  F  F178  1  0.31784396  0.16997897  0.19023243  1
  F  F179  1  0.03725193  0.62022098  0.30400120  1
  F  F180  1  0.36500836  0.09224239  0.64623079  1
  F  F181  1  0.81342310  0.63077088  0.23724701  1
  F  F182  1  0.01694391  0.76790915  0.19483021  1
  F  F183  1  0.78161991  0.68652122  0.15538800  1
