# generated using pymatgen
data_Ba3LaIr2O9
_symmetry_space_group_name_H-M   'P 1'
_cell_length_a   6.02557386
_cell_length_b   6.02557386
_cell_length_c   15.16903700
_cell_angle_alpha   90.00000000
_cell_angle_beta   90.00000000
_cell_angle_gamma   119.99999851
_symmetry_Int_Tables_number   1
_chemical_formula_structural   Ba3LaIr2O9
_chemical_formula_sum   'Ba6 La2 Ir4 O18'
_cell_volume   476.96386519
_cell_formula_units_Z   2
loop_
 _symmetry_equiv_pos_site_id
 _symmetry_equiv_pos_as_xyz
  1  'x, y, z'
loop_
 _atom_site_type_symbol
 _atom_site_label
 _atom_site_symmetry_multiplicity
 _atom_site_fract_x
 _atom_site_fract_y
 _atom_site_fract_z
 _atom_site_occupancy
  Ba  Ba0  1  0.00000000  0.00000000  0.75000000  1
  Ba  Ba1  1  0.00000000  0.00000000  0.25000000  1
  Ba  Ba2  1  0.66666700  0.33333300  0.60259200  1
  Ba  Ba3  1  0.33333300  0.66666700  0.39740800  1
  Ba  Ba4  1  0.33333300  0.66666700  0.10259200  1
  Ba  Ba5  1  0.66666700  0.33333300  0.89740800  1
  La  La6  1  0.00000000  0.00000000  0.50000000  1
  La  La7  1  0.00000000  0.00000000  0.00000000  1
  Ir  Ir8  1  0.66666700  0.33333300  0.33331600  1
  Ir  Ir9  1  0.33333300  0.66666700  0.66668400  1
  Ir  Ir10  1  0.33333300  0.66666700  0.83331600  1
  Ir  Ir11  1  0.66666700  0.33333300  0.16668400  1
  O  O12  1  0.01867300  0.50933600  0.75000000  1
  O  O13  1  0.49066400  0.50933600  0.75000000  1
  O  O14  1  0.49066400  0.98132700  0.75000000  1
  O  O15  1  0.98132700  0.49066400  0.25000000  1
  O  O16  1  0.50933600  0.49066400  0.25000000  1
  O  O17  1  0.50933600  0.01867300  0.25000000  1
  O  O18  1  0.17890600  0.35781100  0.59241600  1
  O  O19  1  0.64218900  0.82109400  0.59241600  1
  O  O20  1  0.17890600  0.82109400  0.59241600  1
  O  O21  1  0.82109400  0.64218900  0.40758400  1
  O  O22  1  0.35781100  0.17890600  0.40758400  1
  O  O23  1  0.82109400  0.17890600  0.40758400  1
  O  O24  1  0.82109400  0.64218900  0.09241600  1
  O  O25  1  0.35781100  0.17890600  0.09241600  1
  O  O26  1  0.82109400  0.17890600  0.09241600  1
  O  O27  1  0.17890600  0.35781100  0.90758400  1
  O  O28  1  0.64218900  0.82109400  0.90758400  1
  O  O29  1  0.17890600  0.82109400  0.90758400  1
