# generated using pymatgen
data_Ba(H8O5)2
_symmetry_space_group_name_H-M   'P 1'
_cell_length_a   6.57358900
_cell_length_b   6.72126295
_cell_length_c   11.43343790
_cell_angle_alpha   90.96377925
_cell_angle_beta   90.51857090
_cell_angle_gamma   94.32669149
_symmetry_Int_Tables_number   1
_chemical_formula_structural   Ba(H8O5)2
_chemical_formula_sum   'Ba2 H32 O20'
_cell_volume   503.62362689
_cell_formula_units_Z   2
loop_
 _symmetry_equiv_pos_site_id
 _symmetry_equiv_pos_as_xyz
  1  'x, y, z'
loop_
 _atom_site_type_symbol
 _atom_site_label
 _atom_site_symmetry_multiplicity
 _atom_site_fract_x
 _atom_site_fract_y
 _atom_site_fract_z
 _atom_site_occupancy
  Ba  Ba0  1  0.00542000  0.01236100  0.50890600  1
  Ba  Ba1  1  0.99028200  0.98769100  0.00510100  1
  H  H2  1  0.44897800  0.38719200  0.43445200  1
  H  H3  1  0.41316000  0.63913300  0.95337100  1
  H  H4  1  0.60919900  0.77754600  0.63279600  1
  H  H5  1  0.67357900  0.94652000  0.73366100  1
  H  H6  1  0.43579900  0.08705700  0.65028300  1
  H  H7  1  0.39396700  0.31418400  0.62523500  1
  H  H8  1  0.73839600  0.45004000  0.61804200  1
  H  H9  1  0.90004200  0.40605200  0.52332900  1
  H  H10  1  0.05747200  0.59931900  0.65446600  1
  H  H11  1  0.29264100  0.64318700  0.62913100  1
  H  H12  1  0.56996100  0.25513900  0.09446200  1
  H  H13  1  0.58891100  0.07980300  0.00212600  1
  H  H14  1  0.24498300  0.80111500  0.23498400  1
  H  H15  1  0.39729700  0.93358800  0.14979600  1
  H  H16  1  0.89970000  0.65107100  0.19474800  1
  H  H17  1  0.67367300  0.62641100  0.13139300  1
  H  H18  1  0.09355400  0.36213400  0.23609500  1
  H  H19  1  0.28842100  0.40184200  0.14656400  1
  H  H20  1  0.31073800  0.19005200  0.29458600  1
  H  H21  1  0.47141200  0.06250700  0.36312000  1
  H  H22  1  0.70274600  0.83912200  0.28469300  1
  H  H23  1  0.59675300  0.75685500  0.39821200  1
  H  H24  1  0.03753900  0.55664600  0.37500100  1
  H  H25  1  0.25956300  0.64696600  0.40533200  1
  H  H26  1  0.79242700  0.35529400  0.35966700  1
  H  H27  1  0.25096300  0.77660700  0.80097400  1
  H  H28  1  0.43535600  0.91375900  0.86538000  1
  H  H29  1  0.63156200  0.17206600  0.83762300  1
  H  H30  1  0.20388500  0.25498700  0.78651200  1
  H  H31  1  0.27299100  0.36940300  0.90294000  1
  H  H32  1  0.74276100  0.56481600  0.91112300  1
  H  H33  1  0.96363100  0.50523100  0.87371900  1
  O  O34  1  0.49440100  0.52841300  0.58896000  1
  O  O35  1  0.50899600  0.48742500  0.09087200  1
  O  O36  1  0.48417300  0.53090500  0.45930700  1
  O  O37  1  0.48395600  0.51168600  0.96325700  1
  O  O38  1  0.66535800  0.91788100  0.64492200  1
  O  O39  1  0.32593500  0.18020400  0.65041400  1
  O  O40  1  0.88036700  0.40694700  0.61127600  1
  O  O41  1  0.16880300  0.71002900  0.65773900  1
  O  O42  1  0.59711300  0.10855800  0.08882600  1
  O  O43  1  0.26447800  0.85337600  0.15580300  1
  O  O44  1  0.79124800  0.72970000  0.16722300  1
  O  O45  1  0.17629600  0.30244200  0.17515900  1
  O  O46  1  0.36628200  0.16110500  0.37370200  1
  O  O47  1  0.65544000  0.88324200  0.36442800  1
  O  O48  1  0.13106200  0.69139400  0.37209500  1
  O  O49  1  0.93473800  0.35218800  0.38386500  1
  O  O50  1  0.30454600  0.82466800  0.87942800  1
  O  O51  1  0.65211600  0.03656200  0.86199700  1
  O  O52  1  0.15163400  0.29893100  0.86334900  1
  O  O53  1  0.88344900  0.61864700  0.89389100  1
