# generated using pymatgen
data_CsTiH24(SO10)2
_symmetry_space_group_name_H-M   'P 1'
_cell_length_a   13.34882081
_cell_length_b   13.34882081
_cell_length_c   13.34882081
_cell_angle_alpha   90.00000000
_cell_angle_beta   90.00000000
_cell_angle_gamma   90.00000000
_symmetry_Int_Tables_number   1
_chemical_formula_structural   CsTiH24(SO10)2
_chemical_formula_sum   'Cs4 Ti4 H96 S8 O80'
_cell_volume   2378.63995612
_cell_formula_units_Z   4
loop_
 _symmetry_equiv_pos_site_id
 _symmetry_equiv_pos_as_xyz
  1  'x, y, z'
loop_
 _atom_site_type_symbol
 _atom_site_label
 _atom_site_symmetry_multiplicity
 _atom_site_fract_x
 _atom_site_fract_y
 _atom_site_fract_z
 _atom_site_occupancy
  Cs  Cs0  1  0.00000000  0.00000000  0.50000000  1
  Cs  Cs1  1  0.00000000  0.50000000  0.00000000  1
  Cs  Cs2  1  0.50000000  0.00000000  0.00000000  1
  Cs  Cs3  1  0.50000000  0.50000000  0.50000000  1
  Ti  Ti4  1  0.50000000  0.50000000  0.00000000  1
  Ti  Ti5  1  0.50000000  0.00000000  0.50000000  1
  Ti  Ti6  1  0.00000000  0.50000000  0.50000000  1
  Ti  Ti7  1  0.00000000  0.00000000  0.00000000  1
  H  H8  1  0.32071354  0.08908947  0.21452656  1
  H  H9  1  0.67928646  0.58908947  0.28547344  1
  H  H10  1  0.17928646  0.91091053  0.71452656  1
  H  H11  1  0.82071354  0.41091053  0.78547344  1
  H  H12  1  0.21452656  0.32071354  0.08908947  1
  H  H13  1  0.28547344  0.67928646  0.58908947  1
  H  H14  1  0.71452656  0.17928646  0.91091053  1
  H  H15  1  0.78547344  0.82071354  0.41091053  1
  H  H16  1  0.08908947  0.21452656  0.32071354  1
  H  H17  1  0.58908947  0.28547344  0.67928646  1
  H  H18  1  0.91091053  0.71452656  0.17928646  1
  H  H19  1  0.41091053  0.78547344  0.82071354  1
  H  H20  1  0.67928646  0.91091053  0.78547344  1
  H  H21  1  0.32071354  0.41091053  0.71452656  1
  H  H22  1  0.82071354  0.08908947  0.28547344  1
  H  H23  1  0.17928646  0.58908947  0.21452656  1
  H  H24  1  0.78547344  0.67928646  0.91091053  1
  H  H25  1  0.71452656  0.32071354  0.41091053  1
  H  H26  1  0.28547344  0.82071354  0.08908947  1
  H  H27  1  0.21452656  0.17928646  0.58908947  1
  H  H28  1  0.91091053  0.78547344  0.67928646  1
  H  H29  1  0.41091053  0.71452656  0.32071354  1
  H  H30  1  0.08908947  0.28547344  0.82071354  1
  H  H31  1  0.58908947  0.21452656  0.17928646  1
  H  H32  1  0.53455439  0.22660130  0.18777928  1
  H  H33  1  0.46544561  0.72660130  0.31222072  1
  H  H34  1  0.96544561  0.77339870  0.68777928  1
  H  H35  1  0.03455439  0.27339870  0.81222072  1
  H  H36  1  0.18777928  0.53455439  0.22660130  1
  H  H37  1  0.31222072  0.46544561  0.72660130  1
  H  H38  1  0.68777928  0.96544561  0.77339870  1
  H  H39  1  0.81222072  0.03455439  0.27339870  1
  H  H40  1  0.22660130  0.18777928  0.53455439  1
  H  H41  1  0.72660130  0.31222072  0.46544561  1
  H  H42  1  0.77339870  0.68777928  0.96544561  1
  H  H43  1  0.27339870  0.81222072  0.03455439  1
  H  H44  1  0.46544561  0.77339870  0.81222072  1
  H  H45  1  0.53455439  0.27339870  0.68777928  1
  H  H46  1  0.03455439  0.22660130  0.31222072  1
  H  H47  1  0.96544561  0.72660130  0.18777928  1
  H  H48  1  0.81222072  0.46544561  0.77339870  1
  H  H49  1  0.68777928  0.53455439  0.27339870  1
  H  H50  1  0.31222072  0.03455439  0.22660130  1
  H  H51  1  0.18777928  0.96544561  0.72660130  1
  H  H52  1  0.77339870  0.81222072  0.46544561  1
  H  H53  1  0.27339870  0.68777928  0.53455439  1
  H  H54  1  0.22660130  0.31222072  0.03455439  1
  H  H55  1  0.72660130  0.18777928  0.96544561  1
  H  H56  1  0.98503754  0.20194805  0.05050724  1
  H  H57  1  0.01496246  0.70194805  0.44949276  1
  H  H58  1  0.51496246  0.79805195  0.55050724  1
  H  H59  1  0.48503754  0.29805195  0.94949276  1
  H  H60  1  0.05050724  0.98503754  0.20194805  1
  H  H61  1  0.44949276  0.01496246  0.70194805  1
  H  H62  1  0.55050724  0.51496246  0.79805195  1
  H  H63  1  0.94949276  0.48503754  0.29805195  1
  H  H64  1  0.20194805  0.05050724  0.98503754  1
  H  H65  1  0.70194805  0.44949276  0.01496246  1
  H  H66  1  0.79805195  0.55050724  0.51496246  1
  H  H67  1  0.29805195  0.94949276  0.48503754  1
  H  H68  1  0.01496246  0.79805195  0.94949276  1
  H  H69  1  0.98503754  0.29805195  0.55050724  1
  H  H70  1  0.48503754  0.20194805  0.44949276  1
  H  H71  1  0.51496246  0.70194805  0.05050724  1
  H  H72  1  0.94949276  0.01496246  0.79805195  1
  H  H73  1  0.55050724  0.98503754  0.29805195  1
  H  H74  1  0.44949276  0.48503754  0.20194805  1
  H  H75  1  0.05050724  0.51496246  0.70194805  1
  H  H76  1  0.79805195  0.94949276  0.01496246  1
  H  H77  1  0.29805195  0.55050724  0.98503754  1
  H  H78  1  0.20194805  0.44949276  0.48503754  1
  H  H79  1  0.70194805  0.05050724  0.51496246  1
  H  H80  1  0.93617983  0.02012909  0.19681807  1
  H  H81  1  0.06382017  0.52012909  0.30318193  1
  H  H82  1  0.56382017  0.97987091  0.69681807  1
  H  H83  1  0.43617983  0.47987091  0.80318193  1
  H  H84  1  0.19681807  0.93617983  0.02012909  1
  H  H85  1  0.30318193  0.06382017  0.52012909  1
  H  H86  1  0.69681807  0.56382017  0.97987091  1
  H  H87  1  0.80318193  0.43617983  0.47987091  1
  H  H88  1  0.02012909  0.19681807  0.93617983  1
  H  H89  1  0.52012909  0.30318193  0.06382017  1
  H  H90  1  0.97987091  0.69681807  0.56382017  1
  H  H91  1  0.47987091  0.80318193  0.43617983  1
  H  H92  1  0.06382017  0.97987091  0.80318193  1
  H  H93  1  0.93617983  0.47987091  0.69681807  1
  H  H94  1  0.43617983  0.02012909  0.30318193  1
  H  H95  1  0.56382017  0.52012909  0.19681807  1
  H  H96  1  0.80318193  0.06382017  0.97987091  1
  H  H97  1  0.69681807  0.93617983  0.47987091  1
  H  H98  1  0.30318193  0.43617983  0.02012909  1
  H  H99  1  0.19681807  0.56382017  0.52012909  1
  H  H100  1  0.97987091  0.80318193  0.06382017  1
  H  H101  1  0.47987091  0.69681807  0.93617983  1
  H  H102  1  0.02012909  0.30318193  0.43617983  1
  H  H103  1  0.52012909  0.19681807  0.56382017  1
  S  S104  1  0.17396660  0.82603340  0.32603340  1
  S  S105  1  0.82603340  0.32603340  0.17396660  1
  S  S106  1  0.32603340  0.17396660  0.82603340  1
  S  S107  1  0.67396660  0.67396660  0.67396660  1
  S  S108  1  0.82603340  0.17396660  0.67396660  1
  S  S109  1  0.17396660  0.67396660  0.82603340  1
  S  S110  1  0.67396660  0.82603340  0.17396660  1
  S  S111  1  0.32603340  0.32603340  0.32603340  1
  O  O112  1  0.23628510  0.76371490  0.26371490  1
  O  O113  1  0.76371490  0.26371490  0.23628510  1
  O  O114  1  0.26371490  0.23628510  0.76371490  1
  O  O115  1  0.73628510  0.73628510  0.73628510  1
  O  O116  1  0.76371490  0.23628510  0.73628510  1
  O  O117  1  0.23628510  0.73628510  0.76371490  1
  O  O118  1  0.73628510  0.76371490  0.23628510  1
  O  O119  1  0.26371490  0.26371490  0.26371490  1
  O  O120  1  0.05014981  0.76315909  0.33881678  1
  O  O121  1  0.94985019  0.26315909  0.16118322  1
  O  O122  1  0.44985019  0.23684091  0.83881678  1
  O  O123  1  0.55014981  0.73684091  0.66118322  1
  O  O124  1  0.33881678  0.05014981  0.76315909  1
  O  O125  1  0.16118322  0.94985019  0.26315909  1
  O  O126  1  0.83881678  0.44985019  0.23684091  1
  O  O127  1  0.66118322  0.55014981  0.73684091  1
  O  O128  1  0.76315909  0.33881678  0.05014981  1
  O  O129  1  0.26315909  0.16118322  0.94985019  1
  O  O130  1  0.23684091  0.83881678  0.44985019  1
  O  O131  1  0.73684091  0.66118322  0.55014981  1
  O  O132  1  0.94985019  0.23684091  0.66118322  1
  O  O133  1  0.05014981  0.73684091  0.83881678  1
  O  O134  1  0.55014981  0.76315909  0.16118322  1
  O  O135  1  0.44985019  0.26315909  0.33881678  1
  O  O136  1  0.66118322  0.94985019  0.23684091  1
  O  O137  1  0.83881678  0.05014981  0.73684091  1
  O  O138  1  0.16118322  0.55014981  0.76315909  1
  O  O139  1  0.33881678  0.44985019  0.26315909  1
  O  O140  1  0.23684091  0.66118322  0.94985019  1
  O  O141  1  0.73684091  0.83881678  0.05014981  1
  O  O142  1  0.76315909  0.16118322  0.55014981  1
  O  O143  1  0.26315909  0.33881678  0.44985019  1
  O  O144  1  0.17895912  0.63451747  0.03180649  1
  O  O145  1  0.82104088  0.13451747  0.46819351  1
  O  O146  1  0.32104088  0.36548253  0.53180649  1
  O  O147  1  0.67895912  0.86548253  0.96819351  1
  O  O148  1  0.03180649  0.17895912  0.63451747  1
  O  O149  1  0.46819351  0.82104088  0.13451747  1
  O  O150  1  0.53180649  0.32104088  0.36548253  1
  O  O151  1  0.96819351  0.67895912  0.86548253  1
  O  O152  1  0.63451747  0.03180649  0.17895912  1
  O  O153  1  0.13451747  0.46819351  0.82104088  1
  O  O154  1  0.36548253  0.53180649  0.32104088  1
  O  O155  1  0.86548253  0.96819351  0.67895912  1
  O  O156  1  0.82104088  0.36548253  0.96819351  1
  O  O157  1  0.17895912  0.86548253  0.53180649  1
  O  O158  1  0.67895912  0.63451747  0.46819351  1
  O  O159  1  0.32104088  0.13451747  0.03180649  1
  O  O160  1  0.96819351  0.82104088  0.36548253  1
  O  O161  1  0.53180649  0.17895912  0.86548253  1
  O  O162  1  0.46819351  0.67895912  0.63451747  1
  O  O163  1  0.03180649  0.32104088  0.13451747  1
  O  O164  1  0.36548253  0.96819351  0.82104088  1
  O  O165  1  0.86548253  0.53180649  0.17895912  1
  O  O166  1  0.63451747  0.46819351  0.67895912  1
  O  O167  1  0.13451747  0.03180649  0.32104088  1
  O  O168  1  0.50179147  0.65588367  0.99278317  1
  O  O169  1  0.49820853  0.15588367  0.50721683  1
  O  O170  1  0.99820853  0.34411633  0.49278317  1
  O  O171  1  0.00179147  0.84411633  0.00721683  1
  O  O172  1  0.99278317  0.50179147  0.65588367  1
  O  O173  1  0.50721683  0.49820853  0.15588367  1
  O  O174  1  0.49278317  0.99820853  0.34411633  1
  O  O175  1  0.00721683  0.00179147  0.84411633  1
  O  O176  1  0.65588367  0.99278317  0.50179147  1
  O  O177  1  0.15588367  0.50721683  0.49820853  1
  O  O178  1  0.34411633  0.49278317  0.99820853  1
  O  O179  1  0.84411633  0.00721683  0.00179147  1
  O  O180  1  0.49820853  0.34411633  0.00721683  1
  O  O181  1  0.50179147  0.84411633  0.49278317  1
  O  O182  1  0.00179147  0.65588367  0.50721683  1
  O  O183  1  0.99820853  0.15588367  0.99278317  1
  O  O184  1  0.00721683  0.49820853  0.34411633  1
  O  O185  1  0.49278317  0.50179147  0.84411633  1
  O  O186  1  0.50721683  0.00179147  0.65588367  1
  O  O187  1  0.99278317  0.99820853  0.15588367  1
  O  O188  1  0.34411633  0.00721683  0.49820853  1
  O  O189  1  0.84411633  0.49278317  0.50179147  1
  O  O190  1  0.65588367  0.50721683  0.00179147  1
  O  O191  1  0.15588367  0.99278317  0.99820853  1
