# generated using pymatgen
data_BaYbCo4O7
_symmetry_space_group_name_H-M   'P 1'
_cell_length_a   6.37903550
_cell_length_b   6.37903550
_cell_length_c   10.42322765
_cell_angle_alpha   89.95772689
_cell_angle_beta   89.95772689
_cell_angle_gamma   120.85322766
_symmetry_Int_Tables_number   1
_chemical_formula_structural   BaYbCo4O7
_chemical_formula_sum   'Ba2 Yb2 Co8 O14'
_cell_volume   364.11946835
_cell_formula_units_Z   2
loop_
 _symmetry_equiv_pos_site_id
 _symmetry_equiv_pos_as_xyz
  1  'x, y, z'
loop_
 _atom_site_type_symbol
 _atom_site_label
 _atom_site_symmetry_multiplicity
 _atom_site_fract_x
 _atom_site_fract_y
 _atom_site_fract_z
 _atom_site_occupancy
  Ba  Ba0  1  0.33207200  0.66082500  0.51402100  1
  Ba  Ba1  1  0.66082500  0.33207200  0.01402100  1
  Yb  Yb2  1  0.33423600  0.66413500  0.12973700  1
  Yb  Yb3  1  0.66413500  0.33423600  0.62973700  1
  Co  Co4  1  0.83289400  0.65147500  0.32314300  1
  Co  Co5  1  0.65147500  0.83289400  0.82314300  1
  Co  Co6  1  0.15915200  0.34516400  0.82454400  1
  Co  Co7  1  0.00623800  0.99189400  0.07034500  1
  Co  Co8  1  0.83580100  0.16861100  0.32154200  1
  Co  Co9  1  0.34516400  0.15915200  0.32454400  1
  Co  Co10  1  0.16861100  0.83580100  0.82154200  1
  Co  Co11  1  0.99189400  0.00623800  0.57034500  1
  O  O12  1  0.84926100  0.18045000  0.50419100  1
  O  O13  1  0.50481600  0.01476700  0.24985800  1
  O  O14  1  0.67854100  0.81562700  0.99736800  1
  O  O15  1  0.50246200  0.97971200  0.75049200  1
  O  O16  1  0.81562700  0.67854100  0.49736800  1
  O  O17  1  0.50603600  0.48574200  0.25423300  1
  O  O18  1  0.00467000  0.99320300  0.26016500  1
  O  O19  1  0.97971200  0.50246200  0.25049200  1
  O  O20  1  0.01476700  0.50481600  0.74985800  1
  O  O21  1  0.18045000  0.84926100  0.00419100  1
  O  O22  1  0.48574200  0.50603600  0.75423300  1
  O  O23  1  0.32431900  0.15103000  0.49736900  1
  O  O24  1  0.99320300  0.00467000  0.76016500  1
  O  O25  1  0.15103000  0.32431900  0.99736900  1
