# generated using pymatgen
data_Cd3(P3O14)2
_symmetry_space_group_name_H-M   'P 1'
_cell_length_a   20.24521900
_cell_length_b   7.57348800
_cell_length_c   9.74659453
_cell_angle_alpha   58.29096297
_cell_angle_beta   90.00000000
_cell_angle_gamma   90.00000000
_symmetry_Int_Tables_number   1
_chemical_formula_structural   Cd3(P3O14)2
_chemical_formula_sum   'Cd6 P12 O56'
_cell_volume   1271.34130870
_cell_formula_units_Z   2
loop_
 _symmetry_equiv_pos_site_id
 _symmetry_equiv_pos_as_xyz
  1  'x, y, z'
loop_
 _atom_site_type_symbol
 _atom_site_label
 _atom_site_symmetry_multiplicity
 _atom_site_fract_x
 _atom_site_fract_y
 _atom_site_fract_z
 _atom_site_occupancy
  Cd  Cd0  1  0.73922200  0.75624300  0.80852500  1
  Cd  Cd1  1  0.76077800  0.75624300  0.30852500  1
  Cd  Cd2  1  0.26077800  0.24375700  0.19147500  1
  Cd  Cd3  1  0.23922200  0.24375700  0.69147500  1
  Cd  Cd4  1  0.50000000  0.50000000  0.00000000  1
  Cd  Cd5  1  0.00000000  0.50000000  0.50000000  1
  P  P6  1  0.16978900  0.53303000  0.82344600  1
  P  P7  1  0.33021100  0.53303000  0.32344600  1
  P  P8  1  0.83021100  0.46697000  0.17655400  1
  P  P9  1  0.66978900  0.46697000  0.67655400  1
  P  P10  1  0.17018400  0.95688600  0.54574900  1
  P  P11  1  0.32981600  0.95688600  0.04574900  1
  P  P12  1  0.82981600  0.04311400  0.45425100  1
  P  P13  1  0.67018400  0.04311400  0.95425100  1
  P  P14  1  0.04516900  0.75708700  0.69561400  1
  P  P15  1  0.45483100  0.75708700  0.19561400  1
  P  P16  1  0.95483100  0.24291300  0.30438600  1
  P  P17  1  0.54516900  0.24291300  0.80438600  1
  O  O18  1  0.20506100  0.74518200  0.68472200  1
  O  O19  1  0.29493900  0.74518200  0.18472200  1
  O  O20  1  0.79493900  0.25481800  0.31527800  1
  O  O21  1  0.70506100  0.25481800  0.81527800  1
  O  O22  1  0.09556100  0.88594100  0.54389300  1
  O  O23  1  0.40443900  0.88594100  0.04389300  1
  O  O24  1  0.90443900  0.11405900  0.45610700  1
  O  O25  1  0.59556100  0.11405900  0.95610700  1
  O  O26  1  0.09742100  0.60843600  0.83847400  1
  O  O27  1  0.40257900  0.60843600  0.33847400  1
  O  O28  1  0.90257900  0.39156400  0.16152600  1
  O  O29  1  0.59742100  0.39156400  0.66152600  1
  O  O30  1  0.20555000  0.46229900  0.97769000  1
  O  O31  1  0.29445000  0.46229900  0.47769000  1
  O  O32  1  0.79445000  0.53770100  0.02231000  1
  O  O33  1  0.70555000  0.53770100  0.52231000  1
  O  O34  1  0.16428100  0.38906900  0.76062100  1
  O  O35  1  0.33571900  0.38906900  0.26062100  1
  O  O36  1  0.83571900  0.61093100  0.23937900  1
  O  O37  1  0.66428100  0.61093100  0.73937900  1
  O  O38  1  0.17020900  0.11105800  0.59849400  1
  O  O39  1  0.32979100  0.11105800  0.09849400  1
  O  O40  1  0.82979100  0.88894200  0.40150600  1
  O  O41  1  0.67020900  0.88894200  0.90150600  1
  O  O42  1  0.20082600  0.01429000  0.38769900  1
  O  O43  1  0.29917400  0.01429000  0.88769900  1
  O  O44  1  0.79917400  0.98571000  0.61230100  1
  O  O45  1  0.70082600  0.98571000  0.11230100  1
  O  O46  1  0.00268600  0.62544300  0.65729900  1
  O  O47  1  0.49731400  0.62544300  0.15729900  1
  O  O48  1  0.99731400  0.37455700  0.34270100  1
  O  O49  1  0.50268600  0.37455700  0.84270100  1
  O  O50  1  0.00945000  0.89285900  0.74052000  1
  O  O51  1  0.49055000  0.89285900  0.24052000  1
  O  O52  1  0.99055000  0.10714100  0.25948000  1
  O  O53  1  0.50945000  0.10714100  0.75948000  1
  O  O54  1  0.37917500  0.62638200  0.83327400  1
  O  O55  1  0.12082500  0.62638200  0.33327400  1
  O  O56  1  0.62082500  0.37361800  0.16672600  1
  O  O57  1  0.87917500  0.37361800  0.66672600  1
  O  O58  1  0.39167200  0.94472400  0.63436500  1
  O  O59  1  0.10832800  0.94472400  0.13436500  1
  O  O60  1  0.60832800  0.05527600  0.36563500  1
  O  O61  1  0.89167200  0.05527600  0.86563500  1
  O  O62  1  0.36246100  0.57827000  0.73504100  1
  O  O63  1  0.13753900  0.57827000  0.23504100  1
  O  O64  1  0.63753900  0.42173000  0.26495900  1
  O  O65  1  0.86246100  0.42173000  0.76495900  1
  O  O66  1  0.12532800  0.89044100  0.04100500  1
  O  O67  1  0.37467200  0.89044100  0.54100500  1
  O  O68  1  0.87467200  0.10955900  0.95899500  1
  O  O69  1  0.62532800  0.10955900  0.45899500  1
  O  O70  1  0.04373300  0.19180400  0.71652700  1
  O  O71  1  0.45626700  0.19180400  0.21652700  1
  O  O72  1  0.95626700  0.80819600  0.28347300  1
  O  O73  1  0.54373300  0.80819600  0.78347300  1
