# generated using pymatgen
data_BrO4
_symmetry_space_group_name_H-M   'P 1'
_cell_length_a   9.80800100
_cell_length_b   5.83460000
_cell_length_c   6.48976092
_cell_angle_alpha   70.61067326
_cell_angle_beta   90.00000000
_cell_angle_gamma   90.00000000
_symmetry_Int_Tables_number   1
_chemical_formula_structural   BrO4
_chemical_formula_sum   'Br4 O16'
_cell_volume   350.31843609
_cell_formula_units_Z   4
loop_
 _symmetry_equiv_pos_site_id
 _symmetry_equiv_pos_as_xyz
  1  'x, y, z'
loop_
 _atom_site_type_symbol
 _atom_site_label
 _atom_site_symmetry_multiplicity
 _atom_site_fract_x
 _atom_site_fract_y
 _atom_site_fract_z
 _atom_site_occupancy
  Br  Br0  1  0.44090500  0.13477900  0.72221800  1
  Br  Br1  1  0.94090500  0.86522100  0.27778200  1
  Br  Br2  1  0.60021800  0.43968500  0.15292800  1
  Br  Br3  1  0.10021800  0.56031500  0.84707200  1
  O  O4  1  0.68291100  0.66265800  0.96326600  1
  O  O5  1  0.18291100  0.33734200  0.03673400  1
  O  O6  1  0.74274800  0.17803400  0.96412800  1
  O  O7  1  0.24274800  0.82196600  0.03587200  1
  O  O8  1  0.79684800  0.35208300  0.82243300  1
  O  O9  1  0.29684800  0.64791700  0.17756700  1
  O  O10  1  0.67632500  0.35746600  0.39709000  1
  O  O11  1  0.17632500  0.64253400  0.60291000  1
  O  O12  1  0.85417600  0.82563200  0.50820600  1
  O  O13  1  0.35417600  0.17436800  0.49179400  1
  O  O14  1  0.57285400  0.81857100  0.45902000  1
  O  O15  1  0.07285400  0.18142900  0.54098000  1
  O  O16  1  0.46025900  0.39512600  0.77522400  1
  O  O17  1  0.96025900  0.60487400  0.22477600  1
  O  O18  1  0.51665700  0.91601500  0.28149600  1
  O  O19  1  0.01665700  0.08398500  0.71850400  1
