# generated using pymatgen
data_LiVTeO5
_symmetry_space_group_name_H-M   'P 1'
_cell_length_a   7.40844100
_cell_length_b   10.03933100
_cell_length_c   8.60697700
_cell_angle_alpha   90.00000000
_cell_angle_beta   90.00000000
_cell_angle_gamma   90.00000000
_symmetry_Int_Tables_number   1
_chemical_formula_structural   LiVTeO5
_chemical_formula_sum   'Li4 V4 Te4 O20'
_cell_volume   640.15072588
_cell_formula_units_Z   4
loop_
 _symmetry_equiv_pos_site_id
 _symmetry_equiv_pos_as_xyz
  1  'x, y, z'
loop_
 _atom_site_type_symbol
 _atom_site_label
 _atom_site_symmetry_multiplicity
 _atom_site_fract_x
 _atom_site_fract_y
 _atom_site_fract_z
 _atom_site_occupancy
  Li  Li0  1  0.36423700  0.15673600  0.25747300  1
  Li  Li1  1  0.13576300  0.65673600  0.74252700  1
  Li  Li2  1  0.86423700  0.84326400  0.24252700  1
  Li  Li3  1  0.63576300  0.34326400  0.75747300  1
  V  V4  1  0.24022700  0.19610200  0.88595400  1
  V  V5  1  0.74022700  0.80389800  0.61404600  1
  V  V6  1  0.25977300  0.69610200  0.11404600  1
  V  V7  1  0.75977300  0.30389800  0.38595400  1
  Te  Te8  1  0.08515800  0.37114800  0.65592200  1
  Te  Te9  1  0.91484200  0.12885200  0.15592200  1
  Te  Te10  1  0.41484200  0.87114800  0.34407800  1
  Te  Te11  1  0.58515800  0.62885200  0.84407800  1
  O  O12  1  0.64949300  0.52563600  0.00784300  1
  O  O13  1  0.54600500  0.25899500  0.36146500  1
  O  O14  1  0.30091700  0.55722200  0.20089700  1
  O  O15  1  0.45399500  0.24100500  0.86146500  1
  O  O16  1  0.80091700  0.44277800  0.29910300  1
  O  O17  1  0.35050700  0.97436400  0.50784300  1
  O  O18  1  0.04600500  0.74100500  0.13853500  1
  O  O19  1  0.19908300  0.05722200  0.79910300  1
  O  O20  1  0.95399500  0.75899500  0.63853500  1
  O  O21  1  0.34142300  0.69856800  0.90819100  1
  O  O22  1  0.97839600  0.01113400  0.31205200  1
  O  O23  1  0.15857700  0.19856800  0.09180900  1
  O  O24  1  0.52160400  0.51113400  0.68794800  1
  O  O25  1  0.47839600  0.98886600  0.18794800  1
  O  O26  1  0.85050700  0.02563600  0.99215700  1
  O  O27  1  0.84142300  0.30143200  0.59180900  1
  O  O28  1  0.65857700  0.80143200  0.40819100  1
  O  O29  1  0.14949300  0.47436400  0.49215700  1
  O  O30  1  0.02160400  0.48886600  0.81205200  1
  O  O31  1  0.69908300  0.94277800  0.70089700  1
