# generated using pymatgen
data_CoBr2N6O
_symmetry_space_group_name_H-M   'P 1'
_cell_length_a   7.13506930
_cell_length_b   7.13506930
_cell_length_c   11.78307000
_cell_angle_alpha   90.00000000
_cell_angle_beta   90.00000000
_cell_angle_gamma   110.58694737
_symmetry_Int_Tables_number   1
_chemical_formula_structural   CoBr2N6O
_chemical_formula_sum   'Co2 Br4 N12 O2'
_cell_volume   561.55913406
_cell_formula_units_Z   2
loop_
 _symmetry_equiv_pos_site_id
 _symmetry_equiv_pos_as_xyz
  1  'x, y, z'
loop_
 _atom_site_type_symbol
 _atom_site_label
 _atom_site_symmetry_multiplicity
 _atom_site_fract_x
 _atom_site_fract_y
 _atom_site_fract_z
 _atom_site_occupancy
  Co  Co0  1  0.78850800  0.21149200  0.25000000  1
  Co  Co1  1  0.21149200  0.78850800  0.75000000  1
  Br  Br2  1  0.85813900  0.85813900  0.50000000  1
  Br  Br3  1  0.85813900  0.85813900  0.00000000  1
  Br  Br4  1  0.14186100  0.14186100  0.50000000  1
  Br  Br5  1  0.14186100  0.14186100  0.00000000  1
  N  N6  1  0.26640900  0.73359100  0.25000000  1
  N  N7  1  0.73359100  0.26640900  0.75000000  1
  N  N8  1  0.91654100  0.08345900  0.25000000  1
  N  N9  1  0.08345900  0.91654100  0.75000000  1
  N  N10  1  0.52185800  0.23195500  0.25000000  1
  N  N11  1  0.23195600  0.52185800  0.75000000  1
  N  N12  1  0.47814200  0.76804400  0.75000000  1
  N  N13  1  0.76804500  0.47814200  0.25000000  1
  N  N14  1  0.64480800  0.35519200  0.16490000  1
  N  N15  1  0.35519200  0.64480800  0.83510000  1
  N  N16  1  0.64480800  0.35519200  0.33510000  1
  N  N17  1  0.35519200  0.64480800  0.66490000  1
  O  O18  1  0.36394700  0.63605300  0.25000000  1
  O  O19  1  0.63605300  0.36394700  0.75000000  1
