# generated using pymatgen
data_MgV5H20NO22
_symmetry_space_group_name_H-M   'P 1'
_cell_length_a   9.03985970
_cell_length_b   11.82989430
_cell_length_c   10.93861563
_cell_angle_alpha   110.22900805
_cell_angle_beta   82.41882096
_cell_angle_gamma   103.29877719
_symmetry_Int_Tables_number   1
_chemical_formula_structural   MgV5H20NO22
_chemical_formula_sum   'Mg2 V10 H40 N2 O44'
_cell_volume   1066.43366187
_cell_formula_units_Z   2
loop_
 _symmetry_equiv_pos_site_id
 _symmetry_equiv_pos_as_xyz
  1  'x, y, z'
loop_
 _atom_site_type_symbol
 _atom_site_label
 _atom_site_symmetry_multiplicity
 _atom_site_fract_x
 _atom_site_fract_y
 _atom_site_fract_z
 _atom_site_occupancy
  Mg  Mg0  1  0.67967500  0.21720400  0.74984900  1
  Mg  Mg1  1  0.32032500  0.78279600  0.25015100  1
  V  V2  1  0.20933900  0.94920800  0.95942900  1
  V  V3  1  0.79066100  0.05079200  0.04057100  1
  V  V4  1  0.97054500  0.69632500  0.92075600  1
  V  V5  1  0.02945500  0.30367500  0.07924400  1
  V  V6  1  0.81557800  0.98682500  0.34184100  1
  V  V7  1  0.18442200  0.01317500  0.65815900  1
  V  V8  1  0.85218100  0.81926600  0.74387100  1
  V  V9  1  0.14781900  0.18073400  0.25612900  1
  V  V10  1  0.20572400  0.75656700  0.70791700  1
  V  V11  1  0.79427600  0.24343300  0.29208300  1
  H  H12  1  0.62031600  0.37316000  0.97390100  1
  H  H13  1  0.37968400  0.62684000  0.02609900  1
  H  H14  1  0.39341400  0.36278100  0.83158900  1
  H  H15  1  0.60658600  0.63721900  0.16841100  1
  H  H16  1  0.73673600  0.85023100  0.08073600  1
  H  H17  1  0.26326400  0.14976900  0.91926400  1
  H  H18  1  0.98425000  0.30216300  0.47435600  1
  H  H19  1  0.01575000  0.69783700  0.52564400  1
  H  H20  1  0.45999000  0.18313500  0.60010000  1
  H  H21  1  0.54001000  0.81686500  0.39990000  1
  H  H22  1  0.60720700  0.15524000  0.49990600  1
  H  H23  1  0.39279300  0.84476000  0.50009400  1
  H  H24  1  0.48995000  0.99508100  0.72340000  1
  H  H25  1  0.51005000  0.00491900  0.27660000  1
  H  H26  1  0.62420400  0.00048100  0.80674000  1
  H  H27  1  0.37579600  0.99951900  0.19326000  1
  H  H28  1  0.91874100  0.15775100  0.85961800  1
  H  H29  1  0.08125900  0.84224900  0.14038200  1
  H  H30  1  0.61204100  0.57241900  0.12773800  1
  H  H31  1  0.38795900  0.42758100  0.87226200  1
  H  H32  1  0.88759900  0.11911400  0.56823000  1
  H  H33  1  0.11240100  0.88088600  0.43177000  1
  H  H34  1  0.91335900  0.98127000  0.62399700  1
  H  H35  1  0.08664100  0.01873000  0.37600300  1
  H  H36  1  0.46060700  0.70043300  0.86459700  1
  H  H37  1  0.53939300  0.29956700  0.13540300  1
  H  H38  1  0.61143300  0.65985300  0.87120300  1
  H  H39  1  0.38856700  0.34014700  0.12879700  1
  H  H40  1  0.58322400  0.55924100  0.59173100  1
  H  H41  1  0.41677600  0.44075900  0.40826900  1
  H  H42  1  0.36378000  0.60801600  0.50746100  1
  H  H43  1  0.63622000  0.39198400  0.49253900  1
  H  H44  1  0.81239500  0.64063800  0.31150400  1
  H  H45  1  0.18760400  0.35936200  0.68849600  1
  H  H46  1  0.88668200  0.50261200  0.24450700  1
  H  H47  1  0.11331800  0.49738800  0.75549300  1
  H  H48  1  0.54158000  0.49003100  0.69191800  1
  H  H49  1  0.45842000  0.50996900  0.30808200  1
  H  H50  1  0.08157400  0.38869800  0.83449800  1
  H  H51  1  0.91842600  0.61130200  0.16550200  1
  N  N52  1  0.09812800  0.39890700  0.74042800  1
  N  N53  1  0.90187200  0.60109300  0.25957200  1
  O  O54  1  0.07909500  0.83707100  0.04932100  1
  O  O55  1  0.92090500  0.16292900  0.95067900  1
  O  O56  1  0.33983000  0.86316400  0.87193900  1
  O  O57  1  0.66017000  0.13683600  0.12806100  1
  O  O58  1  0.78858500  0.93410500  0.12551900  1
  O  O59  1  0.21141500  0.06589500  0.87448100  1
  O  O60  1  0.25742400  0.05852500  0.10974500  1
  O  O61  1  0.74257600  0.94147500  0.89025500  1
  O  O62  1  0.06369200  0.85799600  0.84003300  1
  O  O63  1  0.93630800  0.14200400  0.15996700  1
  O  O64  1  0.91266300  0.60934700  0.01276200  1
  O  O65  1  0.08733700  0.39065300  0.98723800  1
  O  O66  1  0.80884700  0.71402800  0.86056500  1
  O  O67  1  0.19115300  0.28597200  0.13943500  1
  O  O68  1  0.10606700  0.63332300  0.79721700  1
  O  O69  1  0.89393200  0.36667700  0.20278300  1
  O  O70  1  0.03399100  0.02354900  0.30306800  1
  O  O71  1  0.96600900  0.97645100  0.69693200  1
  O  O72  1  0.72385000  0.84403100  0.32001100  1
  O  O73  1  0.27615000  0.15596900  0.67998900  1
  O  O74  1  0.29951800  0.90650200  0.64847900  1
  O  O75  1  0.70048200  0.09349700  0.35152100  1
  O  O76  1  0.01379000  0.72198700  0.62080200  1
  O  O77  1  0.98621000  0.27801300  0.37919800  1
  O  O78  1  0.72081000  0.75505100  0.63736900  1
  O  O79  1  0.27919000  0.24494900  0.36263100  1
  O  O80  1  0.31157900  0.66130100  0.59257700  1
  O  O81  1  0.68842100  0.33869900  0.40742300  1
  O  O82  1  0.69006700  0.35078900  0.89836400  1
  O  O83  1  0.30993300  0.64921100  0.10163600  1
  O  O84  1  0.84688800  0.02737100  0.51235600  1
  O  O85  1  0.15311300  0.97262900  0.48764400  1
  O  O86  1  0.57236800  0.19548900  0.59183600  1
  O  O87  1  0.42763200  0.80451100  0.40816400  1
  O  O88  1  0.58716000  0.04563000  0.76009500  1
  O  O89  1  0.41284000  0.95437000  0.23990500  1
  O  O90  1  0.90645100  0.22397700  0.68789100  1
  O  O91  1  0.09354900  0.77602300  0.31210900  1
  O  O92  1  0.96305700  0.34322900  0.67023400  1
  O  O93  1  0.03694300  0.65677100  0.32976600  1
  O  O94  1  0.49908500  0.37101200  0.14078200  1
  O  O95  1  0.50091500  0.62898800  0.85921800  1
  O  O96  1  0.55462800  0.47606000  0.59749500  1
  O  O97  1  0.44537200  0.52394000  0.40250500  1
