# generated using pymatgen
data_BaTeS4O9
_symmetry_space_group_name_H-M   'P 1'
_cell_length_a   5.39736100
_cell_length_b   11.06723400
_cell_length_c   21.57982851
_cell_angle_alpha   77.53125294
_cell_angle_beta   90.00000000
_cell_angle_gamma   90.00000000
_symmetry_Int_Tables_number   1
_chemical_formula_structural   BaTeS4O9
_chemical_formula_sum   'Ba4 Te4 S16 O36'
_cell_volume   1258.64284567
_cell_formula_units_Z   4
loop_
 _symmetry_equiv_pos_site_id
 _symmetry_equiv_pos_as_xyz
  1  'x, y, z'
loop_
 _atom_site_type_symbol
 _atom_site_label
 _atom_site_symmetry_multiplicity
 _atom_site_fract_x
 _atom_site_fract_y
 _atom_site_fract_z
 _atom_site_occupancy
  Ba  Ba0  1  0.32952100  0.14538700  0.59264700  1
  Ba  Ba1  1  0.82952100  0.85461300  0.90735300  1
  Ba  Ba2  1  0.67047900  0.85461300  0.40735300  1
  Ba  Ba3  1  0.17047900  0.14538700  0.09264700  1
  Te  Te4  1  0.01346900  0.60386200  0.68781100  1
  Te  Te5  1  0.51346900  0.39613800  0.81218900  1
  Te  Te6  1  0.98653100  0.39613800  0.31218900  1
  Te  Te7  1  0.48653100  0.60386200  0.18781100  1
  S  S8  1  0.29924000  0.67223100  0.60238900  1
  S  S9  1  0.79924000  0.32776900  0.89761100  1
  S  S10  1  0.70076000  0.32776900  0.39761100  1
  S  S11  1  0.20076000  0.67223100  0.10238900  1
  S  S12  1  0.77140000  0.46475000  0.63952500  1
  S  S13  1  0.27140000  0.53525000  0.86047500  1
  S  S14  1  0.22860000  0.53525000  0.36047500  1
  S  S15  1  0.72860000  0.46475000  0.13952500  1
  S  S16  1  0.13779300  0.83182100  0.54314100  1
  S  S17  1  0.63779300  0.16817900  0.95685900  1
  S  S18  1  0.86220700  0.16817900  0.45685900  1
  S  S19  1  0.36220700  0.83182100  0.04314100  1
  S  S20  1  0.90586600  0.28478500  0.68144600  1
  S  S21  1  0.40586600  0.71521500  0.81855400  1
  S  S22  1  0.09413400  0.71521500  0.31855400  1
  S  S23  1  0.59413400  0.28478500  0.18144600  1
  O  O24  1  0.13101900  0.93074000  0.57906500  1
  O  O25  1  0.63101900  0.06926000  0.92093500  1
  O  O26  1  0.86898100  0.06926000  0.42093500  1
  O  O27  1  0.36898100  0.93074000  0.07906500  1
  O  O28  1  0.31649900  0.85727000  0.49027500  1
  O  O29  1  0.81649900  0.14273000  0.00972500  1
  O  O30  1  0.68350100  0.14273000  0.50972500  1
  O  O31  1  0.18350100  0.85727000  0.99027500  1
  O  O32  1  0.89084400  0.79985500  0.52280700  1
  O  O33  1  0.39084400  0.20014500  0.97719300  1
  O  O34  1  0.10915600  0.20014500  0.47719300  1
  O  O35  1  0.60915600  0.79985500  0.02280700  1
  O  O36  1  0.82081400  0.25191200  0.74710900  1
  O  O37  1  0.32081400  0.74808800  0.75289100  1
  O  O38  1  0.17918600  0.74808800  0.25289100  1
  O  O39  1  0.67918600  0.25191200  0.24710900  1
  O  O40  1  0.79198100  0.20958800  0.63919600  1
  O  O41  1  0.29198100  0.79041200  0.86080400  1
  O  O42  1  0.20801900  0.79041200  0.36080400  1
  O  O43  1  0.70801900  0.20958800  0.13919600  1
  O  O44  1  0.17874200  0.28414800  0.67532800  1
  O  O45  1  0.67874200  0.71585200  0.82467200  1
  O  O46  1  0.82125800  0.71585200  0.32467200  1
  O  O47  1  0.32125800  0.28414800  0.17532800  1
  O  O48  1  0.78083100  0.92181000  0.69054300  1
  O  O49  1  0.28083100  0.07819000  0.80945700  1
  O  O50  1  0.21916900  0.07819000  0.30945700  1
  O  O51  1  0.71916900  0.92181000  0.19054300  1
  O  O52  1  0.92869500  0.95756100  0.72636000  1
  O  O53  1  0.42869500  0.04243900  0.77364000  1
  O  O54  1  0.07130500  0.04243900  0.27364000  1
  O  O55  1  0.57130500  0.95756100  0.22636000  1
  O  O56  1  0.42172800  0.46323200  0.51362900  1
  O  O57  1  0.92172800  0.53676800  0.98637100  1
  O  O58  1  0.57827200  0.53676800  0.48637100  1
  O  O59  1  0.07827200  0.46323200  0.01362900  1
