# generated using pymatgen
data_Mg4Si6O23
_symmetry_space_group_name_H-M   'P 1'
_cell_length_a   13.56935561
_cell_length_b   27.88643899
_cell_length_c   5.28450573
_cell_angle_alpha   90.00000000
_cell_angle_beta   90.00000000
_cell_angle_gamma   90.00000000
_symmetry_Int_Tables_number   1
_chemical_formula_structural   Mg4Si6O23
_chemical_formula_sum   'Mg16 Si24 O92'
_cell_volume   1999.66229159
_cell_formula_units_Z   4
loop_
 _symmetry_equiv_pos_site_id
 _symmetry_equiv_pos_as_xyz
  1  'x, y, z'
loop_
 _atom_site_type_symbol
 _atom_site_label
 _atom_site_symmetry_multiplicity
 _atom_site_fract_x
 _atom_site_fract_y
 _atom_site_fract_z
 _atom_site_occupancy
  Mg  Mg0  1  0.50000000  0.52201796  0.75000000  1
  Mg  Mg1  1  -0.00000000  0.97798204  0.75000000  1
  Mg  Mg2  1  0.50000000  0.47798204  0.25000000  1
  Mg  Mg3  1  -0.00000000  0.02201796  0.25000000  1
  Mg  Mg4  1  0.50000000  0.41149499  0.75000000  1
  Mg  Mg5  1  -0.00000000  0.08850501  0.75000000  1
  Mg  Mg6  1  0.50000000  0.58850501  0.25000000  1
  Mg  Mg7  1  -0.00000000  0.91149499  0.25000000  1
  Mg  Mg8  1  0.50000000  0.65486467  0.75000000  1
  Mg  Mg9  1  -0.00000000  0.84513533  0.75000000  1
  Mg  Mg10  1  0.50000000  0.34513533  0.25000000  1
  Mg  Mg11  1  -0.00000000  0.15486467  0.25000000  1
  Mg  Mg12  1  0.50000000  0.30108073  0.75000000  1
  Mg  Mg13  1  -0.00000000  0.19891927  0.75000000  1
  Mg  Mg14  1  0.50000000  0.69891927  0.25000000  1
  Mg  Mg15  1  -0.00000000  0.80108073  0.25000000  1
  Si  Si16  1  0.29537779  0.52870077  0.08586871  1
  Si  Si17  1  0.70462221  0.52870077  0.41413129  1
  Si  Si18  1  0.20462221  0.97129923  0.08586871  1
  Si  Si19  1  0.79537779  0.97129923  0.41413129  1
  Si  Si20  1  0.70462221  0.47129923  0.91413129  1
  Si  Si21  1  0.29537779  0.47129923  0.58586871  1
  Si  Si22  1  0.79537779  0.02870077  0.91413129  1
  Si  Si23  1  0.20462221  0.02870077  0.58586871  1
  Si  Si24  1  0.29374582  0.64059276  0.07823638  1
  Si  Si25  1  0.70625418  0.64059276  0.42176362  1
  Si  Si26  1  0.20625418  0.85940724  0.07823638  1
  Si  Si27  1  0.79374582  0.85940724  0.42176362  1
  Si  Si28  1  0.70625418  0.35940724  0.92176362  1
  Si  Si29  1  0.29374582  0.35940724  0.57823638  1
  Si  Si30  1  0.79374582  0.14059276  0.92176362  1
  Si  Si31  1  0.20625418  0.14059276  0.57823638  1
  Si  Si32  1  0.29210934  0.69575518  0.56955440  1
  Si  Si33  1  0.70789066  0.69575518  0.93044560  1
  Si  Si34  1  0.20789066  0.80424482  0.56955440  1
  Si  Si35  1  0.79210934  0.80424482  0.93044560  1
  Si  Si36  1  0.70789066  0.30424482  0.43044560  1
  Si  Si37  1  0.29210934  0.30424482  0.06955440  1
  Si  Si38  1  0.79210934  0.19575518  0.43044560  1
  Si  Si39  1  0.20789066  0.19575518  0.06955440  1
  O  O40  1  0.50000000  0.20371828  0.75000000  1
  O  O41  1  -0.00000000  0.29628172  0.75000000  1
  O  O42  1  0.50000000  0.79628172  0.25000000  1
  O  O43  1  -0.00000000  0.70371828  0.25000000  1
  O  O44  1  0.50000000  0.98528733  0.75000000  1
  O  O45  1  -0.00000000  0.51471267  0.75000000  1
  O  O46  1  0.50000000  0.01471267  0.25000000  1
  O  O47  1  -0.00000000  0.48528733  0.25000000  1
  O  O48  1  0.25000000  0.75000000  0.57935675  1
  O  O49  1  0.75000000  0.75000000  0.92064325  1
  O  O50  1  0.75000000  0.25000000  0.42064325  1
  O  O51  1  0.25000000  0.25000000  0.07935675  1
  O  O52  1  0.41686978  0.52910846  0.09668855  1
  O  O53  1  0.58313022  0.52910846  0.40331145  1
  O  O54  1  0.08313022  0.97089154  0.09668855  1
  O  O55  1  0.91686978  0.97089154  0.40331145  1
  O  O56  1  0.58313022  0.47089154  0.90331145  1
  O  O57  1  0.41686978  0.47089154  0.59668855  1
  O  O58  1  0.91686978  0.02910846  0.90331145  1
  O  O59  1  0.08313022  0.02910846  0.59668855  1
  O  O60  1  0.41479291  0.64449104  0.09376593  1
  O  O61  1  0.58520709  0.64449104  0.40623407  1
  O  O62  1  0.08520709  0.85550896  0.09376593  1
  O  O63  1  0.91479291  0.85550896  0.40623407  1
  O  O64  1  0.58520709  0.35550896  0.90623407  1
  O  O65  1  0.41479291  0.35550896  0.59376593  1
  O  O66  1  0.91479291  0.14449104  0.90623407  1
  O  O67  1  0.08520709  0.14449104  0.59376593  1
  O  O68  1  0.41170807  0.69710729  0.55512515  1
  O  O69  1  0.58829193  0.69710729  0.94487485  1
  O  O70  1  0.08829193  0.80289271  0.55512515  1
  O  O71  1  0.91170807  0.80289271  0.94487485  1
  O  O72  1  0.58829193  0.30289271  0.44487485  1
  O  O73  1  0.41170807  0.30289271  0.05512515  1
  O  O74  1  0.91170807  0.19710729  0.44487485  1
  O  O75  1  0.08829193  0.19710729  0.05512515  1
  O  O76  1  0.25517935  0.50037004  0.83499430  1
  O  O77  1  0.74482065  0.50037004  0.66500570  1
  O  O78  1  0.24482065  0.99962996  0.83499430  1
  O  O79  1  0.75517935  0.99962996  0.66500570  1
  O  O80  1  0.74482065  0.49962996  0.16500570  1
  O  O81  1  0.25517935  0.49962996  0.33499430  1
  O  O82  1  0.75517935  0.00037004  0.16500570  1
  O  O83  1  0.24482065  0.00037004  0.33499430  1
  O  O84  1  0.25735889  0.58434237  0.08524369  1
  O  O85  1  0.74264111  0.58434237  0.41475631  1
  O  O86  1  0.24264111  0.91565763  0.08524369  1
  O  O87  1  0.75735889  0.91565763  0.41475631  1
  O  O88  1  0.74264111  0.41565763  0.91475631  1
  O  O89  1  0.25735889  0.41565763  0.58524369  1
  O  O90  1  0.75735889  0.08434237  0.91475631  1
  O  O91  1  0.24264111  0.08434237  0.58524369  1
  O  O92  1  0.25430925  0.66622561  0.81992711  1
  O  O93  1  0.74569075  0.66622561  0.68007289  1
  O  O94  1  0.24569075  0.83377439  0.81992711  1
  O  O95  1  0.75430925  0.83377439  0.68007289  1
  O  O96  1  0.74569075  0.33377439  0.18007289  1
  O  O97  1  0.25430925  0.33377439  0.31992711  1
  O  O98  1  0.75430925  0.16622561  0.18007289  1
  O  O99  1  0.24569075  0.16622561  0.31992711  1
  O  O100  1  0.24516637  0.66831449  0.32145305  1
  O  O101  1  0.75483363  0.66831449  0.17854695  1
  O  O102  1  0.25483363  0.83168551  0.32145305  1
  O  O103  1  0.74516637  0.83168551  0.17854695  1
  O  O104  1  0.75483363  0.33168551  0.67854695  1
  O  O105  1  0.24516637  0.33168551  0.82145305  1
  O  O106  1  0.74516637  0.16831449  0.67854695  1
  O  O107  1  0.25483363  0.16831449  0.82145305  1
  O  O108  1  0.45490127  0.58764343  0.66196296  1
  O  O109  1  0.54509873  0.58764343  0.83803704  1
  O  O110  1  0.04509873  0.91235657  0.66196296  1
  O  O111  1  0.95490127  0.91235657  0.83803704  1
  O  O112  1  0.54509873  0.41235657  0.33803704  1
  O  O113  1  0.45490127  0.41235657  0.16196296  1
  O  O114  1  0.95490127  0.08764343  0.33803704  1
  O  O115  1  0.04509873  0.08764343  0.16196296  1
  O  O116  1  0.44679281  0.77057390  0.09287601  1
  O  O117  1  0.55320719  0.77057390  0.40712399  1
  O  O118  1  0.05320719  0.72942610  0.09287601  1
  O  O119  1  0.94679281  0.72942610  0.40712399  1
  O  O120  1  0.55320719  0.22942610  0.90712399  1
  O  O121  1  0.44679281  0.22942610  0.59287601  1
  O  O122  1  0.94679281  0.27057390  0.90712399  1
  O  O123  1  0.05320719  0.27057390  0.59287601  1
  O  O124  1  0.47198798  0.91901437  0.34198495  1
  O  O125  1  0.52801202  0.91901437  0.15801505  1
  O  O126  1  0.02801202  0.58098563  0.34198495  1
  O  O127  1  0.97198798  0.58098563  0.15801505  1
  O  O128  1  0.52801202  0.08098563  0.65801505  1
  O  O129  1  0.47198798  0.08098563  0.84198495  1
  O  O130  1  0.97198798  0.41901437  0.65801505  1
  O  O131  1  0.02801202  0.41901437  0.84198495  1
