# generated using pymatgen
data_CaV2O10
_symmetry_space_group_name_H-M   'P 1'
_cell_length_a   8.07928231
_cell_length_b   9.56908289
_cell_length_c   6.89315988
_cell_angle_alpha   106.67314324
_cell_angle_beta   123.35571231
_cell_angle_gamma   99.70225038
_symmetry_Int_Tables_number   1
_chemical_formula_structural   CaV2O10
_chemical_formula_sum   'Ca2 V4 O20'
_cell_volume   389.35554643
_cell_formula_units_Z   2
loop_
 _symmetry_equiv_pos_site_id
 _symmetry_equiv_pos_as_xyz
  1  'x, y, z'
loop_
 _atom_site_type_symbol
 _atom_site_label
 _atom_site_symmetry_multiplicity
 _atom_site_fract_x
 _atom_site_fract_y
 _atom_site_fract_z
 _atom_site_occupancy
  Ca  Ca0  1  0.15332000  0.83519400  0.84664800  1
  Ca  Ca1  1  0.84668000  0.16480600  0.15335200  1
  V  V2  1  0.54752600  0.65771900  0.22118200  1
  V  V3  1  0.45247400  0.34228100  0.77881800  1
  V  V4  1  0.63655500  0.67798800  0.77419300  1
  V  V5  1  0.36344500  0.32201200  0.22580700  1
  O  O6  1  0.54472500  0.57835700  0.91836000  1
  O  O7  1  0.45527500  0.42164300  0.08164000  1
  O  O8  1  0.47334400  0.61551000  0.42637700  1
  O  O9  1  0.52665600  0.38449000  0.57362300  1
  O  O10  1  0.13374200  0.69490000  0.35988500  1
  O  O11  1  0.86625800  0.30510000  0.64011500  1
  O  O12  1  0.88752500  0.70039500  0.88154000  1
  O  O13  1  0.11247500  0.29960500  0.11846000  1
  O  O14  1  0.81441100  0.77613100  0.45419300  1
  O  O15  1  0.18558900  0.22386900  0.54580700  1
  O  O16  1  0.40363600  0.76574800  0.12102500  1
  O  O17  1  0.59636400  0.23425200  0.87897500  1
  O  O18  1  0.64313900  0.86232700  0.90403500  1
  O  O19  1  0.35686100  0.13767300  0.09596500  1
  O  O20  1  0.06015100  0.99814000  0.10653400  1
  O  O21  1  0.93984900  0.00186000  0.89346600  1
  O  O22  1  0.25337700  0.84036300  0.54880300  1
  O  O23  1  0.74662300  0.15963700  0.45119700  1
  O  O24  1  0.96759900  0.40244100  0.60452200  1
  O  O25  1  0.03240100  0.59755900  0.39547800  1
