# generated using pymatgen
data_Fe4As3O23
_symmetry_space_group_name_H-M   'P 1'
_cell_length_a   7.91677100
_cell_length_b   7.92518221
_cell_length_c   7.94318736
_cell_angle_alpha   88.66466058
_cell_angle_beta   89.42636810
_cell_angle_gamma   89.62559158
_symmetry_Int_Tables_number   1
_chemical_formula_structural   Fe4As3O23
_chemical_formula_sum   'Fe4 As3 O23'
_cell_volume   498.20007885
_cell_formula_units_Z   1
loop_
 _symmetry_equiv_pos_site_id
 _symmetry_equiv_pos_as_xyz
  1  'x, y, z'
loop_
 _atom_site_type_symbol
 _atom_site_label
 _atom_site_symmetry_multiplicity
 _atom_site_fract_x
 _atom_site_fract_y
 _atom_site_fract_z
 _atom_site_occupancy
  Fe  Fe0  1  0.13320300  0.86831400  0.86768300  1
  Fe  Fe1  1  0.86020300  0.86051300  0.14264400  1
  Fe  Fe2  1  0.86048400  0.14197000  0.86008700  1
  Fe  Fe3  1  0.13099900  0.12967800  0.12953200  1
  As  As4  1  0.49490200  0.99822700  0.99860400  1
  As  As5  1  0.00017900  0.00327500  0.50001100  1
  As  As6  1  0.00030400  0.50002600  0.00286400  1
  O  O7  1  0.13394500  0.62720100  0.88105000  1
  O  O8  1  0.37553300  0.87095700  0.87164700  1
  O  O9  1  0.13521500  0.88275000  0.62659000  1
  O  O10  1  0.87922300  0.61530500  0.13885700  1
  O  O11  1  0.61679700  0.87100700  0.12675400  1
  O  O12  1  0.87643100  0.87133000  0.38730200  1
  O  O13  1  0.87593300  0.38666200  0.87234900  1
  O  O14  1  0.61734200  0.12746000  0.87270100  1
  O  O15  1  0.87958400  0.13865500  0.61573200  1
  O  O16  1  0.13474800  0.37014000  0.11923700  1
  O  O17  1  0.37184600  0.12489200  0.12595200  1
  O  O18  1  0.13425000  0.12016200  0.36917700  1
  O  O19  1  0.89278000  0.11802400  0.11814700  1
  O  O20  1  0.12186100  0.11373000  0.88625000  1
  O  O21  1  0.12129100  0.88609500  0.11340800  1
  O  O22  1  0.89467500  0.88220700  0.88248100  1
  O  O23  1  0.89254400  0.53155100  0.52815000  1
  O  O24  1  0.49382300  0.50880500  0.00379300  1
  O  O25  1  0.47792700  0.97011200  0.50495600  1
  O  O26  1  0.55201600  0.50676000  0.36543100  1
  O  O27  1  0.38466800  0.40981900  0.56936600  1
  O  O28  1  0.40464300  0.50329500  0.43714000  1
  O  O29  1  0.75265100  0.56108000  0.58210500  1
