# generated using pymatgen
data_Ba2Zn(HO)6
_symmetry_space_group_name_H-M   'P 1'
_cell_length_a   6.07978104
_cell_length_b   5.69833700
_cell_length_c   10.85057377
_cell_angle_alpha   90.00000000
_cell_angle_beta   109.05104296
_cell_angle_gamma   90.00000000
_symmetry_Int_Tables_number   1
_chemical_formula_structural   Ba2Zn(HO)6
_chemical_formula_sum   'Ba4 Zn2 H12 O12'
_cell_volume   355.32472183
_cell_formula_units_Z   2
loop_
 _symmetry_equiv_pos_site_id
 _symmetry_equiv_pos_as_xyz
  1  'x, y, z'
loop_
 _atom_site_type_symbol
 _atom_site_label
 _atom_site_symmetry_multiplicity
 _atom_site_fract_x
 _atom_site_fract_y
 _atom_site_fract_z
 _atom_site_occupancy
  Ba  Ba0  1  0.02373600  0.51368700  0.25046500  1
  Ba  Ba1  1  0.52373600  0.98631300  0.75046500  1
  Ba  Ba2  1  0.97626400  0.48631300  0.74953500  1
  Ba  Ba3  1  0.47626400  0.01368700  0.24953500  1
  Zn  Zn4  1  0.50000000  0.50000000  0.00000000  1
  Zn  Zn5  1  0.00000000  0.00000000  0.50000000  1
  H  H6  1  0.65319400  0.76048500  0.50547900  1
  H  H7  1  0.15319400  0.73951500  0.00547900  1
  H  H8  1  0.34680600  0.23951500  0.49452100  1
  H  H9  1  0.84680600  0.26048500  0.99452100  1
  H  H10  1  0.47697600  0.26323700  0.50356400  1
  H  H11  1  0.97697600  0.23676300  0.00356400  1
  H  H12  1  0.52302400  0.73676300  0.49643600  1
  H  H13  1  0.02302400  0.76323700  0.99643600  1
  H  H14  1  0.77388500  0.35753700  0.41724400  1
  H  H15  1  0.27388500  0.14246300  0.91724400  1
  H  H16  1  0.22611500  0.64246300  0.58275600  1
  H  H17  1  0.72611500  0.85753700  0.08275600  1
  O  O18  1  0.36253200  0.49480100  0.75756800  1
  O  O19  1  0.86253200  0.00519900  0.25756800  1
  O  O20  1  0.63746800  0.50519900  0.24243200  1
  O  O21  1  0.13746800  0.99480100  0.74243200  1
  O  O22  1  0.89560000  0.98543800  0.74712400  1
  O  O23  1  0.39560000  0.51456200  0.24712400  1
  O  O24  1  0.10440000  0.01456200  0.25287600  1
  O  O25  1  0.60440000  0.48543800  0.75287600  1
  O  O26  1  0.31495900  0.23730600  0.99812200  1
  O  O27  1  0.81495900  0.26269400  0.49812200  1
  O  O28  1  0.68504100  0.76269400  0.00187800  1
  O  O29  1  0.18504100  0.73730600  0.50187800  1
