# generated using pymatgen
data_BaOsO9
_symmetry_space_group_name_H-M   'P 1'
_cell_length_a   7.04793200
_cell_length_b   7.61661000
_cell_length_c   13.27220800
_cell_angle_alpha   90.00000000
_cell_angle_beta   90.00000000
_cell_angle_gamma   90.00000000
_symmetry_Int_Tables_number   1
_chemical_formula_structural   BaOsO9
_chemical_formula_sum   'Ba4 Os4 O36'
_cell_volume   712.47003430
_cell_formula_units_Z   4
loop_
 _symmetry_equiv_pos_site_id
 _symmetry_equiv_pos_as_xyz
  1  'x, y, z'
loop_
 _atom_site_type_symbol
 _atom_site_label
 _atom_site_symmetry_multiplicity
 _atom_site_fract_x
 _atom_site_fract_y
 _atom_site_fract_z
 _atom_site_occupancy
  Ba  Ba0  1  0.25000000  0.70185600  0.65680500  1
  Ba  Ba1  1  0.25000000  0.20185600  0.84319500  1
  Ba  Ba2  1  0.75000000  0.29814400  0.34319500  1
  Ba  Ba3  1  0.75000000  0.79814400  0.15680500  1
  Os  Os4  1  0.25000000  0.24403800  0.53834500  1
  Os  Os5  1  0.25000000  0.74403800  0.96165500  1
  Os  Os6  1  0.75000000  0.75596200  0.46165500  1
  Os  Os7  1  0.75000000  0.25596200  0.03834500  1
  O  O8  1  0.25000000  0.39748800  0.25744800  1
  O  O9  1  0.25000000  0.89748800  0.24255200  1
  O  O10  1  0.75000000  0.60251200  0.74255200  1
  O  O11  1  0.75000000  0.10251200  0.75744800  1
  O  O12  1  0.06272300  0.18790500  0.45573300  1
  O  O13  1  0.43727700  0.68790500  0.04426700  1
  O  O14  1  0.56272300  0.81209500  0.54426700  1
  O  O15  1  0.93727700  0.31209500  0.95573300  1
  O  O16  1  0.93727700  0.81209500  0.54426700  1
  O  O17  1  0.56272300  0.31209500  0.95573300  1
  O  O18  1  0.43727700  0.18790500  0.45573300  1
  O  O19  1  0.06272300  0.68790500  0.04426700  1
  O  O20  1  0.07254000  0.39097100  0.61167500  1
  O  O21  1  0.42746000  0.89097100  0.88832500  1
  O  O22  1  0.57254000  0.60902900  0.38832500  1
  O  O23  1  0.92746000  0.10902900  0.11167500  1
  O  O24  1  0.92746000  0.60902900  0.38832500  1
  O  O25  1  0.57254000  0.10902900  0.11167500  1
  O  O26  1  0.42746000  0.39097100  0.61167500  1
  O  O27  1  0.07254000  0.89097100  0.88832500  1
  O  O28  1  0.25000000  0.07502700  0.63073700  1
  O  O29  1  0.25000000  0.57502700  0.86926300  1
  O  O30  1  0.75000000  0.92497300  0.36926300  1
  O  O31  1  0.75000000  0.42497300  0.13073700  1
  O  O32  1  0.90723300  0.02309300  0.73605400  1
  O  O33  1  0.59276700  0.52309300  0.76394600  1
  O  O34  1  0.40723300  0.97690700  0.26394600  1
  O  O35  1  0.09276700  0.47690700  0.23605400  1
  O  O36  1  0.09276700  0.97690700  0.26394600  1
  O  O37  1  0.40723300  0.47690700  0.23605400  1
  O  O38  1  0.59276700  0.02309300  0.73605400  1
  O  O39  1  0.90723300  0.52309300  0.76394600  1
  O  O40  1  0.25000000  0.49587200  0.48710300  1
  O  O41  1  0.25000000  0.99587200  0.01289700  1
  O  O42  1  0.75000000  0.50412800  0.51289700  1
  O  O43  1  0.75000000  0.00412800  0.98710300  1
