# generated using pymatgen
data_C
_symmetry_space_group_name_H-M   'P 1'
_cell_length_a   9.33519600
_cell_length_b   10.90004800
_cell_length_c   14.52495400
_cell_angle_alpha   90.00000000
_cell_angle_beta   90.00000000
_cell_angle_gamma   90.00000000
_symmetry_Int_Tables_number   1
_chemical_formula_structural   C
_chemical_formula_sum   C80
_cell_volume   1477.97339652
_cell_formula_units_Z   80
loop_
 _symmetry_equiv_pos_site_id
 _symmetry_equiv_pos_as_xyz
  1  'x, y, z'
loop_
 _atom_site_type_symbol
 _atom_site_label
 _atom_site_symmetry_multiplicity
 _atom_site_fract_x
 _atom_site_fract_y
 _atom_site_fract_z
 _atom_site_occupancy
  C  C0  1  0.16511800  0.26698000  0.88687600  1
  C  C1  1  0.83488200  0.76698000  0.61312400  1
  C  C2  1  0.33488200  0.73302000  0.38687600  1
  C  C3  1  0.66511800  0.23302000  0.11312400  1
  C  C4  1  0.15664300  0.16575100  0.82657800  1
  C  C5  1  0.84335700  0.66575100  0.67342200  1
  C  C6  1  0.34335700  0.83424900  0.32657800  1
  C  C7  1  0.65664300  0.33424900  0.17342200  1
  C  C8  1  0.12089700  0.08272500  0.66541100  1
  C  C9  1  0.87910300  0.58272500  0.83458900  1
  C  C10  1  0.37910300  0.91727500  0.16541100  1
  C  C11  1  0.62089700  0.41727500  0.33458900  1
  C  C12  1  0.09770100  0.04888000  0.58551100  1
  C  C13  1  0.90229900  0.54888000  0.91448900  1
  C  C14  1  0.40229900  0.95112000  0.08551100  1
  C  C15  1  0.59770100  0.45112000  0.41448900  1
  C  C16  1  0.05259300  0.25790100  0.31196000  1
  C  C17  1  0.94740700  0.75790100  0.18804000  1
  C  C18  1  0.44740700  0.74209900  0.81196000  1
  C  C19  1  0.55259300  0.24209900  0.68804000  1
  C  C20  1  0.04198200  0.37097300  0.33617900  1
  C  C21  1  0.95801800  0.87097300  0.16382100  1
  C  C22  1  0.45801800  0.62902700  0.83617900  1
  C  C23  1  0.54198200  0.12902700  0.66382100  1
  C  C24  1  0.04701500  0.39578500  0.42532800  1
  C  C25  1  0.95298500  0.89578500  0.07467200  1
  C  C26  1  0.45298500  0.60421500  0.92532800  1
  C  C27  1  0.54701500  0.10421500  0.57467200  1
  C  C28  1  0.04056900  0.37017400  0.51216200  1
  C  C29  1  0.95943100  0.87017400  0.98783800  1
  C  C30  1  0.45943100  0.62982600  0.01216200  1
  C  C31  1  0.54056900  0.12982600  0.48783800  1
  C  C32  1  0.11017300  0.39443400  0.75572300  1
  C  C33  1  0.88982700  0.89443400  0.74427700  1
  C  C34  1  0.38982700  0.60556600  0.25572300  1
  C  C35  1  0.61017300  0.10556600  0.24427700  1
  C  C36  1  0.13740400  0.38241300  0.84133800  1
  C  C37  1  0.86259600  0.88241300  0.65866200  1
  C  C38  1  0.36259600  0.61758700  0.34133800  1
  C  C39  1  0.63740400  0.11758700  0.15866200  1
  C  C40  1  0.12720800  0.17423200  0.73476500  1
  C  C41  1  0.87279200  0.67423200  0.76523500  1
  C  C42  1  0.37279200  0.82576800  0.23476500  1
  C  C43  1  0.62720800  0.32576800  0.26523500  1
  C  C44  1  0.04204600  0.10634700  0.50400300  1
  C  C45  1  0.95795400  0.60634700  0.99599700  1
  C  C46  1  0.45795400  0.89365300  0.00400300  1
  C  C47  1  0.54204600  0.39365300  0.49599700  1
  C  C48  1  0.05582900  0.30963500  0.59783500  1
  C  C49  1  0.94417100  0.80963500  0.90216500  1
  C  C50  1  0.44417100  0.69036500  0.09783500  1
  C  C51  1  0.55582900  0.19036500  0.40216500  1
  C  C52  1  0.09520200  0.30203600  0.69252800  1
  C  C53  1  0.90479800  0.80203600  0.80747200  1
  C  C54  1  0.40479800  0.69796400  0.19252800  1
  C  C55  1  0.59520200  0.19796400  0.30747200  1
  C  C56  1  0.24575800  0.26683300  0.06063500  1
  C  C57  1  0.75424200  0.76683300  0.43936500  1
  C  C58  1  0.25424200  0.73316700  0.56063500  1
  C  C59  1  0.74575800  0.23316700  0.93936500  1
  C  C60  1  0.29272100  0.28766900  0.14393500  1
  C  C61  1  0.70727900  0.78766900  0.35606500  1
  C  C62  1  0.20727900  0.71233100  0.64393500  1
  C  C63  1  0.79272100  0.21233100  0.85606500  1
  C  C64  1  0.20325800  0.25775800  0.97715800  1
  C  C65  1  0.79674200  0.75775800  0.52284200  1
  C  C66  1  0.29674200  0.74224200  0.47715800  1
  C  C67  1  0.70325800  0.24224200  0.02284200  1
  C  C68  1  0.02335100  0.13986400  0.32906700  1
  C  C69  1  0.97664900  0.63986400  0.17093300  1
  C  C70  1  0.47664900  0.86013600  0.82906700  1
  C  C71  1  0.52335100  0.36013600  0.67093300  1
  C  C72  1  0.03914800  0.09359600  0.40854900  1
  C  C73  1  0.96085200  0.59359600  0.09145100  1
  C  C74  1  0.46085200  0.90640400  0.90854900  1
  C  C75  1  0.53914800  0.40640400  0.59145100  1
  C  C76  1  0.02518800  0.22742300  0.53121800  1
  C  C77  1  0.97481200  0.72742300  0.96878200  1
  C  C78  1  0.47481200  0.77257700  0.03121800  1
  C  C79  1  0.52518800  0.27257700  0.46878200  1
