# generated using pymatgen
data_Ag3SbS3
_symmetry_space_group_name_H-M   'P 1'
_cell_length_a   4.90566300
_cell_length_b   5.05211538
_cell_length_c   14.20266271
_cell_angle_alpha   89.92541122
_cell_angle_beta   99.94496982
_cell_angle_gamma   90.43190270
_symmetry_Int_Tables_number   1
_chemical_formula_structural   Ag3SbS3
_chemical_formula_sum   'Ag6 Sb2 S6'
_cell_volume   346.69949368
_cell_formula_units_Z   2
loop_
 _symmetry_equiv_pos_site_id
 _symmetry_equiv_pos_as_xyz
  1  'x, y, z'
loop_
 _atom_site_type_symbol
 _atom_site_label
 _atom_site_symmetry_multiplicity
 _atom_site_fract_x
 _atom_site_fract_y
 _atom_site_fract_z
 _atom_site_occupancy
  Ag  Ag0  1  0.67852000  0.73476800  0.13064300  1
  Ag  Ag1  1  0.54787700  0.23476800  0.86935700  1
  Ag  Ag2  1  0.13626400  0.46584000  0.50185400  1
  Ag  Ag3  1  0.09234700  0.01639700  0.67961700  1
  Ag  Ag4  1  0.41273000  0.51639700  0.32038300  1
  Ag  Ag5  1  0.63441000  0.96584000  0.49814600  1
  Sb  Sb6  1  0.14888800  0.52716700  0.05749000  1
  Sb  Sb7  1  0.09139800  0.02716700  0.94251000  1
  S  S8  1  0.63210000  0.46718000  0.49306800  1
  S  S9  1  0.13903200  0.96718000  0.50693200  1
  S  S10  1  0.07362800  0.88810200  0.25680900  1
  S  S11  1  0.14673500  0.62524600  0.79868300  1
  S  S12  1  0.34805200  0.12524600  0.20131700  1
  S  S13  1  0.81681900  0.38810200  0.74319100  1
