# generated using pymatgen
data_Al2(WO4)3
_symmetry_space_group_name_H-M   'P 1'
_cell_length_a   9.31313600
_cell_length_b   9.21372900
_cell_length_c   12.90492797
_cell_angle_alpha   89.94044401
_cell_angle_beta   90.00000000
_cell_angle_gamma   90.00000000
_symmetry_Int_Tables_number   1
_chemical_formula_structural   Al2(WO4)3
_chemical_formula_sum   'Al8 W12 O48'
_cell_volume   1107.35463972
_cell_formula_units_Z   4
loop_
 _symmetry_equiv_pos_site_id
 _symmetry_equiv_pos_as_xyz
  1  'x, y, z'
loop_
 _atom_site_type_symbol
 _atom_site_label
 _atom_site_symmetry_multiplicity
 _atom_site_fract_x
 _atom_site_fract_y
 _atom_site_fract_z
 _atom_site_occupancy
  Al  Al0  1  0.46763000  0.00470600  0.13484300  1
  Al  Al1  1  0.46851300  0.49540900  0.87167400  1
  Al  Al2  1  0.53604100  0.50623700  0.37153300  1
  Al  Al3  1  0.52999000  0.99586400  0.63630900  1
  Al  Al4  1  0.96851300  0.50459100  0.12832600  1
  Al  Al5  1  0.02999000  0.00413600  0.36369100  1
  Al  Al6  1  0.03604100  0.49376300  0.62846700  1
  Al  Al7  1  0.96763000  0.99529400  0.86515700  1
  W  W8  1  0.37999600  0.14728400  0.39843000  1
  W  W9  1  0.38612100  0.64014700  0.60920200  1
  W  W10  1  0.87999600  0.85271600  0.60157000  1
  W  W11  1  0.25005500  0.22337100  0.75167800  1
  W  W12  1  0.11792200  0.64091800  0.88976900  1
  W  W13  1  0.11924900  0.14520600  0.10072000  1
  W  W14  1  0.75005500  0.77662900  0.24832200  1
  W  W15  1  0.61924900  0.85479400  0.89928000  1
  W  W16  1  0.88612100  0.35985300  0.39079800  1
  W  W17  1  0.75029200  0.27191400  0.75055700  1
  W  W18  1  0.25029200  0.72808600  0.24944300  1
  W  W19  1  0.61792200  0.35908200  0.11023100  1
  O  O20  1  0.34390200  0.33418000  0.84610200  1
  O  O21  1  0.49982800  0.56925800  0.50741200  1
  O  O22  1  0.93528900  0.44087100  0.26798100  1
  O  O23  1  0.99982800  0.43074200  0.49258800  1
  O  O24  1  0.83506500  0.15317900  0.84436000  1
  O  O25  1  0.37484500  0.10362600  0.68957600  1
  O  O26  1  0.80588000  0.39441900  0.08466200  1
  O  O27  1  0.07028900  0.55597600  0.76856100  1
  O  O28  1  0.15404800  0.84057600  0.34074400  1
  O  O29  1  0.88091300  0.37883400  0.67943200  1
  O  O30  1  0.43528900  0.55912900  0.73201900  1
  O  O31  1  0.90617500  0.16541500  0.38108200  1
  O  O32  1  0.08656600  0.33902900  0.10235400  1
  O  O33  1  0.61539500  0.88297900  0.18268000  1
  O  O34  1  0.01347700  0.05630300  0.00148300  1
  O  O35  1  0.98096700  0.93634300  0.49739300  1
  O  O36  1  0.50575100  0.43142500  0.00783100  1
  O  O37  1  0.66580600  0.66525200  0.34691900  1
  O  O38  1  0.68835700  0.88391300  0.58681600  1
  O  O39  1  0.30588000  0.60558100  0.91533800  1
  O  O40  1  0.06949100  0.06940400  0.22416200  1
  O  O41  1  0.33506500  0.84682100  0.15564000  1
  O  O42  1  0.09354800  0.83497000  0.87770800  1
  O  O43  1  0.87484500  0.89637400  0.31042400  1
  O  O44  1  0.91553400  0.65927500  0.60628300  1
  O  O45  1  0.81149400  0.88283000  0.91405300  1
  O  O46  1  0.59354800  0.16503000  0.12229200  1
  O  O47  1  0.69867300  0.39605100  0.41671700  1
  O  O48  1  0.93346700  0.93592900  0.72197500  1
  O  O49  1  0.18835700  0.11608700  0.41318400  1
  O  O50  1  0.00575100  0.56857500  0.99216900  1
  O  O51  1  0.40617500  0.83458500  0.61891800  1
  O  O52  1  0.11539500  0.11702100  0.81732000  1
  O  O53  1  0.51347700  0.94369700  0.99851700  1
  O  O54  1  0.56949100  0.93059600  0.77583800  1
  O  O55  1  0.65404800  0.15942400  0.65925600  1
  O  O56  1  0.57028900  0.44402400  0.23143900  1
  O  O57  1  0.31149400  0.11717000  0.08594700  1
  O  O58  1  0.58656600  0.66097100  0.89764600  1
  O  O59  1  0.48096700  0.06365700  0.50260700  1
  O  O60  1  0.38091300  0.62116600  0.32056800  1
  O  O61  1  0.43346700  0.06407100  0.27802500  1
  O  O62  1  0.16580600  0.33474800  0.65308100  1
  O  O63  1  0.41553400  0.34072500  0.39371700  1
  O  O64  1  0.12753100  0.61248400  0.17898200  1
  O  O65  1  0.62753100  0.38751600  0.82101800  1
  O  O66  1  0.19867300  0.60394900  0.58328300  1
  O  O67  1  0.84390200  0.66582000  0.15389800  1
