# generated using pymatgen
data_Al(HO)3
_symmetry_space_group_name_H-M   'P 1'
_cell_length_a   4.83598400
_cell_length_b   5.10124477
_cell_length_c   5.13303466
_cell_angle_alpha   119.02113438
_cell_angle_beta   98.37932690
_cell_angle_gamma   92.54934201
_symmetry_Int_Tables_number   1
_chemical_formula_structural   Al(HO)3
_chemical_formula_sum   'Al2 H6 O6'
_cell_volume   108.57282947
_cell_formula_units_Z   2
loop_
 _symmetry_equiv_pos_site_id
 _symmetry_equiv_pos_as_xyz
  1  'x, y, z'
loop_
 _atom_site_type_symbol
 _atom_site_label
 _atom_site_symmetry_multiplicity
 _atom_site_fract_x
 _atom_site_fract_y
 _atom_site_fract_z
 _atom_site_occupancy
  Al  Al0  1  0.00195700  0.32889100  0.66700500  1
  Al  Al1  1  0.00062600  0.66049300  0.32577500  1
  H  H2  1  0.40167700  0.36976700  0.10766900  1
  H  H3  1  0.39945700  0.06237000  0.39759000  1
  H  H4  1  0.19652300  0.84456000  0.85368100  1
  H  H5  1  0.59542800  0.60700400  0.88940700  1
  H  H6  1  0.62693500  0.90801300  0.64132100  1
  H  H7  1  0.81297600  0.14537500  0.14718500  1
  O  O8  1  0.20994600  0.40037700  0.04565400  1
  O  O9  1  0.20186700  0.03105800  0.40929000  1
  O  O10  1  0.22819400  0.66158200  0.67581900  1
  O  O11  1  0.79330600  0.58948400  0.94550300  1
  O  O12  1  0.78715300  0.95502500  0.56848900  1
  O  O13  1  0.77599400  0.33093100  0.31848100  1
