# generated using pymatgen
data_Ag2TeO6
_symmetry_space_group_name_H-M   'P 1'
_cell_length_a   8.50745102
_cell_length_b   6.76559598
_cell_length_c   10.14349600
_cell_angle_alpha   56.26712771
_cell_angle_beta   41.26987439
_cell_angle_gamma   82.14465441
_symmetry_Int_Tables_number   1
_chemical_formula_structural   Ag2TeO6
_chemical_formula_sum   'Ag4 Te2 O12'
_cell_volume   275.15469259
_cell_formula_units_Z   2
loop_
 _symmetry_equiv_pos_site_id
 _symmetry_equiv_pos_as_xyz
  1  'x, y, z'
loop_
 _atom_site_type_symbol
 _atom_site_label
 _atom_site_symmetry_multiplicity
 _atom_site_fract_x
 _atom_site_fract_y
 _atom_site_fract_z
 _atom_site_occupancy
  Ag  Ag0  1  0.89226900  0.65426900  0.77822400  1
  Ag  Ag1  1  0.69700700  0.65770000  0.63018400  1
  Ag  Ag2  1  0.46917800  0.57460900  0.35800900  1
  Ag  Ag3  1  0.61891500  0.23650100  0.55196700  1
  Te  Te4  1  0.22915400  0.27707700  0.26485600  1
  Te  Te5  1  0.98377800  0.02079100  0.02068400  1
  O  O6  1  0.62088600  0.35942000  0.92873100  1
  O  O7  1  0.09676300  0.92336400  0.37814700  1
  O  O8  1  0.31942500  0.15889200  0.62928600  1
  O  O9  1  0.87067300  0.64791200  0.15290100  1
  O  O10  1  0.45720900  0.57124400  0.13659400  1
  O  O11  1  0.87946600  0.25400800  0.52647800  1
  O  O12  1  0.11223900  0.41516000  0.79264500  1
  O  O13  1  0.72177000  0.90898500  0.37020600  1
  O  O14  1  0.16782700  0.02532000  0.54321400  1
  O  O15  1  0.27630900  0.48198500  0.99649200  1
  O  O16  1  0.70468500  0.98640900  0.08230700  1
  O  O17  1  0.25317900  0.00459500  0.97231200  1
