# generated using pymatgen
data_CeP3O14
_symmetry_space_group_name_H-M   'P 1'
_cell_length_a   7.35117100
_cell_length_b   12.75233400
_cell_length_c   15.58101900
_cell_angle_alpha   90.00000000
_cell_angle_beta   90.00000000
_cell_angle_gamma   90.00000000
_symmetry_Int_Tables_number   1
_chemical_formula_structural   CeP3O14
_chemical_formula_sum   'Ce4 P12 O56'
_cell_volume   1460.63620495
_cell_formula_units_Z   4
loop_
 _symmetry_equiv_pos_site_id
 _symmetry_equiv_pos_as_xyz
  1  'x, y, z'
loop_
 _atom_site_type_symbol
 _atom_site_label
 _atom_site_symmetry_multiplicity
 _atom_site_fract_x
 _atom_site_fract_y
 _atom_site_fract_z
 _atom_site_occupancy
  Ce  Ce0  1  0.54221600  0.97741800  0.93894200  1
  Ce  Ce1  1  0.04221600  0.52258200  0.06105800  1
  Ce  Ce2  1  0.95778400  0.02258200  0.43894200  1
  Ce  Ce3  1  0.45778400  0.47741800  0.56105800  1
  P  P4  1  0.53797200  0.61039200  0.10773100  1
  P  P5  1  0.03797200  0.88960800  0.89226900  1
  P  P6  1  0.96202800  0.38960800  0.60773100  1
  P  P7  1  0.46202800  0.11039200  0.39226900  1
  P  P8  1  0.19418300  0.49047400  0.77664400  1
  P  P9  1  0.69418300  0.00952600  0.22335600  1
  P  P10  1  0.30581700  0.50952600  0.27664400  1
  P  P11  1  0.80581700  0.99047400  0.72335600  1
  P  P12  1  0.26398700  0.78241200  0.08140300  1
  P  P13  1  0.76398700  0.71758800  0.91859700  1
  P  P14  1  0.23601300  0.21758800  0.58140300  1
  P  P15  1  0.73601300  0.28241200  0.41859700  1
  O  O16  1  0.93745200  0.09004400  0.74610200  1
  O  O17  1  0.43745200  0.40995600  0.25389800  1
  O  O18  1  0.56254800  0.90995600  0.24610200  1
  O  O19  1  0.06254800  0.59004400  0.75389800  1
  O  O20  1  0.05594900  0.27028800  0.62083000  1
  O  O21  1  0.55594900  0.22971200  0.37917000  1
  O  O22  1  0.44405100  0.72971200  0.12083000  1
  O  O23  1  0.94405100  0.77028800  0.87917000  1
  O  O24  1  0.32735600  0.17517100  0.67656200  1
  O  O25  1  0.82735600  0.32482900  0.32343800  1
  O  O26  1  0.17264400  0.82482900  0.17656200  1
  O  O27  1  0.67264400  0.67517100  0.82343800  1
  O  O28  1  0.70124800  0.14344600  0.92081800  1
  O  O29  1  0.20124800  0.35655400  0.07918200  1
  O  O30  1  0.79875200  0.85655400  0.42081800  1
  O  O31  1  0.29875200  0.64344600  0.57918200  1
  O  O32  1  0.41221200  0.54440700  0.05556200  1
  O  O33  1  0.91221200  0.95559300  0.94443800  1
  O  O34  1  0.08778800  0.45559300  0.55556200  1
  O  O35  1  0.58778800  0.04440700  0.44443800  1
  O  O36  1  0.27729900  0.08776100  0.14747200  1
  O  O37  1  0.77729900  0.41223900  0.85252800  1
  O  O38  1  0.22270100  0.91223900  0.64747200  1
  O  O39  1  0.72270100  0.58776100  0.35252800  1
  O  O40  1  0.17253000  0.54028600  0.20781300  1
  O  O41  1  0.67253000  0.95971400  0.79218700  1
  O  O42  1  0.32747000  0.45971400  0.70781300  1
  O  O43  1  0.82747000  0.04028600  0.29218700  1
  O  O44  1  0.13677800  0.70150100  0.04558000  1
  O  O45  1  0.63677800  0.79849900  0.95442000  1
  O  O46  1  0.36322200  0.29849900  0.54558000  1
  O  O47  1  0.86322200  0.20150100  0.45442000  1
  O  O48  1  0.17893200  0.34971100  0.99733700  1
  O  O49  1  0.67893200  0.15028900  0.00266300  1
  O  O50  1  0.32106800  0.65028900  0.49733700  1
  O  O51  1  0.82106800  0.84971100  0.50266300  1
  O  O52  1  0.83951700  0.47602000  0.11619100  1
  O  O53  1  0.33951700  0.02398000  0.88380900  1
  O  O54  1  0.66048300  0.52398000  0.61619100  1
  O  O55  1  0.16048300  0.97602000  0.38380900  1
  O  O56  1  0.80900700  0.62346900  0.97226100  1
  O  O57  1  0.30900700  0.87653100  0.02773900  1
  O  O58  1  0.69099300  0.37653100  0.47226100  1
  O  O59  1  0.19099300  0.12346900  0.52773900  1
  O  O60  1  0.74145500  0.39090400  0.92781300  1
  O  O61  1  0.24145500  0.10909600  0.07218700  1
  O  O62  1  0.75854500  0.60909600  0.42781300  1
  O  O63  1  0.25854500  0.89090400  0.57218700  1
  O  O64  1  0.00482100  0.34693900  0.33701800  1
  O  O65  1  0.50482100  0.15306100  0.66298200  1
  O  O66  1  0.49517900  0.65306100  0.83701800  1
  O  O67  1  0.99517900  0.84693900  0.16298200  1
  O  O68  1  0.05423500  0.65973900  0.68704700  1
  O  O69  1  0.55423500  0.84026100  0.31295300  1
  O  O70  1  0.44576500  0.34026100  0.18704700  1
  O  O71  1  0.94576500  0.15973900  0.81295300  1
