# generated using pymatgen
data_AlO3
_symmetry_space_group_name_H-M   'P 1'
_cell_length_a   5.42279952
_cell_length_b   5.42279952
_cell_length_c   4.01963500
_cell_angle_alpha   90.00000000
_cell_angle_beta   90.00000000
_cell_angle_gamma   119.99999409
_symmetry_Int_Tables_number   1
_chemical_formula_structural   AlO3
_chemical_formula_sum   'Al2 O6'
_cell_volume   102.36803662
_cell_formula_units_Z   2
loop_
 _symmetry_equiv_pos_site_id
 _symmetry_equiv_pos_as_xyz
  1  'x, y, z'
loop_
 _atom_site_type_symbol
 _atom_site_label
 _atom_site_symmetry_multiplicity
 _atom_site_fract_x
 _atom_site_fract_y
 _atom_site_fract_z
 _atom_site_occupancy
  Al  Al0  1  0.33333300  0.66666700  0.00000000  1
  Al  Al1  1  0.66666700  0.33333300  0.00000000  1
  O  O2  1  0.60956000  0.00000000  0.78134300  1
  O  O3  1  0.39044000  0.39044000  0.78134300  1
  O  O4  1  0.00000000  0.60956000  0.78134300  1
  O  O5  1  0.39044000  0.00000000  0.21865700  1
  O  O6  1  0.60956000  0.60956000  0.21865700  1
  O  O7  1  0.00000000  0.39044000  0.21865700  1
