# generated using pymatgen
data_AlPb3OF9
_symmetry_space_group_name_H-M   'P 1'
_cell_length_a   5.75445800
_cell_length_b   5.87068900
_cell_length_c   26.80597941
_cell_angle_alpha   79.25521373
_cell_angle_beta   90.00000000
_cell_angle_gamma   90.00000000
_symmetry_Int_Tables_number   1
_chemical_formula_structural   AlPb3OF9
_chemical_formula_sum   'Al4 Pb12 O4 F36'
_cell_volume   889.69943010
_cell_formula_units_Z   4
loop_
 _symmetry_equiv_pos_site_id
 _symmetry_equiv_pos_as_xyz
  1  'x, y, z'
loop_
 _atom_site_type_symbol
 _atom_site_label
 _atom_site_symmetry_multiplicity
 _atom_site_fract_x
 _atom_site_fract_y
 _atom_site_fract_z
 _atom_site_occupancy
  Al  Al0  1  0.80124900  0.33752900  0.40303900  1
  Al  Al1  1  0.69875100  0.33752900  0.90303900  1
  Al  Al2  1  0.19875100  0.66247100  0.59696100  1
  Al  Al3  1  0.30124900  0.66247100  0.09696100  1
  Pb  Pb4  1  0.28619500  0.84318900  0.42521100  1
  Pb  Pb5  1  0.21380500  0.84318900  0.92521100  1
  Pb  Pb6  1  0.71380500  0.15681100  0.57478900  1
  Pb  Pb7  1  0.78619500  0.15681100  0.07478900  1
  Pb  Pb8  1  0.30160500  0.46978000  0.30906600  1
  Pb  Pb9  1  0.19839500  0.46978000  0.80906600  1
  Pb  Pb10  1  0.69839500  0.53022000  0.69093400  1
  Pb  Pb11  1  0.80160500  0.53022000  0.19093400  1
  Pb  Pb12  1  0.82973900  0.93498400  0.30542000  1
  Pb  Pb13  1  0.67026100  0.93498400  0.80542000  1
  Pb  Pb14  1  0.17026100  0.06501600  0.69458000  1
  Pb  Pb15  1  0.32973900  0.06501600  0.19458000  1
  O  O16  1  0.41679700  0.43281600  0.50110600  1
  O  O17  1  0.08320300  0.43281600  0.00110600  1
  O  O18  1  0.58320300  0.56718400  0.49889400  1
  O  O19  1  0.91679700  0.56718400  0.99889400  1
  F  F20  1  0.63587900  0.09989100  0.37995900  1
  F  F21  1  0.86412100  0.09989100  0.87995900  1
  F  F22  1  0.36412100  0.90010900  0.62004100  1
  F  F23  1  0.13587900  0.90010900  0.12004100  1
  F  F24  1  0.85524200  0.47285300  0.33371500  1
  F  F25  1  0.64475800  0.47285300  0.83371500  1
  F  F26  1  0.14475800  0.52714700  0.66628500  1
  F  F27  1  0.35524200  0.52714700  0.16628500  1
  F  F28  1  0.76809300  0.18998600  0.46653400  1
  F  F29  1  0.73190700  0.18998600  0.96653400  1
  F  F30  1  0.23190700  0.81001400  0.53346600  1
  F  F31  1  0.26809300  0.81001400  0.03346600  1
  F  F32  1  0.96288700  0.58312000  0.41983300  1
  F  F33  1  0.53711300  0.58312000  0.91983300  1
  F  F34  1  0.03711300  0.41688000  0.58016700  1
  F  F35  1  0.46288700  0.41688000  0.08016700  1
  F  F36  1  0.52923800  0.50570200  0.39649700  1
  F  F37  1  0.97076200  0.50570200  0.89649700  1
  F  F38  1  0.47076200  0.49429800  0.60350300  1
  F  F39  1  0.02923800  0.49429800  0.10350300  1
  F  F40  1  0.07723500  0.18347600  0.39410600  1
  F  F41  1  0.42276500  0.18347600  0.89410600  1
  F  F42  1  0.92276500  0.81652400  0.60589400  1
  F  F43  1  0.57723500  0.81652400  0.10589400  1
  F  F44  1  0.06968100  0.75005400  0.24505600  1
  F  F45  1  0.43031900  0.75005400  0.74505600  1
  F  F46  1  0.93031900  0.24994600  0.75494400  1
  F  F47  1  0.56968100  0.24994600  0.25494400  1
  F  F48  1  0.06195600  0.24410100  0.24973400  1
  F  F49  1  0.43804400  0.24410100  0.74973400  1
  F  F50  1  0.93804400  0.75589900  0.75026600  1
  F  F51  1  0.56195600  0.75589900  0.25026600  1
  F  F52  1  0.24828000  0.84926600  0.33659800  1
  F  F53  1  0.25172000  0.84926600  0.83659800  1
  F  F54  1  0.75172000  0.15073400  0.66340200  1
  F  F55  1  0.74828000  0.15073400  0.16340200  1
