# generated using pymatgen
data_CsUVO6
_symmetry_space_group_name_H-M   'P 1'
_cell_length_a   9.81499233
_cell_length_b   10.96495200
_cell_length_c   7.16241782
_cell_angle_alpha   90.00000000
_cell_angle_beta   89.96353171
_cell_angle_gamma   90.00000000
_symmetry_Int_Tables_number   1
_chemical_formula_structural   CsUVO6
_chemical_formula_sum   'Cs4 U4 V4 O24'
_cell_volume   770.82583730
_cell_formula_units_Z   4
loop_
 _symmetry_equiv_pos_site_id
 _symmetry_equiv_pos_as_xyz
  1  'x, y, z'
loop_
 _atom_site_type_symbol
 _atom_site_label
 _atom_site_symmetry_multiplicity
 _atom_site_fract_x
 _atom_site_fract_y
 _atom_site_fract_z
 _atom_site_occupancy
  Cs  Cs0  1  0.77522600  0.26035700  0.47580300  1
  Cs  Cs1  1  0.72477400  0.76035700  0.52419700  1
  Cs  Cs2  1  0.22477400  0.73964300  0.52419700  1
  Cs  Cs3  1  0.27522600  0.23964300  0.47580300  1
  U  U4  1  0.69474000  0.50067600  0.99593300  1
  U  U5  1  0.80526000  0.00067600  0.00406700  1
  U  U6  1  0.30526000  0.49932400  0.00406700  1
  U  U7  1  0.19474000  0.99932400  0.99593300  1
  V  V8  1  0.50880500  0.21050500  0.96623400  1
  V  V9  1  0.99119500  0.71050500  0.03376600  1
  V  V10  1  0.49119500  0.78949500  0.03376600  1
  V  V11  1  0.00880500  0.28949500  0.96623400  1
  O  O12  1  0.68846600  0.46570900  0.74655600  1
  O  O13  1  0.81153400  0.96570900  0.25344400  1
  O  O14  1  0.31153400  0.53429100  0.25344400  1
  O  O15  1  0.18846600  0.03429100  0.74655600  1
  O  O16  1  0.65724000  0.14885300  0.06814800  1
  O  O17  1  0.84276000  0.64885300  0.93185200  1
  O  O18  1  0.34276000  0.85114700  0.93185200  1
  O  O19  1  0.15724000  0.35114700  0.06814800  1
  O  O20  1  0.50017900  0.37070200  0.03652400  1
  O  O21  1  0.99982100  0.87070200  0.96347600  1
  O  O22  1  0.49982100  0.62929800  0.96347600  1
  O  O23  1  0.00017900  0.12929800  0.03652400  1
  O  O24  1  0.51910600  0.20050000  0.73578900  1
  O  O25  1  0.98089400  0.70050000  0.26421100  1
  O  O26  1  0.48089400  0.79950000  0.26421100  1
  O  O27  1  0.01910600  0.29950000  0.73578900  1
  O  O28  1  0.86262600  0.36622700  0.04678000  1
  O  O29  1  0.63737400  0.86622700  0.95322000  1
  O  O30  1  0.13737400  0.63377300  0.95322000  1
  O  O31  1  0.36262600  0.13377300  0.04678000  1
  O  O32  1  0.80391700  0.03529500  0.75453500  1
  O  O33  1  0.69608300  0.53529500  0.24546500  1
  O  O34  1  0.19608300  0.96470500  0.24546500  1
  O  O35  1  0.30391700  0.46470500  0.75453500  1
