# generated using pymatgen
data_Sc7P3
_symmetry_space_group_name_H-M   'P 1'
_cell_length_a   8.97976286
_cell_length_b   8.97976286
_cell_length_c   5.71409900
_cell_angle_alpha   90.00000000
_cell_angle_beta   90.00000000
_cell_angle_gamma   120.00000630
_symmetry_Int_Tables_number   1
_chemical_formula_structural   Sc7P3
_chemical_formula_sum   'Sc14 P6'
_cell_volume   399.03234453
_cell_formula_units_Z   2
loop_
 _symmetry_equiv_pos_site_id
 _symmetry_equiv_pos_as_xyz
  1  'x, y, z'
loop_
 _atom_site_type_symbol
 _atom_site_label
 _atom_site_symmetry_multiplicity
 _atom_site_fract_x
 _atom_site_fract_y
 _atom_site_fract_z
 _atom_site_occupancy
  Sc  Sc0  1  0.33333300  0.66666700  0.41571300  1
  Sc  Sc1  1  0.66666700  0.33333300  0.91571300  1
  Sc  Sc2  1  0.12259000  0.87741000  0.24084600  1
  Sc  Sc3  1  0.75481900  0.87741000  0.24084600  1
  Sc  Sc4  1  0.12259000  0.24518100  0.24084600  1
  Sc  Sc5  1  0.87741000  0.12259000  0.74084600  1
  Sc  Sc6  1  0.24518100  0.12259000  0.74084600  1
  Sc  Sc7  1  0.87741000  0.75481900  0.74084600  1
  Sc  Sc8  1  0.53714600  0.46285400  0.47128300  1
  Sc  Sc9  1  0.92570800  0.46285400  0.47128300  1
  Sc  Sc10  1  0.53714600  0.07429200  0.47128300  1
  Sc  Sc11  1  0.46285400  0.53714600  0.97128300  1
  Sc  Sc12  1  0.07429200  0.53714600  0.97128300  1
  Sc  Sc13  1  0.46285400  0.92570800  0.97128300  1
  P  P14  1  0.80849800  0.19150200  0.17556100  1
  P  P15  1  0.38300500  0.19150200  0.17556100  1
  P  P16  1  0.80849800  0.61699500  0.17556100  1
  P  P17  1  0.19150200  0.80849800  0.67556100  1
  P  P18  1  0.61699500  0.80849800  0.67556100  1
  P  P19  1  0.19150200  0.38300500  0.67556100  1
