# generated using pymatgen
data_FeH10S2NO11
_symmetry_space_group_name_H-M   'P 1'
_cell_length_a   10.64415132
_cell_length_b   10.65504100
_cell_length_c   9.59311020
_cell_angle_alpha   90.00000000
_cell_angle_beta   92.37691984
_cell_angle_gamma   90.00000000
_symmetry_Int_Tables_number   1
_chemical_formula_structural   FeH10S2NO11
_chemical_formula_sum   'Fe4 H40 S8 N4 O44'
_cell_volume   1087.05565197
_cell_formula_units_Z   4
loop_
 _symmetry_equiv_pos_site_id
 _symmetry_equiv_pos_as_xyz
  1  'x, y, z'
loop_
 _atom_site_type_symbol
 _atom_site_label
 _atom_site_symmetry_multiplicity
 _atom_site_fract_x
 _atom_site_fract_y
 _atom_site_fract_z
 _atom_site_occupancy
  Fe  Fe0  1  0.18617900  0.36422300  0.01182100  1
  Fe  Fe1  1  0.81382100  0.86422300  0.48817900  1
  Fe  Fe2  1  0.81382100  0.63577700  0.98817900  1
  Fe  Fe3  1  0.18617900  0.13577700  0.51182100  1
  H  H4  1  0.30342300  0.65275500  0.45588800  1
  H  H5  1  0.69657700  0.15275500  0.04411200  1
  H  H6  1  0.69657700  0.34724500  0.54411200  1
  H  H7  1  0.30342300  0.84724500  0.95588800  1
  H  H8  1  0.36418700  0.48006000  0.67164900  1
  H  H9  1  0.63581300  0.98006000  0.82835100  1
  H  H10  1  0.63581300  0.51994000  0.32835100  1
  H  H11  1  0.36418700  0.01994000  0.17164900  1
  H  H12  1  0.32907300  0.44284800  0.50375800  1
  H  H13  1  0.67092700  0.94284800  0.99624200  1
  H  H14  1  0.67092700  0.55715200  0.49624200  1
  H  H15  1  0.32907300  0.05715200  0.00375800  1
  H  H16  1  0.21336500  0.49969600  0.61194800  1
  H  H17  1  0.78663500  0.99969600  0.88805200  1
  H  H18  1  0.78663500  0.50030400  0.38805200  1
  H  H19  1  0.21336500  0.00030400  0.11194800  1
  H  H20  1  0.32545900  0.57040200  0.98693400  1
  H  H21  1  0.67454100  0.07040200  0.51306600  1
  H  H22  1  0.67454100  0.42959800  0.01306600  1
  H  H23  1  0.32545900  0.92959800  0.48693400  1
  H  H24  1  0.36194800  0.53433400  0.04321900  1
  H  H25  1  0.63805200  0.03433400  0.45678100  1
  H  H26  1  0.63805200  0.46566600  0.95678100  1
  H  H27  1  0.36194800  0.96566600  0.54321900  1
  H  H28  1  0.02966600  0.17285200  0.93606300  1
  H  H29  1  0.97033400  0.67285200  0.56393700  1
  H  H30  1  0.97033400  0.82714800  0.06393700  1
  H  H31  1  0.02966600  0.32714800  0.43606300  1
  H  H32  1  0.02728800  0.19385600  0.10477000  1
  H  H33  1  0.97271200  0.69385600  0.39523000  1
  H  H34  1  0.97271200  0.80614400  0.89523000  1
  H  H35  1  0.02728800  0.30614400  0.60477000  1
  H  H36  1  0.78758600  0.26615800  0.73475500  1
  H  H37  1  0.21241400  0.76615800  0.76524500  1
  H  H38  1  0.21241400  0.73384200  0.26524500  1
  H  H39  1  0.78758600  0.23384200  0.23475500  1
  H  H40  1  0.63878600  0.26531700  0.72567900  1
  H  H41  1  0.36121400  0.76531700  0.77432100  1
  H  H42  1  0.36121400  0.73468300  0.27432100  1
  H  H43  1  0.63878600  0.23468300  0.22567900  1
  S  S44  1  0.99760800  0.48767700  0.77743800  1
  S  S45  1  0.00239200  0.98767700  0.72256200  1
  S  S46  1  0.00239200  0.51232300  0.22256200  1
  S  S47  1  0.99760800  0.01232300  0.27743800  1
  S  S48  1  0.36781200  0.23578900  0.77822100  1
  S  S49  1  0.63218800  0.73578900  0.72177900  1
  S  S50  1  0.63218800  0.76421100  0.22177900  1
  S  S51  1  0.36781200  0.26421100  0.27822100  1
  N  N52  1  0.30748400  0.50431100  0.58581100  1
  N  N53  1  0.69251600  0.00431100  0.91418900  1
  N  N54  1  0.69251600  0.49568900  0.41418900  1
  N  N55  1  0.30748400  0.99568900  0.08581100  1
  O  O56  1  0.04962700  0.55629400  0.65933400  1
  O  O57  1  0.95037300  0.05629400  0.84066600  1
  O  O58  1  0.95037300  0.44370600  0.34066600  1
  O  O59  1  0.04962700  0.94370600  0.15933400  1
  O  O60  1  0.96697900  0.35626600  0.74088600  1
  O  O61  1  0.03302100  0.85626600  0.75911400  1
  O  O62  1  0.03302100  0.64373400  0.25911400  1
  O  O63  1  0.96697900  0.14373400  0.24088600  1
  O  O64  1  0.87950700  0.55285500  0.81929800  1
  O  O65  1  0.12049300  0.05285500  0.68070200  1
  O  O66  1  0.12049300  0.44714500  0.18070200  1
  O  O67  1  0.87950700  0.94714500  0.31929800  1
  O  O68  1  0.09196400  0.49231500  0.89859600  1
  O  O69  1  0.90803600  0.99231500  0.60140400  1
  O  O70  1  0.90803600  0.50768500  0.10140400  1
  O  O71  1  0.09196400  0.00768500  0.39859600  1
  O  O72  1  0.47862800  0.31523900  0.76940100  1
  O  O73  1  0.52137200  0.81523900  0.73059900  1
  O  O74  1  0.52137200  0.68476100  0.23059900  1
  O  O75  1  0.47862800  0.18476100  0.26940100  1
  O  O76  1  0.26235100  0.31552800  0.83618600  1
  O  O77  1  0.73764900  0.81552800  0.66381400  1
  O  O78  1  0.73764900  0.68447200  0.16381400  1
  O  O79  1  0.26235100  0.18447200  0.33618600  1
  O  O80  1  0.32257700  0.20565900  0.62844100  1
  O  O81  1  0.67742300  0.70565900  0.87155900  1
  O  O82  1  0.67742300  0.79434100  0.37155900  1
  O  O83  1  0.32257700  0.29434100  0.12844100  1
  O  O84  1  0.38493400  0.11985200  0.85680000  1
  O  O85  1  0.61506600  0.61985200  0.64320000  1
  O  O86  1  0.61506600  0.88014800  0.14320000  1
  O  O87  1  0.38493400  0.38014800  0.35680000  1
  O  O88  1  0.06788400  0.22146900  0.01591700  1
  O  O89  1  0.93211600  0.72146900  0.48408300  1
  O  O90  1  0.93211600  0.77853100  0.98408300  1
  O  O91  1  0.06788400  0.27853100  0.51591700  1
  O  O92  1  0.33843400  0.87055400  0.05390600  1
  O  O93  1  0.66156600  0.37055400  0.44609400  1
  O  O94  1  0.66156600  0.12944600  0.94609400  1
  O  O95  1  0.33843400  0.62944600  0.55390600  1
  O  O96  1  0.71453300  0.25503000  0.67090100  1
  O  O97  1  0.28546700  0.75503000  0.82909900  1
  O  O98  1  0.28546700  0.74497000  0.32909900  1
  O  O99  1  0.71453300  0.24497000  0.17090100  1
