# generated using pymatgen
data_AgP2H8SN7O2
_symmetry_space_group_name_H-M   'P 1'
_cell_length_a   9.20891500
_cell_length_b   10.36512000
_cell_length_c   12.00807569
_cell_angle_alpha   70.09373497
_cell_angle_beta   90.00000000
_cell_angle_gamma   90.00000000
_symmetry_Int_Tables_number   1
_chemical_formula_structural   AgP2H8SN7O2
_chemical_formula_sum   'Ag4 P8 H32 S4 N28 O8'
_cell_volume   1077.70518983
_cell_formula_units_Z   4
loop_
 _symmetry_equiv_pos_site_id
 _symmetry_equiv_pos_as_xyz
  1  'x, y, z'
loop_
 _atom_site_type_symbol
 _atom_site_label
 _atom_site_symmetry_multiplicity
 _atom_site_fract_x
 _atom_site_fract_y
 _atom_site_fract_z
 _atom_site_occupancy
  Ag  Ag0  1  0.79700900  0.30750900  0.20723900  1
  Ag  Ag1  1  0.70299100  0.30750900  0.70723900  1
  Ag  Ag2  1  0.20299100  0.69249100  0.79276100  1
  Ag  Ag3  1  0.29700900  0.69249100  0.29276100  1
  P  P4  1  0.09189500  0.27162300  0.05305400  1
  P  P5  1  0.40810500  0.27162300  0.55305400  1
  P  P6  1  0.90810500  0.72837700  0.94694600  1
  P  P7  1  0.59189500  0.72837700  0.44694600  1
  P  P8  1  0.01873800  0.30578000  0.79208700  1
  P  P9  1  0.48126200  0.30578000  0.29208700  1
  P  P10  1  0.98126200  0.69422000  0.20791300  1
  P  P11  1  0.51873800  0.69422000  0.70791300  1
  H  H12  1  0.27194300  0.38323700  0.12808900  1
  H  H13  1  0.22805700  0.38323700  0.62808900  1
  H  H14  1  0.72805700  0.61676300  0.87191100  1
  H  H15  1  0.77194300  0.61676300  0.37191100  1
  H  H16  1  0.10985000  0.46938700  0.09406200  1
  H  H17  1  0.39015000  0.46938700  0.59406200  1
  H  H18  1  0.89015000  0.53061300  0.90593800  1
  H  H19  1  0.60985000  0.53061300  0.40593800  1
  H  H20  1  0.01935200  0.51388500  0.64970800  1
  H  H21  1  0.48064800  0.51388500  0.14970800  1
  H  H22  1  0.98064800  0.48611500  0.35029200  1
  H  H23  1  0.51935200  0.48611500  0.85029200  1
  H  H24  1  0.73354300  0.69818400  0.60974100  1
  H  H25  1  0.76645700  0.69818400  0.10974100  1
  H  H26  1  0.26645700  0.30181600  0.39025900  1
  H  H27  1  0.23354300  0.30181600  0.89025900  1
  H  H28  1  0.02222700  0.14383400  0.70400300  1
  H  H29  1  0.47777300  0.14383400  0.20400300  1
  H  H30  1  0.97777300  0.85616600  0.29599700  1
  H  H31  1  0.52222700  0.85616600  0.79599700  1
  H  H32  1  0.06640600  0.07168000  0.85081800  1
  H  H33  1  0.43359400  0.07168000  0.35081800  1
  H  H34  1  0.93359400  0.92832000  0.14918200  1
  H  H35  1  0.56640600  0.92832000  0.64918200  1
  H  H36  1  0.17417300  0.05030600  0.08184600  1
  H  H37  1  0.32582700  0.05030600  0.58184600  1
  H  H38  1  0.82582700  0.94969400  0.91815400  1
  H  H39  1  0.67417300  0.94969400  0.41815400  1
  H  H40  1  0.21370900  0.10398700  0.20189900  1
  H  H41  1  0.28629100  0.10398700  0.70189900  1
  H  H42  1  0.78629100  0.89601300  0.79810100  1
  H  H43  1  0.71370900  0.89601300  0.29810100  1
  S  S44  1  0.81135400  0.22132400  0.97967100  1
  S  S45  1  0.68864600  0.22132400  0.47967100  1
  S  S46  1  0.18864600  0.77867600  0.02032900  1
  S  S47  1  0.31135400  0.77867600  0.52032900  1
  N  N48  1  0.91496000  0.28338800  0.06117400  1
  N  N49  1  0.58504000  0.28338800  0.56117400  1
  N  N50  1  0.08504000  0.71661200  0.93882600  1
  N  N51  1  0.41496000  0.71661200  0.43882600  1
  N  N52  1  0.85172400  0.31183000  0.84370900  1
  N  N53  1  0.64827600  0.31183000  0.34370900  1
  N  N54  1  0.14827600  0.68817000  0.15629100  1
  N  N55  1  0.35172400  0.68817000  0.65629100  1
  N  N56  1  0.12565000  0.30598400  0.90881600  1
  N  N57  1  0.37435000  0.30598400  0.40881600  1
  N  N58  1  0.87435000  0.69401600  0.09118400  1
  N  N59  1  0.62565000  0.69401600  0.59118400  1
  N  N60  1  0.15829300  0.37564900  0.11418200  1
  N  N61  1  0.34170700  0.37564900  0.61418200  1
  N  N62  1  0.84170700  0.62435100  0.88581800  1
  N  N63  1  0.65829300  0.62435100  0.38581800  1
  N  N64  1  0.05298900  0.41512400  0.66862800  1
  N  N65  1  0.44701100  0.41512400  0.16862800  1
  N  N66  1  0.94701100  0.58487600  0.33137200  1
  N  N67  1  0.55298900  0.58487600  0.83137200  1
  N  N68  1  0.06653700  0.15803500  0.77674700  1
  N  N69  1  0.43346300  0.15803500  0.27674700  1
  N  N70  1  0.93346300  0.84196500  0.22325300  1
  N  N71  1  0.56653700  0.84196500  0.72325300  1
  N  N72  1  0.17498400  0.12668500  0.11808700  1
  N  N73  1  0.32501600  0.12668500  0.61808700  1
  N  N74  1  0.82501600  0.87331500  0.88191300  1
  N  N75  1  0.67498400  0.87331500  0.38191300  1
  O  O76  1  0.84893400  0.07586700  0.00523100  1
  O  O77  1  0.65106600  0.07586700  0.50523100  1
  O  O78  1  0.15106600  0.92413300  0.99476900  1
  O  O79  1  0.34893400  0.92413300  0.49476900  1
  O  O80  1  0.66214200  0.24809100  0.00233500  1
  O  O81  1  0.83785800  0.24809100  0.50233500  1
  O  O82  1  0.33785800  0.75190900  0.99766500  1
  O  O83  1  0.16214200  0.75190900  0.49766500  1
