# generated using pymatgen
data_Al11(PO4)12
_symmetry_space_group_name_H-M   'P 1'
_cell_length_a   16.44286953
_cell_length_b   16.44280306
_cell_length_c   16.44280304
_cell_angle_alpha   51.28121641
_cell_angle_beta   51.28093072
_cell_angle_gamma   51.28093095
_symmetry_Int_Tables_number   1
_chemical_formula_structural   Al11(PO4)12
_chemical_formula_sum   'Al22 P24 O96'
_cell_volume   2497.85864456
_cell_formula_units_Z   2
loop_
 _symmetry_equiv_pos_site_id
 _symmetry_equiv_pos_as_xyz
  1  'x, y, z'
loop_
 _atom_site_type_symbol
 _atom_site_label
 _atom_site_symmetry_multiplicity
 _atom_site_fract_x
 _atom_site_fract_y
 _atom_site_fract_z
 _atom_site_occupancy
  Al  Al0  1  0.74996147  0.12349441  0.37654689  1
  Al  Al1  1  0.12349464  0.37654671  0.74996119  1
  Al  Al2  1  0.37654609  0.74996158  0.12349495  1
  Al  Al3  1  0.24996147  0.87654689  0.62349441  1
  Al  Al4  1  0.87654609  0.62349495  0.24996158  1
  Al  Al5  1  0.62349464  0.24996119  0.87654671  1
  Al  Al6  1  0.80514644  0.46578944  0.13612844  1
  Al  Al7  1  0.46578763  0.13612797  0.80514729  1
  Al  Al8  1  0.13612906  0.80514499  0.46578839  1
  Al  Al9  1  0.30514644  0.63612844  0.96578944  1
  Al  Al10  1  0.63612906  0.96578839  0.30514499  1
  Al  Al11  1  0.96578763  0.30514729  0.63612797  1
  Al  Al12  1  0.19480583  0.53426559  0.86386620  1
  Al  Al13  1  0.53426551  0.86386560  0.19480551  1
  Al  Al14  1  0.86386583  0.19480736  0.53426470  1
  Al  Al15  1  0.69480583  0.36386620  0.03426559  1
  Al  Al16  1  0.36386583  0.03426470  0.69480736  1
  Al  Al17  1  0.03426551  0.69480551  0.36386560  1
  Al  Al18  1  0.11406114  0.11408521  0.11409075  1
  Al  Al19  1  0.61406114  0.61409075  0.61408521  1
  Al  Al20  1  0.88592655  0.88590209  0.88589542  1
  Al  Al21  1  0.38592655  0.38589542  0.38590209  1
  P  P22  1  0.90326067  0.23877140  0.29660988  1
  P  P23  1  0.23876685  0.29660332  0.90327098  1
  P  P24  1  0.29660278  0.90326887  0.23876710  1
  P  P25  1  0.40326067  0.79660988  0.73877140  1
  P  P26  1  0.79660278  0.73876710  0.40326887  1
  P  P27  1  0.73876685  0.40327098  0.79660332  1
  P  P28  1  0.09664186  0.76126086  0.70351901  1
  P  P29  1  0.76126033  0.70350760  0.09665042  1
  P  P30  1  0.70352670  0.09663331  0.76126437  1
  P  P31  1  0.59664186  0.20351901  0.26126086  1
  P  P32  1  0.20352670  0.26126437  0.59663331  1
  P  P33  1  0.26126033  0.59665042  0.20350760  1
  P  P34  1  0.93322749  0.32898438  0.98579893  1
  P  P35  1  0.32897777  0.98580077  0.93323337  1
  P  P36  1  0.98579592  0.93323014  0.32898583  1
  P  P37  1  0.43322749  0.48579893  0.82898438  1
  P  P38  1  0.48579592  0.82898583  0.43323014  1
  P  P39  1  0.82897777  0.43323337  0.48580077  1
  P  P40  1  0.06669609  0.67113077  0.01412459  1
  P  P41  1  0.67114741  0.01411615  0.06668433  1
  P  P42  1  0.01412118  0.06668322  0.67114360  1
  P  P43  1  0.56669609  0.51412459  0.17113077  1
  P  P44  1  0.51412118  0.17114360  0.56668322  1
  P  P45  1  0.17114741  0.56668433  0.51411615  1
  O  O46  1  0.81396354  0.20893832  0.32483336  1
  O  O47  1  0.20893681  0.32483247  0.81396330  1
  O  O48  1  0.32483275  0.81396498  0.20893631  1
  O  O49  1  0.31396354  0.82483336  0.70893832  1
  O  O50  1  0.82483275  0.70893631  0.31396498  1
  O  O51  1  0.70893681  0.31396330  0.82483247  1
  O  O52  1  0.18602561  0.79107350  0.67515941  1
  O  O53  1  0.79107400  0.67516165  0.18602387  1
  O  O54  1  0.67515776  0.18602694  0.79107655  1
  O  O55  1  0.68602561  0.17515941  0.29107350  1
  O  O56  1  0.17515776  0.29107655  0.68602694  1
  O  O57  1  0.29107400  0.68602387  0.17516165  1
  O  O58  1  0.86036559  0.36927863  0.24276961  1
  O  O59  1  0.36927639  0.24276523  0.86037107  1
  O  O60  1  0.24276782  0.86036891  0.36927600  1
  O  O61  1  0.36036559  0.74276961  0.86927863  1
  O  O62  1  0.74276782  0.86927600  0.36036891  1
  O  O63  1  0.86927639  0.36037107  0.74276523  1
  O  O64  1  0.13966780  0.63077214  0.75716858  1
  O  O65  1  0.63077570  0.75717275  0.13966324  1
  O  O66  1  0.75717032  0.13966751  0.63077281  1
  O  O67  1  0.63966780  0.25716858  0.13077214  1
  O  O68  1  0.25717032  0.13077281  0.63966751  1
  O  O69  1  0.13077570  0.63966324  0.25717275  1
  O  O70  1  0.01863412  0.18805615  0.21504175  1
  O  O71  1  0.18804910  0.21503968  0.01863902  1
  O  O72  1  0.21503821  0.01863710  0.18804973  1
  O  O73  1  0.51863412  0.71504175  0.68805615  1
  O  O74  1  0.71503821  0.68804973  0.51863710  1
  O  O75  1  0.68804910  0.51863902  0.71503968  1
  O  O76  1  0.98146042  0.81188046  0.78493108  1
  O  O77  1  0.81189747  0.78494666  0.98143640  1
  O  O78  1  0.78493384  0.98145896  0.81188773  1
  O  O79  1  0.48146042  0.28493108  0.31188046  1
  O  O80  1  0.28493384  0.31188773  0.48145896  1
  O  O81  1  0.31189747  0.48143640  0.28494666  1
  O  O82  1  0.91520973  0.19480157  0.40429950  1
  O  O83  1  0.19480232  0.40429591  0.91521096  1
  O  O84  1  0.40429739  0.91521177  0.19480133  1
  O  O85  1  0.41520973  0.90429950  0.69480157  1
  O  O86  1  0.90429739  0.69480133  0.41521177  1
  O  O87  1  0.69480232  0.41521096  0.90429591  1
  O  O88  1  0.08480350  0.80518977  0.59570674  1
  O  O89  1  0.80518965  0.59571102  0.08480136  1
  O  O90  1  0.59570759  0.08480153  0.80519117  1
  O  O91  1  0.58480350  0.09570674  0.30518977  1
  O  O92  1  0.09570759  0.30519117  0.58480153  1
  O  O93  1  0.30518965  0.58480136  0.09571102  1
  O  O94  1  0.89120952  0.41464559  0.02908495  1
  O  O95  1  0.41464578  0.02908694  0.89120800  1
  O  O96  1  0.02908549  0.89120735  0.41464641  1
  O  O97  1  0.39120952  0.52908495  0.91464559  1
  O  O98  1  0.52908549  0.91464641  0.39120735  1
  O  O99  1  0.91464578  0.39120800  0.52908694  1
  O  O100  1  0.10879725  0.58537060  0.97092889  1
  O  O101  1  0.58537149  0.97092892  0.10879631  1
  O  O102  1  0.97092761  0.10879811  0.58536932  1
  O  O103  1  0.60879725  0.47092889  0.08537060  1
  O  O104  1  0.47092761  0.08536932  0.60879811  1
  O  O105  1  0.08537149  0.60879631  0.47092892  1
  O  O106  1  0.01542788  0.21355988  0.03624972  1
  O  O107  1  0.21355626  0.03625547  0.01543284  1
  O  O108  1  0.03624950  0.01542968  0.21355828  1
  O  O109  1  0.51542788  0.53624972  0.71355988  1
  O  O110  1  0.53624950  0.71355828  0.51542968  1
  O  O111  1  0.71355626  0.51543284  0.53625547  1
  O  O112  1  0.98460709  0.78639197  0.96377398  1
  O  O113  1  0.78638519  0.96377313  0.98460952  1
  O  O114  1  0.96378083  0.98461348  0.78637998  1
  O  O115  1  0.48460709  0.46377398  0.28639197  1
  O  O116  1  0.46378083  0.28637998  0.48461348  1
  O  O117  1  0.28638519  0.48460952  0.46377313  1
  O  O118  1  0.98952923  0.37986776  0.85622336  1
  O  O119  1  0.37986435  0.85622714  0.98953024  1
  O  O120  1  0.85622510  0.98952763  0.37986828  1
  O  O121  1  0.48952923  0.35622336  0.87986776  1
  O  O122  1  0.35622510  0.87986828  0.48952763  1
  O  O123  1  0.87986435  0.48953024  0.35622714  1
  O  O124  1  0.01052488  0.62012199  0.14375078  1
  O  O125  1  0.62012524  0.14374920  0.01052229  1
  O  O126  1  0.14375106  0.01052710  0.62012116  1
  O  O127  1  0.51052488  0.64375078  0.12012199  1
  O  O128  1  0.64375106  0.12012116  0.51052710  1
  O  O129  1  0.12012524  0.51052229  0.64374920  1
  O  O130  1  0.83258069  0.31333790  0.01752625  1
  O  O131  1  0.31333544  0.01752777  0.83258196  1
  O  O132  1  0.01752705  0.83257872  0.31333883  1
  O  O133  1  0.33258069  0.51752625  0.81333790  1
  O  O134  1  0.51752705  0.81333883  0.33257872  1
  O  O135  1  0.81333544  0.33258196  0.51752777  1
  O  O136  1  0.16742313  0.68665264  0.98246555  1
  O  O137  1  0.68665247  0.98246490  0.16742176  1
  O  O138  1  0.98246483  0.16742819  0.68665092  1
  O  O139  1  0.66742313  0.48246555  0.18665264  1
  O  O140  1  0.48246483  0.18665092  0.66742819  1
  O  O141  1  0.18665247  0.66742176  0.48246490  1
