# generated using pymatgen
data_Na3AsSO15
_symmetry_space_group_name_H-M   'P 1'
_cell_length_a   7.72102500
_cell_length_b   13.97837700
_cell_length_c   15.02341100
_cell_angle_alpha   90.00000000
_cell_angle_beta   90.00000000
_cell_angle_gamma   90.00000000
_symmetry_Int_Tables_number   1
_chemical_formula_structural   Na3AsSO15
_chemical_formula_sum   'Na12 As4 S4 O60'
_cell_volume   1621.43766247
_cell_formula_units_Z   4
loop_
 _symmetry_equiv_pos_site_id
 _symmetry_equiv_pos_as_xyz
  1  'x, y, z'
loop_
 _atom_site_type_symbol
 _atom_site_label
 _atom_site_symmetry_multiplicity
 _atom_site_fract_x
 _atom_site_fract_y
 _atom_site_fract_z
 _atom_site_occupancy
  Na  Na0  1  0.60350700  0.68524700  0.87620100  1
  Na  Na1  1  0.89649300  0.31475300  0.37620100  1
  Na  Na2  1  0.10350700  0.81475300  0.12379900  1
  Na  Na3  1  0.39649300  0.18524700  0.62379900  1
  Na  Na4  1  0.86968400  0.51896000  0.06805400  1
  Na  Na5  1  0.63031600  0.48104000  0.56805400  1
  Na  Na6  1  0.36968400  0.98104000  0.93194600  1
  Na  Na7  1  0.13031600  0.01896000  0.43194600  1
  Na  Na8  1  0.75132800  0.20664100  0.11362000  1
  Na  Na9  1  0.74867200  0.79335900  0.61362000  1
  Na  Na10  1  0.25132800  0.29335900  0.88638000  1
  Na  Na11  1  0.24867200  0.70664100  0.38638000  1
  As  As12  1  0.84186600  0.00085000  0.22781300  1
  As  As13  1  0.65813400  0.99915000  0.72781300  1
  As  As14  1  0.34186600  0.49915000  0.77218700  1
  As  As15  1  0.15813400  0.50085000  0.27218700  1
  S  S16  1  0.82418200  0.75110200  0.30324100  1
  S  S17  1  0.67581800  0.24889800  0.80324100  1
  S  S18  1  0.32418200  0.74889800  0.69675900  1
  S  S19  1  0.17581800  0.25110200  0.19675900  1
  O  O20  1  0.91672800  0.93587200  0.14337100  1
  O  O21  1  0.58327200  0.06412800  0.64337100  1
  O  O22  1  0.41672800  0.56412800  0.85662900  1
  O  O23  1  0.08327200  0.43587200  0.35662900  1
  O  O24  1  0.92367800  0.98675400  0.32944900  1
  O  O25  1  0.57632200  0.01324600  0.82944900  1
  O  O26  1  0.42367800  0.51324600  0.67055100  1
  O  O27  1  0.07632200  0.48675400  0.17055100  1
  O  O28  1  0.68703400  0.08116800  0.20818500  1
  O  O29  1  0.81296600  0.91883200  0.70818500  1
  O  O30  1  0.18703400  0.41883200  0.79181500  1
  O  O31  1  0.31296600  0.58116800  0.29181500  1
  O  O32  1  0.51797600  0.75502900  0.71453100  1
  O  O33  1  0.98202400  0.24497100  0.21453100  1
  O  O34  1  0.01797600  0.74497100  0.28546900  1
  O  O35  1  0.48202400  0.25502900  0.78546900  1
  O  O36  1  0.46026000  0.81792200  0.03108300  1
  O  O37  1  0.03974000  0.18207800  0.53108300  1
  O  O38  1  0.96026000  0.68207800  0.96891700  1
  O  O39  1  0.53974000  0.31792200  0.46891700  1
  O  O40  1  0.93944200  0.85168500  0.88132200  1
  O  O41  1  0.56055800  0.14831500  0.38132200  1
  O  O42  1  0.43944200  0.64831500  0.11867800  1
  O  O43  1  0.06055800  0.35168500  0.61867800  1
  O  O44  1  0.53239100  0.60016900  0.06883200  1
  O  O45  1  0.96760900  0.39983100  0.56883200  1
  O  O46  1  0.03239100  0.89983100  0.93116800  1
  O  O47  1  0.46760900  0.10016900  0.43116800  1
  O  O48  1  0.96875600  0.68179400  0.05943700  1
  O  O49  1  0.53124400  0.31820600  0.55943700  1
  O  O50  1  0.46875600  0.81820600  0.94056300  1
  O  O51  1  0.03124400  0.18179400  0.44056300  1
  O  O52  1  0.85480000  0.61213100  0.93595400  1
  O  O53  1  0.64520000  0.38786900  0.43595400  1
  O  O54  1  0.35480000  0.88786900  0.06404600  1
  O  O55  1  0.14520000  0.11213100  0.56404600  1
  O  O56  1  0.65593600  0.39705100  0.17473900  1
  O  O57  1  0.84406400  0.60294900  0.67473900  1
  O  O58  1  0.15593600  0.10294900  0.82526100  1
  O  O59  1  0.34406400  0.89705100  0.32526100  1
  O  O60  1  0.62342300  0.35362300  0.98334000  1
  O  O61  1  0.87657700  0.64637700  0.48334000  1
  O  O62  1  0.12342300  0.14637700  0.01666000  1
  O  O63  1  0.37657700  0.85362300  0.51666000  1
  O  O64  1  0.96573000  0.35949700  0.00707200  1
  O  O65  1  0.53427000  0.64050300  0.50707200  1
  O  O66  1  0.46573000  0.14050300  0.99292800  1
  O  O67  1  0.03427000  0.85949700  0.49292800  1
  O  O68  1  0.96242400  0.13066200  0.01069900  1
  O  O69  1  0.53757600  0.86933800  0.51069900  1
  O  O70  1  0.46242400  0.36933800  0.98930100  1
  O  O71  1  0.03757600  0.63066200  0.48930100  1
  O  O72  1  0.45324400  0.17383000  0.07147000  1
  O  O73  1  0.04675600  0.82617000  0.57147000  1
  O  O74  1  0.95324400  0.32617000  0.92853000  1
  O  O75  1  0.54675600  0.67383000  0.42853000  1
  O  O76  1  0.70003800  0.42882100  0.24902300  1
  O  O77  1  0.79996200  0.57117900  0.74902300  1
  O  O78  1  0.20003800  0.07117900  0.75097700  1
  O  O79  1  0.29996200  0.92882100  0.25097700  1
