# generated using pymatgen
data_AlTl2OF5
_symmetry_space_group_name_H-M   'P 1'
_cell_length_a   6.54619346
_cell_length_b   6.54619346
_cell_length_c   7.41315600
_cell_angle_alpha   90.00000000
_cell_angle_beta   90.00000000
_cell_angle_gamma   91.29655625
_symmetry_Int_Tables_number   1
_chemical_formula_structural   AlTl2OF5
_chemical_formula_sum   'Al2 Tl4 O2 F10'
_cell_volume   317.59203758
_cell_formula_units_Z   2
loop_
 _symmetry_equiv_pos_site_id
 _symmetry_equiv_pos_as_xyz
  1  'x, y, z'
loop_
 _atom_site_type_symbol
 _atom_site_label
 _atom_site_symmetry_multiplicity
 _atom_site_fract_x
 _atom_site_fract_y
 _atom_site_fract_z
 _atom_site_occupancy
  Al  Al0  1  0.00000000  0.00000000  0.50000000  1
  Al  Al1  1  0.00000000  0.00000000  0.00000000  1
  Tl  Tl2  1  0.52384100  0.14853600  0.25000000  1
  Tl  Tl3  1  0.85146400  0.47615900  0.75000000  1
  Tl  Tl4  1  0.47615900  0.85146400  0.75000000  1
  Tl  Tl5  1  0.14853600  0.52384100  0.25000000  1
  O  O6  1  0.48575500  0.48575500  0.25000000  1
  O  O7  1  0.51424500  0.51424500  0.75000000  1
  F  F8  1  0.19593700  0.80406300  0.50000000  1
  F  F9  1  0.19593700  0.80406300  0.00000000  1
  F  F10  1  0.80406300  0.19593700  0.50000000  1
  F  F11  1  0.80406300  0.19593700  0.00000000  1
  F  F12  1  0.19641600  0.19641600  0.46967000  1
  F  F13  1  0.80358400  0.80358400  0.53033000  1
  F  F14  1  0.19641600  0.19641600  0.03033000  1
  F  F15  1  0.80358400  0.80358400  0.96967000  1
  F  F16  1  0.97229500  0.97229500  0.25000000  1
  F  F17  1  0.02770500  0.02770500  0.75000000  1
