# generated using pymatgen
data_Ca3Al4CoO10
_symmetry_space_group_name_H-M   'P 1'
_cell_length_a   5.25042709
_cell_length_b   11.59687050
_cell_length_c   16.66329458
_cell_angle_alpha   90.00862047
_cell_angle_beta   89.98147303
_cell_angle_gamma   90.01978427
_symmetry_Int_Tables_number   1
_chemical_formula_structural   Ca3Al4CoO10
_chemical_formula_sum   'Ca12 Al16 Co4 O40'
_cell_volume   1014.60327026
_cell_formula_units_Z   4
loop_
 _symmetry_equiv_pos_site_id
 _symmetry_equiv_pos_as_xyz
  1  'x, y, z'
loop_
 _atom_site_type_symbol
 _atom_site_label
 _atom_site_symmetry_multiplicity
 _atom_site_fract_x
 _atom_site_fract_y
 _atom_site_fract_z
 _atom_site_occupancy
  Ca  Ca0  1  0.37824500  0.62250100  0.07289000  1
  Ca  Ca1  1  0.74289200  0.02278400  0.58879100  1
  Ca  Ca2  1  0.71331600  0.29052300  0.71272200  1
  Ca  Ca3  1  0.61952600  0.12198700  0.92670200  1
  Ca  Ca4  1  0.70963100  0.79085000  0.78690900  1
  Ca  Ca5  1  0.25541800  0.02168900  0.08776300  1
  Ca  Ca6  1  0.25557300  0.52343400  0.41145600  1
  Ca  Ca7  1  0.37778200  0.12416500  0.42827200  1
  Ca  Ca8  1  0.28431900  0.79139400  0.28707100  1
  Ca  Ca9  1  0.29073500  0.29194700  0.21266500  1
  Ca  Ca10  1  0.74178000  0.52133500  0.91184500  1
  Ca  Ca11  1  0.62302900  0.62278300  0.57230200  1
  Al  Al12  1  0.03415800  0.56158400  0.74233400  1
  Al  Al13  1  0.33869900  0.32114300  0.01800900  1
  Al  Al14  1  0.13082600  0.79067400  0.67652000  1
  Al  Al15  1  0.13045000  0.29053300  0.82420500  1
  Al  Al16  1  0.33953500  0.82249500  0.48303100  1
  Al  Al17  1  0.03793200  0.06140600  0.75793300  1
  Al  Al18  1  0.87062800  0.29174500  0.32346500  1
  Al  Al19  1  0.66363600  0.32351400  0.51733200  1
  Al  Al20  1  0.96767000  0.06226400  0.25781300  1
  Al  Al21  1  0.86264400  0.96384900  0.42238800  1
  Al  Al22  1  0.85955700  0.46397800  0.07865400  1
  Al  Al23  1  0.14076900  0.46369900  0.57837600  1
  Al  Al24  1  0.86752100  0.79129900  0.17560300  1
  Al  Al25  1  0.66001700  0.82134000  0.98170400  1
  Al  Al26  1  0.13909000  0.96369600  0.92092200  1
  Al  Al27  1  0.96187600  0.56181700  0.24185100  1
  Co  Co28  1  0.20558700  0.72365000  0.87491900  1
  Co  Co29  1  0.79323300  0.22422800  0.12518700  1
  Co  Co30  1  0.78810500  0.72647900  0.37398400  1
  Co  Co31  1  0.21072400  0.22535300  0.62590200  1
  O  O32  1  0.69639500  0.29876300  0.41347000  1
  O  O33  1  0.30338600  0.29635100  0.91434600  1
  O  O34  1  0.67832400  0.75465800  0.25974100  1
  O  O35  1  0.30722100  0.79770300  0.58692600  1
  O  O36  1  0.97630200  0.05305900  0.98756200  1
  O  O37  1  0.26344600  0.01453000  0.82915300  1
  O  O38  1  0.73639900  0.51478300  0.17059900  1
  O  O39  1  0.92994500  0.34192700  0.58583300  1
  O  O40  1  0.25750100  0.51342300  0.67101900  1
  O  O41  1  0.43372300  0.93488000  0.97186600  1
  O  O42  1  0.69486100  0.79665500  0.08540300  1
  O  O43  1  0.02544400  0.05267600  0.48939600  1
  O  O44  1  0.56463200  0.43491700  0.02790400  1
  O  O45  1  0.05335000  0.63510700  0.32991000  1
  O  O46  1  0.74745800  0.01347300  0.32963800  1
  O  O47  1  0.07311600  0.34303900  0.08652400  1
  O  O48  1  0.97608100  0.55174200  0.51140700  1
  O  O49  1  0.50402400  0.19803300  0.55682300  1
  O  O50  1  0.50045300  0.69565300  0.94300800  1
  O  O51  1  0.11278500  0.67772100  0.17781900  1
  O  O52  1  0.56535200  0.93642500  0.47244700  1
  O  O53  1  0.06250100  0.13533500  0.17006500  1
  O  O54  1  0.94527600  0.41835800  0.79383000  1
  O  O55  1  0.68375000  0.25242400  0.23950400  1
  O  O56  1  0.49849000  0.19573200  0.05691300  1
  O  O57  1  0.88436000  0.67787900  0.67766400  1
  O  O58  1  0.43748100  0.43718800  0.52783000  1
  O  O59  1  0.49734100  0.69683500  0.44353500  1
  O  O60  1  0.88535900  0.17691500  0.82205600  1
  O  O61  1  0.02185300  0.55337200  0.01188200  1
  O  O62  1  0.31637300  0.75098600  0.76068100  1
  O  O63  1  0.94714400  0.91881600  0.70727500  1
  O  O64  1  0.07270700  0.84189500  0.41492500  1
  O  O65  1  0.92536900  0.84278300  0.91298600  1
  O  O66  1  0.11748700  0.17913700  0.32226400  1
  O  O67  1  0.31968700  0.25291500  0.74029800  1
  O  O68  1  0.05433200  0.41978200  0.29241700  1
  O  O69  1  0.93697000  0.63444200  0.82990800  1
  O  O70  1  0.05399100  0.91909000  0.20558500  1
  O  O71  1  0.94442600  0.13445500  0.67006600  1
