# generated using pymatgen
data_BaZn(SeO3)2
_symmetry_space_group_name_H-M   'P 1'
_cell_length_a   5.75733054
_cell_length_b   7.02897085
_cell_length_c   26.36838700
_cell_angle_alpha   90.00000000
_cell_angle_beta   90.00000000
_cell_angle_gamma   111.81186598
_symmetry_Int_Tables_number   1
_chemical_formula_structural   BaZn(SeO3)2
_chemical_formula_sum   'Ba4 Zn4 Se8 O24'
_cell_volume   990.68540206
_cell_formula_units_Z   4
loop_
 _symmetry_equiv_pos_site_id
 _symmetry_equiv_pos_as_xyz
  1  'x, y, z'
loop_
 _atom_site_type_symbol
 _atom_site_label
 _atom_site_symmetry_multiplicity
 _atom_site_fract_x
 _atom_site_fract_y
 _atom_site_fract_z
 _atom_site_occupancy
  Ba  Ba0  1  0.59440400  0.94269300  0.35997900  1
  Ba  Ba1  1  0.59440400  0.44269300  0.14002000  1
  Ba  Ba2  1  0.40559600  0.05730700  0.64002000  1
  Ba  Ba3  1  0.40559600  0.55730700  0.85998000  1
  Zn  Zn4  1  0.78880600  0.53262600  0.52396100  1
  Zn  Zn5  1  0.21119400  0.46737400  0.47603900  1
  Zn  Zn6  1  0.21119400  0.96737400  0.02396100  1
  Zn  Zn7  1  0.78880600  0.03262600  0.97603900  1
  Se  Se8  1  0.85275300  0.14948500  0.53112100  1
  Se  Se9  1  0.14724700  0.35051500  0.03112100  1
  Se  Se10  1  0.21472100  0.24144400  0.37861700  1
  Se  Se11  1  0.85275300  0.64948500  0.96887900  1
  Se  Se12  1  0.78527900  0.75855600  0.62138300  1
  Se  Se13  1  0.78527900  0.25855600  0.87861700  1
  Se  Se14  1  0.14724700  0.85051500  0.46887900  1
  Se  Se15  1  0.21472100  0.74144400  0.12138300  1
  O  O16  1  0.53375600  0.74170900  0.65727100  1
  O  O17  1  0.17413000  0.71216500  0.52462000  1
  O  O18  1  0.82587000  0.28783500  0.47538000  1
  O  O19  1  0.73326300  0.30038300  0.56955000  1
  O  O20  1  0.26673700  0.69961700  0.43045000  1
  O  O21  1  0.26673700  0.19961700  0.06955000  1
  O  O22  1  0.46624400  0.25829100  0.34272900  1
  O  O23  1  0.99238600  0.26523700  0.33992900  1
  O  O24  1  0.73326300  0.80038300  0.93045000  1
  O  O25  1  0.91812000  0.52756200  0.88959300  1
  O  O26  1  0.00761400  0.73476300  0.66007100  1
  O  O27  1  0.17413000  0.21216500  0.97538000  1
  O  O28  1  0.91812000  0.02756200  0.61040700  1
  O  O29  1  0.18217400  0.26296400  0.52997500  1
  O  O30  1  0.53375600  0.24170900  0.84272900  1
  O  O31  1  0.08188000  0.47243800  0.11040700  1
  O  O32  1  0.82587000  0.78783500  0.02462000  1
  O  O33  1  0.00761400  0.23476300  0.83992900  1
  O  O34  1  0.18217400  0.76296400  0.97002500  1
  O  O35  1  0.81782600  0.73703600  0.47002500  1
  O  O36  1  0.81782600  0.23703600  0.02997500  1
  O  O37  1  0.08188000  0.97243800  0.38959300  1
  O  O38  1  0.99238600  0.76523700  0.16007100  1
  O  O39  1  0.46624400  0.75829100  0.15727100  1
