# generated using pymatgen
data_BaU11(GeO19)2
_symmetry_space_group_name_H-M   'P 1'
_cell_length_a   10.29052246
_cell_length_b   10.29052246
_cell_length_c   17.41426300
_cell_angle_alpha   90.00000000
_cell_angle_beta   90.00000000
_cell_angle_gamma   120.00000295
_symmetry_Int_Tables_number   1
_chemical_formula_structural   BaU11(GeO19)2
_chemical_formula_sum   'Ba2 U22 Ge4 O76'
_cell_volume   1597.02078179
_cell_formula_units_Z   2
loop_
 _symmetry_equiv_pos_site_id
 _symmetry_equiv_pos_as_xyz
  1  'x, y, z'
loop_
 _atom_site_type_symbol
 _atom_site_label
 _atom_site_symmetry_multiplicity
 _atom_site_fract_x
 _atom_site_fract_y
 _atom_site_fract_z
 _atom_site_occupancy
  Ba  Ba0  1  0.33333300  0.66666700  0.25000000  1
  Ba  Ba1  1  0.66666700  0.33333300  0.75000000  1
  U  U2  1  0.66666700  0.33333300  0.10164700  1
  U  U3  1  0.33333300  0.66666700  0.60164700  1
  U  U4  1  0.33333300  0.66666700  0.89835300  1
  U  U5  1  0.66666700  0.33333300  0.39835300  1
  U  U6  1  0.33876600  0.35777700  0.05926200  1
  U  U7  1  0.01901100  0.66123400  0.05926200  1
  U  U8  1  0.64222300  0.98098900  0.05926200  1
  U  U9  1  0.66123400  0.01901100  0.55926200  1
  U  U10  1  0.35777700  0.33876600  0.55926200  1
  U  U11  1  0.98098900  0.64222300  0.55926200  1
  U  U12  1  0.66123400  0.64222300  0.94073800  1
  U  U13  1  0.98098900  0.33876600  0.94073800  1
  U  U14  1  0.35777700  0.01901100  0.94073800  1
  U  U15  1  0.33876600  0.98098900  0.44073800  1
  U  U16  1  0.64222300  0.66123400  0.44073800  1
  U  U17  1  0.01901100  0.35777700  0.44073800  1
  U  U18  1  0.27300200  0.13650100  0.25000000  1
  U  U19  1  0.86349900  0.72699800  0.25000000  1
  U  U20  1  0.86349900  0.13650100  0.25000000  1
  U  U21  1  0.72699800  0.86349900  0.75000000  1
  U  U22  1  0.13650100  0.27300200  0.75000000  1
  U  U23  1  0.13650100  0.86349900  0.75000000  1
  Ge  Ge24  1  0.00000000  0.00000000  0.09974400  1
  Ge  Ge25  1  0.00000000  0.00000000  0.59974400  1
  Ge  Ge26  1  0.00000000  0.00000000  0.90025600  1
  Ge  Ge27  1  0.00000000  0.00000000  0.40025600  1
  O  O28  1  0.98119600  0.82597000  0.12767900  1
  O  O29  1  0.84477400  0.01880400  0.12767900  1
  O  O30  1  0.17403000  0.15522600  0.12767900  1
  O  O31  1  0.01880400  0.84477400  0.62767900  1
  O  O32  1  0.82597000  0.98119600  0.62767900  1
  O  O33  1  0.15522600  0.17403000  0.62767900  1
  O  O34  1  0.01880400  0.17403000  0.87232100  1
  O  O35  1  0.15522600  0.98119600  0.87232100  1
  O  O36  1  0.82597000  0.84477400  0.87232100  1
  O  O37  1  0.98119600  0.15522600  0.37232100  1
  O  O38  1  0.17403000  0.01880400  0.37232100  1
  O  O39  1  0.84477400  0.82597000  0.37232100  1
  O  O40  1  0.35418800  0.49464200  0.13080300  1
  O  O41  1  0.14045400  0.64581200  0.13080300  1
  O  O42  1  0.50535800  0.85954600  0.13080300  1
  O  O43  1  0.64581200  0.14045400  0.63080300  1
  O  O44  1  0.49464200  0.35418800  0.63080300  1
  O  O45  1  0.85954600  0.50535800  0.63080300  1
  O  O46  1  0.64581200  0.50535800  0.86919700  1
  O  O47  1  0.85954600  0.35418800  0.86919700  1
  O  O48  1  0.49464200  0.14045400  0.86919700  1
  O  O49  1  0.35418800  0.85954600  0.36919700  1
  O  O50  1  0.50535800  0.64581200  0.36919700  1
  O  O51  1  0.14045400  0.49464200  0.36919700  1
  O  O52  1  0.46976900  0.28631400  0.15546000  1
  O  O53  1  0.81654500  0.53023100  0.15546000  1
  O  O54  1  0.71368600  0.18345500  0.15546000  1
  O  O55  1  0.53023100  0.81654500  0.65546000  1
  O  O56  1  0.28631400  0.46976900  0.65546000  1
  O  O57  1  0.18345500  0.71368600  0.65546000  1
  O  O58  1  0.53023100  0.71368600  0.84454000  1
  O  O59  1  0.18345500  0.46976900  0.84454000  1
  O  O60  1  0.28631400  0.81654500  0.84454000  1
  O  O61  1  0.46976900  0.18345500  0.34454000  1
  O  O62  1  0.71368600  0.53023100  0.34454000  1
  O  O63  1  0.81654500  0.28631400  0.34454000  1
  O  O64  1  0.54223400  0.13498200  0.03396600  1
  O  O65  1  0.59274900  0.45776600  0.03396600  1
  O  O66  1  0.86501800  0.40725100  0.03396600  1
  O  O67  1  0.45776600  0.59274900  0.53396600  1
  O  O68  1  0.13498200  0.54223400  0.53396600  1
  O  O69  1  0.40725100  0.86501800  0.53396600  1
  O  O70  1  0.45776600  0.86501800  0.96603400  1
  O  O71  1  0.40725100  0.54223400  0.96603400  1
  O  O72  1  0.13498200  0.59274900  0.96603400  1
  O  O73  1  0.54223400  0.40725100  0.46603400  1
  O  O74  1  0.86501800  0.45776600  0.46603400  1
  O  O75  1  0.59274900  0.13498200  0.46603400  1
  O  O76  1  0.32367200  0.22102700  0.98334600  1
  O  O77  1  0.89735500  0.67632800  0.98334600  1
  O  O78  1  0.77897300  0.10264500  0.98334600  1
  O  O79  1  0.67632800  0.89735500  0.48334600  1
  O  O80  1  0.22102700  0.32367200  0.48334600  1
  O  O81  1  0.10264500  0.77897300  0.48334600  1
  O  O82  1  0.67632800  0.77897300  0.01665400  1
  O  O83  1  0.10264500  0.32367200  0.01665400  1
  O  O84  1  0.22102700  0.89735500  0.01665400  1
  O  O85  1  0.32367200  0.10264500  0.51665400  1
  O  O86  1  0.77897300  0.67632800  0.51665400  1
  O  O87  1  0.89735500  0.22102700  0.51665400  1
  O  O88  1  0.00000000  0.00000000  0.00000000  1
  O  O89  1  0.00000000  0.00000000  0.50000000  1
  O  O90  1  0.28509200  0.97556500  0.21817900  1
  O  O91  1  0.69047300  0.71490800  0.21817900  1
  O  O92  1  0.02443500  0.30952700  0.21817900  1
  O  O93  1  0.71490800  0.69047300  0.71817900  1
  O  O94  1  0.97556500  0.28509200  0.71817900  1
  O  O95  1  0.30952700  0.02443500  0.71817900  1
  O  O96  1  0.71490800  0.02443500  0.78182100  1
  O  O97  1  0.30952700  0.28509200  0.78182100  1
  O  O98  1  0.97556500  0.69047300  0.78182100  1
  O  O99  1  0.28509200  0.30952700  0.28182100  1
  O  O100  1  0.02443500  0.71490800  0.28182100  1
  O  O101  1  0.69047300  0.97556500  0.28182100  1
  O  O102  1  0.00000000  0.00000000  0.25000000  1
  O  O103  1  0.00000000  0.00000000  0.75000000  1
