# generated using pymatgen
data_AcPr3
_symmetry_space_group_name_H-M   'P 1'
_cell_length_a   7.56386727
_cell_length_b   7.56386727
_cell_length_c   6.24126500
_cell_angle_alpha   90.00000000
_cell_angle_beta   90.00000000
_cell_angle_gamma   119.99999365
_symmetry_Int_Tables_number   1
_chemical_formula_structural   AcPr3
_chemical_formula_sum   'Ac2 Pr6'
_cell_volume   309.23673648
_cell_formula_units_Z   2
loop_
 _symmetry_equiv_pos_site_id
 _symmetry_equiv_pos_as_xyz
  1  'x, y, z'
loop_
 _atom_site_type_symbol
 _atom_site_label
 _atom_site_symmetry_multiplicity
 _atom_site_fract_x
 _atom_site_fract_y
 _atom_site_fract_z
 _atom_site_occupancy
  Ac  Ac0  1  0.33333300  0.66666700  0.75000000  1
  Ac  Ac1  1  0.66666700  0.33333300  0.25000000  1
  Pr  Pr2  1  0.16340600  0.32681300  0.25000000  1
  Pr  Pr3  1  0.67318700  0.83659400  0.25000000  1
  Pr  Pr4  1  0.16340600  0.83659400  0.25000000  1
  Pr  Pr5  1  0.83659400  0.67318700  0.75000000  1
  Pr  Pr6  1  0.32681300  0.16340600  0.75000000  1
  Pr  Pr7  1  0.83659400  0.16340600  0.75000000  1
