# generated using pymatgen
data_Ba2ErGaSe5
_symmetry_space_group_name_H-M   'P 1'
_cell_length_a   7.39393200
_cell_length_b   8.74877071
_cell_length_c   9.51705382
_cell_angle_alpha   103.45969273
_cell_angle_beta   103.15644262
_cell_angle_gamma   107.33153781
_symmetry_Int_Tables_number   1
_chemical_formula_structural   Ba2ErGaSe5
_chemical_formula_sum   'Ba4 Er2 Ga2 Se10'
_cell_volume   541.51814334
_cell_formula_units_Z   2
loop_
 _symmetry_equiv_pos_site_id
 _symmetry_equiv_pos_as_xyz
  1  'x, y, z'
loop_
 _atom_site_type_symbol
 _atom_site_label
 _atom_site_symmetry_multiplicity
 _atom_site_fract_x
 _atom_site_fract_y
 _atom_site_fract_z
 _atom_site_occupancy
  Ba  Ba0  1  0.63311200  0.97776300  0.28799200  1
  Ba  Ba1  1  0.36688800  0.02223700  0.71200800  1
  Ba  Ba2  1  0.34429900  0.51135600  0.70791800  1
  Ba  Ba3  1  0.65570100  0.48864400  0.29208200  1
  Er  Er4  1  0.99808300  0.73000000  0.99858900  1
  Er  Er5  1  0.00191700  0.27000000  0.00141100  1
  Ga  Ga6  1  0.80629100  0.87230200  0.68836800  1
  Ga  Ga7  1  0.19370900  0.12769800  0.31163200  1
  Se  Se8  1  0.98770600  0.68189500  0.68706100  1
  Se  Se9  1  0.01229400  0.31810500  0.31293900  1
  Se  Se10  1  0.98409100  0.15526800  0.68894400  1
  Se  Se11  1  0.01590900  0.84473200  0.31105600  1
  Se  Se12  1  0.71531700  0.90978700  0.92888100  1
  Se  Se13  1  0.28468300  0.09021300  0.07111900  1
  Se  Se14  1  0.70843200  0.41216800  0.94535400  1
  Se  Se15  1  0.29156800  0.58783200  0.05464600  1
  Se  Se16  1  0.48856000  0.74197000  0.49254300  1
  Se  Se17  1  0.51144000  0.25803000  0.50745700  1
