# generated using pymatgen
data_AsN(OF3)2
_symmetry_space_group_name_H-M   'P 1'
_cell_length_a   4.86262332
_cell_length_b   4.86262332
_cell_length_c   5.71982335
_cell_angle_alpha   85.11624876
_cell_angle_beta   85.11624876
_cell_angle_gamma   98.35850451
_symmetry_Int_Tables_number   1
_chemical_formula_structural   AsN(OF3)2
_chemical_formula_sum   'As1 N1 O2 F6'
_cell_volume   132.66958393
_cell_formula_units_Z   1
loop_
 _symmetry_equiv_pos_site_id
 _symmetry_equiv_pos_as_xyz
  1  'x, y, z'
loop_
 _atom_site_type_symbol
 _atom_site_label
 _atom_site_symmetry_multiplicity
 _atom_site_fract_x
 _atom_site_fract_y
 _atom_site_fract_z
 _atom_site_occupancy
  As  As0  1  0.00000000  0.00000000  0.00000000  1
  N  N1  1  0.50000000  0.50000000  0.50000000  1
  O  O2  1  0.67022800  0.67022800  0.54294600  1
  O  O3  1  0.32977200  0.32977200  0.45705400  1
  F  F4  1  0.28079900  0.28079900  0.95828400  1
  F  F5  1  0.16986300  0.82990900  0.77931600  1
  F  F6  1  0.82990900  0.16986300  0.77931600  1
  F  F7  1  0.17009100  0.83013700  0.22068400  1
  F  F8  1  0.83013700  0.17009100  0.22068400  1
  F  F9  1  0.71920100  0.71920100  0.04171600  1
