# generated using pymatgen
data_Ac3Zn
_symmetry_space_group_name_H-M   'P 1'
_cell_length_a   7.66695319
_cell_length_b   7.66695319
_cell_length_c   5.79785300
_cell_angle_alpha   90.00000000
_cell_angle_beta   90.00000000
_cell_angle_gamma   119.99999302
_symmetry_Int_Tables_number   1
_chemical_formula_structural   Ac3Zn
_chemical_formula_sum   'Ac6 Zn2'
_cell_volume   295.15047452
_cell_formula_units_Z   2
loop_
 _symmetry_equiv_pos_site_id
 _symmetry_equiv_pos_as_xyz
  1  'x, y, z'
loop_
 _atom_site_type_symbol
 _atom_site_label
 _atom_site_symmetry_multiplicity
 _atom_site_fract_x
 _atom_site_fract_y
 _atom_site_fract_z
 _atom_site_occupancy
  Ac  Ac0  1  0.17604600  0.35209100  0.25000000  1
  Ac  Ac1  1  0.64790900  0.82395400  0.25000000  1
  Ac  Ac2  1  0.17604600  0.82395400  0.25000000  1
  Ac  Ac3  1  0.82395400  0.64790900  0.75000000  1
  Ac  Ac4  1  0.35209100  0.17604600  0.75000000  1
  Ac  Ac5  1  0.82395400  0.17604600  0.75000000  1
  Zn  Zn6  1  0.33333300  0.66666700  0.75000000  1
  Zn  Zn7  1  0.66666700  0.33333300  0.25000000  1
