# generated using pymatgen
data_Ba3Th
_symmetry_space_group_name_H-M   'P 1'
_cell_length_a   8.44401568
_cell_length_b   8.44401568
_cell_length_c   6.52575200
_cell_angle_alpha   90.00000000
_cell_angle_beta   90.00000000
_cell_angle_gamma   119.99999752
_symmetry_Int_Tables_number   1
_chemical_formula_structural   Ba3Th
_chemical_formula_sum   'Ba6 Th2'
_cell_volume   402.95752484
_cell_formula_units_Z   2
loop_
 _symmetry_equiv_pos_site_id
 _symmetry_equiv_pos_as_xyz
  1  'x, y, z'
loop_
 _atom_site_type_symbol
 _atom_site_label
 _atom_site_symmetry_multiplicity
 _atom_site_fract_x
 _atom_site_fract_y
 _atom_site_fract_z
 _atom_site_occupancy
  Ba  Ba0  1  0.17581900  0.35163800  0.25000000  1
  Ba  Ba1  1  0.64836200  0.82418100  0.25000000  1
  Ba  Ba2  1  0.17581900  0.82418100  0.25000000  1
  Ba  Ba3  1  0.82418100  0.64836200  0.75000000  1
  Ba  Ba4  1  0.35163800  0.17581900  0.75000000  1
  Ba  Ba5  1  0.82418100  0.17581900  0.75000000  1
  Th  Th6  1  0.33333300  0.66666700  0.75000000  1
  Th  Th7  1  0.66666700  0.33333300  0.25000000  1
