# generated using pymatgen
data_Ca3SiO
_symmetry_space_group_name_H-M   'P 1'
_cell_length_a   6.67525600
_cell_length_b   6.69590100
_cell_length_c   9.44534200
_cell_angle_alpha   90.00000000
_cell_angle_beta   90.00000000
_cell_angle_gamma   90.00000000
_symmetry_Int_Tables_number   1
_chemical_formula_structural   Ca3SiO
_chemical_formula_sum   'Ca12 Si4 O4'
_cell_volume   422.17706598
_cell_formula_units_Z   4
loop_
 _symmetry_equiv_pos_site_id
 _symmetry_equiv_pos_as_xyz
  1  'x, y, z'
loop_
 _atom_site_type_symbol
 _atom_site_label
 _atom_site_symmetry_multiplicity
 _atom_site_fract_x
 _atom_site_fract_y
 _atom_site_fract_z
 _atom_site_occupancy
  Ca  Ca0  1  0.25695700  0.25693700  0.48311900  1
  Ca  Ca1  1  0.74304300  0.74306300  0.98311900  1
  Ca  Ca2  1  0.75695700  0.24306300  0.01688100  1
  Ca  Ca3  1  0.50032800  0.03344800  0.75000000  1
  Ca  Ca4  1  0.99967200  0.53344800  0.25000000  1
  Ca  Ca5  1  0.00032800  0.46655200  0.75000000  1
  Ca  Ca6  1  0.49967200  0.96655200  0.25000000  1
  Ca  Ca7  1  0.75695700  0.24306300  0.48311900  1
  Ca  Ca8  1  0.74304300  0.74306300  0.51688100  1
  Ca  Ca9  1  0.25695700  0.25693700  0.01688100  1
  Ca  Ca10  1  0.24304300  0.75693700  0.98311900  1
  Ca  Ca11  1  0.24304300  0.75693700  0.51688100  1
  Si  Si12  1  0.99754000  0.99957600  0.75000000  1
  Si  Si13  1  0.50246000  0.49957600  0.25000000  1
  Si  Si14  1  0.49754000  0.50042400  0.75000000  1
  Si  Si15  1  0.00246000  0.00042400  0.25000000  1
  O  O16  1  0.00000000  0.50000000  0.50000000  1
  O  O17  1  0.50000000  0.00000000  0.50000000  1
  O  O18  1  0.50000000  0.00000000  0.00000000  1
  O  O19  1  0.00000000  0.50000000  0.00000000  1
