data_image0
_chemical_formula_structural       Ag2Br2O2Pb2
_chemical_formula_sum              "Ag2 Br2 O2 Pb2"
_cell_length_a       4.00457
_cell_length_b       4.00457
_cell_length_c       12.8961
_cell_angle_alpha    90
_cell_angle_beta     90
_cell_angle_gamma    90

_space_group_name_H-M_alt    "P 1"
_space_group_IT_number       1

loop_
  _space_group_symop_operation_xyz
  'x, y, z'

loop_
  _atom_site_type_symbol
  _atom_site_label
  _atom_site_symmetry_multiplicity
  _atom_site_fract_x
  _atom_site_fract_y
  _atom_site_fract_z
  _atom_site_occupancy
  Ag  Ag1       1.0  0.25000  0.25000  0.39100  1.0000
  Ag  Ag2       1.0  0.75000  0.75000  0.60900  1.0000
  Br  Br1       1.0  0.75000  0.75000  0.38200  1.0000
  Br  Br2       1.0  0.25000  0.25000  0.61800  1.0000
  O   O1        1.0  0.75000  0.25000  0.00000  1.0000
  O   O2        1.0  0.25000  0.75000  0.00000  1.0000
  Pb  Pb1       1.0  0.75000  0.75000  0.09340  1.0000
  Pb  Pb2       1.0  0.25000  0.25000  0.90700  1.0000
