# generated using pymatgen
data_Ba3Na
_symmetry_space_group_name_H-M   'P 1'
_cell_length_a   7.85418308
_cell_length_b   7.85418308
_cell_length_c   7.85418308
_cell_angle_alpha   135.38450072
_cell_angle_beta   135.38450072
_cell_angle_gamma   64.93335586
_symmetry_Int_Tables_number   1
_chemical_formula_structural   Ba3Na
_chemical_formula_sum   'Ba3 Na1'
_cell_volume   235.59315120
_cell_formula_units_Z   1
loop_
 _symmetry_equiv_pos_site_id
 _symmetry_equiv_pos_as_xyz
  1  'x, y, z'
loop_
 _atom_site_type_symbol
 _atom_site_label
 _atom_site_symmetry_multiplicity
 _atom_site_fract_x
 _atom_site_fract_y
 _atom_site_fract_z
 _atom_site_occupancy
  Ba  Ba0  1  0.75000000  0.25000000  0.50000000  1
  Ba  Ba1  1  0.25000000  0.75000000  0.50000000  1
  Ba  Ba2  1  0.50000000  0.50000000  0.00000000  1
  Na  Na3  1  0.00000000  0.00000000  0.00000000  1
