# generated using pymatgen
data_Ba3Sr
_symmetry_space_group_name_H-M   'P 1'
_cell_length_a   8.86844641
_cell_length_b   8.86844641
_cell_length_c   7.21404600
_cell_angle_alpha   90.00000000
_cell_angle_beta   90.00000000
_cell_angle_gamma   120.00000305
_symmetry_Int_Tables_number   1
_chemical_formula_structural   Ba3Sr
_chemical_formula_sum   'Ba6 Sr2'
_cell_volume   491.36545159
_cell_formula_units_Z   2
loop_
 _symmetry_equiv_pos_site_id
 _symmetry_equiv_pos_as_xyz
  1  'x, y, z'
loop_
 _atom_site_type_symbol
 _atom_site_label
 _atom_site_symmetry_multiplicity
 _atom_site_fract_x
 _atom_site_fract_y
 _atom_site_fract_z
 _atom_site_occupancy
  Ba  Ba0  1  0.16637100  0.33274200  0.25000000  1
  Ba  Ba1  1  0.66725800  0.83362900  0.25000000  1
  Ba  Ba2  1  0.16637100  0.83362900  0.25000000  1
  Ba  Ba3  1  0.83362900  0.66725800  0.75000000  1
  Ba  Ba4  1  0.33274200  0.16637100  0.75000000  1
  Ba  Ba5  1  0.83362900  0.16637100  0.75000000  1
  Sr  Sr6  1  0.33333300  0.66666700  0.75000000  1
  Sr  Sr7  1  0.66666700  0.33333300  0.25000000  1
