# generated using pymatgen
data_Sc2S3
_symmetry_space_group_name_H-M   'P 1'
_cell_length_a   6.19630000
_cell_length_b   6.74855300
_cell_length_c   9.55926000
_cell_angle_alpha   90.00000000
_cell_angle_beta   90.00000000
_cell_angle_gamma   90.00000000
_symmetry_Int_Tables_number   1
_chemical_formula_structural   Sc2S3
_chemical_formula_sum   'Sc8 S12'
_cell_volume   399.73057972
_cell_formula_units_Z   4
loop_
 _symmetry_equiv_pos_site_id
 _symmetry_equiv_pos_as_xyz
  1  'x, y, z'
loop_
 _atom_site_type_symbol
 _atom_site_label
 _atom_site_symmetry_multiplicity
 _atom_site_fract_x
 _atom_site_fract_y
 _atom_site_fract_z
 _atom_site_occupancy
  Sc  Sc0  1  0.54503800  0.39671600  0.99147000  1
  Sc  Sc1  1  0.45496200  0.60328400  0.49147000  1
  Sc  Sc2  1  0.04503800  0.10328400  0.49147000  1
  Sc  Sc3  1  0.95496200  0.89671600  0.99147000  1
  Sc  Sc4  1  0.00368000  0.49689500  0.23875000  1
  Sc  Sc5  1  0.99632000  0.50310500  0.73875000  1
  Sc  Sc6  1  0.50368000  0.00310500  0.73875000  1
  Sc  Sc7  1  0.49632000  0.99689500  0.23875000  1
  S  S8  1  0.82811200  0.18313600  0.82635300  1
  S  S9  1  0.17188800  0.81686400  0.32635300  1
  S  S10  1  0.32811200  0.31686400  0.32635300  1
  S  S11  1  0.67188800  0.68313600  0.82635300  1
  S  S12  1  0.82565200  0.17848200  0.15848200  1
  S  S13  1  0.17434800  0.82151800  0.65848200  1
  S  S14  1  0.32565200  0.32151800  0.65848200  1
  S  S15  1  0.67434800  0.67848200  0.15848200  1
  S  S16  1  0.83922700  0.43897400  0.48994500  1
  S  S17  1  0.16077300  0.56102600  0.98994500  1
  S  S18  1  0.33922700  0.06102600  0.98994500  1
  S  S19  1  0.66077300  0.93897400  0.48994500  1
