# generated using pymatgen
data_Ca3SiO5
_symmetry_space_group_name_H-M   'P 1'
_cell_length_a   7.09521045
_cell_length_b   7.09521045
_cell_length_c   9.25819493
_cell_angle_alpha   68.08791206
_cell_angle_beta   68.08791206
_cell_angle_gamma   60.55818441
_symmetry_Int_Tables_number   1
_chemical_formula_structural   Ca3SiO5
_chemical_formula_sum   'Ca9 Si3 O15'
_cell_volume   366.03049471
_cell_formula_units_Z   3
loop_
 _symmetry_equiv_pos_site_id
 _symmetry_equiv_pos_as_xyz
  1  'x, y, z'
loop_
 _atom_site_type_symbol
 _atom_site_label
 _atom_site_symmetry_multiplicity
 _atom_site_fract_x
 _atom_site_fract_y
 _atom_site_fract_z
 _atom_site_occupancy
  Ca  Ca0  1  0.52880700  0.00752600  0.01450100  1
  Ca  Ca1  1  0.00752600  0.52880700  0.01450100  1
  Ca  Ca2  1  0.71294500  0.24160200  0.29443000  1
  Ca  Ca3  1  0.24160200  0.71294500  0.29443000  1
  Ca  Ca4  1  0.25730000  0.75620800  0.65370900  1
  Ca  Ca5  1  0.75620800  0.25730000  0.65370900  1
  Ca  Ca6  1  0.54987100  0.54987100  0.95313800  1
  Ca  Ca7  1  0.68380800  0.68380800  0.35152700  1
  Ca  Ca8  1  0.27054300  0.27054300  0.70617500  1
  Si  Si9  1  0.79162400  0.79162400  0.64468000  1
  Si  Si10  1  0.21400500  0.21400500  0.35119500  1
  Si  Si11  1  0.99880100  0.99880100  0.00914600  1
  O  O12  1  0.60810700  0.98341500  0.74522500  1
  O  O13  1  0.88100300  0.88100300  0.18483100  1
  O  O14  1  0.98341500  0.60810700  0.74522500  1
  O  O15  1  0.66152600  0.66152600  0.62733400  1
  O  O16  1  0.26510300  0.89388300  0.99947100  1
  O  O17  1  0.39267100  0.39267100  0.87116700  1
  O  O18  1  0.89388300  0.26510300  0.99947100  1
  O  O19  1  0.63540600  0.63540600  0.13361800  1
  O  O20  1  0.94833400  0.94833400  0.87004600  1
  O  O21  1  0.16715600  0.16715600  0.54856400  1
  O  O22  1  0.97041100  0.34968200  0.30520300  1
  O  O23  1  0.36253200  0.36253200  0.24289500  1
  O  O24  1  0.34968200  0.97041100  0.30520300  1
  O  O25  1  0.46868200  0.46868200  0.50235600  1
  O  O26  1  0.91547900  0.91547900  0.47686000  1
