# generated using pymatgen
data_ZrSO7
_symmetry_space_group_name_H-M   'P 1'
_cell_length_a   6.55823600
_cell_length_b   6.78193710
_cell_length_c   8.49831507
_cell_angle_alpha   86.71156362
_cell_angle_beta   83.18647612
_cell_angle_gamma   61.08526065
_symmetry_Int_Tables_number   1
_chemical_formula_structural   ZrSO7
_chemical_formula_sum   'Zr2 S2 O14'
_cell_volume   328.52801894
_cell_formula_units_Z   2
loop_
 _symmetry_equiv_pos_site_id
 _symmetry_equiv_pos_as_xyz
  1  'x, y, z'
loop_
 _atom_site_type_symbol
 _atom_site_label
 _atom_site_symmetry_multiplicity
 _atom_site_fract_x
 _atom_site_fract_y
 _atom_site_fract_z
 _atom_site_occupancy
  Zr  Zr0  1  0.06445100  0.87109800  0.25000000  1
  Zr  Zr1  1  0.93554900  0.12890200  0.75000000  1
  S  S2  1  0.61952500  0.76095000  0.25000000  1
  S  S3  1  0.38047500  0.23905000  0.75000000  1
  O  O4  1  0.94407600  0.10910700  0.47612600  1
  O  O5  1  0.94681700  0.10910700  0.02387400  1
  O  O6  1  0.05592400  0.89089300  0.52387400  1
  O  O7  1  0.05318300  0.89089300  0.97612600  1
  O  O8  1  0.63386300  0.62287100  0.39083700  1
  O  O9  1  0.74326600  0.62287100  0.10916300  1
  O  O10  1  0.36613700  0.37712900  0.60916300  1
  O  O11  1  0.25673400  0.37712900  0.89083700  1
  O  O12  1  0.36443700  0.92010300  0.22384000  1
  O  O13  1  0.71546100  0.92010300  0.27616000  1
  O  O14  1  0.63556300  0.07989700  0.77616000  1
  O  O15  1  0.28453900  0.07989700  0.72384000  1
  O  O16  1  0.21887600  0.56224800  0.25000000  1
  O  O17  1  0.78112400  0.43775200  0.75000000  1
