# generated using pymatgen
data_Ca6Si6H2O19
_symmetry_space_group_name_H-M   'P 1'
_cell_length_a   7.09382900
_cell_length_b   7.41624385
_cell_length_c   8.80672931
_cell_angle_alpha   102.07132620
_cell_angle_beta   90.09734146
_cell_angle_gamma   90.08336821
_symmetry_Int_Tables_number   1
_chemical_formula_structural   Ca6Si6H2O19
_chemical_formula_sum   'Ca6 Si6 H2 O19'
_cell_volume   453.07189017
_cell_formula_units_Z   1
loop_
 _symmetry_equiv_pos_site_id
 _symmetry_equiv_pos_as_xyz
  1  'x, y, z'
loop_
 _atom_site_type_symbol
 _atom_site_label
 _atom_site_symmetry_multiplicity
 _atom_site_fract_x
 _atom_site_fract_y
 _atom_site_fract_z
 _atom_site_occupancy
  Ca  Ca0  1  0.65583200  0.83785200  0.86607800  1
  Ca  Ca1  1  0.34416800  0.16214800  0.13392200  1
  Ca  Ca2  1  0.50000000  0.00000000  0.50000000  1
  Ca  Ca3  1  0.50000000  0.50000000  0.50000000  1
  Ca  Ca4  1  0.65251700  0.34373100  0.85642500  1
  Ca  Ca5  1  0.34748300  0.65626900  0.14357500  1
  Si  Si6  1  0.94338700  0.04508300  0.68153000  1
  Si  Si7  1  0.05661300  0.95491700  0.31847000  1
  Si  Si8  1  0.22648100  0.36464500  0.78949400  1
  Si  Si9  1  0.77351900  0.63535500  0.21050600  1
  Si  Si10  1  0.22868000  0.78181900  0.78992400  1
  Si  Si11  1  0.77132000  0.21818100  0.21007600  1
  H  H12  1  0.85868300  0.55012800  0.68501000  1
  H  H13  1  0.14131700  0.44987200  0.31499000  1
  O  O14  1  0.72285400  0.55377300  0.70010900  1
  O  O15  1  0.27714600  0.44622700  0.29989100  1
  O  O16  1  0.71840200  0.04878100  0.70186700  1
  O  O17  1  0.28159800  0.95121900  0.29813300  1
  O  O18  1  0.33015300  0.85949400  0.95764300  1
  O  O19  1  0.66984700  0.14050600  0.04235700  1
  O  O20  1  0.32583600  0.36841900  0.95742800  1
  O  O21  1  0.67416400  0.63158100  0.04257200  1
  O  O22  1  0.02487600  0.24722700  0.76888900  1
  O  O23  1  0.97512400  0.75277300  0.23111100  1
  O  O24  1  0.02733200  0.89077100  0.77215700  1
  O  O25  1  0.97266800  0.10922900  0.22784300  1
  O  O26  1  0.37866500  0.78718400  0.65236900  1
  O  O27  1  0.62133500  0.21281600  0.34763100  1
  O  O28  1  0.38046100  0.29164000  0.65455300  1
  O  O29  1  0.61953900  0.70836000  0.34544700  1
  O  O30  1  0.14465300  0.57202500  0.78431100  1
  O  O31  1  0.85534700  0.42797500  0.21568900  1
  O  O32  1  0.00000000  0.00000000  0.50000000  1
