# generated using pymatgen
data_CdGe3
_symmetry_space_group_name_H-M   'P 1'
_cell_length_a   6.17484420
_cell_length_b   6.17484420
_cell_length_c   5.01638000
_cell_angle_alpha   90.00000000
_cell_angle_beta   90.00000000
_cell_angle_gamma   120.00000215
_symmetry_Int_Tables_number   1
_chemical_formula_structural   CdGe3
_chemical_formula_sum   'Cd2 Ge6'
_cell_volume   165.64298892
_cell_formula_units_Z   2
loop_
 _symmetry_equiv_pos_site_id
 _symmetry_equiv_pos_as_xyz
  1  'x, y, z'
loop_
 _atom_site_type_symbol
 _atom_site_label
 _atom_site_symmetry_multiplicity
 _atom_site_fract_x
 _atom_site_fract_y
 _atom_site_fract_z
 _atom_site_occupancy
  Cd  Cd0  1  0.33333300  0.66666700  0.75000000  1
  Cd  Cd1  1  0.66666700  0.33333300  0.25000000  1
  Ge  Ge2  1  0.16335500  0.32670900  0.25000000  1
  Ge  Ge3  1  0.67329100  0.83664500  0.25000000  1
  Ge  Ge4  1  0.16335500  0.83664500  0.25000000  1
  Ge  Ge5  1  0.83664500  0.67329100  0.75000000  1
  Ge  Ge6  1  0.32670900  0.16335500  0.75000000  1
  Ge  Ge7  1  0.83664500  0.16335500  0.75000000  1
