# generated using pymatgen
data_CePm3
_symmetry_space_group_name_H-M   'P 1'
_cell_length_a   6.34115820
_cell_length_b   6.34115820
_cell_length_c   6.34115820
_cell_angle_alpha   132.11382387
_cell_angle_beta   132.11382387
_cell_angle_gamma   70.04931377
_symmetry_Int_Tables_number   1
_chemical_formula_structural   CePm3
_chemical_formula_sum   'Ce1 Pm3'
_cell_volume   137.55790147
_cell_formula_units_Z   1
loop_
 _symmetry_equiv_pos_site_id
 _symmetry_equiv_pos_as_xyz
  1  'x, y, z'
loop_
 _atom_site_type_symbol
 _atom_site_label
 _atom_site_symmetry_multiplicity
 _atom_site_fract_x
 _atom_site_fract_y
 _atom_site_fract_z
 _atom_site_occupancy
  Ce  Ce0  1  0.00000000  0.00000000  0.00000000  1
  Pm  Pm1  1  0.75000000  0.25000000  0.50000000  1
  Pm  Pm2  1  0.25000000  0.75000000  0.50000000  1
  Pm  Pm3  1  0.50000000  0.50000000  0.00000000  1
