data_image0
_chemical_formula_structural       Ce2Te4Tl2
_chemical_formula_sum              "Ce2 Te4 Tl2"
_cell_length_a       7.07102
_cell_length_b       7.07102
_cell_length_c       7.07102
_cell_angle_alpha    109.319
_cell_angle_beta     109.776
_cell_angle_gamma    109.319

_space_group_name_H-M_alt    "P 1"
_space_group_IT_number       1

loop_
  _space_group_symop_operation_xyz
  'x, y, z'

loop_
  _atom_site_type_symbol
  _atom_site_label
  _atom_site_symmetry_multiplicity
  _atom_site_fract_x
  _atom_site_fract_y
  _atom_site_fract_z
  _atom_site_occupancy
  Ce  Ce1       1.0  0.75000  0.50000  0.25000  1.0000
  Ce  Ce2       1.0  0.25000  0.50000  0.75000  1.0000
  Te  Te1       1.0  0.71100  0.92200  0.21100  1.0000
  Te  Te2       1.0  0.21100  0.50000  0.28900  1.0000
  Te  Te3       1.0  0.78900  0.50000  0.71100  1.0000
  Te  Te4       1.0  0.28900  0.07820  0.78900  1.0000
  Tl  Tl1       1.0  0.25000  0.00000  0.25000  1.0000
  Tl  Tl2       1.0  0.75000  0.00000  0.75000  1.0000
