# generated using pymatgen
data_UCoS3
_symmetry_space_group_name_H-M   'P 1'
_cell_length_a   5.90234700
_cell_length_b   6.85250900
_cell_length_c   8.39637900
_cell_angle_alpha   90.00000000
_cell_angle_beta   90.00000000
_cell_angle_gamma   90.00000000
_symmetry_Int_Tables_number   1
_chemical_formula_structural   UCoS3
_chemical_formula_sum   'U4 Co4 S12'
_cell_volume   339.59898733
_cell_formula_units_Z   4
loop_
 _symmetry_equiv_pos_site_id
 _symmetry_equiv_pos_as_xyz
  1  'x, y, z'
loop_
 _atom_site_type_symbol
 _atom_site_label
 _atom_site_symmetry_multiplicity
 _atom_site_fract_x
 _atom_site_fract_y
 _atom_site_fract_z
 _atom_site_occupancy
  U  U0  1  0.56548300  0.37629900  0.75000000  1
  U  U1  1  0.43451700  0.62370100  0.25000000  1
  U  U2  1  0.06548300  0.12370100  0.25000000  1
  U  U3  1  0.93451700  0.87629900  0.75000000  1
  Co  Co4  1  0.00000000  0.50000000  0.00000000  1
  Co  Co5  1  0.00000000  0.50000000  0.50000000  1
  Co  Co6  1  0.50000000  0.00000000  0.50000000  1
  Co  Co7  1  0.50000000  0.00000000  0.00000000  1
  S  S8  1  0.83934800  0.18368300  0.55028600  1
  S  S9  1  0.16065200  0.81631700  0.05028600  1
  S  S10  1  0.33934800  0.31631700  0.05028600  1
  S  S11  1  0.66065200  0.68368300  0.55028600  1
  S  S12  1  0.83934800  0.18368300  0.94971400  1
  S  S13  1  0.16065200  0.81631700  0.44971400  1
  S  S14  1  0.33934800  0.31631700  0.44971400  1
  S  S15  1  0.66065200  0.68368300  0.94971400  1
  S  S16  1  0.85729000  0.46439900  0.25000000  1
  S  S17  1  0.14271000  0.53560100  0.75000000  1
  S  S18  1  0.35729000  0.03560100  0.75000000  1
  S  S19  1  0.64271000  0.96439900  0.25000000  1
