# generated using pymatgen
data_DyHo3
_symmetry_space_group_name_H-M   'P 1'
_cell_length_a   7.19656825
_cell_length_b   7.19656825
_cell_length_c   5.64891900
_cell_angle_alpha   90.00000000
_cell_angle_beta   90.00000000
_cell_angle_gamma   120.00000232
_symmetry_Int_Tables_number   1
_chemical_formula_structural   DyHo3
_chemical_formula_sum   'Dy2 Ho6'
_cell_volume   253.36514307
_cell_formula_units_Z   2
loop_
 _symmetry_equiv_pos_site_id
 _symmetry_equiv_pos_as_xyz
  1  'x, y, z'
loop_
 _atom_site_type_symbol
 _atom_site_label
 _atom_site_symmetry_multiplicity
 _atom_site_fract_x
 _atom_site_fract_y
 _atom_site_fract_z
 _atom_site_occupancy
  Dy  Dy0  1  0.33333300  0.66666700  0.75000000  1
  Dy  Dy1  1  0.66666700  0.33333300  0.25000000  1
  Ho  Ho2  1  0.16636000  0.33272000  0.25000000  1
  Ho  Ho3  1  0.66728000  0.83364000  0.25000000  1
  Ho  Ho4  1  0.16636000  0.83364000  0.25000000  1
  Ho  Ho5  1  0.83364000  0.66728000  0.75000000  1
  Ho  Ho6  1  0.33272000  0.16636000  0.75000000  1
  Ho  Ho7  1  0.83364000  0.16636000  0.75000000  1
