# generated using pymatgen
data_Ce3Sm
_symmetry_space_group_name_H-M   'P 1'
_cell_length_a   5.98464693
_cell_length_b   5.98464693
_cell_length_c   5.98464693
_cell_angle_alpha   132.39857940
_cell_angle_beta   132.39857940
_cell_angle_gamma   69.60023788
_symmetry_Int_Tables_number   1
_chemical_formula_structural   Ce3Sm
_chemical_formula_sum   'Ce3 Sm1'
_cell_volume   114.65844235
_cell_formula_units_Z   1
loop_
 _symmetry_equiv_pos_site_id
 _symmetry_equiv_pos_as_xyz
  1  'x, y, z'
loop_
 _atom_site_type_symbol
 _atom_site_label
 _atom_site_symmetry_multiplicity
 _atom_site_fract_x
 _atom_site_fract_y
 _atom_site_fract_z
 _atom_site_occupancy
  Ce  Ce0  1  0.75000000  0.25000000  0.50000000  1
  Ce  Ce1  1  0.25000000  0.75000000  0.50000000  1
  Ce  Ce2  1  0.50000000  0.50000000  0.00000000  1
  Sm  Sm3  1  0.00000000  0.00000000  0.00000000  1
