# generated using pymatgen
data_BaPtO7
_symmetry_space_group_name_H-M   'P 1'
_cell_length_a   4.97777600
_cell_length_b   6.78015500
_cell_length_c   7.97857991
_cell_angle_alpha   74.71613446
_cell_angle_beta   90.00000000
_cell_angle_gamma   90.00000000
_symmetry_Int_Tables_number   1
_chemical_formula_structural   BaPtO7
_chemical_formula_sum   'Ba2 Pt2 O14'
_cell_volume   259.75391075
_cell_formula_units_Z   2
loop_
 _symmetry_equiv_pos_site_id
 _symmetry_equiv_pos_as_xyz
  1  'x, y, z'
loop_
 _atom_site_type_symbol
 _atom_site_label
 _atom_site_symmetry_multiplicity
 _atom_site_fract_x
 _atom_site_fract_y
 _atom_site_fract_z
 _atom_site_occupancy
  Ba  Ba0  1  0.75000000  0.24953000  0.55951400  1
  Ba  Ba1  1  0.25000000  0.75047000  0.44048600  1
  Pt  Pt2  1  0.75000000  0.64927100  0.81045500  1
  Pt  Pt3  1  0.25000000  0.35072900  0.18954500  1
  O  O4  1  0.75000000  0.64466300  0.08577200  1
  O  O5  1  0.25000000  0.35533700  0.91422800  1
  O  O6  1  0.75000000  0.67836200  0.55679400  1
  O  O7  1  0.25000000  0.32163800  0.44320600  1
  O  O8  1  0.01279700  0.41739300  0.80749200  1
  O  O9  1  0.51279700  0.58260700  0.19250800  1
  O  O10  1  0.98720300  0.58260700  0.19250800  1
  O  O11  1  0.48720300  0.41739300  0.80749200  1
  O  O12  1  0.01716300  0.88755400  0.75892300  1
  O  O13  1  0.51716300  0.11244600  0.24107700  1
  O  O14  1  0.98283700  0.11244600  0.24107700  1
  O  O15  1  0.48283700  0.88755400  0.75892300  1
  O  O16  1  0.75000000  0.12201500  0.13235000  1
  O  O17  1  0.25000000  0.87798500  0.86765000  1
