# generated using pymatgen
data_GaGe3
_symmetry_space_group_name_H-M   'P 1'
_cell_length_a   5.98503581
_cell_length_b   5.98503581
_cell_length_c   5.03495200
_cell_angle_alpha   90.00000000
_cell_angle_beta   90.00000000
_cell_angle_gamma   119.99999791
_symmetry_Int_Tables_number   1
_chemical_formula_structural   GaGe3
_chemical_formula_sum   'Ga2 Ge6'
_cell_volume   156.19225035
_cell_formula_units_Z   2
loop_
 _symmetry_equiv_pos_site_id
 _symmetry_equiv_pos_as_xyz
  1  'x, y, z'
loop_
 _atom_site_type_symbol
 _atom_site_label
 _atom_site_symmetry_multiplicity
 _atom_site_fract_x
 _atom_site_fract_y
 _atom_site_fract_z
 _atom_site_occupancy
  Ga  Ga0  1  0.33333300  0.66666700  0.75000000  1
  Ga  Ga1  1  0.66666700  0.33333300  0.25000000  1
  Ge  Ge2  1  0.16356200  0.32712400  0.25000000  1
  Ge  Ge3  1  0.67287600  0.83643800  0.25000000  1
  Ge  Ge4  1  0.16356200  0.83643800  0.25000000  1
  Ge  Ge5  1  0.83643800  0.67287600  0.75000000  1
  Ge  Ge6  1  0.32712400  0.16356200  0.75000000  1
  Ge  Ge7  1  0.83643800  0.16356200  0.75000000  1
