# generated using pymatgen
data_Pr(Ge3Pt)4
_symmetry_space_group_name_H-M   'P 1'
_cell_length_a   7.56090753
_cell_length_b   7.56090753
_cell_length_c   7.56090753
_cell_angle_alpha   109.47122063
_cell_angle_beta   109.47122063
_cell_angle_gamma   109.47122063
_symmetry_Int_Tables_number   1
_chemical_formula_structural   Pr(Ge3Pt)4
_chemical_formula_sum   'Pr1 Ge12 Pt4'
_cell_volume   332.73607547
_cell_formula_units_Z   1
loop_
 _symmetry_equiv_pos_site_id
 _symmetry_equiv_pos_as_xyz
  1  'x, y, z'
loop_
 _atom_site_type_symbol
 _atom_site_label
 _atom_site_symmetry_multiplicity
 _atom_site_fract_x
 _atom_site_fract_y
 _atom_site_fract_z
 _atom_site_occupancy
  Pr  Pr0  1  0.00000000  0.00000000  0.00000000  1
  Ge  Ge1  1  0.35430800  0.20278600  0.84847800  1
  Ge  Ge2  1  0.64569200  0.79721400  0.15152200  1
  Ge  Ge3  1  0.64569200  0.49417000  0.84847800  1
  Ge  Ge4  1  0.35430800  0.50583000  0.15152200  1
  Ge  Ge5  1  0.20278600  0.84847800  0.35430800  1
  Ge  Ge6  1  0.79721400  0.15152200  0.64569200  1
  Ge  Ge7  1  0.49417000  0.84847800  0.64569200  1
  Ge  Ge8  1  0.50583000  0.15152200  0.35430800  1
  Ge  Ge9  1  0.84847800  0.35430800  0.20278600  1
  Ge  Ge10  1  0.15152200  0.64569200  0.79721400  1
  Ge  Ge11  1  0.84847800  0.64569200  0.49417000  1
  Ge  Ge12  1  0.15152200  0.35430800  0.50583000  1
  Pt  Pt13  1  0.00000000  0.00000000  0.50000000  1
  Pt  Pt14  1  0.50000000  0.00000000  0.00000000  1
  Pt  Pt15  1  0.00000000  0.50000000  0.00000000  1
  Pt  Pt16  1  0.50000000  0.50000000  0.50000000  1
