# generated using pymatgen
data_Ga3Ge
_symmetry_space_group_name_H-M   'P 1'
_cell_length_a   6.18115949
_cell_length_b   6.18115949
_cell_length_c   4.72703700
_cell_angle_alpha   90.00000000
_cell_angle_beta   90.00000000
_cell_angle_gamma   119.99999458
_symmetry_Int_Tables_number   1
_chemical_formula_structural   Ga3Ge
_chemical_formula_sum   'Ga6 Ge2'
_cell_volume   156.40821400
_cell_formula_units_Z   2
loop_
 _symmetry_equiv_pos_site_id
 _symmetry_equiv_pos_as_xyz
  1  'x, y, z'
loop_
 _atom_site_type_symbol
 _atom_site_label
 _atom_site_symmetry_multiplicity
 _atom_site_fract_x
 _atom_site_fract_y
 _atom_site_fract_z
 _atom_site_occupancy
  Ga  Ga0  1  0.16636800  0.33273500  0.25000000  1
  Ga  Ga1  1  0.66726500  0.83363200  0.25000000  1
  Ga  Ga2  1  0.16636800  0.83363200  0.25000000  1
  Ga  Ga3  1  0.83363200  0.66726500  0.75000000  1
  Ga  Ga4  1  0.33273500  0.16636800  0.75000000  1
  Ga  Ga5  1  0.83363200  0.16636800  0.75000000  1
  Ge  Ge6  1  0.33333300  0.66666700  0.75000000  1
  Ge  Ge7  1  0.66666700  0.33333300  0.25000000  1
