# generated using pymatgen
data_ErMg5
_symmetry_space_group_name_H-M   'P 1'
_cell_length_a   6.44341962
_cell_length_b   6.44341962
_cell_length_c   7.53616127
_cell_angle_alpha   75.28323498
_cell_angle_beta   75.28323498
_cell_angle_gamma   29.25506950
_symmetry_Int_Tables_number   1
_chemical_formula_structural   ErMg5
_chemical_formula_sum   'Er1 Mg5'
_cell_volume   147.54158786
_cell_formula_units_Z   1
loop_
 _symmetry_equiv_pos_site_id
 _symmetry_equiv_pos_as_xyz
  1  'x, y, z'
loop_
 _atom_site_type_symbol
 _atom_site_label
 _atom_site_symmetry_multiplicity
 _atom_site_fract_x
 _atom_site_fract_y
 _atom_site_fract_z
 _atom_site_occupancy
  Er  Er0  1  0.61603800  0.61603800  0.26590700  1
  Mg  Mg1  1  0.99095700  0.99095700  0.00187200  1
  Mg  Mg2  1  0.28507300  0.28507300  0.93408100  1
  Mg  Mg3  1  0.66278900  0.66278900  0.67868500  1
  Mg  Mg4  1  0.94383900  0.94383900  0.61172100  1
  Mg  Mg5  1  0.33463500  0.33463500  0.34106700  1
