# generated using pymatgen
data_Er5Mg
_symmetry_space_group_name_H-M   'P 1'
_cell_length_a   6.53700276
_cell_length_b   6.53700276
_cell_length_c   6.53700285
_cell_angle_alpha   55.38685478
_cell_angle_beta   55.38685478
_cell_angle_gamma   55.38685923
_symmetry_Int_Tables_number   1
_chemical_formula_structural   Er5Mg
_chemical_formula_sum   'Er5 Mg1'
_cell_volume   176.35763615
_cell_formula_units_Z   1
loop_
 _symmetry_equiv_pos_site_id
 _symmetry_equiv_pos_as_xyz
  1  'x, y, z'
loop_
 _atom_site_type_symbol
 _atom_site_label
 _atom_site_symmetry_multiplicity
 _atom_site_fract_x
 _atom_site_fract_y
 _atom_site_fract_z
 _atom_site_occupancy
  Er  Er0  1  0.50000000  0.16257000  0.83743000  1
  Er  Er1  1  0.16257000  0.83743000  0.50000000  1
  Er  Er2  1  0.83743000  0.50000000  0.16257000  1
  Er  Er3  1  0.33218100  0.33218100  0.33218100  1
  Er  Er4  1  0.66781900  0.66781900  0.66781900  1
  Mg  Mg5  1  0.00000000  0.00000000  0.00000000  1
