# generated using pymatgen
data_Sm5Ga3
_symmetry_space_group_name_H-M   'P 1'
_cell_length_a   9.10320317
_cell_length_b   9.10320317
_cell_length_c   9.10320317
_cell_angle_alpha   129.37389827
_cell_angle_beta   129.37389827
_cell_angle_gamma   74.40969502
_symmetry_Int_Tables_number   1
_chemical_formula_structural   Sm5Ga3
_chemical_formula_sum   'Sm10 Ga6'
_cell_volume   439.35818758
_cell_formula_units_Z   2
loop_
 _symmetry_equiv_pos_site_id
 _symmetry_equiv_pos_as_xyz
  1  'x, y, z'
loop_
 _atom_site_type_symbol
 _atom_site_label
 _atom_site_symmetry_multiplicity
 _atom_site_fract_x
 _atom_site_fract_y
 _atom_site_fract_z
 _atom_site_occupancy
  Sm  Sm0  1  0.50000000  0.50000000  0.00000000  1
  Sm  Sm1  1  0.00000000  0.00000000  0.00000000  1
  Sm  Sm2  1  0.52339600  0.02339600  0.84297300  1
  Sm  Sm3  1  0.18042200  0.68042200  0.15702700  1
  Sm  Sm4  1  0.02339600  0.18042200  0.50000000  1
  Sm  Sm5  1  0.68042200  0.52339600  0.50000000  1
  Sm  Sm6  1  0.47660400  0.97660400  0.15702700  1
  Sm  Sm7  1  0.81957800  0.31957800  0.84297300  1
  Sm  Sm8  1  0.97660400  0.81957800  0.50000000  1
  Sm  Sm9  1  0.31957800  0.47660400  0.50000000  1
  Ga  Ga10  1  0.25000000  0.25000000  0.00000000  1
  Ga  Ga11  1  0.75000000  0.75000000  0.00000000  1
  Ga  Ga12  1  0.88012000  0.38012000  0.26023900  1
  Ga  Ga13  1  0.11988000  0.61988000  0.73976100  1
  Ga  Ga14  1  0.38012000  0.11988000  0.50000000  1
  Ga  Ga15  1  0.61988000  0.88012000  0.50000000  1
