# generated using pymatgen
data_Er3In
_symmetry_space_group_name_H-M   'P 1'
_cell_length_a   6.85983889
_cell_length_b   6.85983889
_cell_length_c   5.48663400
_cell_angle_alpha   90.00000000
_cell_angle_beta   90.00000000
_cell_angle_gamma   120.00000857
_symmetry_Int_Tables_number   1
_chemical_formula_structural   Er3In
_chemical_formula_sum   'Er6 In2'
_cell_volume   223.59619896
_cell_formula_units_Z   2
loop_
 _symmetry_equiv_pos_site_id
 _symmetry_equiv_pos_as_xyz
  1  'x, y, z'
loop_
 _atom_site_type_symbol
 _atom_site_label
 _atom_site_symmetry_multiplicity
 _atom_site_fract_x
 _atom_site_fract_y
 _atom_site_fract_z
 _atom_site_occupancy
  Er  Er0  1  0.82980000  0.17020000  0.75000000  1
  Er  Er1  1  0.34039900  0.17020000  0.75000000  1
  Er  Er2  1  0.82980000  0.65960100  0.75000000  1
  Er  Er3  1  0.17020000  0.82980000  0.25000000  1
  Er  Er4  1  0.65960100  0.82980000  0.25000000  1
  Er  Er5  1  0.17020000  0.34039900  0.25000000  1
  In  In6  1  0.66666700  0.33333300  0.25000000  1
  In  In7  1  0.33333300  0.66666700  0.75000000  1
