# generated using pymatgen
data_ErBi3
_symmetry_space_group_name_H-M   'P 1'
_cell_length_a   6.82324295
_cell_length_b   6.82324295
_cell_length_c   6.00464500
_cell_angle_alpha   90.00000000
_cell_angle_beta   90.00000000
_cell_angle_gamma   120.00000917
_symmetry_Int_Tables_number   1
_chemical_formula_structural   ErBi3
_chemical_formula_sum   'Er2 Bi6'
_cell_volume   242.10268053
_cell_formula_units_Z   2
loop_
 _symmetry_equiv_pos_site_id
 _symmetry_equiv_pos_as_xyz
  1  'x, y, z'
loop_
 _atom_site_type_symbol
 _atom_site_label
 _atom_site_symmetry_multiplicity
 _atom_site_fract_x
 _atom_site_fract_y
 _atom_site_fract_z
 _atom_site_occupancy
  Er  Er0  1  0.33333300  0.66666700  0.75000000  1
  Er  Er1  1  0.66666700  0.33333300  0.25000000  1
  Bi  Bi2  1  0.17255400  0.34510800  0.25000000  1
  Bi  Bi3  1  0.65489200  0.82744600  0.25000000  1
  Bi  Bi4  1  0.17255400  0.82744600  0.25000000  1
  Bi  Bi5  1  0.82744600  0.65489200  0.75000000  1
  Bi  Bi6  1  0.34510800  0.17255400  0.75000000  1
  Bi  Bi7  1  0.82744600  0.17255400  0.75000000  1
