# generated using pymatgen
data_Pt(NCl)2
_symmetry_space_group_name_H-M   'P 1'
_cell_length_a   5.18275000
_cell_length_b   9.16812800
_cell_length_c   9.16812800
_cell_angle_alpha   90.00000000
_cell_angle_beta   90.00000000
_cell_angle_gamma   90.00000000
_symmetry_Int_Tables_number   1
_chemical_formula_structural   Pt(NCl)2
_chemical_formula_sum   'Pt4 N8 Cl8'
_cell_volume   435.63382798
_cell_formula_units_Z   4
loop_
 _symmetry_equiv_pos_site_id
 _symmetry_equiv_pos_as_xyz
  1  'x, y, z'
loop_
 _atom_site_type_symbol
 _atom_site_label
 _atom_site_symmetry_multiplicity
 _atom_site_fract_x
 _atom_site_fract_y
 _atom_site_fract_z
 _atom_site_occupancy
  Pt  Pt0  1  0.50000000  0.50000000  0.50000000  1
  Pt  Pt1  1  0.00000000  0.00000000  0.00000000  1
  Pt  Pt2  1  0.00000000  0.50000000  0.50000000  1
  Pt  Pt3  1  0.50000000  0.00000000  0.00000000  1
  N  N4  1  0.50000000  0.21635900  0.99401800  1
  N  N5  1  0.50000000  0.78364100  0.00598200  1
  N  N6  1  0.00000000  0.28364100  0.49401800  1
  N  N7  1  0.00000000  0.71635900  0.50598200  1
  N  N8  1  0.50000000  0.99401800  0.78364100  1
  N  N9  1  0.50000000  0.00598200  0.21635900  1
  N  N10  1  0.00000000  0.49401800  0.71635900  1
  N  N11  1  0.00000000  0.50598200  0.28364100  1
  Cl  Cl12  1  0.50000000  0.75143900  0.51229300  1
  Cl  Cl13  1  0.50000000  0.24856100  0.48770700  1
  Cl  Cl14  1  0.00000000  0.74856100  0.01229300  1
  Cl  Cl15  1  0.00000000  0.25143900  0.98770700  1
  Cl  Cl16  1  0.50000000  0.51229300  0.24856100  1
  Cl  Cl17  1  0.50000000  0.48770700  0.75143900  1
  Cl  Cl18  1  0.00000000  0.01229300  0.25143900  1
  Cl  Cl19  1  0.00000000  0.98770700  0.74856100  1
