data_image0
_chemical_formula_structural       Cl6Fe2
_chemical_formula_sum              "Cl6 Fe2"
_cell_length_a       6.09946
_cell_length_b       6.09946
_cell_length_c       6.83778
_cell_angle_alpha    63.5119
_cell_angle_beta     116.488
_cell_angle_gamma    120

_space_group_name_H-M_alt    "P 1"
_space_group_IT_number       1

loop_
  _space_group_symop_operation_xyz
  'x, y, z'

loop_
  _atom_site_type_symbol
  _atom_site_label
  _atom_site_symmetry_multiplicity
  _atom_site_fract_x
  _atom_site_fract_y
  _atom_site_fract_z
  _atom_site_occupancy
  Cl  Cl1       1.0  0.71800  0.92200  0.23400  1.0000
  Cl  Cl2       1.0  0.07770  0.56200  0.23400  1.0000
  Cl  Cl3       1.0  0.43800  0.28200  0.23400  1.0000
  Cl  Cl4       1.0  0.56200  0.71800  0.76600  1.0000
  Cl  Cl5       1.0  0.92200  0.43800  0.76600  1.0000
  Cl  Cl6       1.0  0.28200  0.07770  0.76600  1.0000
  Fe  Fe1       1.0  0.66700  0.33300  0.00000  1.0000
  Fe  Fe2       1.0  0.33300  0.66700  0.00011  1.0000
