# generated using pymatgen
data_GdTe
_symmetry_space_group_name_H-M   'P 1'
_cell_length_a   4.16711213
_cell_length_b   4.16711213
_cell_length_c   4.11216400
_cell_angle_alpha   90.00000000
_cell_angle_beta   90.00000000
_cell_angle_gamma   120.00000203
_symmetry_Int_Tables_number   1
_chemical_formula_structural   GdTe
_chemical_formula_sum   'Gd1 Te1'
_cell_volume   61.84027648
_cell_formula_units_Z   1
loop_
 _symmetry_equiv_pos_site_id
 _symmetry_equiv_pos_as_xyz
  1  'x, y, z'
loop_
 _atom_site_type_symbol
 _atom_site_label
 _atom_site_symmetry_multiplicity
 _atom_site_fract_x
 _atom_site_fract_y
 _atom_site_fract_z
 _atom_site_occupancy
  Gd  Gd0  1  0.00000000  0.00000000  0.50000000  1
  Te  Te1  1  0.66666700  0.33333300  0.00000000  1
