# generated using pymatgen
data_BaReH7
_symmetry_space_group_name_H-M   'P 1'
_cell_length_a   3.70078308
_cell_length_b   5.06106397
_cell_length_c   9.99488300
_cell_angle_alpha   90.00000000
_cell_angle_beta   90.00000000
_cell_angle_gamma   74.39454924
_symmetry_Int_Tables_number   1
_chemical_formula_structural   BaReH7
_chemical_formula_sum   'Ba2 Re2 H14'
_cell_volume   180.30228429
_cell_formula_units_Z   2
loop_
 _symmetry_equiv_pos_site_id
 _symmetry_equiv_pos_as_xyz
  1  'x, y, z'
loop_
 _atom_site_type_symbol
 _atom_site_label
 _atom_site_symmetry_multiplicity
 _atom_site_fract_x
 _atom_site_fract_y
 _atom_site_fract_z
 _atom_site_occupancy
  Ba  Ba0  1  0.00000000  0.00000000  0.00000000  1
  Ba  Ba1  1  0.00000000  0.00000000  0.50000000  1
  Re  Re2  1  0.62148000  0.57194200  0.25000000  1
  Re  Re3  1  0.37852000  0.42805800  0.75000000  1
  H  H4  1  0.54106300  0.92491700  0.25000000  1
  H  H5  1  0.45893700  0.07508300  0.75000000  1
  H  H6  1  0.67836900  0.61308700  0.42130700  1
  H  H7  1  0.32163100  0.38691300  0.92130700  1
  H  H8  1  0.32163100  0.38691300  0.57869300  1
  H  H9  1  0.67836900  0.61308700  0.07869300  1
  H  H10  1  0.43205000  0.36986300  0.34332800  1
  H  H11  1  0.56795000  0.63013700  0.84332800  1
  H  H12  1  0.56795000  0.63013700  0.65667200  1
  H  H13  1  0.43205000  0.36986300  0.15667200  1
  H  H14  1  0.12102400  0.70425800  0.25000000  1
  H  H15  1  0.87897600  0.29574200  0.75000000  1
  H  H16  1  0.91550200  0.24989800  0.25000000  1
  H  H17  1  0.08449800  0.75010200  0.75000000  1
