# generated using pymatgen
data_Hf3Al
_symmetry_space_group_name_H-M   'P 1'
_cell_length_a   6.15451669
_cell_length_b   6.15451669
_cell_length_c   5.00752100
_cell_angle_alpha   90.00000000
_cell_angle_beta   90.00000000
_cell_angle_gamma   120.00000741
_symmetry_Int_Tables_number   1
_chemical_formula_structural   Hf3Al
_chemical_formula_sum   'Hf6 Al2'
_cell_volume   164.26358085
_cell_formula_units_Z   2
loop_
 _symmetry_equiv_pos_site_id
 _symmetry_equiv_pos_as_xyz
  1  'x, y, z'
loop_
 _atom_site_type_symbol
 _atom_site_label
 _atom_site_symmetry_multiplicity
 _atom_site_fract_x
 _atom_site_fract_y
 _atom_site_fract_z
 _atom_site_occupancy
  Hf  Hf0  1  0.16968400  0.33936800  0.25000000  1
  Hf  Hf1  1  0.66063200  0.83031600  0.25000000  1
  Hf  Hf2  1  0.16968400  0.83031600  0.25000000  1
  Hf  Hf3  1  0.83031600  0.66063200  0.75000000  1
  Hf  Hf4  1  0.33936800  0.16968400  0.75000000  1
  Hf  Hf5  1  0.83031600  0.16968400  0.75000000  1
  Al  Al6  1  0.33333300  0.66666700  0.75000000  1
  Al  Al7  1  0.66666700  0.33333300  0.25000000  1
