# generated using pymatgen
data_InPb
_symmetry_space_group_name_H-M   'P 1'
_cell_length_a   3.43365918
_cell_length_b   3.43365918
_cell_length_c   5.95419552
_cell_angle_alpha   83.12699935
_cell_angle_beta   83.12699935
_cell_angle_gamma   59.83734550
_symmetry_Int_Tables_number   1
_chemical_formula_structural   InPb
_chemical_formula_sum   'In1 Pb1'
_cell_volume   60.11384401
_cell_formula_units_Z   1
loop_
 _symmetry_equiv_pos_site_id
 _symmetry_equiv_pos_as_xyz
  1  'x, y, z'
loop_
 _atom_site_type_symbol
 _atom_site_label
 _atom_site_symmetry_multiplicity
 _atom_site_fract_x
 _atom_site_fract_y
 _atom_site_fract_z
 _atom_site_occupancy
  In  In0  1  0.66797600  0.66797600  0.24841200  1
  Pb  Pb1  1  0.33201600  0.33201600  0.75158700  1
