# generated using pymatgen
data_K
_symmetry_space_group_name_H-M   'P 1'
_cell_length_a   11.49956363
_cell_length_b   11.49956363
_cell_length_c   11.49956381
_cell_angle_alpha   24.03566224
_cell_angle_beta   24.03566224
_cell_angle_gamma   24.03566024
_symmetry_Int_Tables_number   1
_chemical_formula_structural   K
_chemical_formula_sum   K3
_cell_volume   221.68362206
_cell_formula_units_Z   3
loop_
 _symmetry_equiv_pos_site_id
 _symmetry_equiv_pos_as_xyz
  1  'x, y, z'
loop_
 _atom_site_type_symbol
 _atom_site_label
 _atom_site_symmetry_multiplicity
 _atom_site_fract_x
 _atom_site_fract_y
 _atom_site_fract_z
 _atom_site_occupancy
  K  K0  1  0.00000000  0.00000000  0.00000000  1
  K  K1  1  0.77774800  0.77774800  0.77774800  1
  K  K2  1  0.22225200  0.22225200  0.22225200  1
