# generated using pymatgen
data_Hg3Pd
_symmetry_space_group_name_H-M   'P 1'
_cell_length_a   5.94057623
_cell_length_b   5.94057623
_cell_length_c   5.48806200
_cell_angle_alpha   90.00000000
_cell_angle_beta   90.00000000
_cell_angle_gamma   120.00000261
_symmetry_Int_Tables_number   1
_chemical_formula_structural   Hg3Pd
_chemical_formula_sum   'Hg6 Pd2'
_cell_volume   167.72846648
_cell_formula_units_Z   2
loop_
 _symmetry_equiv_pos_site_id
 _symmetry_equiv_pos_as_xyz
  1  'x, y, z'
loop_
 _atom_site_type_symbol
 _atom_site_label
 _atom_site_symmetry_multiplicity
 _atom_site_fract_x
 _atom_site_fract_y
 _atom_site_fract_z
 _atom_site_occupancy
  Hg  Hg0  1  0.83135100  0.16864900  0.75000000  1
  Hg  Hg1  1  0.33729800  0.16864900  0.75000000  1
  Hg  Hg2  1  0.83135100  0.66270200  0.75000000  1
  Hg  Hg3  1  0.16864900  0.83135100  0.25000000  1
  Hg  Hg4  1  0.66270200  0.83135100  0.25000000  1
  Hg  Hg5  1  0.16864900  0.33729800  0.25000000  1
  Pd  Pd6  1  0.66666700  0.33333300  0.25000000  1
  Pd  Pd7  1  0.33333300  0.66666700  0.75000000  1
