# generated using pymatgen
data_K3Dy
_symmetry_space_group_name_H-M   'P 1'
_cell_length_a   8.60861674
_cell_length_b   8.60861674
_cell_length_c   7.07919500
_cell_angle_alpha   90.00000000
_cell_angle_beta   90.00000000
_cell_angle_gamma   120.00000567
_symmetry_Int_Tables_number   1
_chemical_formula_structural   K3Dy
_chemical_formula_sum   'K6 Dy2'
_cell_volume   454.34026659
_cell_formula_units_Z   2
loop_
 _symmetry_equiv_pos_site_id
 _symmetry_equiv_pos_as_xyz
  1  'x, y, z'
loop_
 _atom_site_type_symbol
 _atom_site_label
 _atom_site_symmetry_multiplicity
 _atom_site_fract_x
 _atom_site_fract_y
 _atom_site_fract_z
 _atom_site_occupancy
  K  K0  1  0.17127700  0.34255400  0.25000000  1
  K  K1  1  0.65744600  0.82872300  0.25000000  1
  K  K2  1  0.17127700  0.82872300  0.25000000  1
  K  K3  1  0.82872300  0.65744600  0.75000000  1
  K  K4  1  0.34255400  0.17127700  0.75000000  1
  K  K5  1  0.82872300  0.17127700  0.75000000  1
  Dy  Dy6  1  0.33333300  0.66666700  0.75000000  1
  Dy  Dy7  1  0.66666700  0.33333300  0.25000000  1
