# generated using pymatgen
data_In3Pb
_symmetry_space_group_name_H-M   'P 1'
_cell_length_a   6.93452764
_cell_length_b   6.93452764
_cell_length_c   5.55446300
_cell_angle_alpha   90.00000000
_cell_angle_beta   90.00000000
_cell_angle_gamma   119.99999660
_symmetry_Int_Tables_number   1
_chemical_formula_structural   In3Pb
_chemical_formula_sum   'In6 Pb2'
_cell_volume   231.31643597
_cell_formula_units_Z   2
loop_
 _symmetry_equiv_pos_site_id
 _symmetry_equiv_pos_as_xyz
  1  'x, y, z'
loop_
 _atom_site_type_symbol
 _atom_site_label
 _atom_site_symmetry_multiplicity
 _atom_site_fract_x
 _atom_site_fract_y
 _atom_site_fract_z
 _atom_site_occupancy
  In  In0  1  0.16441900  0.32883900  0.25000000  1
  In  In1  1  0.67116100  0.83558100  0.25000000  1
  In  In2  1  0.16441900  0.83558100  0.25000000  1
  In  In3  1  0.83558100  0.67116100  0.75000000  1
  In  In4  1  0.32883900  0.16441900  0.75000000  1
  In  In5  1  0.83558100  0.16441900  0.75000000  1
  Pb  Pb6  1  0.33333300  0.66666700  0.75000000  1
  Pb  Pb7  1  0.66666700  0.33333300  0.25000000  1
