# generated using pymatgen
data_Ir2Ru2O5
_symmetry_space_group_name_H-M   'P 1'
_cell_length_a   8.06964300
_cell_length_b   3.42783500
_cell_length_c   3.42783500
_cell_angle_alpha   90.00000000
_cell_angle_beta   90.00000000
_cell_angle_gamma   90.00000000
_symmetry_Int_Tables_number   1
_chemical_formula_structural   Ir2Ru2O5
_chemical_formula_sum   'Ir2 Ru2 O5'
_cell_volume   94.81873122
_cell_formula_units_Z   1
loop_
 _symmetry_equiv_pos_site_id
 _symmetry_equiv_pos_as_xyz
  1  'x, y, z'
loop_
 _atom_site_type_symbol
 _atom_site_label
 _atom_site_symmetry_multiplicity
 _atom_site_fract_x
 _atom_site_fract_y
 _atom_site_fract_z
 _atom_site_occupancy
  Ir  Ir0  1  0.16012800  0.49999800  0.49999800  1
  Ir  Ir1  1  0.83987300  0.49999800  0.49999800  1
  Ru  Ru2  1  0.00000000  0.00000000  0.00000000  1
  Ru  Ru3  1  0.50000000  0.00000000  0.00000000  1
  O  O4  1  0.30805300  0.49999800  0.00000000  1
  O  O5  1  0.69194600  0.49999800  0.00000000  1
  O  O6  1  0.50000000  0.49999800  0.49999800  1
  O  O7  1  0.30805300  0.00000000  0.49999800  1
  O  O8  1  0.69194600  0.00000000  0.49999800  1
