# generated using pymatgen
data_Li3B
_symmetry_space_group_name_H-M   'P 1'
_cell_length_a   4.04276062
_cell_length_b   4.04276062
_cell_length_c   4.04276062
_cell_angle_alpha   121.91874436
_cell_angle_beta   121.91874436
_cell_angle_gamma   86.70757158
_symmetry_Int_Tables_number   1
_chemical_formula_structural   Li3B
_chemical_formula_sum   'Li3 B1'
_cell_volume   45.28537545
_cell_formula_units_Z   1
loop_
 _symmetry_equiv_pos_site_id
 _symmetry_equiv_pos_as_xyz
  1  'x, y, z'
loop_
 _atom_site_type_symbol
 _atom_site_label
 _atom_site_symmetry_multiplicity
 _atom_site_fract_x
 _atom_site_fract_y
 _atom_site_fract_z
 _atom_site_occupancy
  Li  Li0  1  0.75000000  0.25000000  0.50000000  1
  Li  Li1  1  0.25000000  0.75000000  0.50000000  1
  Li  Li2  1  0.50000000  0.50000000  0.00000000  1
  B  B3  1  0.00000000  0.00000000  0.00000000  1
