# generated using pymatgen
data_LaSm3
_symmetry_space_group_name_H-M   'P 1'
_cell_length_a   7.33569009
_cell_length_b   7.33569009
_cell_length_c   6.00130000
_cell_angle_alpha   90.00000000
_cell_angle_beta   90.00000000
_cell_angle_gamma   120.00000083
_symmetry_Int_Tables_number   1
_chemical_formula_structural   LaSm3
_chemical_formula_sum   'La2 Sm6'
_cell_volume   279.67774964
_cell_formula_units_Z   2
loop_
 _symmetry_equiv_pos_site_id
 _symmetry_equiv_pos_as_xyz
  1  'x, y, z'
loop_
 _atom_site_type_symbol
 _atom_site_label
 _atom_site_symmetry_multiplicity
 _atom_site_fract_x
 _atom_site_fract_y
 _atom_site_fract_z
 _atom_site_occupancy
  La  La0  1  0.33333300  0.66666700  0.75000000  1
  La  La1  1  0.66666700  0.33333300  0.25000000  1
  Sm  Sm2  1  0.83462100  0.16537900  0.75000000  1
  Sm  Sm3  1  0.33075900  0.16537900  0.75000000  1
  Sm  Sm4  1  0.83462100  0.66924100  0.75000000  1
  Sm  Sm5  1  0.16537900  0.83462100  0.25000000  1
  Sm  Sm6  1  0.16537900  0.33075900  0.25000000  1
  Sm  Sm7  1  0.66924100  0.83462100  0.25000000  1
