# generated using pymatgen
data_KSn3
_symmetry_space_group_name_H-M   'P 1'
_cell_length_a   7.56668214
_cell_length_b   7.56668214
_cell_length_c   5.22123100
_cell_angle_alpha   90.00000000
_cell_angle_beta   90.00000000
_cell_angle_gamma   120.00000125
_symmetry_Int_Tables_number   1
_chemical_formula_structural   KSn3
_chemical_formula_sum   'K2 Sn6'
_cell_volume   258.88954703
_cell_formula_units_Z   2
loop_
 _symmetry_equiv_pos_site_id
 _symmetry_equiv_pos_as_xyz
  1  'x, y, z'
loop_
 _atom_site_type_symbol
 _atom_site_label
 _atom_site_symmetry_multiplicity
 _atom_site_fract_x
 _atom_site_fract_y
 _atom_site_fract_z
 _atom_site_occupancy
  K  K0  1  0.33333300  0.66666700  0.75000000  1
  K  K1  1  0.66666700  0.33333300  0.25000000  1
  Sn  Sn2  1  0.14098000  0.28196000  0.25000000  1
  Sn  Sn3  1  0.71804000  0.85902000  0.25000000  1
  Sn  Sn4  1  0.14098000  0.85902000  0.25000000  1
  Sn  Sn5  1  0.85902000  0.71804000  0.75000000  1
  Sn  Sn6  1  0.28196000  0.14098000  0.75000000  1
  Sn  Sn7  1  0.85902000  0.14098000  0.75000000  1
