# generated using pymatgen
data_La3Cl
_symmetry_space_group_name_H-M   'P 1'
_cell_length_a   6.42742625
_cell_length_b   6.42742625
_cell_length_c   6.42742625
_cell_angle_alpha   136.08509826
_cell_angle_beta   136.08509826
_cell_angle_gamma   63.84879940
_symmetry_Int_Tables_number   1
_chemical_formula_structural   La3Cl
_chemical_formula_sum   'La3 Cl1'
_cell_volume   126.03812746
_cell_formula_units_Z   1
loop_
 _symmetry_equiv_pos_site_id
 _symmetry_equiv_pos_as_xyz
  1  'x, y, z'
loop_
 _atom_site_type_symbol
 _atom_site_label
 _atom_site_symmetry_multiplicity
 _atom_site_fract_x
 _atom_site_fract_y
 _atom_site_fract_z
 _atom_site_occupancy
  La  La0  1  0.75000000  0.25000000  0.50000100  1
  La  La1  1  0.25000000  0.75000000  0.50000100  1
  La  La2  1  0.49999900  0.49999900  0.00000000  1
  Cl  Cl3  1  0.00000000  0.00000000  0.00000000  1
