# generated using pymatgen
data_K3Ru
_symmetry_space_group_name_H-M   'P 1'
_cell_length_a   6.09076886
_cell_length_b   6.09076886
_cell_length_c   6.09076886
_cell_angle_alpha   121.99499518
_cell_angle_beta   121.99499518
_cell_angle_gamma   86.57795961
_symmetry_Int_Tables_number   1
_chemical_formula_structural   K3Ru
_chemical_formula_sum   'K3 Ru1'
_cell_volume   154.65420644
_cell_formula_units_Z   1
loop_
 _symmetry_equiv_pos_site_id
 _symmetry_equiv_pos_as_xyz
  1  'x, y, z'
loop_
 _atom_site_type_symbol
 _atom_site_label
 _atom_site_symmetry_multiplicity
 _atom_site_fract_x
 _atom_site_fract_y
 _atom_site_fract_z
 _atom_site_occupancy
  K  K0  1  0.75000000  0.25000000  0.50000000  1
  K  K1  1  0.25000000  0.75000000  0.50000000  1
  K  K2  1  0.50000000  0.50000000  0.00000000  1
  Ru  Ru3  1  0.00000000  0.00000000  0.00000000  1
