# generated using pymatgen
data_LaSbTe
_symmetry_space_group_name_H-M   'P 1'
_cell_length_a   4.41133300
_cell_length_b   4.44935500
_cell_length_c   19.45316200
_cell_angle_alpha   90.00000000
_cell_angle_beta   90.00000000
_cell_angle_gamma   90.00000000
_symmetry_Int_Tables_number   1
_chemical_formula_structural   LaSbTe
_chemical_formula_sum   'La4 Sb4 Te4'
_cell_volume   381.81862064
_cell_formula_units_Z   4
loop_
 _symmetry_equiv_pos_site_id
 _symmetry_equiv_pos_as_xyz
  1  'x, y, z'
loop_
 _atom_site_type_symbol
 _atom_site_label
 _atom_site_symmetry_multiplicity
 _atom_site_fract_x
 _atom_site_fract_y
 _atom_site_fract_z
 _atom_site_occupancy
  La  La0  1  0.25000000  0.76283400  0.13964100  1
  La  La1  1  0.75000000  0.26283400  0.36035900  1
  La  La2  1  0.25000000  0.73716600  0.63964100  1
  La  La3  1  0.75000000  0.23716600  0.86035900  1
  Sb  Sb4  1  0.25000000  0.27946800  0.00108500  1
  Sb  Sb5  1  0.75000000  0.77946800  0.49891500  1
  Sb  Sb6  1  0.25000000  0.22053200  0.50108500  1
  Sb  Sb7  1  0.75000000  0.72053200  0.99891500  1
  Te  Te8  1  0.75000000  0.26215000  0.18630900  1
  Te  Te9  1  0.25000000  0.76215000  0.31369100  1
  Te  Te10  1  0.75000000  0.23785000  0.68630900  1
  Te  Te11  1  0.25000000  0.73785000  0.81369100  1
