# generated using pymatgen
data_Mg(BH4)2
_symmetry_space_group_name_H-M   'P 1'
_cell_length_a   7.34387079
_cell_length_b   7.34387079
_cell_length_c   7.34387079
_cell_angle_alpha   110.83916109
_cell_angle_beta   110.83916109
_cell_angle_gamma   106.76867436
_symmetry_Int_Tables_number   1
_chemical_formula_structural   Mg(BH4)2
_chemical_formula_sum   'Mg2 B4 H16'
_cell_volume   304.39129298
_cell_formula_units_Z   2
loop_
 _symmetry_equiv_pos_site_id
 _symmetry_equiv_pos_as_xyz
  1  'x, y, z'
loop_
 _atom_site_type_symbol
 _atom_site_label
 _atom_site_symmetry_multiplicity
 _atom_site_fract_x
 _atom_site_fract_y
 _atom_site_fract_z
 _atom_site_occupancy
  Mg  Mg0  1  0.75000000  0.25000000  0.50000000  1
  Mg  Mg1  1  0.00000000  0.00000000  0.00000000  1
  B  B2  1  0.39235700  0.16885100  0.22350600  1
  B  B3  1  0.94534500  0.16885100  0.77649400  1
  B  B4  1  0.83114900  0.60764300  0.77649400  1
  B  B5  1  0.83114900  0.05465500  0.22350600  1
  H  H6  1  0.04961600  0.30558700  0.74402900  1
  H  H7  1  0.69441300  0.43844100  0.74402900  1
  H  H8  1  0.69441300  0.95038400  0.25597100  1
  H  H9  1  0.56155900  0.30558700  0.25597100  1
  H  H10  1  0.99742500  0.27081300  0.97566600  1
  H  H11  1  0.29514700  0.02175800  0.02433400  1
  H  H12  1  0.72918700  0.00257500  0.02433400  1
  H  H13  1  0.97824100  0.70485300  0.97566600  1
  H  H14  1  0.29514700  0.27081300  0.27338800  1
  H  H15  1  0.99742500  0.02175800  0.72661200  1
  H  H16  1  0.72918700  0.70485300  0.72661200  1
  H  H17  1  0.97824100  0.00257500  0.27338800  1
  H  H18  1  0.74249100  0.08082600  0.66166500  1
  H  H19  1  0.41916200  0.08082600  0.33833500  1
  H  H20  1  0.91917400  0.25750900  0.33833500  1
  H  H21  1  0.91917400  0.58083800  0.66166500  1
