# generated using pymatgen
data_CsK3
_symmetry_space_group_name_H-M   'P 1'
_cell_length_a   9.95217803
_cell_length_b   9.95217803
_cell_length_c   7.82145900
_cell_angle_alpha   90.00000000
_cell_angle_beta   90.00000000
_cell_angle_gamma   120.00000017
_symmetry_Int_Tables_number   1
_chemical_formula_structural   CsK3
_chemical_formula_sum   'Cs2 K6'
_cell_volume   670.89518698
_cell_formula_units_Z   2
loop_
 _symmetry_equiv_pos_site_id
 _symmetry_equiv_pos_as_xyz
  1  'x, y, z'
loop_
 _atom_site_type_symbol
 _atom_site_label
 _atom_site_symmetry_multiplicity
 _atom_site_fract_x
 _atom_site_fract_y
 _atom_site_fract_z
 _atom_site_occupancy
  Cs  Cs0  1  0.33333300  0.66666700  0.75000000  1
  Cs  Cs1  1  0.66666700  0.33333300  0.25000000  1
  K  K2  1  0.16137900  0.32275900  0.25000000  1
  K  K3  1  0.67724100  0.83862100  0.25000000  1
  K  K4  1  0.16137900  0.83862100  0.25000000  1
  K  K5  1  0.83862100  0.67724100  0.75000000  1
  K  K6  1  0.32275900  0.16137900  0.75000000  1
  K  K7  1  0.83862100  0.16137900  0.75000000  1
