# generated using pymatgen
data_Rb3NdN6
_symmetry_space_group_name_H-M   'P 1'
_cell_length_a   8.31267826
_cell_length_b   8.31267826
_cell_length_c   8.31267785
_cell_angle_alpha   90.96326457
_cell_angle_beta   90.96326457
_cell_angle_gamma   90.96325712
_symmetry_Int_Tables_number   1
_chemical_formula_structural   Rb3NdN6
_chemical_formula_sum   'Rb6 Nd2 N12'
_cell_volume   574.16490077
_cell_formula_units_Z   2
loop_
 _symmetry_equiv_pos_site_id
 _symmetry_equiv_pos_as_xyz
  1  'x, y, z'
loop_
 _atom_site_type_symbol
 _atom_site_label
 _atom_site_symmetry_multiplicity
 _atom_site_fract_x
 _atom_site_fract_y
 _atom_site_fract_z
 _atom_site_occupancy
  Rb  Rb0  1  0.00000000  0.66482500  0.33517500  1
  Rb  Rb1  1  0.66482500  0.33517500  0.00000000  1
  Rb  Rb2  1  0.33517500  0.00000000  0.66482500  1
  Rb  Rb3  1  0.50000000  0.84349900  0.15650100  1
  Rb  Rb4  1  0.84349900  0.15650100  0.50000000  1
  Rb  Rb5  1  0.15650100  0.50000000  0.84349900  1
  Nd  Nd6  1  0.74624900  0.74624900  0.74624900  1
  Nd  Nd7  1  0.25375100  0.25375100  0.25375100  1
  N  N8  1  0.47628700  0.68405900  0.81669500  1
  N  N9  1  0.68405900  0.81669500  0.47628700  1
  N  N10  1  0.81669500  0.47628700  0.68405900  1
  N  N11  1  0.52371300  0.18330500  0.31594100  1
  N  N12  1  0.31594100  0.52371300  0.18330500  1
  N  N13  1  0.18330500  0.31594100  0.52371300  1
  N  N14  1  0.81678100  0.68703600  0.01840800  1
  N  N15  1  0.68703600  0.01840800  0.81678100  1
  N  N16  1  0.01840800  0.81678100  0.68703600  1
  N  N17  1  0.18321900  0.98159200  0.31296400  1
  N  N18  1  0.31296400  0.18321900  0.98159200  1
  N  N19  1  0.98159200  0.31296400  0.18321900  1
