# generated using pymatgen
data_Mg16PaAl12
_symmetry_space_group_name_H-M   'P 1'
_cell_length_a   9.27680280
_cell_length_b   9.27680280
_cell_length_c   9.27680229
_cell_angle_alpha   110.51114988
_cell_angle_beta   110.51114988
_cell_angle_gamma   110.51114813
_symmetry_Int_Tables_number   1
_chemical_formula_structural   Mg16PaAl12
_chemical_formula_sum   'Mg16 Pa1 Al12'
_cell_volume   589.72545705
_cell_formula_units_Z   1
loop_
 _symmetry_equiv_pos_site_id
 _symmetry_equiv_pos_as_xyz
  1  'x, y, z'
loop_
 _atom_site_type_symbol
 _atom_site_label
 _atom_site_symmetry_multiplicity
 _atom_site_fract_x
 _atom_site_fract_y
 _atom_site_fract_z
 _atom_site_occupancy
  Mg  Mg0  1  0.99823100  0.99823100  0.99823100  1
  Mg  Mg1  1  0.31663200  0.31663200  0.71963700  1
  Mg  Mg2  1  0.99680300  0.99680300  0.65485100  1
  Mg  Mg3  1  0.60956200  0.60956200  0.27520600  1
  Mg  Mg4  1  0.69075900  0.39162000  0.00245800  1
  Mg  Mg5  1  0.00245800  0.69075900  0.39162000  1
  Mg  Mg6  1  0.60956200  0.27520600  0.60956200  1
  Mg  Mg7  1  0.99680300  0.65485100  0.99680300  1
  Mg  Mg8  1  0.39162000  0.00245800  0.69075900  1
  Mg  Mg9  1  0.71963700  0.31663200  0.31663200  1
  Mg  Mg10  1  0.31663200  0.71963700  0.31663200  1
  Mg  Mg11  1  0.00245800  0.39162000  0.69075900  1
  Mg  Mg12  1  0.65485100  0.99680300  0.99680300  1
  Mg  Mg13  1  0.27520600  0.60956200  0.60956200  1
  Mg  Mg14  1  0.69075900  0.00245800  0.39162000  1
  Mg  Mg15  1  0.39162000  0.69075900  0.00245800  1
  Pa  Pa16  1  0.37228800  0.37228800  0.37228800  1
  Al  Al17  1  0.62686100  0.62686100  0.80719400  1
  Al  Al18  1  0.80928400  0.80928400  0.17079300  1
  Al  Al19  1  0.36497700  0.18688400  0.00506700  1
  Al  Al20  1  0.80719400  0.62686100  0.62686100  1
  Al  Al21  1  0.18688400  0.00506700  0.36497700  1
  Al  Al22  1  0.36497700  0.00506700  0.18688400  1
  Al  Al23  1  0.17079300  0.80928400  0.80928400  1
  Al  Al24  1  0.80928400  0.17079300  0.80928400  1
  Al  Al25  1  0.00506700  0.36497700  0.18688400  1
  Al  Al26  1  0.00506700  0.18688400  0.36497700  1
  Al  Al27  1  0.62686100  0.80719400  0.62686100  1
  Al  Al28  1  0.18688400  0.36497700  0.00506700  1
