# generated using pymatgen
data_Bi4Te2Br2O9
_symmetry_space_group_name_H-M   'P 1'
_cell_length_a   5.57048800
_cell_length_b   5.57048800
_cell_length_c   9.81697700
_cell_angle_alpha   90.00000000
_cell_angle_beta   90.00000000
_cell_angle_gamma   90.00000000
_symmetry_Int_Tables_number   1
_chemical_formula_structural   Bi4Te2Br2O9
_chemical_formula_sum   'Bi4 Te2 Br2 O9'
_cell_volume   304.62410029
_cell_formula_units_Z   1
loop_
 _symmetry_equiv_pos_site_id
 _symmetry_equiv_pos_as_xyz
  1  'x, y, z'
loop_
 _atom_site_type_symbol
 _atom_site_label
 _atom_site_symmetry_multiplicity
 _atom_site_fract_x
 _atom_site_fract_y
 _atom_site_fract_z
 _atom_site_occupancy
  Bi  Bi0  1  0.00000000  0.50000000  0.54661100  1
  Bi  Bi1  1  0.50000000  0.00000000  0.54661100  1
  Bi  Bi2  1  0.00000000  0.00000000  0.79778800  1
  Bi  Bi3  1  0.50000000  0.50000000  0.80978500  1
  Te  Te4  1  0.50000000  0.50000000  0.25211100  1
  Te  Te5  1  0.00000000  0.00000000  0.30078700  1
  Br  Br6  1  0.50000000  0.00000000  0.98435800  1
  Br  Br7  1  0.00000000  0.50000000  0.98435800  1
  O  O8  1  0.74383700  0.74383700  0.68222800  1
  O  O9  1  0.25616300  0.25616300  0.68222800  1
  O  O10  1  0.74383700  0.25616300  0.68222800  1
  O  O11  1  0.25616300  0.74383700  0.68222800  1
  O  O12  1  0.73062200  0.73062200  0.34253800  1
  O  O13  1  0.26937800  0.26937800  0.34253800  1
  O  O14  1  0.73062200  0.26937800  0.34253800  1
  O  O15  1  0.26937800  0.73062200  0.34253800  1
  O  O16  1  0.00000000  0.00000000  0.49181600  1
