# generated using pymatgen
data_Mg16Al12Ga
_symmetry_space_group_name_H-M   'P 1'
_cell_length_a   9.11019863
_cell_length_b   9.11019863
_cell_length_c   9.04222356
_cell_angle_alpha   70.77469631
_cell_angle_beta   70.77469631
_cell_angle_gamma   109.58668289
_symmetry_Int_Tables_number   1
_chemical_formula_structural   Mg16Al12Ga
_chemical_formula_sum   'Mg16 Al12 Ga1'
_cell_volume   580.37099917
_cell_formula_units_Z   1
loop_
 _symmetry_equiv_pos_site_id
 _symmetry_equiv_pos_as_xyz
  1  'x, y, z'
loop_
 _atom_site_type_symbol
 _atom_site_label
 _atom_site_symmetry_multiplicity
 _atom_site_fract_x
 _atom_site_fract_y
 _atom_site_fract_z
 _atom_site_occupancy
  Mg  Mg0  1  0.99805700  0.99805700  0.34745200  1
  Mg  Mg1  1  0.31311600  0.31311600  0.28960500  1
  Mg  Mg2  1  0.35392700  0.35392700  0.66237800  1
  Mg  Mg3  1  0.00224600  0.00224600  0.99756300  1
  Mg  Mg4  1  0.40227300  0.67821600  0.99735800  1
  Mg  Mg5  1  0.28670900  0.59930900  0.39989000  1
  Mg  Mg6  1  0.68354500  0.99970200  0.60028200  1
  Mg  Mg7  1  0.65314100  0.00106200  0.99612200  1
  Mg  Mg8  1  0.31931100  0.70833200  0.68641100  1
  Mg  Mg9  1  0.99796800  0.40083400  0.31768000  1
  Mg  Mg10  1  0.40083400  0.99796800  0.31768000  1
  Mg  Mg11  1  0.70833200  0.31931100  0.68641100  1
  Mg  Mg12  1  0.00106200  0.65314100  0.99612200  1
  Mg  Mg13  1  0.99970200  0.68354500  0.60028200  1
  Mg  Mg14  1  0.59930900  0.28670900  0.39989000  1
  Mg  Mg15  1  0.67821600  0.40227300  0.99735800  1
  Al  Al16  1  0.63495600  0.63495600  0.17778200  1
  Al  Al17  1  0.81650100  0.81650100  0.81305500  1
  Al  Al18  1  0.17835400  0.36102200  0.00756700  1
  Al  Al19  1  0.99898300  0.18422100  0.63480500  1
  Al  Al20  1  0.63398700  0.81953000  0.36477000  1
  Al  Al21  1  0.81041500  0.18063000  0.18602900  1
  Al  Al22  1  0.99633200  0.36633000  0.81735000  1
  Al  Al23  1  0.36633000  0.99633200  0.81735000  1
  Al  Al24  1  0.18063000  0.81041500  0.18602900  1
  Al  Al25  1  0.81953000  0.63398700  0.36477000  1
  Al  Al26  1  0.18422100  0.99898300  0.63480500  1
  Al  Al27  1  0.36102200  0.17835400  0.00756700  1
  Ga  Ga28  1  0.62097400  0.62097400  0.69563800  1
