# generated using pymatgen
data_Mg16Al12Hg
_symmetry_space_group_name_H-M   'P 1'
_cell_length_a   9.02713372
_cell_length_b   9.02713372
_cell_length_c   9.10602657
_cell_angle_alpha   71.13576620
_cell_angle_beta   71.13576620
_cell_angle_gamma   108.77696898
_symmetry_Int_Tables_number   1
_chemical_formula_structural   Mg16Al12Hg
_chemical_formula_sum   'Mg16 Al12 Hg1'
_cell_volume   584.28925117
_cell_formula_units_Z   1
loop_
 _symmetry_equiv_pos_site_id
 _symmetry_equiv_pos_as_xyz
  1  'x, y, z'
loop_
 _atom_site_type_symbol
 _atom_site_label
 _atom_site_symmetry_multiplicity
 _atom_site_fract_x
 _atom_site_fract_y
 _atom_site_fract_z
 _atom_site_occupancy
  Mg  Mg0  1  0.99999900  0.99999900  0.65830100  1
  Mg  Mg1  1  0.68926800  0.68926800  0.70703100  1
  Mg  Mg2  1  0.64971100  0.64971100  0.33362400  1
  Mg  Mg3  1  0.99660400  0.99660400  0.00332700  1
  Mg  Mg4  1  0.32454200  0.59749700  0.00089600  1
  Mg  Mg5  1  0.40272900  0.71460500  0.59941200  1
  Mg  Mg6  1  0.99753100  0.31420800  0.39932600  1
  Mg  Mg7  1  0.99663300  0.34828400  0.00627100  1
  Mg  Mg8  1  0.29260900  0.67901900  0.31560700  1
  Mg  Mg9  1  0.60151200  0.00352600  0.68084400  1
  Mg  Mg10  1  0.00352600  0.60151200  0.68084400  1
  Mg  Mg11  1  0.67901900  0.29260900  0.31560700  1
  Mg  Mg12  1  0.34828400  0.99663300  0.00627100  1
  Mg  Mg13  1  0.31420800  0.99753100  0.39932600  1
  Mg  Mg14  1  0.71460500  0.40272900  0.59941200  1
  Mg  Mg15  1  0.59749700  0.32454200  0.00089600  1
  Al  Al16  1  0.36683700  0.36683700  0.82361500  1
  Al  Al17  1  0.17922600  0.17922600  0.18027900  1
  Al  Al18  1  0.64104700  0.82523800  0.98985900  1
  Al  Al19  1  0.81278700  0.99959700  0.36571700  1
  Al  Al20  1  0.17810500  0.36657600  0.64153600  1
  Al  Al21  1  0.81899800  0.18991500  0.81436600  1
  Al  Al22  1  0.63218500  0.00375800  0.18194400  1
  Al  Al23  1  0.00375800  0.63218500  0.18194400  1
  Al  Al24  1  0.18991500  0.81899800  0.81436600  1
  Al  Al25  1  0.36657600  0.17810500  0.64153600  1
  Al  Al26  1  0.99959700  0.81278700  0.36571700  1
  Al  Al27  1  0.82523800  0.64104700  0.98985900  1
  Hg  Hg28  1  0.37690800  0.37690800  0.30350400  1
