# generated using pymatgen
data_Mg17Al11In
_symmetry_space_group_name_H-M   'P 1'
_cell_length_a   9.16088095
_cell_length_b   9.16088095
_cell_length_c   9.20219053
_cell_angle_alpha   70.58503103
_cell_angle_beta   70.58503103
_cell_angle_gamma   109.21307185
_symmetry_Int_Tables_number   1
_chemical_formula_structural   Mg17Al11In
_chemical_formula_sum   'Mg17 Al11 In1'
_cell_volume   597.19104144
_cell_formula_units_Z   1
loop_
 _symmetry_equiv_pos_site_id
 _symmetry_equiv_pos_as_xyz
  1  'x, y, z'
loop_
 _atom_site_type_symbol
 _atom_site_label
 _atom_site_symmetry_multiplicity
 _atom_site_fract_x
 _atom_site_fract_y
 _atom_site_fract_z
 _atom_site_occupancy
  Mg  Mg0  1  0.65769300  0.65769300  0.34053100  1
  Mg  Mg1  1  0.99621300  0.99621300  0.00136400  1
  Mg  Mg2  1  0.00278300  0.00278300  0.65572800  1
  Mg  Mg3  1  0.69247300  0.69247300  0.71187000  1
  Mg  Mg4  1  0.39891300  0.39891300  0.28518500  1
  Mg  Mg5  1  0.60685500  0.31487300  0.00132700  1
  Mg  Mg6  1  0.31619000  0.99986600  0.39605600  1
  Mg  Mg7  1  0.72004600  0.39978600  0.59681500  1
  Mg  Mg8  1  0.34331900  0.99453600  0.00322700  1
  Mg  Mg9  1  0.68372000  0.28681100  0.31666200  1
  Mg  Mg10  1  0.00138400  0.60278200  0.68358800  1
  Mg  Mg11  1  0.60278200  0.00138400  0.68358800  1
  Mg  Mg12  1  0.28681100  0.68372000  0.31666200  1
  Mg  Mg13  1  0.99453600  0.34331900  0.00322700  1
  Mg  Mg14  1  0.39978600  0.72004600  0.59681500  1
  Mg  Mg15  1  0.99986600  0.31619000  0.39605600  1
  Mg  Mg16  1  0.31487300  0.60685500  0.00132700  1
  Al  Al17  1  0.17699900  0.17699900  0.19679400  1
  Al  Al18  1  0.81493400  0.63334600  0.99957800  1
  Al  Al19  1  0.99886300  0.81232300  0.36671200  1
  Al  Al20  1  0.36465200  0.17674000  0.62904500  1
  Al  Al21  1  0.99826800  0.63315200  0.18477800  1
  Al  Al22  1  0.18336300  0.81761800  0.81609700  1
  Al  Al23  1  0.81761800  0.18336300  0.81609700  1
  Al  Al24  1  0.63315200  0.99826800  0.18477800  1
  Al  Al25  1  0.17674000  0.36465200  0.62904500  1
  Al  Al26  1  0.81232300  0.99886300  0.36671200  1
  Al  Al27  1  0.63334600  0.81493400  0.99957800  1
  In  In28  1  0.37150800  0.37150800  0.82076500  1
