# generated using pymatgen
data_Mg16Al12Bi
_symmetry_space_group_name_H-M   'P 1'
_cell_length_a   9.13389136
_cell_length_b   9.13389136
_cell_length_c   9.13389104
_cell_angle_alpha   109.03036194
_cell_angle_beta   109.03036194
_cell_angle_gamma   109.03036635
_symmetry_Int_Tables_number   1
_chemical_formula_structural   Mg16Al12Bi
_chemical_formula_sum   'Mg16 Al12 Bi1'
_cell_volume   595.98724220
_cell_formula_units_Z   1
loop_
 _symmetry_equiv_pos_site_id
 _symmetry_equiv_pos_as_xyz
  1  'x, y, z'
loop_
 _atom_site_type_symbol
 _atom_site_label
 _atom_site_symmetry_multiplicity
 _atom_site_fract_x
 _atom_site_fract_y
 _atom_site_fract_z
 _atom_site_occupancy
  Mg  Mg0  1  0.68429700  0.68429800  0.28728300  1
  Mg  Mg1  1  0.39315700  0.39315700  0.70914300  1
  Mg  Mg2  1  0.00362800  0.00362800  0.00362800  1
  Mg  Mg3  1  0.99950800  0.99950800  0.34708300  1
  Mg  Mg4  1  0.59816000  0.31847800  0.00170100  1
  Mg  Mg5  1  0.70914300  0.39315700  0.39315700  1
  Mg  Mg6  1  0.31847800  0.00170100  0.59816000  1
  Mg  Mg7  1  0.34708300  0.99950800  0.99950800  1
  Mg  Mg8  1  0.68429700  0.28728300  0.68429800  1
  Mg  Mg9  1  0.00170100  0.59816000  0.31847800  1
  Mg  Mg10  1  0.59816000  0.00170100  0.31847800  1
  Mg  Mg11  1  0.28728300  0.68429800  0.68429700  1
  Mg  Mg12  1  0.99950800  0.34708300  0.99950800  1
  Mg  Mg13  1  0.00170100  0.31847800  0.59816000  1
  Mg  Mg14  1  0.39315700  0.70914300  0.39315700  1
  Mg  Mg15  1  0.31847800  0.59816000  0.00170100  1
  Al  Al16  1  0.18250600  0.18250600  0.81638900  1
  Al  Al17  1  0.36197500  0.36197500  0.17426700  1
  Al  Al18  1  0.81970900  0.63257000  0.00945900  1
  Al  Al19  1  0.36197500  0.17426700  0.36197500  1
  Al  Al20  1  0.00945900  0.81970900  0.63257000  1
  Al  Al21  1  0.18250600  0.81638900  0.18250600  1
  Al  Al22  1  0.00945900  0.63257000  0.81970900  1
  Al  Al23  1  0.63257000  0.00945900  0.81970900  1
  Al  Al24  1  0.81638900  0.18250600  0.18250600  1
  Al  Al25  1  0.81970900  0.00945900  0.63257000  1
  Al  Al26  1  0.17426700  0.36197500  0.36197500  1
  Al  Al27  1  0.63257000  0.81970900  0.00945900  1
  Bi  Bi28  1  0.65914200  0.65914200  0.65914200  1
