# generated using pymatgen
data_MgBe3
_symmetry_space_group_name_H-M   'P 1'
_cell_length_a   5.46760267
_cell_length_b   5.46760267
_cell_length_c   3.62789100
_cell_angle_alpha   90.00000000
_cell_angle_beta   90.00000000
_cell_angle_gamma   120.00000807
_symmetry_Int_Tables_number   1
_chemical_formula_structural   MgBe3
_chemical_formula_sum   'Mg2 Be6'
_cell_volume   93.92446283
_cell_formula_units_Z   2
loop_
 _symmetry_equiv_pos_site_id
 _symmetry_equiv_pos_as_xyz
  1  'x, y, z'
loop_
 _atom_site_type_symbol
 _atom_site_label
 _atom_site_symmetry_multiplicity
 _atom_site_fract_x
 _atom_site_fract_y
 _atom_site_fract_z
 _atom_site_occupancy
  Mg  Mg0  1  0.66666700  0.33333300  0.25000000  1
  Mg  Mg1  1  0.33333300  0.66666700  0.75000000  1
  Be  Be2  1  0.13164600  0.26329300  0.25000000  1
  Be  Be3  1  0.13164600  0.86835400  0.25000000  1
  Be  Be4  1  0.73670700  0.86835400  0.25000000  1
  Be  Be5  1  0.26329300  0.13164600  0.75000000  1
  Be  Be6  1  0.86835400  0.13164600  0.75000000  1
  Be  Be7  1  0.86835400  0.73670700  0.75000000  1
