# generated using pymatgen
data_Mg17Al11Ga
_symmetry_space_group_name_H-M   'P 1'
_cell_length_a   9.11680052
_cell_length_b   9.11680052
_cell_length_c   9.10997557
_cell_angle_alpha   70.55231845
_cell_angle_beta   70.55231845
_cell_angle_gamma   109.48791061
_symmetry_Int_Tables_number   1
_chemical_formula_structural   Mg17Al11Ga
_chemical_formula_sum   'Mg17 Al11 Ga1'
_cell_volume   583.09986331
_cell_formula_units_Z   1
loop_
 _symmetry_equiv_pos_site_id
 _symmetry_equiv_pos_as_xyz
  1  'x, y, z'
loop_
 _atom_site_type_symbol
 _atom_site_label
 _atom_site_symmetry_multiplicity
 _atom_site_fract_x
 _atom_site_fract_y
 _atom_site_fract_z
 _atom_site_occupancy
  Mg  Mg0  1  0.00025200  0.00025200  0.65458900  1
  Mg  Mg1  1  0.99969500  0.99969500  0.99995400  1
  Mg  Mg2  1  0.65562200  0.65562200  0.34334700  1
  Mg  Mg3  1  0.39775200  0.39775200  0.28655000  1
  Mg  Mg4  1  0.68296800  0.68296800  0.71447300  1
  Mg  Mg5  1  0.60219400  0.31527400  0.00088200  1
  Mg  Mg6  1  0.71299200  0.39774100  0.60224300  1
  Mg  Mg7  1  0.31594600  0.00015700  0.39759400  1
  Mg  Mg8  1  0.34520900  0.99978700  0.00023600  1
  Mg  Mg9  1  0.68398500  0.28621600  0.31626400  1
  Mg  Mg10  1  0.99976700  0.60172300  0.68416300  1
  Mg  Mg11  1  0.60172300  0.99976700  0.68416300  1
  Mg  Mg12  1  0.28621600  0.68398500  0.31626400  1
  Mg  Mg13  1  0.99978700  0.34520900  0.00023600  1
  Mg  Mg14  1  0.00015700  0.31594600  0.39759400  1
  Mg  Mg15  1  0.39774100  0.71299200  0.60224300  1
  Mg  Mg16  1  0.31527400  0.60219400  0.00088200  1
  Al  Al17  1  0.18648600  0.18648600  0.18003700  1
  Al  Al18  1  0.81454600  0.63295700  0.99969100  1
  Al  Al19  1  0.36654900  0.18160200  0.63336900  1
  Al  Al20  1  0.00005100  0.81495000  0.36661000  1
  Al  Al21  1  0.18547300  0.81870600  0.81469500  1
  Al  Al22  1  0.99957600  0.63270900  0.18571300  1
  Al  Al23  1  0.63270900  0.99957600  0.18571300  1
  Al  Al24  1  0.81870600  0.18547300  0.81469500  1
  Al  Al25  1  0.81495000  0.00005100  0.36661000  1
  Al  Al26  1  0.18160200  0.36654900  0.63336900  1
  Al  Al27  1  0.63295700  0.81454600  0.99969100  1
  Ga  Ga28  1  0.36911700  0.36911700  0.81812800  1
