# generated using pymatgen
data_Mg16Al12F
_symmetry_space_group_name_H-M   'P 1'
_cell_length_a   9.09075898
_cell_length_b   9.09075898
_cell_length_c   9.08371629
_cell_angle_alpha   70.48889526
_cell_angle_beta   70.48889526
_cell_angle_gamma   108.56152379
_symmetry_Int_Tables_number   1
_chemical_formula_structural   Mg16Al12F
_chemical_formula_sum   'Mg16 Al12 F1'
_cell_volume   583.68951890
_cell_formula_units_Z   1
loop_
 _symmetry_equiv_pos_site_id
 _symmetry_equiv_pos_as_xyz
  1  'x, y, z'
loop_
 _atom_site_type_symbol
 _atom_site_label
 _atom_site_symmetry_multiplicity
 _atom_site_fract_x
 _atom_site_fract_y
 _atom_site_fract_z
 _atom_site_occupancy
  Mg  Mg0  1  0.49932900  0.49932900  0.31693700  1
  Mg  Mg1  1  0.98828900  0.98828900  0.02349000  1
  Mg  Mg2  1  0.70067500  0.70067500  0.70955900  1
  Mg  Mg3  1  0.01204500  0.01204500  0.66120900  1
  Mg  Mg4  1  0.33994800  0.59157000  0.01730100  1
  Mg  Mg5  1  0.42172400  0.71151500  0.58825500  1
  Mg  Mg6  1  0.99792300  0.31313100  0.41328900  1
  Mg  Mg7  1  0.01347800  0.35686800  0.00601600  1
  Mg  Mg8  1  0.60218000  0.00176300  0.69038800  1
  Mg  Mg9  1  0.28437500  0.69357700  0.32187400  1
  Mg  Mg10  1  0.69357700  0.28437500  0.32187400  1
  Mg  Mg11  1  0.00176300  0.60218000  0.69038800  1
  Mg  Mg12  1  0.35686800  0.01347800  0.00601600  1
  Mg  Mg13  1  0.31313100  0.99792300  0.41328900  1
  Mg  Mg14  1  0.71151500  0.42172400  0.58825500  1
  Mg  Mg15  1  0.59157000  0.33994800  0.01730100  1
  Al  Al16  1  0.16818000  0.16818000  0.19938700  1
  Al  Al17  1  0.36178100  0.36178100  0.83510500  1
  Al  Al18  1  0.17582900  0.36455600  0.64842600  1
  Al  Al19  1  0.65540900  0.84429900  0.99092200  1
  Al  Al20  1  0.80902400  0.99963300  0.37064000  1
  Al  Al21  1  0.63314400  0.01900000  0.18525900  1
  Al  Al22  1  0.81612000  0.20654600  0.81523700  1
  Al  Al23  1  0.20654600  0.81612000  0.81523700  1
  Al  Al24  1  0.01900000  0.63314400  0.18525900  1
  Al  Al25  1  0.99963300  0.80902400  0.37064000  1
  Al  Al26  1  0.84429900  0.65540900  0.99092200  1
  Al  Al27  1  0.36455600  0.17582900  0.64842600  1
  F  F28  1  0.41812100  0.41812100  0.15916100  1
