# generated using pymatgen
data_Mg16Al12Pd
_symmetry_space_group_name_H-M   'P 1'
_cell_length_a   9.02060838
_cell_length_b   9.02060838
_cell_length_c   9.06955950
_cell_angle_alpha   70.61302631
_cell_angle_beta   70.61302631
_cell_angle_gamma   109.01176408
_symmetry_Int_Tables_number   1
_chemical_formula_structural   Mg16Al12Pd
_chemical_formula_sum   'Mg16 Al12 Pd1'
_cell_volume   572.46888360
_cell_formula_units_Z   1
loop_
 _symmetry_equiv_pos_site_id
 _symmetry_equiv_pos_as_xyz
  1  'x, y, z'
loop_
 _atom_site_type_symbol
 _atom_site_label
 _atom_site_symmetry_multiplicity
 _atom_site_fract_x
 _atom_site_fract_y
 _atom_site_fract_z
 _atom_site_occupancy
  Mg  Mg0  1  0.99668100  0.99668100  0.00455300  1
  Mg  Mg1  1  0.69347300  0.69347300  0.70484100  1
  Mg  Mg2  1  0.62216000  0.62216000  0.33431600  1
  Mg  Mg3  1  0.00989300  0.00989300  0.64919500  1
  Mg  Mg4  1  0.33021000  0.58735800  0.01153500  1
  Mg  Mg5  1  0.40652900  0.71513200  0.59792800  1
  Mg  Mg6  1  0.99996000  0.31776900  0.39866700  1
  Mg  Mg7  1  0.00292900  0.35269300  0.00267900  1
  Mg  Mg8  1  0.29579300  0.67823400  0.31060500  1
  Mg  Mg9  1  0.60272600  0.00535900  0.67870500  1
  Mg  Mg10  1  0.00535900  0.60272600  0.67870500  1
  Mg  Mg11  1  0.67823400  0.29579300  0.31060500  1
  Mg  Mg12  1  0.35269300  0.00292900  0.00267900  1
  Mg  Mg13  1  0.31776900  0.99996000  0.39866700  1
  Mg  Mg14  1  0.71513200  0.40652900  0.59792800  1
  Mg  Mg15  1  0.58735800  0.33021000  0.01153500  1
  Al  Al16  1  0.18585400  0.18585400  0.18923500  1
  Al  Al17  1  0.36369800  0.36369800  0.82561600  1
  Al  Al18  1  0.64695400  0.83010400  0.98403000  1
  Al  Al19  1  0.18401400  0.36920600  0.63273200  1
  Al  Al20  1  0.81423200  0.00136700  0.36161500  1
  Al  Al21  1  0.63513400  0.00586000  0.17949500  1
  Al  Al22  1  0.82029300  0.19698600  0.81269000  1
  Al  Al23  1  0.19698600  0.82029300  0.81269000  1
  Al  Al24  1  0.00586000  0.63513400  0.17949500  1
  Al  Al25  1  0.00136700  0.81423200  0.36161500  1
  Al  Al26  1  0.36920600  0.18401400  0.63273200  1
  Al  Al27  1  0.83010400  0.64695400  0.98403000  1
  Pd  Pd28  1  0.32943800  0.32943800  0.35092700  1
