# generated using pymatgen
data_Mg16Al12Cl
_symmetry_space_group_name_H-M   'P 1'
_cell_length_a   8.93459000
_cell_length_b   9.07941163
_cell_length_c   9.08574032
_cell_angle_alpha   109.33100170
_cell_angle_beta   108.14767240
_cell_angle_gamma   107.50133835
_symmetry_Int_Tables_number   1
_chemical_formula_structural   Mg16Al12Cl
_chemical_formula_sum   'Mg16 Al12 Cl1'
_cell_volume   590.07671330
_cell_formula_units_Z   1
loop_
 _symmetry_equiv_pos_site_id
 _symmetry_equiv_pos_as_xyz
  1  'x, y, z'
loop_
 _atom_site_type_symbol
 _atom_site_label
 _atom_site_symmetry_multiplicity
 _atom_site_fract_x
 _atom_site_fract_y
 _atom_site_fract_z
 _atom_site_occupancy
  Mg  Mg0  1  0.99752000  0.99751400  0.99500800  1
  Mg  Mg1  1  0.00629300  0.00617700  0.34419000  1
  Mg  Mg2  1  0.65310100  0.65349500  0.67871300  1
  Mg  Mg3  1  0.69092800  0.69077000  0.29254700  1
  Mg  Mg4  1  0.33162900  0.59739300  0.99858300  1
  Mg  Mg5  1  0.40203300  0.70539500  0.39883000  1
  Mg  Mg6  1  0.99315800  0.30743500  0.59254200  1
  Mg  Mg7  1  0.99642300  0.34878700  0.98872400  1
  Mg  Mg8  1  0.28667500  0.67638500  0.67810500  1
  Mg  Mg9  1  0.59661700  0.00182100  0.31895600  1
  Mg  Mg10  1  0.00176800  0.59645700  0.31762700  1
  Mg  Mg11  1  0.67528700  0.28630000  0.67715200  1
  Mg  Mg12  1  0.34804800  0.99560400  0.98742000  1
  Mg  Mg13  1  0.30803600  0.99275700  0.59163400  1
  Mg  Mg14  1  0.70493200  0.40231800  0.39902600  1
  Mg  Mg15  1  0.59851300  0.33275200  0.99893400  1
  Al  Al16  1  0.35729000  0.35854500  0.15633100  1
  Al  Al17  1  0.15816100  0.15788500  0.80568000  1
  Al  Al18  1  0.17303400  0.36084500  0.34758000  1
  Al  Al19  1  0.65550100  0.84388500  0.02313900  1
  Al  Al20  1  0.80074900  0.98980700  0.63029500  1
  Al  Al21  1  0.81853400  0.19538900  0.18421700  1
  Al  Al22  1  0.62284000  0.00446800  0.81664500  1
  Al  Al23  1  0.00675800  0.62455500  0.81745100  1
  Al  Al24  1  0.19571800  0.81894400  0.18557500  1
  Al  Al25  1  0.99045400  0.80234900  0.63293400  1
  Al  Al26  1  0.84391200  0.65502300  0.02482100  1
  Al  Al27  1  0.36154300  0.17284200  0.34970900  1
  Cl  Cl28  1  0.42453700  0.42409500  0.76763200  1
