# generated using pymatgen
data_MgIn2
_symmetry_space_group_name_H-M   'P 1'
_cell_length_a   5.75979630
_cell_length_b   5.75979630
_cell_length_c   5.27524500
_cell_angle_alpha   90.00000000
_cell_angle_beta   90.00000000
_cell_angle_gamma   120.00000342
_symmetry_Int_Tables_number   1
_chemical_formula_structural   MgIn2
_chemical_formula_sum   'Mg2 In4'
_cell_volume   151.56101319
_cell_formula_units_Z   2
loop_
 _symmetry_equiv_pos_site_id
 _symmetry_equiv_pos_as_xyz
  1  'x, y, z'
loop_
 _atom_site_type_symbol
 _atom_site_label
 _atom_site_symmetry_multiplicity
 _atom_site_fract_x
 _atom_site_fract_y
 _atom_site_fract_z
 _atom_site_occupancy
  Mg  Mg0  1  0.66666700  0.33333300  0.00000000  1
  Mg  Mg1  1  0.33333300  0.66666700  0.00000000  1
  In  In2  1  0.65951400  0.00000000  0.50000000  1
  In  In3  1  0.00000000  0.00000000  0.00000000  1
  In  In4  1  0.34048600  0.34048600  0.50000000  1
  In  In5  1  0.00000000  0.65951400  0.50000000  1
