# generated using pymatgen
data_Mg16Al12Ga
_symmetry_space_group_name_H-M   'P 1'
_cell_length_a   9.11818749
_cell_length_b   9.11818749
_cell_length_c   9.11818749
_cell_angle_alpha   109.47122063
_cell_angle_beta   109.47122063
_cell_angle_gamma   109.47122063
_symmetry_Int_Tables_number   1
_chemical_formula_structural   Mg16Al12Ga
_chemical_formula_sum   'Mg16 Al12 Ga1'
_cell_volume   583.58438483
_cell_formula_units_Z   1
loop_
 _symmetry_equiv_pos_site_id
 _symmetry_equiv_pos_as_xyz
  1  'x, y, z'
loop_
 _atom_site_type_symbol
 _atom_site_label
 _atom_site_symmetry_multiplicity
 _atom_site_fract_x
 _atom_site_fract_y
 _atom_site_fract_z
 _atom_site_occupancy
  Mg  Mg0  1  0.00000000  0.33529600  0.00000000  1
  Mg  Mg1  1  0.33529600  0.00000000  0.00000000  1
  Mg  Mg2  1  0.31399700  0.59888900  0.00000000  1
  Mg  Mg3  1  0.59888900  0.31399700  0.00000000  1
  Mg  Mg4  1  0.40111100  0.40111100  0.71510800  1
  Mg  Mg5  1  0.28489200  0.68600300  0.68600300  1
  Mg  Mg6  1  0.68600300  0.28489200  0.68600300  1
  Mg  Mg7  1  0.66470400  0.66470400  0.66470400  1
  Mg  Mg8  1  0.31399700  0.00000000  0.59888900  1
  Mg  Mg9  1  0.00000000  0.31399700  0.59888900  1
  Mg  Mg10  1  0.71510800  0.40111100  0.40111100  1
  Mg  Mg11  1  0.40111100  0.71510800  0.40111100  1
  Mg  Mg12  1  0.00000000  0.00000000  0.33529600  1
  Mg  Mg13  1  0.59888900  0.00000000  0.31399700  1
  Mg  Mg14  1  0.00000000  0.59888900  0.31399700  1
  Mg  Mg15  1  0.68600300  0.68600300  0.28489200  1
  Al  Al16  1  0.63070000  0.81371000  0.00000000  1
  Al  Al17  1  0.81371000  0.63070000  0.00000000  1
  Al  Al18  1  0.18629000  0.18629000  0.81699000  1
  Al  Al19  1  0.63070000  0.00000000  0.81371000  1
  Al  Al20  1  0.00000000  0.63070000  0.81371000  1
  Al  Al21  1  0.81371000  0.00000000  0.63070000  1
  Al  Al22  1  0.00000000  0.81371000  0.63070000  1
  Al  Al23  1  0.36930000  0.18301000  0.36930000  1
  Al  Al24  1  0.18301000  0.36930000  0.36930000  1
  Al  Al25  1  0.18629000  0.81699000  0.18629000  1
  Al  Al26  1  0.81699000  0.18629000  0.18629000  1
  Al  Al27  1  0.36930000  0.36930000  0.18301000  1
  Ga  Ga28  1  0.00000000  0.00000000  0.00000000  1
