# generated using pymatgen
data_Mg16MnAl12
_symmetry_space_group_name_H-M   'P 1'
_cell_length_a   9.06097612
_cell_length_b   9.06097612
_cell_length_c   9.06097612
_cell_angle_alpha   109.47122063
_cell_angle_beta   109.47122063
_cell_angle_gamma   109.47122063
_symmetry_Int_Tables_number   1
_chemical_formula_structural   Mg16MnAl12
_chemical_formula_sum   'Mg16 Mn1 Al12'
_cell_volume   572.66819820
_cell_formula_units_Z   1
loop_
 _symmetry_equiv_pos_site_id
 _symmetry_equiv_pos_as_xyz
  1  'x, y, z'
loop_
 _atom_site_type_symbol
 _atom_site_label
 _atom_site_symmetry_multiplicity
 _atom_site_fract_x
 _atom_site_fract_y
 _atom_site_fract_z
 _atom_site_occupancy
  Mg  Mg0  1  0.28609900  0.60017100  0.60017100  1
  Mg  Mg1  1  0.33101500  0.33101500  0.33101500  1
  Mg  Mg2  1  0.71390100  0.31407300  0.31407300  1
  Mg  Mg3  1  0.66898500  0.00000000  0.00000000  1
  Mg  Mg4  1  0.00000000  0.68592700  0.39982900  1
  Mg  Mg5  1  0.39982900  0.00000000  0.68592700  1
  Mg  Mg6  1  0.60017100  0.60017100  0.28609900  1
  Mg  Mg7  1  0.00000000  0.00000000  0.66898500  1
  Mg  Mg8  1  0.68592700  0.39982900  0.00000000  1
  Mg  Mg9  1  0.31407300  0.71390100  0.31407300  1
  Mg  Mg10  1  0.31407300  0.31407300  0.71390100  1
  Mg  Mg11  1  0.68592700  0.00000000  0.39982900  1
  Mg  Mg12  1  0.00000000  0.66898500  0.00000000  1
  Mg  Mg13  1  0.60017100  0.28609900  0.60017100  1
  Mg  Mg14  1  0.39982900  0.68592700  0.00000000  1
  Mg  Mg15  1  0.00000000  0.39982900  0.68592700  1
  Mn  Mn16  1  0.00000000  0.00000000  0.00000000  1
  Al  Al17  1  0.17828600  0.81634200  0.81634200  1
  Al  Al18  1  0.82171400  0.63805600  0.63805600  1
  Al  Al19  1  0.00000000  0.36194400  0.18365800  1
  Al  Al20  1  0.36194400  0.18365800  0.00000000  1
  Al  Al21  1  0.63805600  0.82171400  0.63805600  1
  Al  Al22  1  0.81634200  0.17828600  0.81634200  1
  Al  Al23  1  0.18365800  0.36194400  0.00000000  1
  Al  Al24  1  0.81634200  0.81634200  0.17828600  1
  Al  Al25  1  0.18365800  0.00000000  0.36194400  1
  Al  Al26  1  0.36194400  0.00000000  0.18365800  1
  Al  Al27  1  0.63805600  0.63805600  0.82171400  1
  Al  Al28  1  0.00000000  0.18365800  0.36194400  1
