# generated using pymatgen
data_LaPu3
_symmetry_space_group_name_H-M   'P 1'
_cell_length_a   6.86686171
_cell_length_b   6.92831602
_cell_length_c   5.36624400
_cell_angle_alpha   90.00000000
_cell_angle_beta   90.00000000
_cell_angle_gamma   119.36409814
_symmetry_Int_Tables_number   1
_chemical_formula_structural   LaPu3
_chemical_formula_sum   'La2 Pu6'
_cell_volume   222.50223820
_cell_formula_units_Z   2
loop_
 _symmetry_equiv_pos_site_id
 _symmetry_equiv_pos_as_xyz
  1  'x, y, z'
loop_
 _atom_site_type_symbol
 _atom_site_label
 _atom_site_symmetry_multiplicity
 _atom_site_fract_x
 _atom_site_fract_y
 _atom_site_fract_z
 _atom_site_occupancy
  La  La0  1  0.32802500  0.65580200  0.75000100  1
  La  La1  1  0.66881200  0.32676100  0.25000000  1
  Pu  Pu2  1  0.17020100  0.34011100  0.25000000  1
  Pu  Pu3  1  0.68043700  0.84682300  0.25000000  1
  Pu  Pu4  1  0.15999600  0.87305200  0.25000000  1
  Pu  Pu5  1  0.83417200  0.65182500  0.75000100  1
  Pu  Pu6  1  0.31281400  0.15549200  0.75000100  1
  Pu  Pu7  1  0.84554100  0.15013300  0.75000100  1
