# generated using pymatgen
data_Mg3C
_symmetry_space_group_name_H-M   'P 1'
_cell_length_a   7.74944368
_cell_length_b   7.74944368
_cell_length_c   3.08709800
_cell_angle_alpha   90.00000000
_cell_angle_beta   90.00000000
_cell_angle_gamma   119.99999727
_symmetry_Int_Tables_number   1
_chemical_formula_structural   Mg3C
_chemical_formula_sum   'Mg6 C2'
_cell_volume   160.55436332
_cell_formula_units_Z   2
loop_
 _symmetry_equiv_pos_site_id
 _symmetry_equiv_pos_as_xyz
  1  'x, y, z'
loop_
 _atom_site_type_symbol
 _atom_site_label
 _atom_site_symmetry_multiplicity
 _atom_site_fract_x
 _atom_site_fract_y
 _atom_site_fract_z
 _atom_site_occupancy
  Mg  Mg0  1  0.21062100  0.42124200  0.25000000  1
  Mg  Mg1  1  0.57875800  0.78937900  0.25000000  1
  Mg  Mg2  1  0.21062100  0.78937900  0.25000000  1
  Mg  Mg3  1  0.78937900  0.21062100  0.75000000  1
  Mg  Mg4  1  0.42124200  0.21062100  0.75000000  1
  Mg  Mg5  1  0.78937900  0.57875800  0.75000000  1
  C  C6  1  0.66666700  0.33333300  0.25000000  1
  C  C7  1  0.33333300  0.66666700  0.75000000  1
