# generated using pymatgen
data_MgSn
_symmetry_space_group_name_H-M   'P 1'
_cell_length_a   5.91207075
_cell_length_b   5.91207075
_cell_length_c   5.39445791
_cell_angle_alpha   74.41933255
_cell_angle_beta   74.41933255
_cell_angle_gamma   32.49872954
_symmetry_Int_Tables_number   1
_chemical_formula_structural   MgSn
_chemical_formula_sum   'Mg2 Sn2'
_cell_volume   97.25902637
_cell_formula_units_Z   2
loop_
 _symmetry_equiv_pos_site_id
 _symmetry_equiv_pos_as_xyz
  1  'x, y, z'
loop_
 _atom_site_type_symbol
 _atom_site_label
 _atom_site_symmetry_multiplicity
 _atom_site_fract_x
 _atom_site_fract_y
 _atom_site_fract_z
 _atom_site_occupancy
  Mg  Mg0  1  0.37442900  0.37442900  0.79143100  1
  Mg  Mg1  1  0.62557100  0.62557100  0.20856900  1
  Sn  Sn2  1  0.11904200  0.11904200  0.72030000  1
  Sn  Sn3  1  0.88095800  0.88095800  0.27970000  1
