# generated using pymatgen
data_MgPb2
_symmetry_space_group_name_H-M   'P 1'
_cell_length_a   5.99419703
_cell_length_b   5.99419703
_cell_length_c   5.73553600
_cell_angle_alpha   90.00000000
_cell_angle_beta   90.00000000
_cell_angle_gamma   122.09672757
_symmetry_Int_Tables_number   1
_chemical_formula_structural   MgPb2
_chemical_formula_sum   'Mg2 Pb4'
_cell_volume   174.58121764
_cell_formula_units_Z   2
loop_
 _symmetry_equiv_pos_site_id
 _symmetry_equiv_pos_as_xyz
  1  'x, y, z'
loop_
 _atom_site_type_symbol
 _atom_site_label
 _atom_site_symmetry_multiplicity
 _atom_site_fract_x
 _atom_site_fract_y
 _atom_site_fract_z
 _atom_site_occupancy
  Mg  Mg0  1  0.83243900  0.83243900  0.75000000  1
  Mg  Mg1  1  0.16756100  0.16756100  0.25000000  1
  Pb  Pb2  1  0.16592900  0.49207600  0.75000000  1
  Pb  Pb3  1  0.50792400  0.83407100  0.25000000  1
  Pb  Pb4  1  0.83407100  0.50792400  0.25000000  1
  Pb  Pb5  1  0.49207600  0.16592900  0.75000000  1
