# generated using pymatgen
data_Ba2ErInTe5
_symmetry_space_group_name_H-M   'P 1'
_cell_length_a   10.48102656
_cell_length_b   10.48102656
_cell_length_c   14.36081300
_cell_angle_alpha   90.00000000
_cell_angle_beta   90.00000000
_cell_angle_gamma   154.80614042
_symmetry_Int_Tables_number   1
_chemical_formula_structural   Ba2ErInTe5
_chemical_formula_sum   'Ba4 Er2 In2 Te10'
_cell_volume   671.54061019
_cell_formula_units_Z   2
loop_
 _symmetry_equiv_pos_site_id
 _symmetry_equiv_pos_as_xyz
  1  'x, y, z'
loop_
 _atom_site_type_symbol
 _atom_site_label
 _atom_site_symmetry_multiplicity
 _atom_site_fract_x
 _atom_site_fract_y
 _atom_site_fract_z
 _atom_site_occupancy
  Ba  Ba0  1  0.13087100  0.86912900  0.81528300  1
  Ba  Ba1  1  0.86912900  0.13087100  0.31528300  1
  Ba  Ba2  1  0.11938400  0.88061600  0.18205800  1
  Ba  Ba3  1  0.88061600  0.11938400  0.68205800  1
  Er  Er4  1  0.20970500  0.79029500  0.51856300  1
  Er  Er5  1  0.79029500  0.20970500  0.01856300  1
  In  In6  1  0.44357200  0.55642800  0.93412200  1
  In  In7  1  0.55642800  0.44357200  0.43412200  1
  Te  Te8  1  0.35489100  0.64510900  0.50118200  1
  Te  Te9  1  0.64510900  0.35489100  0.00118200  1
  Te  Te10  1  0.29198600  0.70801400  0.15930400  1
  Te  Te11  1  0.70801400  0.29198600  0.65930400  1
  Te  Te12  1  0.30976100  0.69023900  0.86759400  1
  Te  Te13  1  0.69023900  0.30976100  0.36759400  1
  Te  Te14  1  0.50410000  0.49590000  0.76236600  1
  Te  Te15  1  0.49590000  0.50410000  0.26236600  1
  Te  Te16  1  0.05082600  0.94917400  0.55142700  1
  Te  Te17  1  0.94917400  0.05082600  0.05142700  1
