# generated using pymatgen
data_Mg3Re
_symmetry_space_group_name_H-M   'P 1'
_cell_length_a   5.90966164
_cell_length_b   5.90966164
_cell_length_c   4.81478100
_cell_angle_alpha   90.00000000
_cell_angle_beta   90.00000000
_cell_angle_gamma   119.99999593
_symmetry_Int_Tables_number   1
_chemical_formula_structural   Mg3Re
_chemical_formula_sum   'Mg6 Re2'
_cell_volume   145.62381985
_cell_formula_units_Z   2
loop_
 _symmetry_equiv_pos_site_id
 _symmetry_equiv_pos_as_xyz
  1  'x, y, z'
loop_
 _atom_site_type_symbol
 _atom_site_label
 _atom_site_symmetry_multiplicity
 _atom_site_fract_x
 _atom_site_fract_y
 _atom_site_fract_z
 _atom_site_occupancy
  Mg  Mg0  1  0.17461400  0.34922900  0.25000000  1
  Mg  Mg1  1  0.17461400  0.82538600  0.25000000  1
  Mg  Mg2  1  0.65077100  0.82538600  0.25000000  1
  Mg  Mg3  1  0.34922900  0.17461400  0.75000000  1
  Mg  Mg4  1  0.82538600  0.17461400  0.75000000  1
  Mg  Mg5  1  0.82538600  0.65077100  0.75000000  1
  Re  Re6  1  0.66666700  0.33333300  0.25000000  1
  Re  Re7  1  0.33333300  0.66666700  0.75000000  1
