# generated using pymatgen
data_Mg5In
_symmetry_space_group_name_H-M   'P 1'
_cell_length_a   6.21275416
_cell_length_b   6.21275416
_cell_length_c   6.21275420
_cell_angle_alpha   52.06540439
_cell_angle_beta   52.06540439
_cell_angle_gamma   52.06540761
_symmetry_Int_Tables_number   1
_chemical_formula_structural   Mg5In
_chemical_formula_sum   'Mg5 In1'
_cell_volume   137.93934024
_cell_formula_units_Z   1
loop_
 _symmetry_equiv_pos_site_id
 _symmetry_equiv_pos_as_xyz
  1  'x, y, z'
loop_
 _atom_site_type_symbol
 _atom_site_label
 _atom_site_symmetry_multiplicity
 _atom_site_fract_x
 _atom_site_fract_y
 _atom_site_fract_z
 _atom_site_occupancy
  Mg  Mg0  1  0.50000000  0.16661900  0.83338100  1
  Mg  Mg1  1  0.16661900  0.83338100  0.50000000  1
  Mg  Mg2  1  0.83338100  0.50000000  0.16661900  1
  Mg  Mg3  1  0.33292100  0.33292100  0.33292100  1
  Mg  Mg4  1  0.66707900  0.66707900  0.66707900  1
  In  In5  1  0.00000000  0.00000000  0.00000000  1
