# generated using pymatgen
data_MgPt5
_symmetry_space_group_name_H-M   'P 1'
_cell_length_a   4.89196615
_cell_length_b   4.89196615
_cell_length_c   4.56253500
_cell_angle_alpha   90.00000000
_cell_angle_beta   90.00000000
_cell_angle_gamma   120.00000199
_symmetry_Int_Tables_number   1
_chemical_formula_structural   MgPt5
_chemical_formula_sum   'Mg1 Pt5'
_cell_volume   94.55918448
_cell_formula_units_Z   1
loop_
 _symmetry_equiv_pos_site_id
 _symmetry_equiv_pos_as_xyz
  1  'x, y, z'
loop_
 _atom_site_type_symbol
 _atom_site_label
 _atom_site_symmetry_multiplicity
 _atom_site_fract_x
 _atom_site_fract_y
 _atom_site_fract_z
 _atom_site_occupancy
  Mg  Mg0  1  0.00000000  0.00000000  0.00000000  1
  Pt  Pt1  1  0.65997300  0.00000000  0.50000000  1
  Pt  Pt2  1  0.66666700  0.33333300  0.00000000  1
  Pt  Pt3  1  0.34002700  0.34002700  0.50000000  1
  Pt  Pt4  1  0.00000000  0.65997300  0.50000000  1
  Pt  Pt5  1  0.33333300  0.66666700  0.00000000  1
