# generated using pymatgen
data_MgAu2
_symmetry_space_group_name_H-M   'P 1'
_cell_length_a   5.08944590
_cell_length_b   5.08944590
_cell_length_c   4.92716800
_cell_angle_alpha   90.00000000
_cell_angle_beta   90.00000000
_cell_angle_gamma   121.18227280
_symmetry_Int_Tables_number   1
_chemical_formula_structural   MgAu2
_chemical_formula_sum   'Mg2 Au4'
_cell_volume   109.18697236
_cell_formula_units_Z   2
loop_
 _symmetry_equiv_pos_site_id
 _symmetry_equiv_pos_as_xyz
  1  'x, y, z'
loop_
 _atom_site_type_symbol
 _atom_site_label
 _atom_site_symmetry_multiplicity
 _atom_site_fract_x
 _atom_site_fract_y
 _atom_site_fract_z
 _atom_site_occupancy
  Mg  Mg0  1  0.79175100  0.79175100  0.75000000  1
  Mg  Mg1  1  0.20824900  0.20824900  0.25000000  1
  Au  Au2  1  0.54120100  0.86379000  0.25000000  1
  Au  Au3  1  0.13621000  0.45879900  0.75000000  1
  Au  Au4  1  0.45879900  0.13621000  0.75000000  1
  Au  Au5  1  0.86379000  0.54120100  0.25000000  1
