# generated using pymatgen
data_Mg2Ni
_symmetry_space_group_name_H-M   'P 1'
_cell_length_a   5.13325383
_cell_length_b   5.13325383
_cell_length_c   5.13325383
_cell_angle_alpha   105.41462781
_cell_angle_beta   105.41462781
_cell_angle_gamma   117.93019584
_symmetry_Int_Tables_number   1
_chemical_formula_structural   Mg2Ni
_chemical_formula_sum   'Mg4 Ni2'
_cell_volume   102.40014908
_cell_formula_units_Z   2
loop_
 _symmetry_equiv_pos_site_id
 _symmetry_equiv_pos_as_xyz
  1  'x, y, z'
loop_
 _atom_site_type_symbol
 _atom_site_label
 _atom_site_symmetry_multiplicity
 _atom_site_fract_x
 _atom_site_fract_y
 _atom_site_fract_z
 _atom_site_occupancy
  Mg  Mg0  1  0.67653300  0.82346700  0.50000000  1
  Mg  Mg1  1  0.32346700  0.17653300  0.50000000  1
  Mg  Mg2  1  0.17653300  0.67653300  0.85306500  1
  Mg  Mg3  1  0.82346700  0.32346700  0.14693500  1
  Ni  Ni4  1  0.25000000  0.25000000  0.00000000  1
  Ni  Ni5  1  0.75000000  0.75000000  0.00000000  1
