# generated using pymatgen
data_Mg5Sc
_symmetry_space_group_name_H-M   'P 1'
_cell_length_a   6.20000006
_cell_length_b   6.20000006
_cell_length_c   6.20000034
_cell_angle_alpha   52.68285892
_cell_angle_beta   52.68285892
_cell_angle_gamma   52.68286454
_symmetry_Int_Tables_number   1
_chemical_formula_structural   Mg5Sc
_chemical_formula_sum   'Mg5 Sc1'
_cell_volume   139.59143412
_cell_formula_units_Z   1
loop_
 _symmetry_equiv_pos_site_id
 _symmetry_equiv_pos_as_xyz
  1  'x, y, z'
loop_
 _atom_site_type_symbol
 _atom_site_label
 _atom_site_symmetry_multiplicity
 _atom_site_fract_x
 _atom_site_fract_y
 _atom_site_fract_z
 _atom_site_occupancy
  Mg  Mg0  1  0.33793900  0.00000000  0.66206100  1
  Mg  Mg1  1  0.66206100  0.33793900  0.00000000  1
  Mg  Mg2  1  0.00000000  0.66206100  0.33793900  1
  Mg  Mg3  1  0.16476200  0.16476200  0.16476200  1
  Mg  Mg4  1  0.83523800  0.83523800  0.83523800  1
  Sc  Sc5  1  0.50000000  0.50000000  0.50000000  1
