# generated using pymatgen
data_MgCo3
_symmetry_space_group_name_H-M   'P 1'
_cell_length_a   5.21472224
_cell_length_b   5.21472224
_cell_length_c   4.19778600
_cell_angle_alpha   90.00000000
_cell_angle_beta   90.00000000
_cell_angle_gamma   120.00000301
_symmetry_Int_Tables_number   1
_chemical_formula_structural   MgCo3
_chemical_formula_sum   'Mg2 Co6'
_cell_volume   98.85833112
_cell_formula_units_Z   2
loop_
 _symmetry_equiv_pos_site_id
 _symmetry_equiv_pos_as_xyz
  1  'x, y, z'
loop_
 _atom_site_type_symbol
 _atom_site_label
 _atom_site_symmetry_multiplicity
 _atom_site_fract_x
 _atom_site_fract_y
 _atom_site_fract_z
 _atom_site_occupancy
  Mg  Mg0  1  0.66666700  0.33333300  0.25000000  1
  Mg  Mg1  1  0.33333300  0.66666700  0.75000000  1
  Co  Co2  1  0.15938200  0.31876400  0.25000000  1
  Co  Co3  1  0.68123600  0.84061800  0.25000000  1
  Co  Co4  1  0.15938200  0.84061800  0.25000000  1
  Co  Co5  1  0.84061800  0.15938200  0.75000000  1
  Co  Co6  1  0.31876400  0.15938200  0.75000000  1
  Co  Co7  1  0.84061800  0.68123600  0.75000000  1
