# generated using pymatgen
data_Na3Fe
_symmetry_space_group_name_H-M   'P 1'
_cell_length_a   6.93283145
_cell_length_b   6.93283145
_cell_length_c   5.39595200
_cell_angle_alpha   90.00000000
_cell_angle_beta   90.00000000
_cell_angle_gamma   119.99999478
_symmetry_Int_Tables_number   1
_chemical_formula_structural   Na3Fe
_chemical_formula_sum   'Na6 Fe2'
_cell_volume   224.60530836
_cell_formula_units_Z   2
loop_
 _symmetry_equiv_pos_site_id
 _symmetry_equiv_pos_as_xyz
  1  'x, y, z'
loop_
 _atom_site_type_symbol
 _atom_site_label
 _atom_site_symmetry_multiplicity
 _atom_site_fract_x
 _atom_site_fract_y
 _atom_site_fract_z
 _atom_site_occupancy
  Na  Na0  1  0.17469100  0.34938300  0.25000000  1
  Na  Na1  1  0.65061700  0.82530900  0.25000000  1
  Na  Na2  1  0.17469100  0.82530900  0.25000000  1
  Na  Na3  1  0.82530900  0.65061700  0.75000000  1
  Na  Na4  1  0.34938300  0.17469100  0.75000000  1
  Na  Na5  1  0.82530900  0.17469100  0.75000000  1
  Fe  Fe6  1  0.33333300  0.66666700  0.75000000  1
  Fe  Fe7  1  0.66666700  0.33333300  0.25000000  1
