data_image0
_chemical_formula_structural       La2Se2Te4
_chemical_formula_sum              "La2 Se2 Te4"
_cell_length_a       4.3342
_cell_length_b       4.33623
_cell_length_c       13.3896
_cell_angle_alpha    90
_cell_angle_beta     80.6857
_cell_angle_gamma    90

_space_group_name_H-M_alt    "P 1"
_space_group_IT_number       1

loop_
  _space_group_symop_operation_xyz
  'x, y, z'

loop_
  _atom_site_type_symbol
  _atom_site_label
  _atom_site_symmetry_multiplicity
  _atom_site_fract_x
  _atom_site_fract_y
  _atom_site_fract_z
  _atom_site_occupancy
  La  La1       1.0  0.82000  0.25000  0.36000  1.0000
  La  La2       1.0  0.18000  0.75000  0.64000  1.0000
  Se  Se1       1.0  0.29600  0.75000  0.40900  1.0000
  Se  Se2       1.0  0.70400  0.25000  0.59100  1.0000
  Te  Te1       1.0  0.42200  0.25000  0.15500  1.0000
  Te  Te2       1.0  0.92200  0.75000  0.15500  1.0000
  Te  Te3       1.0  0.07770  0.25000  0.84500  1.0000
  Te  Te4       1.0  0.57800  0.75000  0.84500  1.0000
