# generated using pymatgen
data_KP(HO2)2
_symmetry_space_group_name_H-M   'P 1'
_cell_length_a   7.59053607
_cell_length_b   7.59053607
_cell_length_c   4.59755400
_cell_angle_alpha   90.00000000
_cell_angle_beta   90.00000000
_cell_angle_gamma   132.44055538
_symmetry_Int_Tables_number   1
_chemical_formula_structural   KP(HO2)2
_chemical_formula_sum   'K2 P2 H4 O8'
_cell_volume   195.48573538
_cell_formula_units_Z   2
loop_
 _symmetry_equiv_pos_site_id
 _symmetry_equiv_pos_as_xyz
  1  'x, y, z'
loop_
 _atom_site_type_symbol
 _atom_site_label
 _atom_site_symmetry_multiplicity
 _atom_site_fract_x
 _atom_site_fract_y
 _atom_site_fract_z
 _atom_site_occupancy
  K  K0  1  0.87652900  0.12347100  0.25000000  1
  K  K1  1  0.12347100  0.87652900  0.75000000  1
  P  P2  1  0.62984900  0.37015100  0.25000000  1
  P  P3  1  0.37015100  0.62984900  0.75000000  1
  H  H4  1  0.32109700  0.32109700  0.00000000  1
  H  H5  1  0.67890300  0.67890300  0.50000000  1
  H  H6  1  0.69197900  0.30802100  0.75000000  1
  H  H7  1  0.30802100  0.69197900  0.25000000  1
  O  O8  1  0.36539600  0.23399800  0.17002200  1
  O  O9  1  0.23399800  0.36539600  0.82997800  1
  O  O10  1  0.63460400  0.76600200  0.67002200  1
  O  O11  1  0.76600200  0.63460400  0.32997800  1
  O  O12  1  0.62411900  0.23333400  0.50649200  1
  O  O13  1  0.23333400  0.62411900  0.49350800  1
  O  O14  1  0.37588100  0.76666600  0.00649200  1
  O  O15  1  0.76666600  0.37588100  0.99350800  1
