# generated using pymatgen
data_NaPt
_symmetry_space_group_name_H-M   'P 1'
_cell_length_a   2.85097300
_cell_length_b   2.85096524
_cell_length_c   4.88983200
_cell_angle_alpha   89.99820995
_cell_angle_beta   90.00182335
_cell_angle_gamma   119.99850568
_symmetry_Int_Tables_number   1
_chemical_formula_structural   NaPt
_chemical_formula_sum   'Na1 Pt1'
_cell_volume   34.42041765
_cell_formula_units_Z   1
loop_
 _symmetry_equiv_pos_site_id
 _symmetry_equiv_pos_as_xyz
  1  'x, y, z'
loop_
 _atom_site_type_symbol
 _atom_site_label
 _atom_site_symmetry_multiplicity
 _atom_site_fract_x
 _atom_site_fract_y
 _atom_site_fract_z
 _atom_site_occupancy
  Na  Na0  1  0.66666800  0.33333300  0.75000200  1
  Pt  Pt1  1  0.33333300  0.66666400  0.25000100  1
