# generated using pymatgen
data_Nd3Sm
_symmetry_space_group_name_H-M   'P 1'
_cell_length_a   7.35150381
_cell_length_b   7.35150381
_cell_length_c   6.05247000
_cell_angle_alpha   90.00000000
_cell_angle_beta   90.00000000
_cell_angle_gamma   119.99999829
_symmetry_Int_Tables_number   1
_chemical_formula_structural   Nd3Sm
_chemical_formula_sum   'Nd6 Sm2'
_cell_volume   283.27983312
_cell_formula_units_Z   2
loop_
 _symmetry_equiv_pos_site_id
 _symmetry_equiv_pos_as_xyz
  1  'x, y, z'
loop_
 _atom_site_type_symbol
 _atom_site_label
 _atom_site_symmetry_multiplicity
 _atom_site_fract_x
 _atom_site_fract_y
 _atom_site_fract_z
 _atom_site_occupancy
  Nd  Nd0  1  0.16678000  0.33355900  0.25000000  1
  Nd  Nd1  1  0.66644100  0.83322000  0.25000000  1
  Nd  Nd2  1  0.16678000  0.83322000  0.25000000  1
  Nd  Nd3  1  0.83322000  0.66644100  0.75000000  1
  Nd  Nd4  1  0.33355900  0.16678000  0.75000000  1
  Nd  Nd5  1  0.83322000  0.16678000  0.75000000  1
  Sm  Sm6  1  0.33333300  0.66666700  0.75000000  1
  Sm  Sm7  1  0.66666700  0.33333300  0.25000000  1
