# generated using pymatgen
data_NbSn3
_symmetry_space_group_name_H-M   'P 1'
_cell_length_a   6.26515578
_cell_length_b   6.26515578
_cell_length_c   5.48616000
_cell_angle_alpha   90.00000000
_cell_angle_beta   90.00000000
_cell_angle_gamma   119.99999767
_symmetry_Int_Tables_number   1
_chemical_formula_structural   NbSn3
_chemical_formula_sum   'Nb2 Sn6'
_cell_volume   186.49313908
_cell_formula_units_Z   2
loop_
 _symmetry_equiv_pos_site_id
 _symmetry_equiv_pos_as_xyz
  1  'x, y, z'
loop_
 _atom_site_type_symbol
 _atom_site_label
 _atom_site_symmetry_multiplicity
 _atom_site_fract_x
 _atom_site_fract_y
 _atom_site_fract_z
 _atom_site_occupancy
  Nb  Nb0  1  0.66666700  0.33333300  0.25000000  1
  Nb  Nb1  1  0.33333300  0.66666700  0.75000000  1
  Sn  Sn2  1  0.82687400  0.17312600  0.75000000  1
  Sn  Sn3  1  0.34625200  0.17312600  0.75000000  1
  Sn  Sn4  1  0.82687400  0.65374800  0.75000000  1
  Sn  Sn5  1  0.17312600  0.82687400  0.25000000  1
  Sn  Sn6  1  0.65374800  0.82687400  0.25000000  1
  Sn  Sn7  1  0.17312600  0.34625200  0.25000000  1
