# generated using pymatgen
data_NbF5
_symmetry_space_group_name_H-M   'P 1'
_cell_length_a   8.74722698
_cell_length_b   8.74722698
_cell_length_c   4.89043072
_cell_angle_alpha   88.98432418
_cell_angle_beta   88.98432418
_cell_angle_gamma   112.11065991
_symmetry_Int_Tables_number   1
_chemical_formula_structural   NbF5
_chemical_formula_sum   'Nb4 F20'
_cell_volume   346.49342164
_cell_formula_units_Z   4
loop_
 _symmetry_equiv_pos_site_id
 _symmetry_equiv_pos_as_xyz
  1  'x, y, z'
loop_
 _atom_site_type_symbol
 _atom_site_label
 _atom_site_symmetry_multiplicity
 _atom_site_fract_x
 _atom_site_fract_y
 _atom_site_fract_z
 _atom_site_occupancy
  Nb  Nb0  1  0.74364200  0.74364200  0.12758000  1
  Nb  Nb1  1  0.25635800  0.25635800  0.87242000  1
  Nb  Nb2  1  0.80378100  0.19621900  0.50000000  1
  Nb  Nb3  1  0.19621900  0.80378100  0.50000000  1
  F  F4  1  0.89309400  0.89309400  0.87761500  1
  F  F5  1  0.10690600  0.10690600  0.12238500  1
  F  F6  1  0.65096600  0.65096600  0.79223500  1
  F  F7  1  0.34903400  0.34903400  0.20776500  1
  F  F8  1  0.52947200  0.72359800  0.23021200  1
  F  F9  1  0.27640200  0.47052800  0.76978800  1
  F  F10  1  0.47052800  0.27640200  0.76978800  1
  F  F11  1  0.72359800  0.52947200  0.23021200  1
  F  F12  1  0.78360000  0.96361700  0.35009400  1
  F  F13  1  0.03638300  0.21640000  0.64990600  1
  F  F14  1  0.21640000  0.03638300  0.64990600  1
  F  F15  1  0.96361700  0.78360000  0.35009400  1
  F  F16  1  0.70404800  0.06925600  0.82095900  1
  F  F17  1  0.93074400  0.29595100  0.17904100  1
  F  F18  1  0.29595100  0.93074400  0.17904100  1
  F  F19  1  0.06925600  0.70404900  0.82095900  1
  F  F20  1  0.60445500  0.16819100  0.33745500  1
  F  F21  1  0.83180900  0.39554500  0.66254500  1
  F  F22  1  0.39554500  0.83180900  0.66254500  1
  F  F23  1  0.16819100  0.60445500  0.33745500  1
