# generated using pymatgen
data_Np2O3
_symmetry_space_group_name_H-M   'P 1'
_cell_length_a   6.09927106
_cell_length_b   6.09927106
_cell_length_c   6.09927102
_cell_angle_alpha   58.79634587
_cell_angle_beta   58.79634587
_cell_angle_gamma   58.79633277
_symmetry_Int_Tables_number   1
_chemical_formula_structural   Np2O3
_chemical_formula_sum   'Np4 O6'
_cell_volume   156.03196678
_cell_formula_units_Z   2
loop_
 _symmetry_equiv_pos_site_id
 _symmetry_equiv_pos_as_xyz
  1  'x, y, z'
loop_
 _atom_site_type_symbol
 _atom_site_label
 _atom_site_symmetry_multiplicity
 _atom_site_fract_x
 _atom_site_fract_y
 _atom_site_fract_z
 _atom_site_occupancy
  Np  Np0  1  0.36253500  0.36253500  0.36253500  1
  Np  Np1  1  0.13746500  0.13746500  0.13746500  1
  Np  Np2  1  0.86253500  0.86253500  0.86253500  1
  Np  Np3  1  0.63746500  0.63746500  0.63746500  1
  O  O4  1  0.75000000  0.03169200  0.46830800  1
  O  O5  1  0.46830800  0.75000000  0.03169200  1
  O  O6  1  0.03169200  0.46830800  0.75000000  1
  O  O7  1  0.96830800  0.53169200  0.25000000  1
  O  O8  1  0.53169200  0.25000000  0.96830800  1
  O  O9  1  0.25000000  0.96830800  0.53169200  1
