# generated using pymatgen
data_DyAl3
_symmetry_space_group_name_H-M   'P 1'
_cell_length_a   12.45419174
_cell_length_b   12.45419174
_cell_length_c   12.45419135
_cell_angle_alpha   28.40334748
_cell_angle_beta   28.40334748
_cell_angle_gamma   28.40334826
_symmetry_Int_Tables_number   1
_chemical_formula_structural   DyAl3
_chemical_formula_sum   'Dy5 Al15'
_cell_volume   386.27180806
_cell_formula_units_Z   5
loop_
 _symmetry_equiv_pos_site_id
 _symmetry_equiv_pos_as_xyz
  1  'x, y, z'
loop_
 _atom_site_type_symbol
 _atom_site_label
 _atom_site_symmetry_multiplicity
 _atom_site_fract_x
 _atom_site_fract_y
 _atom_site_fract_z
 _atom_site_occupancy
  Dy  Dy0  1  0.00000000  0.00000000  0.00000000  1
  Dy  Dy1  1  0.86920900  0.86920900  0.86920900  1
  Dy  Dy2  1  0.13079100  0.13079100  0.13079100  1
  Dy  Dy3  1  0.59991300  0.59991300  0.59991300  1
  Dy  Dy4  1  0.40008700  0.40008700  0.40008700  1
  Al  Al5  1  0.50000000  0.50000000  0.00000000  1
  Al  Al6  1  0.00000000  0.50000000  0.50000000  1
  Al  Al7  1  0.50000000  0.00000000  0.50000000  1
  Al  Al8  1  0.36405200  0.87062700  0.36405200  1
  Al  Al9  1  0.36405200  0.36405200  0.87062700  1
  Al  Al10  1  0.87062700  0.36405200  0.36405200  1
  Al  Al11  1  0.63594800  0.12937300  0.63594800  1
  Al  Al12  1  0.63594800  0.63594800  0.12937300  1
  Al  Al13  1  0.12937300  0.63594800  0.63594800  1
  Al  Al14  1  0.11858900  0.56388200  0.11858900  1
  Al  Al15  1  0.11858900  0.11858900  0.56388200  1
  Al  Al16  1  0.56388200  0.11858900  0.11858900  1
  Al  Al17  1  0.88141100  0.43611800  0.88141100  1
  Al  Al18  1  0.88141100  0.88141100  0.43611800  1
  Al  Al19  1  0.43611800  0.88141100  0.88141100  1
