# generated using pymatgen
data_PaGa3
_symmetry_space_group_name_H-M   'P 1'
_cell_length_a   6.27631095
_cell_length_b   6.27631095
_cell_length_c   4.55765200
_cell_angle_alpha   90.00000000
_cell_angle_beta   90.00000000
_cell_angle_gamma   120.00001002
_symmetry_Int_Tables_number   1
_chemical_formula_structural   PaGa3
_chemical_formula_sum   'Pa2 Ga6'
_cell_volume   155.48219147
_cell_formula_units_Z   2
loop_
 _symmetry_equiv_pos_site_id
 _symmetry_equiv_pos_as_xyz
  1  'x, y, z'
loop_
 _atom_site_type_symbol
 _atom_site_label
 _atom_site_symmetry_multiplicity
 _atom_site_fract_x
 _atom_site_fract_y
 _atom_site_fract_z
 _atom_site_occupancy
  Pa  Pa0  1  0.33333300  0.66666700  0.75000000  1
  Pa  Pa1  1  0.66666700  0.33333300  0.25000000  1
  Ga  Ga2  1  0.14962500  0.29925100  0.25000000  1
  Ga  Ga3  1  0.70074900  0.85037500  0.25000000  1
  Ga  Ga4  1  0.14962500  0.85037500  0.25000000  1
  Ga  Ga5  1  0.85037500  0.70074900  0.75000000  1
  Ga  Ga6  1  0.29925100  0.14962500  0.75000000  1
  Ga  Ga7  1  0.85037500  0.14962500  0.75000000  1
