# generated using pymatgen
data_ErAl3(BO3)4
_symmetry_space_group_name_H-M   'P 1'
_cell_length_a   5.91753734
_cell_length_b   5.91753734
_cell_length_c   5.91753691
_cell_angle_alpha   104.31389990
_cell_angle_beta   104.31389990
_cell_angle_gamma   104.31388914
_symmetry_Int_Tables_number   1
_chemical_formula_structural   ErAl3(BO3)4
_chemical_formula_sum   'Er1 Al3 B4 O12'
_cell_volume   183.75757140
_cell_formula_units_Z   1
loop_
 _symmetry_equiv_pos_site_id
 _symmetry_equiv_pos_as_xyz
  1  'x, y, z'
loop_
 _atom_site_type_symbol
 _atom_site_label
 _atom_site_symmetry_multiplicity
 _atom_site_fract_x
 _atom_site_fract_y
 _atom_site_fract_z
 _atom_site_occupancy
  Er  Er0  1  0.00000000  0.00000000  0.00000000  1
  Al  Al1  1  0.00000000  0.44437000  0.55563000  1
  Al  Al2  1  0.44437000  0.55563000  0.00000000  1
  Al  Al3  1  0.55563000  0.00000000  0.44437000  1
  B  B4  1  0.50000000  0.50000000  0.50000000  1
  B  B5  1  0.50000000  0.05666400  0.94333600  1
  B  B6  1  0.05666400  0.94333600  0.50000000  1
  B  B7  1  0.94333600  0.50000000  0.05666400  1
  O  O8  1  0.50000000  0.64880000  0.35120000  1
  O  O9  1  0.64880000  0.35120000  0.50000000  1
  O  O10  1  0.35120000  0.50000000  0.64880000  1
  O  O11  1  0.50000000  0.90812100  0.09187900  1
  O  O12  1  0.90812100  0.09187900  0.50000000  1
  O  O13  1  0.09187900  0.50000000  0.90812100  1
  O  O14  1  0.63023400  0.02886600  0.78064900  1
  O  O15  1  0.02886600  0.78064900  0.63023400  1
  O  O16  1  0.78064900  0.63023400  0.02886600  1
  O  O17  1  0.36976600  0.21935100  0.97113400  1
  O  O18  1  0.97113400  0.36976600  0.21935100  1
  O  O19  1  0.21935100  0.97113400  0.36976600  1
