# generated using pymatgen
data_Ba9Y2(SiO4)6
_symmetry_space_group_name_H-M   'P 1'
_cell_length_a   9.52298104
_cell_length_b   9.52298104
_cell_length_c   9.52298055
_cell_angle_alpha   64.58000880
_cell_angle_beta   64.58000880
_cell_angle_gamma   64.58000956
_symmetry_Int_Tables_number   1
_chemical_formula_structural   Ba9Y2(SiO4)6
_chemical_formula_sum   'Ba9 Y2 Si6 O24'
_cell_volume   671.96366169
_cell_formula_units_Z   1
loop_
 _symmetry_equiv_pos_site_id
 _symmetry_equiv_pos_as_xyz
  1  'x, y, z'
loop_
 _atom_site_type_symbol
 _atom_site_label
 _atom_site_symmetry_multiplicity
 _atom_site_fract_x
 _atom_site_fract_y
 _atom_site_fract_z
 _atom_site_occupancy
  Ba  Ba0  1  0.00000000  0.00000000  0.00000000  1
  Ba  Ba1  1  0.66215600  0.66215600  0.66215600  1
  Ba  Ba2  1  0.33784400  0.33784400  0.33784400  1
  Ba  Ba3  1  0.56199000  0.25177200  0.85993100  1
  Ba  Ba4  1  0.85993100  0.56199000  0.25177200  1
  Ba  Ba5  1  0.25177200  0.85993100  0.56199000  1
  Ba  Ba6  1  0.43801000  0.74822800  0.14006900  1
  Ba  Ba7  1  0.14006900  0.43801000  0.74822800  1
  Ba  Ba8  1  0.74822800  0.14006900  0.43801000  1
  Y  Y9  1  0.83594800  0.83594800  0.83594800  1
  Y  Y10  1  0.16405200  0.16405200  0.16405200  1
  Si  Si11  1  0.94739400  0.24409100  0.58728100  1
  Si  Si12  1  0.58728100  0.94739400  0.24409100  1
  Si  Si13  1  0.24409100  0.58728100  0.94739400  1
  Si  Si14  1  0.05260600  0.75590900  0.41271900  1
  Si  Si15  1  0.41271900  0.05260600  0.75590900  1
  Si  Si16  1  0.75590900  0.41271900  0.05260600  1
  O  O17  1  0.06171000  0.29126900  0.63530800  1
  O  O18  1  0.63530800  0.06171000  0.29126900  1
  O  O19  1  0.29126900  0.63530800  0.06171000  1
  O  O20  1  0.93829000  0.70873100  0.36469200  1
  O  O21  1  0.36469200  0.93829000  0.70873100  1
  O  O22  1  0.70873100  0.36469200  0.93829000  1
  O  O23  1  0.04754600  0.21351500  0.40392800  1
  O  O24  1  0.40392800  0.04754600  0.21351500  1
  O  O25  1  0.21351500  0.40392800  0.04754600  1
  O  O26  1  0.95245400  0.78648500  0.59607200  1
  O  O27  1  0.59607200  0.95245400  0.78648500  1
  O  O28  1  0.78648500  0.59607200  0.95245400  1
  O  O29  1  0.07040700  0.71900400  0.90738200  1
  O  O30  1  0.90738200  0.07040700  0.71900400  1
  O  O31  1  0.71900400  0.90738200  0.07040700  1
  O  O32  1  0.92959300  0.28099600  0.09261800  1
  O  O33  1  0.09261800  0.92959300  0.28099600  1
  O  O34  1  0.28099600  0.09261800  0.92959300  1
  O  O35  1  0.38053300  0.57060800  0.77075900  1
  O  O36  1  0.77075900  0.38053300  0.57060800  1
  O  O37  1  0.57060800  0.77075900  0.38053300  1
  O  O38  1  0.61946700  0.42939200  0.22924100  1
  O  O39  1  0.22924100  0.61946700  0.42939200  1
  O  O40  1  0.42939200  0.22924100  0.61946700  1
