# generated using pymatgen
data_PmSm3
_symmetry_space_group_name_H-M   'P 1'
_cell_length_a   7.31499655
_cell_length_b   7.31499655
_cell_length_c   5.96978800
_cell_angle_alpha   90.00000000
_cell_angle_beta   90.00000000
_cell_angle_gamma   120.00000498
_symmetry_Int_Tables_number   1
_chemical_formula_structural   PmSm3
_chemical_formula_sum   'Pm2 Sm6'
_cell_volume   276.64177972
_cell_formula_units_Z   2
loop_
 _symmetry_equiv_pos_site_id
 _symmetry_equiv_pos_as_xyz
  1  'x, y, z'
loop_
 _atom_site_type_symbol
 _atom_site_label
 _atom_site_symmetry_multiplicity
 _atom_site_fract_x
 _atom_site_fract_y
 _atom_site_fract_z
 _atom_site_occupancy
  Pm  Pm0  1  0.66666700  0.33333300  0.25000000  1
  Pm  Pm1  1  0.33333300  0.66666700  0.75000000  1
  Sm  Sm2  1  0.83382700  0.16617300  0.75000000  1
  Sm  Sm3  1  0.33234600  0.16617300  0.75000000  1
  Sm  Sm4  1  0.83382700  0.66765400  0.75000000  1
  Sm  Sm5  1  0.16617300  0.83382700  0.25000000  1
  Sm  Sm6  1  0.66765400  0.83382700  0.25000000  1
  Sm  Sm7  1  0.16617300  0.33234600  0.25000000  1
