# generated using pymatgen
data_Rb3Cr
_symmetry_space_group_name_H-M   'P 1'
_cell_length_a   8.89535886
_cell_length_b   8.89535886
_cell_length_c   6.97431600
_cell_angle_alpha   90.00000000
_cell_angle_beta   90.00000000
_cell_angle_gamma   120.00000642
_symmetry_Int_Tables_number   1
_chemical_formula_structural   Rb3Cr
_chemical_formula_sum   'Rb6 Cr2'
_cell_volume   477.92436452
_cell_formula_units_Z   2
loop_
 _symmetry_equiv_pos_site_id
 _symmetry_equiv_pos_as_xyz
  1  'x, y, z'
loop_
 _atom_site_type_symbol
 _atom_site_label
 _atom_site_symmetry_multiplicity
 _atom_site_fract_x
 _atom_site_fract_y
 _atom_site_fract_z
 _atom_site_occupancy
  Rb  Rb0  1  0.17686900  0.35373700  0.25000000  1
  Rb  Rb1  1  0.64626300  0.82313100  0.25000000  1
  Rb  Rb2  1  0.17686900  0.82313100  0.25000000  1
  Rb  Rb3  1  0.82313100  0.64626300  0.75000000  1
  Rb  Rb4  1  0.35373700  0.17686900  0.75000000  1
  Rb  Rb5  1  0.82313100  0.17686900  0.75000000  1
  Cr  Cr6  1  0.33333300  0.66666700  0.75000000  1
  Cr  Cr7  1  0.66666700  0.33333300  0.25000000  1
