# generated using pymatgen
data_KOsBr4NO2
_symmetry_space_group_name_H-M   'P 1'
_cell_length_a   9.18374676
_cell_length_b   9.18374676
_cell_length_c   7.57098900
_cell_angle_alpha   90.00000000
_cell_angle_beta   90.00000000
_cell_angle_gamma   118.62372276
_symmetry_Int_Tables_number   1
_chemical_formula_structural   KOsBr4NO2
_chemical_formula_sum   'K2 Os2 Br8 N2 O4'
_cell_volume   560.50620218
_cell_formula_units_Z   2
loop_
 _symmetry_equiv_pos_site_id
 _symmetry_equiv_pos_as_xyz
  1  'x, y, z'
loop_
 _atom_site_type_symbol
 _atom_site_label
 _atom_site_symmetry_multiplicity
 _atom_site_fract_x
 _atom_site_fract_y
 _atom_site_fract_z
 _atom_site_occupancy
  K  K0  1  0.68092200  0.31907800  0.02194200  1
  K  K1  1  0.31907800  0.68092200  0.52194200  1
  Os  Os2  1  0.16923200  0.83076800  0.02036400  1
  Os  Os3  1  0.83076800  0.16923200  0.52036400  1
  Br  Br4  1  0.25133400  0.13602600  0.05499000  1
  Br  Br5  1  0.86397400  0.74866600  0.05499000  1
  Br  Br6  1  0.74866600  0.86397400  0.55499000  1
  Br  Br7  1  0.13602600  0.25133400  0.55499000  1
  Br  Br8  1  0.53492200  0.09549900  0.43667800  1
  Br  Br9  1  0.90450100  0.46507800  0.43667800  1
  Br  Br10  1  0.46507800  0.90450100  0.93667800  1
  Br  Br11  1  0.09549900  0.53492200  0.93667800  1
  N  N12  1  0.86356300  0.13643700  0.27821000  1
  N  N13  1  0.13643700  0.86356300  0.77821000  1
  O  O14  1  0.11622400  0.88377600  0.62974600  1
  O  O15  1  0.88377600  0.11622400  0.12974600  1
  O  O16  1  0.19873300  0.80126700  0.24340300  1
  O  O17  1  0.80126700  0.19873300  0.74340300  1
