# generated using pymatgen
data_PuMn3
_symmetry_space_group_name_H-M   'P 1'
_cell_length_a   5.22627119
_cell_length_b   5.23252749
_cell_length_c   4.24284800
_cell_angle_alpha   90.00000000
_cell_angle_beta   90.00000000
_cell_angle_gamma   120.06523922
_symmetry_Int_Tables_number   1
_chemical_formula_structural   PuMn3
_chemical_formula_sum   'Pu2 Mn6'
_cell_volume   100.41664033
_cell_formula_units_Z   2
loop_
 _symmetry_equiv_pos_site_id
 _symmetry_equiv_pos_as_xyz
  1  'x, y, z'
loop_
 _atom_site_type_symbol
 _atom_site_label
 _atom_site_symmetry_multiplicity
 _atom_site_fract_x
 _atom_site_fract_y
 _atom_site_fract_z
 _atom_site_occupancy
  Pu  Pu0  1  0.33380800  0.66641900  0.75000100  1
  Pu  Pu1  1  0.66767400  0.33345800  0.25000000  1
  Mn  Mn2  1  0.16452400  0.32966400  0.25000000  1
  Mn  Mn3  1  0.67032300  0.83533000  0.25000000  1
  Mn  Mn4  1  0.16449300  0.83506500  0.25000000  1
  Mn  Mn5  1  0.83513400  0.67065900  0.75000100  1
  Mn  Mn6  1  0.32903300  0.16463800  0.75000100  1
  Mn  Mn7  1  0.83501000  0.16476500  0.75000100  1
