# generated using pymatgen
data_Th3Ta
_symmetry_space_group_name_H-M   'P 1'
_cell_length_a   6.75614458
_cell_length_b   6.75614458
_cell_length_c   5.77239300
_cell_angle_alpha   90.00000000
_cell_angle_beta   90.00000000
_cell_angle_gamma   120.00000563
_symmetry_Int_Tables_number   1
_chemical_formula_structural   Th3Ta
_chemical_formula_sum   'Th6 Ta2'
_cell_volume   228.18356837
_cell_formula_units_Z   2
loop_
 _symmetry_equiv_pos_site_id
 _symmetry_equiv_pos_as_xyz
  1  'x, y, z'
loop_
 _atom_site_type_symbol
 _atom_site_label
 _atom_site_symmetry_multiplicity
 _atom_site_fract_x
 _atom_site_fract_y
 _atom_site_fract_z
 _atom_site_occupancy
  Th  Th0  1  0.17636700  0.35273400  0.25000000  1
  Th  Th1  1  0.64726600  0.82363300  0.25000000  1
  Th  Th2  1  0.17636700  0.82363300  0.25000000  1
  Th  Th3  1  0.82363300  0.64726600  0.75000000  1
  Th  Th4  1  0.35273400  0.17636700  0.75000000  1
  Th  Th5  1  0.82363300  0.17636700  0.75000000  1
  Ta  Ta6  1  0.33333300  0.66666700  0.75000000  1
  Ta  Ta7  1  0.66666700  0.33333300  0.25000000  1
