# generated using pymatgen
data_Sn3As
_symmetry_space_group_name_H-M   'P 1'
_cell_length_a   6.51119228
_cell_length_b   6.51119228
_cell_length_c   5.62000800
_cell_angle_alpha   90.00000000
_cell_angle_beta   90.00000000
_cell_angle_gamma   120.00000281
_symmetry_Int_Tables_number   1
_chemical_formula_structural   Sn3As
_chemical_formula_sum   'Sn6 As2'
_cell_volume   206.34245522
_cell_formula_units_Z   2
loop_
 _symmetry_equiv_pos_site_id
 _symmetry_equiv_pos_as_xyz
  1  'x, y, z'
loop_
 _atom_site_type_symbol
 _atom_site_label
 _atom_site_symmetry_multiplicity
 _atom_site_fract_x
 _atom_site_fract_y
 _atom_site_fract_z
 _atom_site_occupancy
  Sn  Sn0  1  0.16836400  0.33672700  0.25000000  1
  Sn  Sn1  1  0.66327300  0.83163600  0.25000000  1
  Sn  Sn2  1  0.16836400  0.83163600  0.25000000  1
  Sn  Sn3  1  0.83163600  0.66327300  0.75000000  1
  Sn  Sn4  1  0.33672700  0.16836400  0.75000000  1
  Sn  Sn5  1  0.83163600  0.16836400  0.75000000  1
  As  As6  1  0.33333300  0.66666700  0.75000000  1
  As  As7  1  0.66666700  0.33333300  0.25000000  1
