# generated using pymatgen
data_Sn3Ru
_symmetry_space_group_name_H-M   'P 1'
_cell_length_a   6.98437956
_cell_length_b   6.98437956
_cell_length_c   4.44243500
_cell_angle_alpha   90.00000000
_cell_angle_beta   90.00000000
_cell_angle_gamma   119.99999582
_symmetry_Int_Tables_number   1
_chemical_formula_structural   Sn3Ru
_chemical_formula_sum   'Sn6 Ru2'
_cell_volume   187.67542037
_cell_formula_units_Z   2
loop_
 _symmetry_equiv_pos_site_id
 _symmetry_equiv_pos_as_xyz
  1  'x, y, z'
loop_
 _atom_site_type_symbol
 _atom_site_label
 _atom_site_symmetry_multiplicity
 _atom_site_fract_x
 _atom_site_fract_y
 _atom_site_fract_z
 _atom_site_occupancy
  Sn  Sn0  1  0.18384400  0.36768800  0.25000000  1
  Sn  Sn1  1  0.63231200  0.81615600  0.25000000  1
  Sn  Sn2  1  0.18384400  0.81615600  0.25000000  1
  Sn  Sn3  1  0.81615600  0.63231200  0.75000000  1
  Sn  Sn4  1  0.36768800  0.18384400  0.75000000  1
  Sn  Sn5  1  0.81615600  0.18384400  0.75000000  1
  Ru  Ru6  1  0.33333300  0.66666700  0.75000000  1
  Ru  Ru7  1  0.66666700  0.33333300  0.25000000  1
