# generated using pymatgen
data_Tb3Mg
_symmetry_space_group_name_H-M   'P 1'
_cell_length_a   7.04881984
_cell_length_b   7.04881984
_cell_length_c   5.55766300
_cell_angle_alpha   90.00000000
_cell_angle_beta   90.00000000
_cell_angle_gamma   119.99999848
_symmetry_Int_Tables_number   1
_chemical_formula_structural   Tb3Mg
_chemical_formula_sum   'Tb6 Mg2'
_cell_volume   239.14189608
_cell_formula_units_Z   2
loop_
 _symmetry_equiv_pos_site_id
 _symmetry_equiv_pos_as_xyz
  1  'x, y, z'
loop_
 _atom_site_type_symbol
 _atom_site_label
 _atom_site_symmetry_multiplicity
 _atom_site_fract_x
 _atom_site_fract_y
 _atom_site_fract_z
 _atom_site_occupancy
  Tb  Tb0  1  0.17081700  0.34163400  0.25000000  1
  Tb  Tb1  1  0.65836600  0.82918300  0.25000000  1
  Tb  Tb2  1  0.17081700  0.82918300  0.25000000  1
  Tb  Tb3  1  0.82918300  0.17081700  0.75000000  1
  Tb  Tb4  1  0.34163400  0.17081700  0.75000000  1
  Tb  Tb5  1  0.82918300  0.65836600  0.75000000  1
  Mg  Mg6  1  0.66666700  0.33333300  0.25000000  1
  Mg  Mg7  1  0.33333300  0.66666700  0.75000000  1
