# generated using pymatgen
data_Te3Se
_symmetry_space_group_name_H-M   'P 1'
_cell_length_a   7.86008587
_cell_length_b   7.86008587
_cell_length_c   4.30216400
_cell_angle_alpha   90.00000000
_cell_angle_beta   90.00000000
_cell_angle_gamma   119.99999889
_symmetry_Int_Tables_number   1
_chemical_formula_structural   Te3Se
_chemical_formula_sum   'Te6 Se2'
_cell_volume   230.18243475
_cell_formula_units_Z   2
loop_
 _symmetry_equiv_pos_site_id
 _symmetry_equiv_pos_as_xyz
  1  'x, y, z'
loop_
 _atom_site_type_symbol
 _atom_site_label
 _atom_site_symmetry_multiplicity
 _atom_site_fract_x
 _atom_site_fract_y
 _atom_site_fract_z
 _atom_site_occupancy
  Te  Te0  1  0.17126100  0.34252100  0.25000000  1
  Te  Te1  1  0.65747900  0.82873900  0.25000000  1
  Te  Te2  1  0.17126100  0.82873900  0.25000000  1
  Te  Te3  1  0.82873900  0.65747900  0.75000000  1
  Te  Te4  1  0.34252100  0.17126100  0.75000000  1
  Te  Te5  1  0.82873900  0.17126100  0.75000000  1
  Se  Se6  1  0.33333300  0.66666700  0.75000000  1
  Se  Se7  1  0.66666700  0.33333300  0.25000000  1
