# generated using pymatgen
data_Ti3N2
_symmetry_space_group_name_H-M   'P 1'
_cell_length_a   5.67939287
_cell_length_b   5.67939287
_cell_length_c   5.67939291
_cell_angle_alpha   54.46489896
_cell_angle_beta   54.46489896
_cell_angle_gamma   54.46489614
_symmetry_Int_Tables_number   1
_chemical_formula_structural   Ti3N2
_chemical_formula_sum   'Ti6 N4'
_cell_volume   112.81817823
_cell_formula_units_Z   2
loop_
 _symmetry_equiv_pos_site_id
 _symmetry_equiv_pos_as_xyz
  1  'x, y, z'
loop_
 _atom_site_type_symbol
 _atom_site_label
 _atom_site_symmetry_multiplicity
 _atom_site_fract_x
 _atom_site_fract_y
 _atom_site_fract_z
 _atom_site_occupancy
  Ti  Ti0  1  0.57305000  0.92695000  0.25000000  1
  Ti  Ti1  1  0.25000000  0.57305000  0.92695000  1
  Ti  Ti2  1  0.92695000  0.25000000  0.57305000  1
  Ti  Ti3  1  0.07305000  0.75000000  0.42695000  1
  Ti  Ti4  1  0.75000000  0.42695000  0.07305000  1
  Ti  Ti5  1  0.42695000  0.07305000  0.75000000  1
  N  N6  1  0.84059500  0.84059500  0.84059500  1
  N  N7  1  0.65940500  0.65940500  0.65940500  1
  N  N8  1  0.34059500  0.34059500  0.34059500  1
  N  N9  1  0.15940500  0.15940500  0.15940500  1
