# generated using pymatgen
data_Tl3H
_symmetry_space_group_name_H-M   'P 1'
_cell_length_a   7.21881900
_cell_length_b   7.21881906
_cell_length_c   4.63691000
_cell_angle_alpha   90.00000000
_cell_angle_beta   90.00000000
_cell_angle_gamma   119.99999513
_symmetry_Int_Tables_number   1
_chemical_formula_structural   Tl3H
_chemical_formula_sum   'Tl6 H2'
_cell_volume   209.26260569
_cell_formula_units_Z   2
loop_
 _symmetry_equiv_pos_site_id
 _symmetry_equiv_pos_as_xyz
  1  'x, y, z'
loop_
 _atom_site_type_symbol
 _atom_site_label
 _atom_site_symmetry_multiplicity
 _atom_site_fract_x
 _atom_site_fract_y
 _atom_site_fract_z
 _atom_site_occupancy
  Tl  Tl0  1  0.18371900  0.36743700  0.25000000  1
  Tl  Tl1  1  0.63256200  0.81628000  0.25000000  1
  Tl  Tl2  1  0.18371900  0.81628000  0.25000000  1
  Tl  Tl3  1  0.81628100  0.63256200  0.75000000  1
  Tl  Tl4  1  0.36743700  0.18371900  0.75000000  1
  Tl  Tl5  1  0.81628000  0.18371900  0.75000000  1
  H  H6  1  0.33333400  0.66666700  0.75000000  1
  H  H7  1  0.66666700  0.33333200  0.25000000  1
