# generated using pymatgen
data_UTc3
_symmetry_space_group_name_H-M   'P 1'
_cell_length_a   6.00123600
_cell_length_b   6.00123751
_cell_length_c   4.25286400
_cell_angle_alpha   90.00000000
_cell_angle_beta   90.00000000
_cell_angle_gamma   120.00000268
_symmetry_Int_Tables_number   1
_chemical_formula_structural   UTc3
_chemical_formula_sum   'U2 Tc6'
_cell_volume   132.64584051
_cell_formula_units_Z   2
loop_
 _symmetry_equiv_pos_site_id
 _symmetry_equiv_pos_as_xyz
  1  'x, y, z'
loop_
 _atom_site_type_symbol
 _atom_site_label
 _atom_site_symmetry_multiplicity
 _atom_site_fract_x
 _atom_site_fract_y
 _atom_site_fract_z
 _atom_site_occupancy
  U  U0  1  0.33333300  0.66666600  0.75000000  1
  U  U1  1  0.66666500  0.33333100  0.25000100  1
  Tc  Tc2  1  0.17143000  0.34286100  0.25000100  1
  Tc  Tc3  1  0.65714000  0.82856900  0.25000100  1
  Tc  Tc4  1  0.17142900  0.82856900  0.25000100  1
  Tc  Tc5  1  0.82856900  0.65713900  0.75000000  1
  Tc  Tc6  1  0.34286100  0.17143000  0.75000000  1
  Tc  Tc7  1  0.82857000  0.17143000  0.75000000  1
