# generated using pymatgen
data_Tl2ZnP4(HO2)8
_symmetry_space_group_name_H-M   'P 1'
_cell_length_a   7.06412900
_cell_length_b   7.39055549
_cell_length_c   7.79210668
_cell_angle_alpha   97.86775736
_cell_angle_beta   108.96553088
_cell_angle_gamma   88.77341139
_symmetry_Int_Tables_number   1
_chemical_formula_structural   Tl2ZnP4(HO2)8
_chemical_formula_sum   'Tl2 Zn1 P4 H8 O16'
_cell_volume   380.98786494
_cell_formula_units_Z   1
loop_
 _symmetry_equiv_pos_site_id
 _symmetry_equiv_pos_as_xyz
  1  'x, y, z'
loop_
 _atom_site_type_symbol
 _atom_site_label
 _atom_site_symmetry_multiplicity
 _atom_site_fract_x
 _atom_site_fract_y
 _atom_site_fract_z
 _atom_site_occupancy
  Tl  Tl0  1  0.91516800  0.29055300  0.79842000  1
  Tl  Tl1  1  0.08483200  0.70944700  0.20158000  1
  Zn  Zn2  1  0.50000000  0.50000000  0.00000000  1
  P  P3  1  0.63846100  0.73982000  0.72414900  1
  P  P4  1  0.36153900  0.26018000  0.27585100  1
  P  P5  1  0.22806900  0.78851700  0.73929400  1
  P  P6  1  0.77193100  0.21148300  0.26070600  1
  H  H7  1  0.73832700  0.97164200  0.95241400  1
  H  H8  1  0.26167300  0.02835800  0.04758600  1
  H  H9  1  0.40069600  0.28813300  0.66961700  1
  H  H10  1  0.59930400  0.71186700  0.33038300  1
  H  H11  1  0.90396300  0.73659900  0.56753300  1
  H  H12  1  0.09603700  0.26340100  0.43246700  1
  H  H13  1  0.38459300  0.15781600  0.81313000  1
  H  H14  1  0.61540700  0.84218400  0.18687000  1
  O  O15  1  0.45495700  0.26772300  0.79988700  1
  O  O16  1  0.54504300  0.73227700  0.20011300  1
  O  O17  1  0.67598800  0.60599900  0.86301000  1
  O  O18  1  0.32401200  0.39400100  0.13699000  1
  O  O19  1  0.74204200  0.93065800  0.82058600  1
  O  O20  1  0.25795800  0.06934200  0.17941400  1
  O  O21  1  0.70376900  0.68202300  0.55814900  1
  O  O22  1  0.29623100  0.31797700  0.44185100  1
  O  O23  1  0.40111300  0.77294000  0.64143900  1
  O  O24  1  0.59888700  0.22706000  0.35856100  1
  O  O25  1  0.23460300  0.62827400  0.84302100  1
  O  O26  1  0.76539700  0.37172600  0.15697900  1
  O  O27  1  0.04192500  0.77699800  0.55972700  1
  O  O28  1  0.95807500  0.22300200  0.44027300  1
  O  O29  1  0.25348400  0.97793400  0.85160500  1
  O  O30  1  0.74651600  0.02206600  0.14839500  1
