# generated using pymatgen
data_YPu3
_symmetry_space_group_name_H-M   'P 1'
_cell_length_a   6.86469006
_cell_length_b   6.86469006
_cell_length_c   5.58425100
_cell_angle_alpha   90.00000000
_cell_angle_beta   90.00000000
_cell_angle_gamma   120.00000059
_symmetry_Int_Tables_number   1
_chemical_formula_structural   YPu3
_chemical_formula_sum   'Y2 Pu6'
_cell_volume   227.89638029
_cell_formula_units_Z   2
loop_
 _symmetry_equiv_pos_site_id
 _symmetry_equiv_pos_as_xyz
  1  'x, y, z'
loop_
 _atom_site_type_symbol
 _atom_site_label
 _atom_site_symmetry_multiplicity
 _atom_site_fract_x
 _atom_site_fract_y
 _atom_site_fract_z
 _atom_site_occupancy
  Y  Y0  1  0.33333300  0.66666700  0.75000000  1
  Y  Y1  1  0.66666700  0.33333300  0.25000000  1
  Pu  Pu2  1  0.16273600  0.32547300  0.25000000  1
  Pu  Pu3  1  0.67452700  0.83726400  0.25000000  1
  Pu  Pu4  1  0.16273600  0.83726400  0.25000000  1
  Pu  Pu5  1  0.83726400  0.67452700  0.75000000  1
  Pu  Pu6  1  0.32547300  0.16273600  0.75000000  1
  Pu  Pu7  1  0.83726400  0.16273600  0.75000000  1
