# generated using pymatgen
data_Yb2Mg
_symmetry_space_group_name_H-M   'P 1'
_cell_length_a   7.10459766
_cell_length_b   7.10459766
_cell_length_c   8.08780005
_cell_angle_alpha   74.06791875
_cell_angle_beta   74.06791875
_cell_angle_gamma   31.84759807
_symmetry_Int_Tables_number   1
_chemical_formula_structural   Yb2Mg
_chemical_formula_sum   'Yb4 Mg2'
_cell_volume   206.44704288
_cell_formula_units_Z   2
loop_
 _symmetry_equiv_pos_site_id
 _symmetry_equiv_pos_as_xyz
  1  'x, y, z'
loop_
 _atom_site_type_symbol
 _atom_site_label
 _atom_site_symmetry_multiplicity
 _atom_site_fract_x
 _atom_site_fract_y
 _atom_site_fract_z
 _atom_site_occupancy
  Yb  Yb0  1  0.02304800  0.02304800  0.76065800  1
  Yb  Yb1  1  0.31922800  0.31922800  0.63163600  1
  Yb  Yb2  1  0.68077200  0.68077200  0.36836400  1
  Yb  Yb3  1  0.97695200  0.97695200  0.23934200  1
  Mg  Mg4  1  0.33303000  0.33303000  0.04351300  1
  Mg  Mg5  1  0.66697000  0.66697000  0.95648700  1
