# generated using pymatgen
data_TlIn3
_symmetry_space_group_name_H-M   'P 1'
_cell_length_a   6.82894178
_cell_length_b   6.82894178
_cell_length_c   5.78342900
_cell_angle_alpha   90.00000000
_cell_angle_beta   90.00000000
_cell_angle_gamma   119.99999788
_symmetry_Int_Tables_number   1
_chemical_formula_structural   TlIn3
_chemical_formula_sum   'Tl2 In6'
_cell_volume   233.57312421
_cell_formula_units_Z   2
loop_
 _symmetry_equiv_pos_site_id
 _symmetry_equiv_pos_as_xyz
  1  'x, y, z'
loop_
 _atom_site_type_symbol
 _atom_site_label
 _atom_site_symmetry_multiplicity
 _atom_site_fract_x
 _atom_site_fract_y
 _atom_site_fract_z
 _atom_site_occupancy
  Tl  Tl0  1  0.33333300  0.66666700  0.75000000  1
  Tl  Tl1  1  0.66666700  0.33333300  0.25000000  1
  In  In2  1  0.16360900  0.32721800  0.25000000  1
  In  In3  1  0.67278200  0.83639100  0.25000000  1
  In  In4  1  0.16360900  0.83639100  0.25000000  1
  In  In5  1  0.83639100  0.67278200  0.75000000  1
  In  In6  1  0.32721800  0.16360900  0.75000000  1
  In  In7  1  0.83639100  0.16360900  0.75000000  1
