# generated using pymatgen
data_YEr3
_symmetry_space_group_name_H-M   'P 1'
_cell_length_a   7.19377174
_cell_length_b   7.19377174
_cell_length_c   5.61329100
_cell_angle_alpha   90.00000000
_cell_angle_beta   90.00000000
_cell_angle_gamma   119.99999760
_symmetry_Int_Tables_number   1
_chemical_formula_structural   YEr3
_chemical_formula_sum   'Y2 Er6'
_cell_volume   251.57153875
_cell_formula_units_Z   2
loop_
 _symmetry_equiv_pos_site_id
 _symmetry_equiv_pos_as_xyz
  1  'x, y, z'
loop_
 _atom_site_type_symbol
 _atom_site_label
 _atom_site_symmetry_multiplicity
 _atom_site_fract_x
 _atom_site_fract_y
 _atom_site_fract_z
 _atom_site_occupancy
  Y  Y0  1  0.33333300  0.66666700  0.75000000  1
  Y  Y1  1  0.66666700  0.33333300  0.25000000  1
  Er  Er2  1  0.16550300  0.33100600  0.25000000  1
  Er  Er3  1  0.66899400  0.83449700  0.25000000  1
  Er  Er4  1  0.16550300  0.83449700  0.25000000  1
  Er  Er5  1  0.83449700  0.66899400  0.75000000  1
  Er  Er6  1  0.33100600  0.16550300  0.75000000  1
  Er  Er7  1  0.83449700  0.16550300  0.75000000  1
