# generated using pymatgen
data_V3F
_symmetry_space_group_name_H-M   'P 1'
_cell_length_a   5.73068452
_cell_length_b   5.73068452
_cell_length_c   5.73068452
_cell_angle_alpha   142.58566357
_cell_angle_beta   142.58566357
_cell_angle_gamma   53.94757564
_symmetry_Int_Tables_number   1
_chemical_formula_structural   V3F
_chemical_formula_sum   'V3 F1'
_cell_volume   69.01520247
_cell_formula_units_Z   1
loop_
 _symmetry_equiv_pos_site_id
 _symmetry_equiv_pos_as_xyz
  1  'x, y, z'
loop_
 _atom_site_type_symbol
 _atom_site_label
 _atom_site_symmetry_multiplicity
 _atom_site_fract_x
 _atom_site_fract_y
 _atom_site_fract_z
 _atom_site_occupancy
  V  V0  1  0.75000000  0.25000000  0.50000000  1
  V  V1  1  0.25000000  0.75000000  0.50000000  1
  V  V2  1  0.50000000  0.50000000  0.00000000  1
  F  F3  1  0.00000000  0.00000000  0.00000000  1
