# generated using pymatgen
data_Yb3P
_symmetry_space_group_name_H-M   'P 1'
_cell_length_a   6.62190339
_cell_length_b   6.62436651
_cell_length_c   5.21272254
_cell_angle_alpha   89.96806388
_cell_angle_beta   90.05153703
_cell_angle_gamma   119.83701952
_symmetry_Int_Tables_number   1
_chemical_formula_structural   Yb3P
_chemical_formula_sum   'Yb6 P2'
_cell_volume   198.35043483
_cell_formula_units_Z   2
loop_
 _symmetry_equiv_pos_site_id
 _symmetry_equiv_pos_as_xyz
  1  'x, y, z'
loop_
 _atom_site_type_symbol
 _atom_site_label
 _atom_site_symmetry_multiplicity
 _atom_site_fract_x
 _atom_site_fract_y
 _atom_site_fract_z
 _atom_site_occupancy
  Yb  Yb0  1  0.17537200  0.35100100  0.25002100  1
  Yb  Yb1  1  0.64912900  0.82475100  0.25007300  1
  Yb  Yb2  1  0.17542500  0.82466200  0.24993700  1
  Yb  Yb3  1  0.82448200  0.64866400  0.74996600  1
  Yb  Yb4  1  0.35128100  0.17547700  0.74992500  1
  Yb  Yb5  1  0.82443700  0.17552700  0.75008500  1
  P  P6  1  0.33326100  0.66670100  0.74989700  1
  P  P7  1  0.66661700  0.33322000  0.25009300  1
