# generated using pymatgen
data_Zr2Ni7
_symmetry_space_group_name_H-M   'P 1'
_cell_length_a   4.71857703
_cell_length_b   4.71857703
_cell_length_c   12.11627612
_cell_angle_alpha   87.20185843
_cell_angle_beta   87.20185843
_cell_angle_gamma   120.58545826
_symmetry_Int_Tables_number   1
_chemical_formula_structural   Zr2Ni7
_chemical_formula_sum   'Zr4 Ni14'
_cell_volume   231.10641348
_cell_formula_units_Z   2
loop_
 _symmetry_equiv_pos_site_id
 _symmetry_equiv_pos_as_xyz
  1  'x, y, z'
loop_
 _atom_site_type_symbol
 _atom_site_label
 _atom_site_symmetry_multiplicity
 _atom_site_fract_x
 _atom_site_fract_y
 _atom_site_fract_z
 _atom_site_occupancy
  Zr  Zr0  1  0.73284900  0.73284900  0.88644300  1
  Zr  Zr1  1  0.79077800  0.79077800  0.61472600  1
  Zr  Zr2  1  0.20922200  0.20922200  0.38527400  1
  Zr  Zr3  1  0.26715100  0.26715100  0.11355700  1
  Ni  Ni4  1  0.38170700  0.05230900  0.92194900  1
  Ni  Ni5  1  0.05230900  0.38170700  0.92194900  1
  Ni  Ni6  1  0.26953200  0.76517800  0.75020400  1
  Ni  Ni7  1  0.76517800  0.26953200  0.75020400  1
  Ni  Ni8  1  0.26102400  0.26102400  0.74959500  1
  Ni  Ni9  1  0.13881900  0.47186200  0.57803400  1
  Ni  Ni10  1  0.47186200  0.13881900  0.57803400  1
  Ni  Ni11  1  0.86118100  0.52813800  0.42196600  1
  Ni  Ni12  1  0.52813800  0.86118100  0.42196600  1
  Ni  Ni13  1  0.73897600  0.73897600  0.25040500  1
  Ni  Ni14  1  0.73046800  0.23482200  0.24979600  1
  Ni  Ni15  1  0.23482200  0.73046800  0.24979600  1
  Ni  Ni16  1  0.61829300  0.94769100  0.07805100  1
  Ni  Ni17  1  0.94769100  0.61829300  0.07805100  1
