# generated using pymatgen
data_CaAs
_symmetry_space_group_name_H-M   'P 1'
_cell_length_a   5.31407900
_cell_length_b   7.98186600
_cell_length_c   13.58536600
_cell_angle_alpha   90.00000000
_cell_angle_beta   90.00000000
_cell_angle_gamma   90.00000000
_symmetry_Int_Tables_number   1
_chemical_formula_structural   CaAs
_chemical_formula_sum   'Ca8 As8'
_cell_volume   576.24050464
_cell_formula_units_Z   8
loop_
 _symmetry_equiv_pos_site_id
 _symmetry_equiv_pos_as_xyz
  1  'x, y, z'
loop_
 _atom_site_type_symbol
 _atom_site_label
 _atom_site_symmetry_multiplicity
 _atom_site_fract_x
 _atom_site_fract_y
 _atom_site_fract_z
 _atom_site_occupancy
  Ca  Ca0  1  0.88385600  0.69357600  0.07668800  1
  Ca  Ca1  1  0.61614400  0.80642400  0.57668800  1
  Ca  Ca2  1  0.38385600  0.80642400  0.92331200  1
  Ca  Ca3  1  0.11614400  0.69357600  0.42331200  1
  Ca  Ca4  1  0.11614400  0.30642400  0.92331200  1
  Ca  Ca5  1  0.38385600  0.19357600  0.42331200  1
  Ca  Ca6  1  0.61614400  0.19357600  0.07668800  1
  Ca  Ca7  1  0.88385600  0.30642400  0.57668800  1
  As  As8  1  0.88800900  0.03553300  0.41868600  1
  As  As9  1  0.61199100  0.46446700  0.91868600  1
  As  As10  1  0.38800900  0.46446700  0.58131400  1
  As  As11  1  0.11199100  0.03553300  0.08131400  1
  As  As12  1  0.11199100  0.96446700  0.58131400  1
  As  As13  1  0.38800900  0.53553300  0.08131400  1
  As  As14  1  0.61199100  0.53553300  0.41868600  1
  As  As15  1  0.88800900  0.96446700  0.91868600  1
