# generated using pymatgen
data_Yb3Eu
_symmetry_space_group_name_H-M   'P 1'
_cell_length_a   7.70364451
_cell_length_b   7.70364451
_cell_length_c   6.33836700
_cell_angle_alpha   90.00000000
_cell_angle_beta   90.00000000
_cell_angle_gamma   120.00000442
_symmetry_Int_Tables_number   1
_chemical_formula_structural   Yb3Eu
_chemical_formula_sum   'Yb6 Eu2'
_cell_volume   325.76202967
_cell_formula_units_Z   2
loop_
 _symmetry_equiv_pos_site_id
 _symmetry_equiv_pos_as_xyz
  1  'x, y, z'
loop_
 _atom_site_type_symbol
 _atom_site_label
 _atom_site_symmetry_multiplicity
 _atom_site_fract_x
 _atom_site_fract_y
 _atom_site_fract_z
 _atom_site_occupancy
  Yb  Yb0  1  0.16678600  0.33357100  0.25000000  1
  Yb  Yb1  1  0.66642900  0.83321400  0.25000000  1
  Yb  Yb2  1  0.16678600  0.83321400  0.25000000  1
  Yb  Yb3  1  0.83321400  0.66642900  0.75000000  1
  Yb  Yb4  1  0.33357100  0.16678600  0.75000000  1
  Yb  Yb5  1  0.83321400  0.16678600  0.75000000  1
  Eu  Eu6  1  0.33333300  0.66666700  0.75000000  1
  Eu  Eu7  1  0.66666700  0.33333300  0.25000000  1
