# generated using pymatgen
data_MgSiO6
_symmetry_space_group_name_H-M   'P 1'
_cell_length_a   5.54976600
_cell_length_b   4.98868500
_cell_length_c   9.18412886
_cell_angle_alpha   90.00000000
_cell_angle_beta   125.96465552
_cell_angle_gamma   90.00000000
_symmetry_Int_Tables_number   1
_chemical_formula_structural   MgSiO6
_chemical_formula_sum   'Mg2 Si2 O12'
_cell_volume   205.80261396
_cell_formula_units_Z   2
loop_
 _symmetry_equiv_pos_site_id
 _symmetry_equiv_pos_as_xyz
  1  'x, y, z'
loop_
 _atom_site_type_symbol
 _atom_site_label
 _atom_site_symmetry_multiplicity
 _atom_site_fract_x
 _atom_site_fract_y
 _atom_site_fract_z
 _atom_site_occupancy
  Mg  Mg0  1  0.00000000  0.50000000  0.50000000  1
  Mg  Mg1  1  0.00000000  0.00000000  0.00000000  1
  Si  Si2  1  0.50000000  0.50000000  0.00000000  1
  Si  Si3  1  0.50000000  0.00000000  0.50000000  1
  O  O4  1  0.81216300  0.67181700  0.04977300  1
  O  O5  1  0.81216300  0.82818300  0.54977300  1
  O  O6  1  0.18783700  0.32818300  0.95022700  1
  O  O7  1  0.18783700  0.17181700  0.45022700  1
  O  O8  1  0.32912100  0.45392400  0.77209300  1
  O  O9  1  0.32912100  0.04607600  0.27209300  1
  O  O10  1  0.67087900  0.54607600  0.22790700  1
  O  O11  1  0.67087900  0.95392400  0.72790700  1
  O  O12  1  0.71490400  0.22858700  0.01980600  1
  O  O13  1  0.71490400  0.27141300  0.51980600  1
  O  O14  1  0.28509600  0.77141300  0.98019400  1
  O  O15  1  0.28509600  0.72858700  0.48019400  1
