# generated using pymatgen
data_Ce2Te3
_symmetry_space_group_name_H-M   'P 1'
_cell_length_a   4.44915000
_cell_length_b   11.94897200
_cell_length_c   12.32047200
_cell_angle_alpha   90.00000000
_cell_angle_beta   90.00000000
_cell_angle_gamma   90.00000000
_symmetry_Int_Tables_number   1
_chemical_formula_structural   Ce2Te3
_chemical_formula_sum   'Ce8 Te12'
_cell_volume   654.99040412
_cell_formula_units_Z   4
loop_
 _symmetry_equiv_pos_site_id
 _symmetry_equiv_pos_as_xyz
  1  'x, y, z'
loop_
 _atom_site_type_symbol
 _atom_site_label
 _atom_site_symmetry_multiplicity
 _atom_site_fract_x
 _atom_site_fract_y
 _atom_site_fract_z
 _atom_site_occupancy
  Ce  Ce0  1  0.25000000  0.18687300  0.48571400  1
  Ce  Ce1  1  0.25000000  0.31312700  0.98571400  1
  Ce  Ce2  1  0.75000000  0.81312700  0.51428600  1
  Ce  Ce3  1  0.75000000  0.68687300  0.01428600  1
  Ce  Ce4  1  0.25000000  0.99973300  0.80447800  1
  Ce  Ce5  1  0.25000000  0.50026700  0.30447800  1
  Ce  Ce6  1  0.75000000  0.00026700  0.19552200  1
  Ce  Ce7  1  0.75000000  0.49973300  0.69552200  1
  Te  Te8  1  0.25000000  0.62454700  0.54512000  1
  Te  Te9  1  0.25000000  0.87545300  0.04512000  1
  Te  Te10  1  0.75000000  0.37545300  0.45488000  1
  Te  Te11  1  0.75000000  0.12454700  0.95488000  1
  Te  Te12  1  0.25000000  0.94280100  0.37938600  1
  Te  Te13  1  0.25000000  0.55719900  0.87938600  1
  Te  Te14  1  0.75000000  0.05719900  0.62061400  1
  Te  Te15  1  0.75000000  0.44280100  0.12061400  1
  Te  Te16  1  0.25000000  0.29813100  0.72649400  1
  Te  Te17  1  0.25000000  0.20186900  0.22649400  1
  Te  Te18  1  0.75000000  0.70186900  0.27350600  1
  Te  Te19  1  0.75000000  0.79813100  0.77350600  1
