# generated using pymatgen
data_ZrSb3
_symmetry_space_group_name_H-M   'P 1'
_cell_length_a   6.48464895
_cell_length_b   6.48464895
_cell_length_c   5.59865000
_cell_angle_alpha   90.00000000
_cell_angle_beta   90.00000000
_cell_angle_gamma   120.00000970
_symmetry_Int_Tables_number   1
_chemical_formula_structural   ZrSb3
_chemical_formula_sum   'Zr2 Sb6'
_cell_volume   203.88573835
_cell_formula_units_Z   2
loop_
 _symmetry_equiv_pos_site_id
 _symmetry_equiv_pos_as_xyz
  1  'x, y, z'
loop_
 _atom_site_type_symbol
 _atom_site_label
 _atom_site_symmetry_multiplicity
 _atom_site_fract_x
 _atom_site_fract_y
 _atom_site_fract_z
 _atom_site_occupancy
  Zr  Zr0  1  0.33333300  0.66666700  0.75000000  1
  Zr  Zr1  1  0.66666700  0.33333300  0.25000000  1
  Sb  Sb2  1  0.17741900  0.35483900  0.25000000  1
  Sb  Sb3  1  0.64516100  0.82258100  0.25000000  1
  Sb  Sb4  1  0.17741900  0.82258100  0.25000000  1
  Sb  Sb5  1  0.82258100  0.64516100  0.75000000  1
  Sb  Sb6  1  0.35483900  0.17741900  0.75000000  1
  Sb  Sb7  1  0.82258100  0.17741900  0.75000000  1
