# generated using pymatgen
data_Yb3Eu
_symmetry_space_group_name_H-M   'P 1'
_cell_length_a   6.72933694
_cell_length_b   6.72933694
_cell_length_c   6.72933694
_cell_angle_alpha   131.72356494
_cell_angle_beta   131.72356494
_cell_angle_gamma   70.66597796
_symmetry_Int_Tables_number   1
_chemical_formula_structural   Yb3Eu
_chemical_formula_sum   'Yb3 Eu1'
_cell_volume   166.29555161
_cell_formula_units_Z   1
loop_
 _symmetry_equiv_pos_site_id
 _symmetry_equiv_pos_as_xyz
  1  'x, y, z'
loop_
 _atom_site_type_symbol
 _atom_site_label
 _atom_site_symmetry_multiplicity
 _atom_site_fract_x
 _atom_site_fract_y
 _atom_site_fract_z
 _atom_site_occupancy
  Yb  Yb0  1  0.75000000  0.25000000  0.50000000  1
  Yb  Yb1  1  0.25000000  0.75000000  0.50000000  1
  Yb  Yb2  1  0.50000000  0.50000000  0.00000000  1
  Eu  Eu3  1  0.00000000  0.00000000  0.00000000  1
