# generated using pymatgen
data_Bi2O3
_symmetry_space_group_name_H-M   'P 1'
_cell_length_a   8.13244216
_cell_length_b   8.13244216
_cell_length_c   8.13244216
_cell_angle_alpha   60.00000000
_cell_angle_beta   60.00000000
_cell_angle_gamma   60.00000000
_symmetry_Int_Tables_number   1
_chemical_formula_structural   Bi2O3
_chemical_formula_sum   'Bi8 O12'
_cell_volume   380.31893817
_cell_formula_units_Z   4
loop_
 _symmetry_equiv_pos_site_id
 _symmetry_equiv_pos_as_xyz
  1  'x, y, z'
loop_
 _atom_site_type_symbol
 _atom_site_label
 _atom_site_symmetry_multiplicity
 _atom_site_fract_x
 _atom_site_fract_y
 _atom_site_fract_z
 _atom_site_occupancy
  Bi  Bi0  1  0.88069900  0.88069900  0.35790300  1
  Bi  Bi1  1  0.88069900  0.35790300  0.88069900  1
  Bi  Bi2  1  0.35790300  0.88069900  0.88069900  1
  Bi  Bi3  1  0.88069900  0.88069900  0.88069900  1
  Bi  Bi4  1  0.36930100  0.36930100  0.89209700  1
  Bi  Bi5  1  0.36930100  0.89209700  0.36930100  1
  Bi  Bi6  1  0.89209700  0.36930100  0.36930100  1
  Bi  Bi7  1  0.36930100  0.36930100  0.36930100  1
  O  O8  1  0.05090600  0.05090600  0.44909400  1
  O  O9  1  0.44909400  0.05090600  0.44909400  1
  O  O10  1  0.05090600  0.44909400  0.44909400  1
  O  O11  1  0.44909400  0.44909400  0.05090600  1
  O  O12  1  0.05090600  0.44909400  0.05090600  1
  O  O13  1  0.44909400  0.05090600  0.05090600  1
  O  O14  1  0.19909400  0.19909400  0.80090600  1
  O  O15  1  0.80090600  0.19909400  0.80090600  1
  O  O16  1  0.19909400  0.80090600  0.80090600  1
  O  O17  1  0.80090600  0.80090600  0.19909400  1
  O  O18  1  0.19909400  0.80090600  0.19909400  1
  O  O19  1  0.80090600  0.19909400  0.19909400  1
