# generated using pymatgen
data_NaSbO7
_symmetry_space_group_name_H-M   'P 1'
_cell_length_a   6.39528000
_cell_length_b   6.62118435
_cell_length_c   6.84733700
_cell_angle_alpha   90.00000000
_cell_angle_beta   90.00000000
_cell_angle_gamma   118.87764645
_symmetry_Int_Tables_number   1
_chemical_formula_structural   NaSbO7
_chemical_formula_sum   'Na2 Sb2 O14'
_cell_volume   253.89198478
_cell_formula_units_Z   2
loop_
 _symmetry_equiv_pos_site_id
 _symmetry_equiv_pos_as_xyz
  1  'x, y, z'
loop_
 _atom_site_type_symbol
 _atom_site_label
 _atom_site_symmetry_multiplicity
 _atom_site_fract_x
 _atom_site_fract_y
 _atom_site_fract_z
 _atom_site_occupancy
  Na  Na0  1  0.31716100  0.63432200  0.63164600  1
  Na  Na1  1  0.68283900  0.36567800  0.13164600  1
  Sb  Sb2  1  0.64254900  0.28509900  0.61024400  1
  Sb  Sb3  1  0.35745100  0.71490100  0.11024400  1
  O  O4  1  0.50275600  0.00551200  0.45223300  1
  O  O5  1  0.94799100  0.43377500  0.46591900  1
  O  O6  1  0.48578400  0.43377500  0.46591900  1
  O  O7  1  0.49724400  0.99448800  0.95223300  1
  O  O8  1  0.05200900  0.56622500  0.96591900  1
  O  O9  1  0.51421600  0.56622500  0.96591900  1
  O  O10  1  0.85003300  0.23602600  0.80652900  1
  O  O11  1  0.89417100  0.78834100  0.74657700  1
  O  O12  1  0.38599300  0.23602600  0.80652900  1
  O  O13  1  0.14996700  0.76397400  0.30652900  1
  O  O14  1  0.10582900  0.21165900  0.24657700  1
  O  O15  1  0.61400700  0.76397400  0.30652900  1
  O  O16  1  0.97804600  0.95609200  0.63940500  1
  O  O17  1  0.02195400  0.04390800  0.13940500  1
