# generated using pymatgen
data_CsSb2F7
_symmetry_space_group_name_H-M   'P 1'
_cell_length_a   9.32557039
_cell_length_b   9.32557039
_cell_length_c   6.97409194
_cell_angle_alpha   89.87229003
_cell_angle_beta   89.87229003
_cell_angle_gamma   49.08680326
_symmetry_Int_Tables_number   1
_chemical_formula_structural   CsSb2F7
_chemical_formula_sum   'Cs2 Sb4 F14'
_cell_volume   458.34037473
_cell_formula_units_Z   2
loop_
 _symmetry_equiv_pos_site_id
 _symmetry_equiv_pos_as_xyz
  1  'x, y, z'
loop_
 _atom_site_type_symbol
 _atom_site_label
 _atom_site_symmetry_multiplicity
 _atom_site_fract_x
 _atom_site_fract_y
 _atom_site_fract_z
 _atom_site_occupancy
  Cs  Cs0  1  0.27362900  0.72637100  0.25000000  1
  Cs  Cs1  1  0.72637100  0.27362900  0.75000000  1
  Sb  Sb2  1  0.59034600  0.05394800  0.28512500  1
  Sb  Sb3  1  0.94605200  0.40965400  0.21487500  1
  Sb  Sb4  1  0.40965400  0.94605200  0.71487500  1
  Sb  Sb5  1  0.05394800  0.59034600  0.78512500  1
  F  F6  1  0.00000000  0.50000000  0.50000000  1
  F  F7  1  0.50000000  0.00000000  0.00000000  1
  F  F8  1  0.56462900  0.26788700  0.18733700  1
  F  F9  1  0.73211300  0.43537100  0.31266300  1
  F  F10  1  0.43537100  0.73211300  0.81266300  1
  F  F11  1  0.26788700  0.56462900  0.68733700  1
  F  F12  1  0.85890600  0.92160500  0.35163000  1
  F  F13  1  0.07839500  0.14109400  0.14837000  1
  F  F14  1  0.14109400  0.07839500  0.64837000  1
  F  F15  1  0.92160500  0.85890600  0.85163000  1
  F  F16  1  0.17129900  0.50215200  0.05093400  1
  F  F17  1  0.49784800  0.82870100  0.44906600  1
  F  F18  1  0.82870100  0.49784800  0.94906600  1
  F  F19  1  0.50215200  0.17129900  0.55093400  1
