# generated using pymatgen
data_UVSe3
_symmetry_space_group_name_H-M   'P 1'
_cell_length_a   6.37230400
_cell_length_b   7.34728200
_cell_length_c   9.48257800
_cell_angle_alpha   90.00000000
_cell_angle_beta   90.00000000
_cell_angle_gamma   90.00000000
_symmetry_Int_Tables_number   1
_chemical_formula_structural   UVSe3
_chemical_formula_sum   'U4 V4 Se12'
_cell_volume   443.96590493
_cell_formula_units_Z   4
loop_
 _symmetry_equiv_pos_site_id
 _symmetry_equiv_pos_as_xyz
  1  'x, y, z'
loop_
 _atom_site_type_symbol
 _atom_site_label
 _atom_site_symmetry_multiplicity
 _atom_site_fract_x
 _atom_site_fract_y
 _atom_site_fract_z
 _atom_site_occupancy
  U  U0  1  0.56545400  0.12103300  0.75000000  1
  U  U1  1  0.93454600  0.62103300  0.75000000  1
  U  U2  1  0.43454600  0.87896700  0.25000000  1
  U  U3  1  0.06545400  0.37896700  0.25000000  1
  V  V4  1  0.50000000  0.50000000  0.00000000  1
  V  V5  1  0.00000000  0.00000000  0.50000000  1
  V  V6  1  0.50000000  0.50000000  0.50000000  1
  V  V7  1  0.00000000  0.00000000  0.00000000  1
  Se  Se8  1  0.34253500  0.18055100  0.43904000  1
  Se  Se9  1  0.15746500  0.68055100  0.06096000  1
  Se  Se10  1  0.65746500  0.81944900  0.93904000  1
  Se  Se11  1  0.84253500  0.31944900  0.56096000  1
  Se  Se12  1  0.65746500  0.81944900  0.56096000  1
  Se  Se13  1  0.84253500  0.31944900  0.93904000  1
  Se  Se14  1  0.34253500  0.18055100  0.06096000  1
  Se  Se15  1  0.15746500  0.68055100  0.43904000  1
  Se  Se16  1  0.35032600  0.45937100  0.75000000  1
  Se  Se17  1  0.14967400  0.95937100  0.75000000  1
  Se  Se18  1  0.64967400  0.54062900  0.25000000  1
  Se  Se19  1  0.85032600  0.04062900  0.25000000  1
