# generated using pymatgen
data_SiH8
_symmetry_space_group_name_H-M   'P 1'
_cell_length_a   5.21346700
_cell_length_b   5.22160200
_cell_length_c   7.20981700
_cell_angle_alpha   90.00000000
_cell_angle_beta   90.00000000
_cell_angle_gamma   90.00000000
_symmetry_Int_Tables_number   1
_chemical_formula_structural   SiH8
_chemical_formula_sum   'Si2 H16'
_cell_volume   196.27032269
_cell_formula_units_Z   2
loop_
 _symmetry_equiv_pos_site_id
 _symmetry_equiv_pos_as_xyz
  1  'x, y, z'
loop_
 _atom_site_type_symbol
 _atom_site_label
 _atom_site_symmetry_multiplicity
 _atom_site_fract_x
 _atom_site_fract_y
 _atom_site_fract_z
 _atom_site_occupancy
  Si  Si0  1  0.24727500  0.50000000  0.85834600  1
  Si  Si1  1  0.75272500  0.00000000  0.35834600  1
  H  H2  1  0.48124300  0.50000000  0.97773400  1
  H  H3  1  0.51875700  0.00000000  0.47773400  1
  H  H4  1  0.01330000  0.50000000  0.97785300  1
  H  H5  1  0.98670000  0.00000000  0.47785300  1
  H  H6  1  0.24726800  0.73324700  0.73858400  1
  H  H7  1  0.24726800  0.26675300  0.73858400  1
  H  H8  1  0.75273200  0.76675300  0.23858400  1
  H  H9  1  0.75273200  0.23324700  0.23858400  1
  H  H10  1  0.28845400  0.50000000  0.31009900  1
  H  H11  1  0.71154600  0.00000000  0.81009900  1
  H  H12  1  0.22241300  0.50000000  0.40329800  1
  H  H13  1  0.77758700  0.00000000  0.90329800  1
  H  H14  1  0.76108400  0.50000000  0.65525900  1
  H  H15  1  0.23891600  0.00000000  0.15525900  1
  H  H16  1  0.70874800  0.50000000  0.55884300  1
  H  H17  1  0.29125200  0.00000000  0.05884300  1
