# generated using pymatgen
data_Ca2Fe(PO6)2
_symmetry_space_group_name_H-M   'P 1'
_cell_length_a   5.79803872
_cell_length_b   6.20354530
_cell_length_c   6.93883720
_cell_angle_alpha   108.84559450
_cell_angle_beta   102.84525884
_cell_angle_gamma   75.29487407
_symmetry_Int_Tables_number   1
_chemical_formula_structural   Ca2Fe(PO6)2
_chemical_formula_sum   'Ca2 Fe1 P2 O12'
_cell_volume   225.76263930
_cell_formula_units_Z   1
loop_
 _symmetry_equiv_pos_site_id
 _symmetry_equiv_pos_as_xyz
  1  'x, y, z'
loop_
 _atom_site_type_symbol
 _atom_site_label
 _atom_site_symmetry_multiplicity
 _atom_site_fract_x
 _atom_site_fract_y
 _atom_site_fract_z
 _atom_site_occupancy
  Ca  Ca0  1  0.68019400  0.69907200  0.22806300  1
  Ca  Ca1  1  0.31980600  0.30092800  0.77193700  1
  Fe  Fe2  1  0.00000000  0.00000000  0.00000000  1
  P  P3  1  0.76938200  0.56972100  0.72480900  1
  P  P4  1  0.23061800  0.43027900  0.27519100  1
  O  O5  1  0.10771100  0.68321900  0.36893600  1
  O  O6  1  0.89228900  0.31678100  0.63106400  1
  O  O7  1  0.67218800  0.70136900  0.56155000  1
  O  O8  1  0.32781300  0.29863100  0.43845000  1
  O  O9  1  0.99187900  0.67273600  0.87981200  1
  O  O10  1  0.00812100  0.32726400  0.12018800  1
  O  O11  1  0.57750700  0.58249900  0.85289800  1
  O  O12  1  0.42249300  0.41750100  0.14710200  1
  O  O13  1  0.27117700  0.92259600  0.16837800  1
  O  O14  1  0.72882300  0.07740400  0.83162200  1
  O  O15  1  0.21628900  0.97198200  0.83506100  1
  O  O16  1  0.78371100  0.02801800  0.16493900  1
