# generated using pymatgen
data_Tm2InAu2
_symmetry_space_group_name_H-M   'P 1'
_cell_length_a   7.97960100
_cell_length_b   7.97960100
_cell_length_c   7.22091800
_cell_angle_alpha   90.00000000
_cell_angle_beta   90.00000000
_cell_angle_gamma   90.00000000
_symmetry_Int_Tables_number   1
_chemical_formula_structural   Tm2InAu2
_chemical_formula_sum   'Tm8 In4 Au8'
_cell_volume   459.78496466
_cell_formula_units_Z   4
loop_
 _symmetry_equiv_pos_site_id
 _symmetry_equiv_pos_as_xyz
  1  'x, y, z'
loop_
 _atom_site_type_symbol
 _atom_site_label
 _atom_site_symmetry_multiplicity
 _atom_site_fract_x
 _atom_site_fract_y
 _atom_site_fract_z
 _atom_site_occupancy
  Tm  Tm0  1  0.84308600  0.15691400  0.50000000  1
  Tm  Tm1  1  0.15691400  0.84308600  0.50000000  1
  Tm  Tm2  1  0.34308600  0.34308600  0.00000000  1
  Tm  Tm3  1  0.65691400  0.65691400  0.00000000  1
  Tm  Tm4  1  0.68265500  0.68265500  0.50000000  1
  Tm  Tm5  1  0.31734500  0.31734500  0.50000000  1
  Tm  Tm6  1  0.18265500  0.81734500  0.00000000  1
  Tm  Tm7  1  0.81734500  0.18265500  0.00000000  1
  In  In8  1  0.50000000  0.00000000  0.25000000  1
  In  In9  1  0.00000000  0.50000000  0.75000000  1
  In  In10  1  0.50000000  0.00000000  0.75000000  1
  In  In11  1  0.00000000  0.50000000  0.25000000  1
  Au  Au12  1  0.62887400  0.37112600  0.27550400  1
  Au  Au13  1  0.37112600  0.62887400  0.27550400  1
  Au  Au14  1  0.12887400  0.12887400  0.77550400  1
  Au  Au15  1  0.87112600  0.87112600  0.77550400  1
  Au  Au16  1  0.37112600  0.62887400  0.72449600  1
  Au  Au17  1  0.62887400  0.37112600  0.72449600  1
  Au  Au18  1  0.87112600  0.87112600  0.22449600  1
  Au  Au19  1  0.12887400  0.12887400  0.22449600  1
