# generated using pymatgen
data_Ca(CO)4
_symmetry_space_group_name_H-M   'P 1'
_cell_length_a   6.98225800
_cell_length_b   7.13561753
_cell_length_c   6.98225800
_cell_angle_alpha   119.29155709
_cell_angle_beta   90.00000000
_cell_angle_gamma   119.29155709
_symmetry_Int_Tables_number   1
_chemical_formula_structural   Ca(CO)4
_chemical_formula_sum   'Ca2 C8 O8'
_cell_volume   251.16032263
_cell_formula_units_Z   2
loop_
 _symmetry_equiv_pos_site_id
 _symmetry_equiv_pos_as_xyz
  1  'x, y, z'
loop_
 _atom_site_type_symbol
 _atom_site_label
 _atom_site_symmetry_multiplicity
 _atom_site_fract_x
 _atom_site_fract_y
 _atom_site_fract_z
 _atom_site_occupancy
  Ca  Ca0  1  0.50000000  0.00000000  0.50000000  1
  Ca  Ca1  1  0.75000000  0.50000000  0.25000000  1
  C  C2  1  0.05914700  0.11829400  0.05914700  1
  C  C3  1  0.30914700  0.61829400  0.80914700  1
  C  C4  1  0.19085300  0.38170600  0.69085300  1
  C  C5  1  0.94085300  0.88170600  0.94085300  1
  C  C6  1  0.19895800  0.39791500  0.19895800  1
  C  C7  1  0.44895800  0.89791500  0.94895800  1
  C  C8  1  0.05104200  0.10208500  0.55104200  1
  C  C9  1  0.80104200  0.60208500  0.80104200  1
  O  O10  1  0.41773500  0.51601100  0.25800600  1
  O  O11  1  0.50800600  0.01601100  0.84827700  1
  O  O12  1  0.50800600  0.01601100  0.16773500  1
  O  O13  1  0.09827700  0.51601100  0.25800600  1
  O  O14  1  0.83226500  0.98398900  0.49199400  1
  O  O15  1  0.74199400  0.48398900  0.90172300  1
  O  O16  1  0.74199400  0.48398900  0.58226500  1
  O  O17  1  0.15172300  0.98398900  0.49199400  1
