# generated using pymatgen
data_Zn3(PO6)2
_symmetry_space_group_name_H-M   'P 1'
_cell_length_a   5.15794471
_cell_length_b   5.92916935
_cell_length_c   7.84372885
_cell_angle_alpha   93.43755877
_cell_angle_beta   95.95229910
_cell_angle_gamma   90.36992938
_symmetry_Int_Tables_number   1
_chemical_formula_structural   Zn3(PO6)2
_chemical_formula_sum   'Zn3 P2 O12'
_cell_volume   238.13750677
_cell_formula_units_Z   1
loop_
 _symmetry_equiv_pos_site_id
 _symmetry_equiv_pos_as_xyz
  1  'x, y, z'
loop_
 _atom_site_type_symbol
 _atom_site_label
 _atom_site_symmetry_multiplicity
 _atom_site_fract_x
 _atom_site_fract_y
 _atom_site_fract_z
 _atom_site_occupancy
  Zn  Zn0  1  0.00000000  0.00000000  0.00000000  1
  Zn  Zn1  1  0.17235200  0.74227500  0.38740700  1
  Zn  Zn2  1  0.82764800  0.25772500  0.61259300  1
  P  P3  1  0.70667000  0.75691900  0.63218200  1
  P  P4  1  0.29333000  0.24308100  0.36781800  1
  O  O5  1  0.78907200  0.54982200  0.73408500  1
  O  O6  1  0.21092800  0.45017800  0.26591500  1
  O  O7  1  0.40716400  0.76469300  0.60190100  1
  O  O8  1  0.59283600  0.23530700  0.39809900  1
  O  O9  1  0.81121800  0.97741200  0.74031500  1
  O  O10  1  0.18878200  0.02258800  0.25968500  1
  O  O11  1  0.81836200  0.75154900  0.45748300  1
  O  O12  1  0.18163800  0.24845100  0.54251700  1
  O  O13  1  0.69482300  0.84134300  0.08408400  1
  O  O14  1  0.30517700  0.15865700  0.91591600  1
  O  O15  1  0.29681100  0.79967500  0.94331400  1
  O  O16  1  0.70318900  0.20032500  0.05668600  1
