# generated using pymatgen
data_Nd(CoP3)4
_symmetry_space_group_name_H-M   'P 1'
_cell_length_a   6.77289023
_cell_length_b   6.77289023
_cell_length_c   6.77289023
_cell_angle_alpha   109.47122063
_cell_angle_beta   109.47122063
_cell_angle_gamma   109.47122063
_symmetry_Int_Tables_number   1
_chemical_formula_structural   Nd(CoP3)4
_chemical_formula_sum   'Nd1 Co4 P12'
_cell_volume   239.16642999
_cell_formula_units_Z   1
loop_
 _symmetry_equiv_pos_site_id
 _symmetry_equiv_pos_as_xyz
  1  'x, y, z'
loop_
 _atom_site_type_symbol
 _atom_site_label
 _atom_site_symmetry_multiplicity
 _atom_site_fract_x
 _atom_site_fract_y
 _atom_site_fract_z
 _atom_site_occupancy
  Nd  Nd0  1  0.00000000  0.00000000  0.00000000  1
  Co  Co1  1  0.00000000  0.00000000  0.50000000  1
  Co  Co2  1  0.50000000  0.00000000  0.00000000  1
  Co  Co3  1  0.00000000  0.50000000  0.00000000  1
  Co  Co4  1  0.50000000  0.50000000  0.50000000  1
  P  P5  1  0.35276200  0.20552400  0.85276100  1
  P  P6  1  0.64723800  0.79447600  0.14723900  1
  P  P7  1  0.64723800  0.49999900  0.85276100  1
  P  P8  1  0.35276200  0.50000100  0.14723900  1
  P  P9  1  0.20552400  0.85276100  0.35276200  1
  P  P10  1  0.79447600  0.14723900  0.64723800  1
  P  P11  1  0.49999900  0.85276100  0.64723800  1
  P  P12  1  0.50000100  0.14723900  0.35276200  1
  P  P13  1  0.85276100  0.35276200  0.20552400  1
  P  P14  1  0.14723900  0.64723800  0.79447600  1
  P  P15  1  0.85276100  0.64723800  0.49999900  1
  P  P16  1  0.14723900  0.35276200  0.50000100  1
