# generated using pymatgen
data_Fe3P2PbO14
_symmetry_space_group_name_H-M   'P 1'
_cell_length_a   5.35918200
_cell_length_b   6.95840522
_cell_length_c   7.15217803
_cell_angle_alpha   89.74420212
_cell_angle_beta   91.35714270
_cell_angle_gamma   110.80029825
_symmetry_Int_Tables_number   1
_chemical_formula_structural   Fe3P2PbO14
_chemical_formula_sum   'Fe3 P2 Pb1 O14'
_cell_volume   249.25885595
_cell_formula_units_Z   1
loop_
 _symmetry_equiv_pos_site_id
 _symmetry_equiv_pos_as_xyz
  1  'x, y, z'
loop_
 _atom_site_type_symbol
 _atom_site_label
 _atom_site_symmetry_multiplicity
 _atom_site_fract_x
 _atom_site_fract_y
 _atom_site_fract_z
 _atom_site_occupancy
  Fe  Fe0  1  0.00000000  0.00000000  0.00000000  1
  Fe  Fe1  1  0.00000000  0.00000000  0.50000000  1
  Fe  Fe2  1  0.00000000  0.50000000  0.00000000  1
  P  P3  1  0.41474600  0.34157500  0.76475900  1
  P  P4  1  0.58525400  0.65842500  0.23524100  1
  Pb  Pb5  1  0.00000000  0.50000000  0.50000000  1
  O  O6  1  0.35708300  0.18222900  0.92424900  1
  O  O7  1  0.64291700  0.81777100  0.07575100  1
  O  O8  1  0.25226100  0.48946700  0.79497200  1
  O  O9  1  0.74773900  0.51053300  0.20502800  1
  O  O10  1  0.72291100  0.46426200  0.77369700  1
  O  O11  1  0.27708900  0.53573800  0.22630300  1
  O  O12  1  0.33535900  0.25490300  0.56625400  1
  O  O13  1  0.66464100  0.74509700  0.43374600  1
  O  O14  1  0.12345400  0.02704800  0.25139600  1
  O  O15  1  0.87654600  0.97295200  0.74860400  1
  O  O16  1  0.11302700  0.77984100  0.96676400  1
  O  O17  1  0.88697300  0.22015900  0.03323600  1
  O  O18  1  0.81356700  0.18829600  0.46202100  1
  O  O19  1  0.18643300  0.81170400  0.53797900  1
