# generated using pymatgen
data_Sm(ClO2)3
_symmetry_space_group_name_H-M   'P 1'
_cell_length_a   8.57300500
_cell_length_b   7.62825318
_cell_length_c   7.49093289
_cell_angle_alpha   119.07089876
_cell_angle_beta   90.00000000
_cell_angle_gamma   90.00000000
_symmetry_Int_Tables_number   1
_chemical_formula_structural   Sm(ClO2)3
_chemical_formula_sum   'Sm2 Cl6 O12'
_cell_volume   428.16880113
_cell_formula_units_Z   2
loop_
 _symmetry_equiv_pos_site_id
 _symmetry_equiv_pos_as_xyz
  1  'x, y, z'
loop_
 _atom_site_type_symbol
 _atom_site_label
 _atom_site_symmetry_multiplicity
 _atom_site_fract_x
 _atom_site_fract_y
 _atom_site_fract_z
 _atom_site_occupancy
  Sm  Sm0  1  0.35904600  0.25000000  0.25000000  1
  Sm  Sm1  1  0.64095400  0.75000000  0.75000000  1
  Cl  Cl2  1  0.80424800  0.36013900  0.56075700  1
  Cl  Cl3  1  0.19575200  0.63986100  0.43924300  1
  Cl  Cl4  1  0.80424800  0.13986100  0.93924300  1
  Cl  Cl5  1  0.19575200  0.86013900  0.06075700  1
  Cl  Cl6  1  0.35556200  0.25000000  0.75000000  1
  Cl  Cl7  1  0.64443800  0.75000000  0.25000000  1
  O  O8  1  0.02198500  0.83192800  0.25089100  1
  O  O9  1  0.97801500  0.16807200  0.74910900  1
  O  O10  1  0.02198500  0.66807200  0.24910900  1
  O  O11  1  0.97801500  0.33192800  0.75089100  1
  O  O12  1  0.56468500  0.46459600  0.43017000  1
  O  O13  1  0.43531500  0.53540400  0.56983000  1
  O  O14  1  0.56468500  0.03540400  0.06983000  1
  O  O15  1  0.43531500  0.96459600  0.93017000  1
  O  O16  1  0.32316700  0.34821000  0.00247300  1
  O  O17  1  0.67683300  0.65179000  0.99752700  1
  O  O18  1  0.32316700  0.15179000  0.49752700  1
  O  O19  1  0.67683300  0.84821000  0.50247300  1
