# generated using pymatgen
data_Sr2UCdO6
_symmetry_space_group_name_H-M   'P 1'
_cell_length_a   6.11993100
_cell_length_b   5.95210838
_cell_length_c   8.49302886
_cell_angle_alpha   90.71253571
_cell_angle_beta   90.00000000
_cell_angle_gamma   90.00000000
_symmetry_Int_Tables_number   1
_chemical_formula_structural   Sr2UCdO6
_chemical_formula_sum   'Sr4 U2 Cd2 O12'
_cell_volume   309.34732986
_cell_formula_units_Z   2
loop_
 _symmetry_equiv_pos_site_id
 _symmetry_equiv_pos_as_xyz
  1  'x, y, z'
loop_
 _atom_site_type_symbol
 _atom_site_label
 _atom_site_symmetry_multiplicity
 _atom_site_fract_x
 _atom_site_fract_y
 _atom_site_fract_z
 _atom_site_occupancy
  Sr  Sr0  1  0.45313600  0.48692900  0.75595900  1
  Sr  Sr1  1  0.04686400  0.98692900  0.25595900  1
  Sr  Sr2  1  0.54686400  0.51307100  0.24404100  1
  Sr  Sr3  1  0.95313600  0.01307100  0.74404100  1
  U  U4  1  0.50000000  0.00000000  0.00000000  1
  U  U5  1  0.00000000  0.50000000  0.50000000  1
  Cd  Cd6  1  0.50000000  0.00000000  0.50000000  1
  Cd  Cd7  1  0.00000000  0.50000000  0.00000000  1
  O  O8  1  0.04592800  0.60176900  0.73399100  1
  O  O9  1  0.45407200  0.10176900  0.23399100  1
  O  O10  1  0.95407200  0.39823100  0.26600900  1
  O  O11  1  0.54592800  0.89823100  0.76600900  1
  O  O12  1  0.18854900  0.21427100  0.54375300  1
  O  O13  1  0.31145100  0.71427100  0.04375300  1
  O  O14  1  0.81145100  0.78572900  0.45624700  1
  O  O15  1  0.68854900  0.28572900  0.95624700  1
  O  O16  1  0.27745600  0.68654700  0.43704200  1
  O  O17  1  0.22254400  0.18654700  0.93704200  1
  O  O18  1  0.72254400  0.31345300  0.56295800  1
  O  O19  1  0.77745600  0.81345300  0.06295800  1
