# generated using pymatgen
data_EuP3
_symmetry_space_group_name_H-M   'P 1'
_cell_length_a   6.69717084
_cell_length_b   6.69717084
_cell_length_c   8.32993487
_cell_angle_alpha   78.71342724
_cell_angle_beta   78.71342724
_cell_angle_gamma   66.47044944
_symmetry_Int_Tables_number   1
_chemical_formula_structural   EuP3
_chemical_formula_sum   'Eu4 P12'
_cell_volume   333.04095281
_cell_formula_units_Z   4
loop_
 _symmetry_equiv_pos_site_id
 _symmetry_equiv_pos_as_xyz
  1  'x, y, z'
loop_
 _atom_site_type_symbol
 _atom_site_label
 _atom_site_symmetry_multiplicity
 _atom_site_fract_x
 _atom_site_fract_y
 _atom_site_fract_z
 _atom_site_occupancy
  Eu  Eu0  1  0.29284700  0.29284700  0.77293300  1
  Eu  Eu1  1  0.70715300  0.70715300  0.22706700  1
  Eu  Eu2  1  0.95741100  0.95741100  0.74213700  1
  Eu  Eu3  1  0.04258900  0.04258900  0.25786300  1
  P  P4  1  0.67873500  0.67873500  0.83773000  1
  P  P5  1  0.32126500  0.32126500  0.16227000  1
  P  P6  1  0.57659200  0.57659200  0.63305600  1
  P  P7  1  0.42340800  0.42340800  0.36694400  1
  P  P8  1  0.84221800  0.35918000  0.97786900  1
  P  P9  1  0.35918000  0.84221800  0.97786900  1
  P  P10  1  0.15778200  0.64082000  0.02213100  1
  P  P11  1  0.64082000  0.15778200  0.02213100  1
  P  P12  1  0.90725900  0.39044200  0.50978200  1
  P  P13  1  0.39044200  0.90725900  0.50978200  1
  P  P14  1  0.09274100  0.60955800  0.49021800  1
  P  P15  1  0.60955800  0.09274100  0.49021800  1
