# generated using pymatgen
data_NaCO3
_symmetry_space_group_name_H-M   'P 1'
_cell_length_a   9.45658600
_cell_length_b   3.66379000
_cell_length_c   8.35935866
_cell_angle_alpha   68.66540015
_cell_angle_beta   90.00000000
_cell_angle_gamma   90.00000000
_symmetry_Int_Tables_number   1
_chemical_formula_structural   NaCO3
_chemical_formula_sum   'Na4 C4 O12'
_cell_volume   269.77864684
_cell_formula_units_Z   4
loop_
 _symmetry_equiv_pos_site_id
 _symmetry_equiv_pos_as_xyz
  1  'x, y, z'
loop_
 _atom_site_type_symbol
 _atom_site_label
 _atom_site_symmetry_multiplicity
 _atom_site_fract_x
 _atom_site_fract_y
 _atom_site_fract_z
 _atom_site_occupancy
  Na  Na0  1  0.50348900  0.57216000  0.21363400  1
  Na  Na1  1  0.00348900  0.42784000  0.28636600  1
  Na  Na2  1  0.49651100  0.42784000  0.78636600  1
  Na  Na3  1  0.99651100  0.57216000  0.71363400  1
  C  C4  1  0.73513100  0.78347000  0.42786300  1
  C  C5  1  0.23513100  0.21653000  0.07213700  1
  C  C6  1  0.26486900  0.21653000  0.57213700  1
  C  C7  1  0.76486900  0.78347000  0.92786300  1
  O  O8  1  0.86959600  0.81161700  0.42761100  1
  O  O9  1  0.36959600  0.18838300  0.07238900  1
  O  O10  1  0.13040400  0.18838300  0.57238900  1
  O  O11  1  0.63040400  0.81161700  0.92761100  1
  O  O12  1  0.65711700  0.99670500  0.30193300  1
  O  O13  1  0.15711700  0.00329500  0.19806700  1
  O  O14  1  0.34288300  0.00329500  0.69806700  1
  O  O15  1  0.84288300  0.99670500  0.80193300  1
  O  O16  1  0.66732400  0.53144000  0.55280200  1
  O  O17  1  0.16732400  0.46856000  0.94719800  1
  O  O18  1  0.33267600  0.46856000  0.44719800  1
  O  O19  1  0.83267600  0.53144000  0.05280200  1
