# generated using pymatgen
data_Sm2MnCoO6
_symmetry_space_group_name_H-M   'P 1'
_cell_length_a   5.38803227
_cell_length_b   5.64731900
_cell_length_c   7.70694552
_cell_angle_alpha   90.00000000
_cell_angle_beta   90.08559630
_cell_angle_gamma   90.00000000
_symmetry_Int_Tables_number   1
_chemical_formula_structural   Sm2MnCoO6
_chemical_formula_sum   'Sm4 Mn2 Co2 O12'
_cell_volume   234.50619090
_cell_formula_units_Z   2
loop_
 _symmetry_equiv_pos_site_id
 _symmetry_equiv_pos_as_xyz
  1  'x, y, z'
loop_
 _atom_site_type_symbol
 _atom_site_label
 _atom_site_symmetry_multiplicity
 _atom_site_fract_x
 _atom_site_fract_y
 _atom_site_fract_z
 _atom_site_occupancy
  Sm  Sm0  1  0.51644900  0.56519000  0.24950800  1
  Sm  Sm1  1  0.01644900  0.93481000  0.74950800  1
  Sm  Sm2  1  0.48355100  0.43481000  0.75049200  1
  Sm  Sm3  1  0.98355100  0.06519000  0.25049200  1
  Mn  Mn4  1  0.50000000  0.00000000  0.50000000  1
  Mn  Mn5  1  0.00000000  0.50000000  0.00000000  1
  Co  Co6  1  0.00000000  0.50000000  0.50000000  1
  Co  Co7  1  0.50000000  0.00000000  0.00000000  1
  O  O8  1  0.40433600  0.97282000  0.25691600  1
  O  O9  1  0.90433600  0.52718000  0.75691600  1
  O  O10  1  0.59566400  0.02718000  0.74308400  1
  O  O11  1  0.09566400  0.47282000  0.24308400  1
  O  O12  1  0.81034600  0.78883900  0.05092300  1
  O  O13  1  0.31034600  0.71116100  0.55092300  1
  O  O14  1  0.18965400  0.21116100  0.94907700  1
  O  O15  1  0.68965400  0.28883900  0.44907700  1
  O  O16  1  0.79206600  0.80634900  0.45202600  1
  O  O17  1  0.29206600  0.69365100  0.95202600  1
  O  O18  1  0.20793400  0.19365100  0.54797400  1
  O  O19  1  0.70793400  0.30634900  0.04797400  1
