# generated using pymatgen
data_U2FeSe5
_symmetry_space_group_name_H-M   'P 1'
_cell_length_a   8.30553715
_cell_length_b   8.30553715
_cell_length_c   7.34543505
_cell_angle_alpha   82.86379713
_cell_angle_beta   82.86379713
_cell_angle_gamma   46.28290845
_symmetry_Int_Tables_number   1
_chemical_formula_structural   U2FeSe5
_chemical_formula_sum   'U4 Fe2 Se10'
_cell_volume   362.86725015
_cell_formula_units_Z   2
loop_
 _symmetry_equiv_pos_site_id
 _symmetry_equiv_pos_as_xyz
  1  'x, y, z'
loop_
 _atom_site_type_symbol
 _atom_site_label
 _atom_site_symmetry_multiplicity
 _atom_site_fract_x
 _atom_site_fract_y
 _atom_site_fract_z
 _atom_site_occupancy
  U  U0  1  0.10404100  0.68003700  0.08985500  1
  U  U1  1  0.31996300  0.89595900  0.41014500  1
  U  U2  1  0.89595900  0.31996300  0.91014500  1
  U  U3  1  0.68003700  0.10404100  0.58985500  1
  Fe  Fe4  1  0.00000000  0.50000000  0.50000000  1
  Fe  Fe5  1  0.50000000  0.00000000  0.00000000  1
  Se  Se6  1  0.91041200  0.08958800  0.25000000  1
  Se  Se7  1  0.08958800  0.91041200  0.75000000  1
  Se  Se8  1  0.29927600  0.52394100  0.42805000  1
  Se  Se9  1  0.47605900  0.70072400  0.07195000  1
  Se  Se10  1  0.70072400  0.47605900  0.57195000  1
  Se  Se11  1  0.52394100  0.29927600  0.92805000  1
  Se  Se12  1  0.12999000  0.30787100  0.18990300  1
  Se  Se13  1  0.69212900  0.87001000  0.31009700  1
  Se  Se14  1  0.87001000  0.69212900  0.81009700  1
  Se  Se15  1  0.30787100  0.12999000  0.68990300  1
