# generated using pymatgen
data_Hg5NCl11
_symmetry_space_group_name_H-M   'P 1'
_cell_length_a   6.58451477
_cell_length_b   9.66272558
_cell_length_c   9.66272558
_cell_angle_alpha   100.49314487
_cell_angle_beta   107.50128931
_cell_angle_gamma   107.50128931
_symmetry_Int_Tables_number   1
_chemical_formula_structural   Hg5NCl11
_chemical_formula_sum   'Hg5 N1 Cl11'
_cell_volume   533.48968016
_cell_formula_units_Z   1
loop_
 _symmetry_equiv_pos_site_id
 _symmetry_equiv_pos_as_xyz
  1  'x, y, z'
loop_
 _atom_site_type_symbol
 _atom_site_label
 _atom_site_symmetry_multiplicity
 _atom_site_fract_x
 _atom_site_fract_y
 _atom_site_fract_z
 _atom_site_occupancy
  Hg  Hg0  1  0.50000000  0.00000000  0.00000000  1
  Hg  Hg1  1  0.81295200  0.14477600  0.48431500  1
  Hg  Hg2  1  0.81295200  0.48431500  0.14477600  1
  Hg  Hg3  1  0.18704800  0.85522400  0.51568500  1
  Hg  Hg4  1  0.18704800  0.51568500  0.85522400  1
  N  N5  1  0.50000000  0.50000000  0.50000000  1
  Cl  Cl6  1  0.88720900  0.14781300  0.14781300  1
  Cl  Cl7  1  0.11279100  0.85218700  0.85218700  1
  Cl  Cl8  1  0.43023900  0.08150100  0.33143100  1
  Cl  Cl9  1  0.43023900  0.33143100  0.08150100  1
  Cl  Cl10  1  0.56976100  0.91849900  0.66856900  1
  Cl  Cl11  1  0.56976100  0.66856900  0.91849900  1
  Cl  Cl12  1  0.19398400  0.20183000  0.63950400  1
  Cl  Cl13  1  0.19398400  0.63950400  0.20183000  1
  Cl  Cl14  1  0.80601600  0.79817000  0.36049600  1
  Cl  Cl15  1  0.80601600  0.36049600  0.79817000  1
  Cl  Cl16  1  0.00000000  0.50000000  0.50000000  1
