# generated using pymatgen
data_MgU(PbO3)2
_symmetry_space_group_name_H-M   'P 1'
_cell_length_a   5.84456200
_cell_length_b   5.87400700
_cell_length_c   10.27199057
_cell_angle_alpha   55.95925300
_cell_angle_beta   90.00000000
_cell_angle_gamma   90.00000000
_symmetry_Int_Tables_number   1
_chemical_formula_structural   MgU(PbO3)2
_chemical_formula_sum   'Mg2 U2 Pb4 O12'
_cell_volume   292.21786868
_cell_formula_units_Z   2
loop_
 _symmetry_equiv_pos_site_id
 _symmetry_equiv_pos_as_xyz
  1  'x, y, z'
loop_
 _atom_site_type_symbol
 _atom_site_label
 _atom_site_symmetry_multiplicity
 _atom_site_fract_x
 _atom_site_fract_y
 _atom_site_fract_z
 _atom_site_occupancy
  Mg  Mg0  1  0.00000000  0.50000000  0.00000000  1
  Mg  Mg1  1  0.50000000  0.50000000  0.50000000  1
  U  U2  1  0.00000000  0.00000000  0.50000000  1
  U  U3  1  0.50000000  0.00000000  0.00000000  1
  Pb  Pb4  1  0.97245300  0.28156400  0.73874200  1
  Pb  Pb5  1  0.52754700  0.28156400  0.23874200  1
  Pb  Pb6  1  0.02754700  0.71843600  0.26125800  1
  Pb  Pb7  1  0.47245300  0.71843600  0.76125800  1
  O  O8  1  0.51877600  0.30349300  0.74939800  1
  O  O9  1  0.98122400  0.30349300  0.24939800  1
  O  O10  1  0.48122400  0.69650700  0.25060200  1
  O  O11  1  0.01877600  0.69650700  0.75060200  1
  O  O12  1  0.69481000  0.71265500  0.98612100  1
  O  O13  1  0.80519000  0.71265500  0.48612100  1
  O  O14  1  0.30519000  0.28734500  0.01387900  1
  O  O15  1  0.19481000  0.28734500  0.51387900  1
  O  O16  1  0.78909000  0.17612300  0.02175100  1
  O  O17  1  0.71091000  0.17612300  0.52175100  1
  O  O18  1  0.21091000  0.82387700  0.97824900  1
  O  O19  1  0.28909000  0.82387700  0.47824900  1
