# generated using pymatgen
data_NaNbO3
_symmetry_space_group_name_H-M   'P 1'
_cell_length_a   5.62623700
_cell_length_b   5.67929500
_cell_length_c   7.88861300
_cell_angle_alpha   90.00000000
_cell_angle_beta   90.00000000
_cell_angle_gamma   90.00000000
_symmetry_Int_Tables_number   1
_chemical_formula_structural   NaNbO3
_chemical_formula_sum   'Na4 Nb4 O12'
_cell_volume   252.06532185
_cell_formula_units_Z   4
loop_
 _symmetry_equiv_pos_site_id
 _symmetry_equiv_pos_as_xyz
  1  'x, y, z'
loop_
 _atom_site_type_symbol
 _atom_site_label
 _atom_site_symmetry_multiplicity
 _atom_site_fract_x
 _atom_site_fract_y
 _atom_site_fract_z
 _atom_site_occupancy
  Na  Na0  1  0.50506000  0.50709100  0.25000000  1
  Na  Na1  1  0.99494000  0.00709100  0.25000000  1
  Na  Na2  1  0.49494000  0.49290900  0.75000000  1
  Na  Na3  1  0.00506000  0.99290900  0.75000000  1
  Nb  Nb4  1  0.50000000  0.00000000  0.00000000  1
  Nb  Nb5  1  0.00000000  0.50000000  0.50000000  1
  Nb  Nb6  1  0.50000000  0.00000000  0.50000000  1
  Nb  Nb7  1  0.00000000  0.50000000  0.00000000  1
  O  O8  1  0.43567800  0.99858000  0.25000000  1
  O  O9  1  0.06432200  0.49858000  0.25000000  1
  O  O10  1  0.56432200  0.00142000  0.75000000  1
  O  O11  1  0.93567800  0.50142000  0.75000000  1
  O  O12  1  0.75124400  0.75147000  0.03325800  1
  O  O13  1  0.74875600  0.25147000  0.46674200  1
  O  O14  1  0.24875600  0.24853000  0.53325800  1
  O  O15  1  0.25124400  0.74853000  0.96674200  1
  O  O16  1  0.24875600  0.24853000  0.96674200  1
  O  O17  1  0.25124400  0.74853000  0.53325800  1
  O  O18  1  0.75124400  0.75147000  0.46674200  1
  O  O19  1  0.74875600  0.25147000  0.03325800  1
