# generated using pymatgen
data_Rb2MnOF5
_symmetry_space_group_name_H-M   'P 1'
_cell_length_a   6.37166772
_cell_length_b   6.37166772
_cell_length_c   8.28163200
_cell_angle_alpha   90.00000000
_cell_angle_beta   90.00000000
_cell_angle_gamma   85.68323783
_symmetry_Int_Tables_number   1
_chemical_formula_structural   Rb2MnOF5
_chemical_formula_sum   'Rb4 Mn2 O2 F10'
_cell_volume   335.26513295
_cell_formula_units_Z   2
loop_
 _symmetry_equiv_pos_site_id
 _symmetry_equiv_pos_as_xyz
  1  'x, y, z'
loop_
 _atom_site_type_symbol
 _atom_site_label
 _atom_site_symmetry_multiplicity
 _atom_site_fract_x
 _atom_site_fract_y
 _atom_site_fract_z
 _atom_site_occupancy
  Rb  Rb0  1  0.02041300  0.50965000  0.25000000  1
  Rb  Rb1  1  0.49035000  0.97958700  0.75000000  1
  Rb  Rb2  1  0.97958700  0.49035000  0.75000000  1
  Rb  Rb3  1  0.50965000  0.02041300  0.25000000  1
  Mn  Mn4  1  0.00000000  0.00000000  0.50000000  1
  Mn  Mn5  1  0.00000000  0.00000000  0.00000000  1
  O  O6  1  0.52467900  0.52467900  0.25000000  1
  O  O7  1  0.47532000  0.47532000  0.75000000  1
  F  F8  1  0.99334200  0.99334200  0.25000000  1
  F  F9  1  0.00665800  0.00665800  0.75000000  1
  F  F10  1  0.78397600  0.21602400  0.50000000  1
  F  F11  1  0.78397600  0.21602400  0.00000000  1
  F  F12  1  0.21602400  0.78397600  0.50000000  1
  F  F13  1  0.21602400  0.78397600  0.00000000  1
  F  F14  1  0.20051400  0.20051400  0.49356900  1
  F  F15  1  0.79948600  0.79948600  0.50643100  1
  F  F16  1  0.20051400  0.20051400  0.00643100  1
  F  F17  1  0.79948600  0.79948600  0.99356900  1
