# generated using pymatgen
data_Zr2Si4Ni3
_symmetry_space_group_name_H-M   'P 1'
_cell_length_a   7.35912595
_cell_length_b   7.35912595
_cell_length_c   6.90389900
_cell_angle_alpha   90.00000000
_cell_angle_beta   90.00000000
_cell_angle_gamma   138.66902119
_symmetry_Int_Tables_number   1
_chemical_formula_structural   Zr2Si4Ni3
_chemical_formula_sum   'Zr4 Si8 Ni6'
_cell_volume   246.92159493
_cell_formula_units_Z   2
loop_
 _symmetry_equiv_pos_site_id
 _symmetry_equiv_pos_as_xyz
  1  'x, y, z'
loop_
 _atom_site_type_symbol
 _atom_site_label
 _atom_site_symmetry_multiplicity
 _atom_site_fract_x
 _atom_site_fract_y
 _atom_site_fract_z
 _atom_site_occupancy
  Zr  Zr0  1  0.10443700  0.89556300  0.59839700  1
  Zr  Zr1  1  0.89556300  0.10443700  0.40160300  1
  Zr  Zr2  1  0.39556300  0.60443700  0.09839700  1
  Zr  Zr3  1  0.60443700  0.39556300  0.90160300  1
  Si  Si4  1  0.81152300  0.68847700  0.25000000  1
  Si  Si5  1  0.68847700  0.81152300  0.75000000  1
  Si  Si6  1  0.18847700  0.31152300  0.75000000  1
  Si  Si7  1  0.31152300  0.18847700  0.25000000  1
  Si  Si8  1  0.18246500  0.81753500  0.97687200  1
  Si  Si9  1  0.81753500  0.18246500  0.02312800  1
  Si  Si10  1  0.31753500  0.68246500  0.47687200  1
  Si  Si11  1  0.68246500  0.31753500  0.52312800  1
  Ni  Ni12  1  0.00000000  0.00000000  0.00000000  1
  Ni  Ni13  1  0.50000000  0.50000000  0.50000000  1
  Ni  Ni14  1  0.97710100  0.52289900  0.25000000  1
  Ni  Ni15  1  0.52289900  0.97710100  0.75000000  1
  Ni  Ni16  1  0.02289900  0.47710100  0.75000000  1
  Ni  Ni17  1  0.47710100  0.02289900  0.25000000  1
