# generated using pymatgen
data_Lu(ClO2)3
_symmetry_space_group_name_H-M   'P 1'
_cell_length_a   7.27435600
_cell_length_b   4.92446680
_cell_length_c   10.99073670
_cell_angle_alpha   86.34032019
_cell_angle_beta   90.00000000
_cell_angle_gamma   90.00000000
_symmetry_Int_Tables_number   1
_chemical_formula_structural   Lu(ClO2)3
_chemical_formula_sum   'Lu2 Cl6 O12'
_cell_volume   392.91087019
_cell_formula_units_Z   2
loop_
 _symmetry_equiv_pos_site_id
 _symmetry_equiv_pos_as_xyz
  1  'x, y, z'
loop_
 _atom_site_type_symbol
 _atom_site_label
 _atom_site_symmetry_multiplicity
 _atom_site_fract_x
 _atom_site_fract_y
 _atom_site_fract_z
 _atom_site_occupancy
  Lu  Lu0  1  0.26701300  0.25000000  0.25000000  1
  Lu  Lu1  1  0.73298700  0.75000000  0.75000000  1
  Cl  Cl2  1  0.76874600  0.19126700  0.48528700  1
  Cl  Cl3  1  0.23125400  0.80873300  0.51471300  1
  Cl  Cl4  1  0.76874600  0.30873300  0.01471300  1
  Cl  Cl5  1  0.23125400  0.69126700  0.98528700  1
  Cl  Cl6  1  0.39352000  0.25000000  0.75000000  1
  Cl  Cl7  1  0.60648000  0.75000000  0.25000000  1
  O  O8  1  0.06030700  0.87368000  0.22635000  1
  O  O9  1  0.93969300  0.12632000  0.77365000  1
  O  O10  1  0.06030700  0.62632000  0.27365000  1
  O  O11  1  0.93969300  0.37368000  0.72635000  1
  O  O12  1  0.48461800  0.51274900  0.30733900  1
  O  O13  1  0.51538200  0.48725100  0.69266100  1
  O  O14  1  0.48461800  0.98725100  0.19266100  1
  O  O15  1  0.51538200  0.01274900  0.80733900  1
  O  O16  1  0.22130000  0.40670600  0.06898200  1
  O  O17  1  0.77870000  0.59329400  0.93101800  1
  O  O18  1  0.22130000  0.09329400  0.43101800  1
  O  O19  1  0.77870000  0.90670600  0.56898200  1
