# generated using pymatgen
data_Ti3Ge
_symmetry_space_group_name_H-M   'P 1'
_cell_length_a   7.66857756
_cell_length_b   7.66857756
_cell_length_c   7.66857756
_cell_angle_alpha   96.44597366
_cell_angle_beta   96.44597366
_cell_angle_gamma   140.84743019
_symmetry_Int_Tables_number   1
_chemical_formula_structural   Ti3Ge
_chemical_formula_sum   'Ti12 Ge4'
_cell_volume   268.27600609
_cell_formula_units_Z   4
loop_
 _symmetry_equiv_pos_site_id
 _symmetry_equiv_pos_as_xyz
  1  'x, y, z'
loop_
 _atom_site_type_symbol
 _atom_site_label
 _atom_site_symmetry_multiplicity
 _atom_site_fract_x
 _atom_site_fract_y
 _atom_site_fract_z
 _atom_site_occupancy
  Ti  Ti0  1  0.32191900  0.29961100  0.18814100  1
  Ti  Ti1  1  0.11147000  0.13377800  0.81185900  1
  Ti  Ti2  1  0.86622200  0.67808100  0.97769200  1
  Ti  Ti3  1  0.70038900  0.88853000  0.02230800  1
  Ti  Ti4  1  0.00845700  0.33902100  0.38014400  1
  Ti  Ti5  1  0.95887700  0.62831300  0.61985600  1
  Ti  Ti6  1  0.37168700  0.99154300  0.33056400  1
  Ti  Ti7  1  0.66097900  0.04112300  0.66943600  1
  Ti  Ti8  1  0.97813300  0.94877400  0.40290500  1
  Ti  Ti9  1  0.54587000  0.57522900  0.59709500  1
  Ti  Ti10  1  0.42477100  0.02186700  0.97064100  1
  Ti  Ti11  1  0.05122600  0.45413000  0.02935900  1
  Ge  Ge12  1  0.51157400  0.76934700  0.32451700  1
  Ge  Ge13  1  0.44483000  0.18705700  0.67548300  1
  Ge  Ge14  1  0.81294300  0.48842600  0.25777300  1
  Ge  Ge15  1  0.23065300  0.55517000  0.74222700  1
