# generated using pymatgen
data_CsKC2
_symmetry_space_group_name_H-M   'P 1'
_cell_length_a   5.89163400
_cell_length_b   8.21703900
_cell_length_c   9.21621600
_cell_angle_alpha   90.00000000
_cell_angle_beta   90.00000000
_cell_angle_gamma   90.00000000
_symmetry_Int_Tables_number   1
_chemical_formula_structural   CsKC2
_chemical_formula_sum   'Cs4 K4 C8'
_cell_volume   446.17347996
_cell_formula_units_Z   4
loop_
 _symmetry_equiv_pos_site_id
 _symmetry_equiv_pos_as_xyz
  1  'x, y, z'
loop_
 _atom_site_type_symbol
 _atom_site_label
 _atom_site_symmetry_multiplicity
 _atom_site_fract_x
 _atom_site_fract_y
 _atom_site_fract_z
 _atom_site_occupancy
  Cs  Cs0  1  0.75000000  0.01396000  0.67985100  1
  Cs  Cs1  1  0.75000000  0.51396000  0.82014900  1
  Cs  Cs2  1  0.25000000  0.98604000  0.32014900  1
  Cs  Cs3  1  0.25000000  0.48604000  0.17985100  1
  K  K4  1  0.75000000  0.64426500  0.41985000  1
  K  K5  1  0.75000000  0.14426500  0.08015000  1
  K  K6  1  0.25000000  0.35573500  0.58015000  1
  K  K7  1  0.25000000  0.85573500  0.91985000  1
  C  C8  1  0.85749000  0.27331800  0.39040000  1
  C  C9  1  0.64251000  0.77331800  0.10960000  1
  C  C10  1  0.35749000  0.72668200  0.60960000  1
  C  C11  1  0.14251000  0.22668200  0.89040000  1
  C  C12  1  0.14251000  0.72668200  0.60960000  1
  C  C13  1  0.35749000  0.22668200  0.89040000  1
  C  C14  1  0.64251000  0.27331800  0.39040000  1
  C  C15  1  0.85749000  0.77331800  0.10960000  1
