# generated using pymatgen
data_Mn3(AsO7)2
_symmetry_space_group_name_H-M   'P 1'
_cell_length_a   5.42134900
_cell_length_b   5.43041139
_cell_length_c   9.67021810
_cell_angle_alpha   95.77431144
_cell_angle_beta   91.23224642
_cell_angle_gamma   113.65095954
_symmetry_Int_Tables_number   1
_chemical_formula_structural   Mn3(AsO7)2
_chemical_formula_sum   'Mn3 As2 O14'
_cell_volume   258.85860141
_cell_formula_units_Z   1
loop_
 _symmetry_equiv_pos_site_id
 _symmetry_equiv_pos_as_xyz
  1  'x, y, z'
loop_
 _atom_site_type_symbol
 _atom_site_label
 _atom_site_symmetry_multiplicity
 _atom_site_fract_x
 _atom_site_fract_y
 _atom_site_fract_z
 _atom_site_occupancy
  Mn  Mn0  1  0.38964300  0.22124700  0.51105700  1
  Mn  Mn1  1  0.99539000  0.00449900  0.99903300  1
  Mn  Mn2  1  0.49582200  0.50468800  0.00100000  1
  As  As3  1  0.49707200  0.07373700  0.19950800  1
  As  As4  1  0.48740800  0.93399100  0.79676200  1
  O  O5  1  0.15960400  0.90171700  0.14854400  1
  O  O6  1  0.82794000  0.09625500  0.84384200  1
  O  O7  1  0.65390800  0.88453700  0.09898900  1
  O  O8  1  0.34103000  0.12672500  0.90607900  1
  O  O9  1  0.64721900  0.39643900  0.15395000  1
  O  O10  1  0.34558100  0.61349600  0.84671000  1
  O  O11  1  0.56204200  0.06342100  0.37126100  1
  O  O12  1  0.38660400  0.92106700  0.62886700  1
  O  O13  1  0.15824200  0.36771100  0.07467200  1
  O  O14  1  0.83051700  0.63829400  0.92439800  1
  O  O15  1  0.27635900  0.36797500  0.39125100  1
  O  O16  1  0.11585300  0.26325200  0.59353300  1
  O  O17  1  0.04965000  0.91921900  0.45367600  1
  O  O18  1  0.65401400  0.43382700  0.60116900  1
