# generated using pymatgen
data_Na3ScCl6
_symmetry_space_group_name_H-M   'P 1'
_cell_length_a   7.21559600
_cell_length_b   6.78838900
_cell_length_c   12.03134667
_cell_angle_alpha   56.20314846
_cell_angle_beta   90.00000000
_cell_angle_gamma   90.00000000
_symmetry_Int_Tables_number   1
_chemical_formula_structural   Na3ScCl6
_chemical_formula_sum   'Na6 Sc2 Cl12'
_cell_volume   489.73602653
_cell_formula_units_Z   2
loop_
 _symmetry_equiv_pos_site_id
 _symmetry_equiv_pos_as_xyz
  1  'x, y, z'
loop_
 _atom_site_type_symbol
 _atom_site_label
 _atom_site_symmetry_multiplicity
 _atom_site_fract_x
 _atom_site_fract_y
 _atom_site_fract_z
 _atom_site_occupancy
  Na  Na0  1  0.92063700  0.71595600  0.75763800  1
  Na  Na1  1  0.57936300  0.71595600  0.25763800  1
  Na  Na2  1  0.07936300  0.28404400  0.24236200  1
  Na  Na3  1  0.42063700  0.28404400  0.74236200  1
  Na  Na4  1  0.00000000  0.50000000  0.50000000  1
  Na  Na5  1  0.50000000  0.50000000  0.00000000  1
  Sc  Sc6  1  0.50000000  0.00000000  0.50000000  1
  Sc  Sc7  1  0.00000000  0.00000000  0.00000000  1
  Cl  Cl8  1  0.55459300  0.89854700  0.73357400  1
  Cl  Cl9  1  0.94540700  0.89854700  0.23357400  1
  Cl  Cl10  1  0.44540700  0.10145300  0.26642600  1
  Cl  Cl11  1  0.05459300  0.10145300  0.76642600  1
  Cl  Cl12  1  0.79481200  0.23858500  0.42595100  1
  Cl  Cl13  1  0.70518800  0.23858500  0.92595100  1
  Cl  Cl14  1  0.20518800  0.76141500  0.57404900  1
  Cl  Cl15  1  0.29481200  0.76141500  0.07404900  1
  Cl  Cl16  1  0.67559600  0.63635300  0.56069500  1
  Cl  Cl17  1  0.82440400  0.63635300  0.06069500  1
  Cl  Cl18  1  0.32440400  0.36364700  0.43930500  1
  Cl  Cl19  1  0.17559600  0.36364700  0.93930500  1
