# generated using pymatgen
data_NiH2(CN2)2
_symmetry_space_group_name_H-M   'P 1'
_cell_length_a   3.31522900
_cell_length_b   6.69327600
_cell_length_c   8.59282500
_cell_angle_alpha   90.00000000
_cell_angle_beta   90.00000000
_cell_angle_gamma   90.00000000
_symmetry_Int_Tables_number   1
_chemical_formula_structural   NiH2(CN2)2
_chemical_formula_sum   'Ni2 H4 C4 N8'
_cell_volume   190.67257582
_cell_formula_units_Z   2
loop_
 _symmetry_equiv_pos_site_id
 _symmetry_equiv_pos_as_xyz
  1  'x, y, z'
loop_
 _atom_site_type_symbol
 _atom_site_label
 _atom_site_symmetry_multiplicity
 _atom_site_fract_x
 _atom_site_fract_y
 _atom_site_fract_z
 _atom_site_occupancy
  Ni  Ni0  1  0.50000000  0.50000000  0.50000000  1
  Ni  Ni1  1  0.00000000  0.00000000  0.00000000  1
  H  H2  1  0.50000000  0.28834100  0.93742200  1
  H  H3  1  0.50000000  0.71165900  0.06257800  1
  H  H4  1  0.00000000  0.78834100  0.56257800  1
  H  H5  1  0.00000000  0.21165900  0.43742200  1
  C  C6  1  0.50000000  0.31850500  0.16269300  1
  C  C7  1  0.50000000  0.68149500  0.83730700  1
  C  C8  1  0.00000000  0.81850500  0.33730700  1
  C  C9  1  0.00000000  0.18149500  0.66269300  1
  N  N10  1  0.50000000  0.79270100  0.96170600  1
  N  N11  1  0.50000000  0.20729900  0.03829400  1
  N  N12  1  0.00000000  0.29270100  0.53829400  1
  N  N13  1  0.00000000  0.70729900  0.46170600  1
  N  N14  1  0.50000000  0.59164600  0.71909500  1
  N  N15  1  0.50000000  0.40835400  0.28090500  1
  N  N16  1  0.00000000  0.09164600  0.78090500  1
  N  N17  1  0.00000000  0.90835400  0.21909500  1
