# generated using pymatgen
data_CeBS3
_symmetry_space_group_name_H-M   'P 1'
_cell_length_a   6.00113800
_cell_length_b   7.66587700
_cell_length_c   8.99070700
_cell_angle_alpha   90.00000000
_cell_angle_beta   90.00000000
_cell_angle_gamma   90.00000000
_symmetry_Int_Tables_number   1
_chemical_formula_structural   CeBS3
_chemical_formula_sum   'Ce4 B4 S12'
_cell_volume   413.60835687
_cell_formula_units_Z   4
loop_
 _symmetry_equiv_pos_site_id
 _symmetry_equiv_pos_as_xyz
  1  'x, y, z'
loop_
 _atom_site_type_symbol
 _atom_site_label
 _atom_site_symmetry_multiplicity
 _atom_site_fract_x
 _atom_site_fract_y
 _atom_site_fract_z
 _atom_site_occupancy
  Ce  Ce0  1  0.92992500  0.38364400  0.25589500  1
  Ce  Ce1  1  0.07007500  0.61635600  0.75589500  1
  Ce  Ce2  1  0.42992500  0.11635600  0.75589500  1
  Ce  Ce3  1  0.57007500  0.88364400  0.25589500  1
  B  B4  1  0.09511300  0.84627100  0.42704200  1
  B  B5  1  0.90488700  0.15372900  0.92704200  1
  B  B6  1  0.59511300  0.65372900  0.92704200  1
  B  B7  1  0.40488700  0.34627100  0.42704200  1
  S  S8  1  0.59147700  0.50667900  0.76985200  1
  S  S9  1  0.40852300  0.49332100  0.26985200  1
  S  S10  1  0.09147700  0.99332100  0.26985200  1
  S  S11  1  0.90852300  0.00667900  0.76985200  1
  S  S12  1  0.83520900  0.67725000  0.04957000  1
  S  S13  1  0.16479100  0.32275000  0.54957000  1
  S  S14  1  0.33520900  0.82275000  0.54957000  1
  S  S15  1  0.66479100  0.17725000  0.04957000  1
  S  S16  1  0.36330900  0.80414900  0.95688100  1
  S  S17  1  0.63669100  0.19585100  0.45688100  1
  S  S18  1  0.86330900  0.69585100  0.45688100  1
  S  S19  1  0.13669100  0.30414900  0.95688100  1
