# generated using pymatgen
data_BaTa4O14
_symmetry_space_group_name_H-M   'P 1'
_cell_length_a   7.52941262
_cell_length_b   7.52941262
_cell_length_c   7.52941293
_cell_angle_alpha   60.43202610
_cell_angle_beta   60.43202610
_cell_angle_gamma   60.43202085
_symmetry_Int_Tables_number   1
_chemical_formula_structural   BaTa4O14
_chemical_formula_sum   'Ba1 Ta4 O14'
_cell_volume   304.78243082
_cell_formula_units_Z   1
loop_
 _symmetry_equiv_pos_site_id
 _symmetry_equiv_pos_as_xyz
  1  'x, y, z'
loop_
 _atom_site_type_symbol
 _atom_site_label
 _atom_site_symmetry_multiplicity
 _atom_site_fract_x
 _atom_site_fract_y
 _atom_site_fract_z
 _atom_site_occupancy
  Ba  Ba0  1  0.50000000  0.50000000  0.50000000  1
  Ta  Ta1  1  0.00000000  0.00000000  0.00000000  1
  Ta  Ta2  1  0.50000000  0.00000000  0.00000000  1
  Ta  Ta3  1  0.00000000  0.00000000  0.50000000  1
  Ta  Ta4  1  0.00000000  0.50000000  0.00000000  1
  O  O5  1  0.93323800  0.30896600  0.30896600  1
  O  O6  1  0.31019100  0.93934100  0.93934100  1
  O  O7  1  0.30896600  0.30896600  0.93323800  1
  O  O8  1  0.93934100  0.93934100  0.31019100  1
  O  O9  1  0.93934100  0.31019100  0.93934100  1
  O  O10  1  0.30896600  0.93323800  0.30896600  1
  O  O11  1  0.06676200  0.69103400  0.69103400  1
  O  O12  1  0.68980900  0.06065900  0.06065900  1
  O  O13  1  0.69103400  0.69103400  0.06676200  1
  O  O14  1  0.06065900  0.06065900  0.68980900  1
  O  O15  1  0.06065900  0.68980900  0.06065900  1
  O  O16  1  0.69103400  0.06676200  0.69103400  1
  O  O17  1  0.33571600  0.33571600  0.33571600  1
  O  O18  1  0.66428400  0.66428400  0.66428400  1
