# generated using pymatgen
data_LuAgSe2
_symmetry_space_group_name_H-M   'P 1'
_cell_length_a   4.19089800
_cell_length_b   6.81529300
_cell_length_c   13.67793700
_cell_angle_alpha   90.00000000
_cell_angle_beta   90.00000000
_cell_angle_gamma   90.00000000
_symmetry_Int_Tables_number   1
_chemical_formula_structural   LuAgSe2
_chemical_formula_sum   'Lu4 Ag4 Se8'
_cell_volume   390.67194213
_cell_formula_units_Z   4
loop_
 _symmetry_equiv_pos_site_id
 _symmetry_equiv_pos_as_xyz
  1  'x, y, z'
loop_
 _atom_site_type_symbol
 _atom_site_label
 _atom_site_symmetry_multiplicity
 _atom_site_fract_x
 _atom_site_fract_y
 _atom_site_fract_z
 _atom_site_occupancy
  Lu  Lu0  1  0.27225700  0.71034800  0.62883900  1
  Lu  Lu1  1  0.77225700  0.78965200  0.37116100  1
  Lu  Lu2  1  0.72774300  0.21034800  0.87116100  1
  Lu  Lu3  1  0.22774300  0.28965200  0.12883900  1
  Ag  Ag4  1  0.49920700  0.70581300  0.87760700  1
  Ag  Ag5  1  0.99920700  0.79418700  0.12239300  1
  Ag  Ag6  1  0.50079300  0.20581300  0.62239300  1
  Ag  Ag7  1  0.00079300  0.29418700  0.37760700  1
  Se  Se8  1  0.77219200  0.91289700  0.72686500  1
  Se  Se9  1  0.27219200  0.58710300  0.27313500  1
  Se  Se10  1  0.22780800  0.41289700  0.77313500  1
  Se  Se11  1  0.72780800  0.08710300  0.22686500  1
  Se  Se12  1  0.76966200  0.51765300  0.52802100  1
  Se  Se13  1  0.26966200  0.98234700  0.47197900  1
  Se  Se14  1  0.23033800  0.01765300  0.97197900  1
  Se  Se15  1  0.73033800  0.48234700  0.02802100  1
