# generated using pymatgen
data_Tm3Pt
_symmetry_space_group_name_H-M   'P 1'
_cell_length_a   6.44481800
_cell_length_b   6.94662000
_cell_length_c   9.42644800
_cell_angle_alpha   90.00000000
_cell_angle_beta   90.00000000
_cell_angle_gamma   90.00000000
_symmetry_Int_Tables_number   1
_chemical_formula_structural   Tm3Pt
_chemical_formula_sum   'Tm12 Pt4'
_cell_volume   422.01926425
_cell_formula_units_Z   4
loop_
 _symmetry_equiv_pos_site_id
 _symmetry_equiv_pos_as_xyz
  1  'x, y, z'
loop_
 _atom_site_type_symbol
 _atom_site_label
 _atom_site_symmetry_multiplicity
 _atom_site_fract_x
 _atom_site_fract_y
 _atom_site_fract_z
 _atom_site_occupancy
  Tm  Tm0  1  0.32022500  0.68133100  0.06087200  1
  Tm  Tm1  1  0.17977500  0.18133100  0.43912800  1
  Tm  Tm2  1  0.67977500  0.31866900  0.56087200  1
  Tm  Tm3  1  0.82022500  0.81866900  0.93912800  1
  Tm  Tm4  1  0.67977500  0.31866900  0.93912800  1
  Tm  Tm5  1  0.82022500  0.81866900  0.56087200  1
  Tm  Tm6  1  0.32022500  0.68133100  0.43912800  1
  Tm  Tm7  1  0.17977500  0.18133100  0.06087200  1
  Tm  Tm8  1  0.86900000  0.52646000  0.25000000  1
  Tm  Tm9  1  0.63100000  0.02646000  0.25000000  1
  Tm  Tm10  1  0.13100000  0.47354000  0.75000000  1
  Tm  Tm11  1  0.36900000  0.97354000  0.75000000  1
  Pt  Pt12  1  0.04845500  0.88995800  0.25000000  1
  Pt  Pt13  1  0.45154500  0.38995800  0.25000000  1
  Pt  Pt14  1  0.95154500  0.11004200  0.75000000  1
  Pt  Pt15  1  0.54845500  0.61004200  0.75000000  1
