# generated using pymatgen
data_AgC4NCl2
_symmetry_space_group_name_H-M   'P 1'
_cell_length_a   8.92560317
_cell_length_b   8.92560317
_cell_length_c   8.92560317
_cell_angle_alpha   132.96705609
_cell_angle_beta   130.55296158
_cell_angle_gamma   70.62628472
_symmetry_Int_Tables_number   1
_chemical_formula_structural   AgC4NCl2
_chemical_formula_sum   'Ag2 C8 N2 Cl4'
_cell_volume   387.32702145
_cell_formula_units_Z   2
loop_
 _symmetry_equiv_pos_site_id
 _symmetry_equiv_pos_as_xyz
  1  'x, y, z'
loop_
 _atom_site_type_symbol
 _atom_site_label
 _atom_site_symmetry_multiplicity
 _atom_site_fract_x
 _atom_site_fract_y
 _atom_site_fract_z
 _atom_site_occupancy
  Ag  Ag0  1  0.50000000  0.75153900  0.25153900  1
  Ag  Ag1  1  0.50000000  0.24846100  0.74846100  1
  C  C2  1  0.34890000  0.25393300  0.09496700  1
  C  C3  1  0.84103400  0.74606700  0.09496700  1
  C  C4  1  0.15896500  0.25393300  0.90503300  1
  C  C5  1  0.65110000  0.74606700  0.90503300  1
  C  C6  1  0.16587500  0.98727600  0.82140100  1
  C  C7  1  0.83412500  0.01272400  0.17859900  1
  C  C8  1  0.16587500  0.34447400  0.17859900  1
  C  C9  1  0.83412500  0.65552600  0.82140100  1
  N  N10  1  0.14026900  0.14026900  0.00000000  1
  N  N11  1  0.85973100  0.85973100  0.00000000  1
  Cl  Cl12  1  0.62101700  0.12101700  0.50000000  1
  Cl  Cl13  1  0.37898300  0.87898300  0.50000000  1
  Cl  Cl14  1  0.26796100  0.50000000  0.76796100  1
  Cl  Cl15  1  0.73203900  0.50000000  0.23203900  1
