# generated using pymatgen
data_Tb(ClO2)3
_symmetry_space_group_name_H-M   'P 1'
_cell_length_a   5.47311600
_cell_length_b   7.18969100
_cell_length_c   10.47870215
_cell_angle_alpha   90.00000000
_cell_angle_beta   116.30339704
_cell_angle_gamma   90.00000000
_symmetry_Int_Tables_number   1
_chemical_formula_structural   Tb(ClO2)3
_chemical_formula_sum   'Tb2 Cl6 O12'
_cell_volume   369.64375033
_cell_formula_units_Z   2
loop_
 _symmetry_equiv_pos_site_id
 _symmetry_equiv_pos_as_xyz
  1  'x, y, z'
loop_
 _atom_site_type_symbol
 _atom_site_label
 _atom_site_symmetry_multiplicity
 _atom_site_fract_x
 _atom_site_fract_y
 _atom_site_fract_z
 _atom_site_occupancy
  Tb  Tb0  1  0.00000000  0.31022400  0.25000000  1
  Tb  Tb1  1  0.00000000  0.68977600  0.75000000  1
  Cl  Cl2  1  0.28613800  0.78490100  0.50241200  1
  Cl  Cl3  1  0.71386200  0.21509900  0.49758800  1
  Cl  Cl4  1  0.71386200  0.78490100  0.99758800  1
  Cl  Cl5  1  0.28613800  0.21509900  0.00241200  1
  Cl  Cl6  1  0.50000000  0.52164500  0.75000000  1
  Cl  Cl7  1  0.50000000  0.47835500  0.25000000  1
  O  O8  1  0.81602600  0.16380500  0.38220000  1
  O  O9  1  0.18397400  0.83619500  0.61780000  1
  O  O10  1  0.18397400  0.16380500  0.11780000  1
  O  O11  1  0.81602600  0.83619500  0.88220000  1
  O  O12  1  0.77906500  0.58631900  0.28070600  1
  O  O13  1  0.22093500  0.41368100  0.71929400  1
  O  O14  1  0.22093500  0.58631900  0.21929400  1
  O  O15  1  0.77906500  0.41368100  0.78070600  1
  O  O16  1  0.60841400  0.20276700  0.06624600  1
  O  O17  1  0.39158600  0.79723300  0.93375400  1
  O  O18  1  0.39158600  0.20276700  0.43375400  1
  O  O19  1  0.60841400  0.79723300  0.56624600  1
