# generated using pymatgen
data_TbAl3
_symmetry_space_group_name_H-M   'P 1'
_cell_length_a   12.51424961
_cell_length_b   12.51424961
_cell_length_c   12.51424927
_cell_angle_alpha   28.41832250
_cell_angle_beta   28.41832250
_cell_angle_gamma   28.41832595
_symmetry_Int_Tables_number   1
_chemical_formula_structural   TbAl3
_chemical_formula_sum   'Tb5 Al15'
_cell_volume   392.27412831
_cell_formula_units_Z   5
loop_
 _symmetry_equiv_pos_site_id
 _symmetry_equiv_pos_as_xyz
  1  'x, y, z'
loop_
 _atom_site_type_symbol
 _atom_site_label
 _atom_site_symmetry_multiplicity
 _atom_site_fract_x
 _atom_site_fract_y
 _atom_site_fract_z
 _atom_site_occupancy
  Tb  Tb0  1  0.00000000  0.00000000  0.00000000  1
  Tb  Tb1  1  0.86924100  0.86924100  0.86924100  1
  Tb  Tb2  1  0.13075900  0.13075900  0.13075900  1
  Tb  Tb3  1  0.59983500  0.59983500  0.59983500  1
  Tb  Tb4  1  0.40016500  0.40016500  0.40016500  1
  Al  Al5  1  0.50000000  0.50000000  0.00000000  1
  Al  Al6  1  0.00000000  0.50000000  0.50000000  1
  Al  Al7  1  0.50000000  0.00000000  0.50000000  1
  Al  Al8  1  0.36354100  0.87184800  0.36354100  1
  Al  Al9  1  0.36354100  0.36354100  0.87184800  1
  Al  Al10  1  0.87184800  0.36354100  0.36354100  1
  Al  Al11  1  0.63645900  0.12815200  0.63645900  1
  Al  Al12  1  0.63645900  0.63645900  0.12815200  1
  Al  Al13  1  0.12815200  0.63645900  0.63645900  1
  Al  Al14  1  0.11896100  0.56281600  0.11896100  1
  Al  Al15  1  0.11896100  0.11896100  0.56281600  1
  Al  Al16  1  0.56281600  0.11896100  0.11896100  1
  Al  Al17  1  0.88103900  0.43718400  0.88103900  1
  Al  Al18  1  0.88103900  0.88103900  0.43718400  1
  Al  Al19  1  0.43718400  0.88103900  0.88103900  1
