# generated using pymatgen
data_CeAsN(O2F)2
_symmetry_space_group_name_H-M   'P 1'
_cell_length_a   7.01593100
_cell_length_b   5.98129500
_cell_length_c   7.36101997
_cell_angle_alpha   90.00000000
_cell_angle_beta   112.59294721
_cell_angle_gamma   90.00000000
_symmetry_Int_Tables_number   1
_chemical_formula_structural   CeAsN(O2F)2
_chemical_formula_sum   'Ce2 As2 N2 O8 F4'
_cell_volume   285.19465289
_cell_formula_units_Z   2
loop_
 _symmetry_equiv_pos_site_id
 _symmetry_equiv_pos_as_xyz
  1  'x, y, z'
loop_
 _atom_site_type_symbol
 _atom_site_label
 _atom_site_symmetry_multiplicity
 _atom_site_fract_x
 _atom_site_fract_y
 _atom_site_fract_z
 _atom_site_occupancy
  Ce  Ce0  1  0.38745500  0.75000000  0.31949600  1
  Ce  Ce1  1  0.61254500  0.25000000  0.68050400  1
  As  As2  1  0.77483600  0.75000000  0.04446200  1
  As  As3  1  0.22516400  0.25000000  0.95553800  1
  N  N4  1  0.05105900  0.75000000  0.67762400  1
  N  N5  1  0.94894100  0.25000000  0.32237600  1
  O  O6  1  0.00232300  0.75000000  0.24761700  1
  O  O7  1  0.99767700  0.25000000  0.75238300  1
  O  O8  1  0.76077000  0.98070400  0.90058100  1
  O  O9  1  0.23923000  0.48070400  0.09941900  1
  O  O10  1  0.23923000  0.01929600  0.09941900  1
  O  O11  1  0.76077000  0.51929600  0.90058100  1
  O  O12  1  0.56450800  0.75000000  0.10673300  1
  O  O13  1  0.43549200  0.25000000  0.89326700  1
  F  F14  1  0.65393000  0.00396800  0.45638600  1
  F  F15  1  0.34607000  0.50396800  0.54361400  1
  F  F16  1  0.34607000  0.99603200  0.54361400  1
  F  F17  1  0.65393000  0.49603200  0.45638600  1
