# generated using pymatgen
data_GeN2F5
_symmetry_space_group_name_H-M   'P 1'
_cell_length_a   5.54959300
_cell_length_b   5.54959300
_cell_length_c   8.35609900
_cell_angle_alpha   90.00000000
_cell_angle_beta   90.00000000
_cell_angle_gamma   90.00000000
_symmetry_Int_Tables_number   1
_chemical_formula_structural   GeN2F5
_chemical_formula_sum   'Ge2 N4 F10'
_cell_volume   257.35099048
_cell_formula_units_Z   2
loop_
 _symmetry_equiv_pos_site_id
 _symmetry_equiv_pos_as_xyz
  1  'x, y, z'
loop_
 _atom_site_type_symbol
 _atom_site_label
 _atom_site_symmetry_multiplicity
 _atom_site_fract_x
 _atom_site_fract_y
 _atom_site_fract_z
 _atom_site_occupancy
  Ge  Ge0  1  0.00000000  0.50000000  0.23292500  1
  Ge  Ge1  1  0.50000000  0.00000000  0.76707500  1
  N  N2  1  0.00000000  0.50000000  0.71913500  1
  N  N3  1  0.50000000  0.00000000  0.28086500  1
  N  N4  1  0.00000000  0.00000000  0.00000000  1
  N  N5  1  0.50000000  0.50000000  0.00000000  1
  F  F6  1  0.00000000  0.50000000  0.02415600  1
  F  F7  1  0.50000000  0.00000000  0.97584400  1
  F  F8  1  0.18778300  0.75412200  0.28198400  1
  F  F9  1  0.81221700  0.24587800  0.28198400  1
  F  F10  1  0.25412200  0.31221700  0.28198400  1
  F  F11  1  0.74587800  0.68778300  0.28198400  1
  F  F12  1  0.31221700  0.74587800  0.71801600  1
  F  F13  1  0.68778300  0.25412200  0.71801600  1
  F  F14  1  0.24587800  0.18778300  0.71801600  1
  F  F15  1  0.75412200  0.81221700  0.71801600  1
