# generated using pymatgen
data_ErNiO3
_symmetry_space_group_name_H-M   'P 1'
_cell_length_a   5.55904100
_cell_length_b   5.18140200
_cell_length_c   9.05827700
_cell_angle_alpha   55.06460695
_cell_angle_beta   90.00000000
_cell_angle_gamma   90.00000000
_symmetry_Int_Tables_number   1
_chemical_formula_structural   ErNiO3
_chemical_formula_sum   'Er4 Ni4 O12'
_cell_volume   213.89457569
_cell_formula_units_Z   4
loop_
 _symmetry_equiv_pos_site_id
 _symmetry_equiv_pos_as_xyz
  1  'x, y, z'
loop_
 _atom_site_type_symbol
 _atom_site_label
 _atom_site_symmetry_multiplicity
 _atom_site_fract_x
 _atom_site_fract_y
 _atom_site_fract_z
 _atom_site_occupancy
  Er  Er0  1  0.57589900  0.72818000  0.75116600  1
  Er  Er1  1  0.92410100  0.72818000  0.25116600  1
  Er  Er2  1  0.42410100  0.27182000  0.24883400  1
  Er  Er3  1  0.07589900  0.27182000  0.74883400  1
  Ni  Ni4  1  0.50000000  0.50000000  0.50000000  1
  Ni  Ni5  1  0.00000000  0.50000000  0.00000000  1
  Ni  Ni6  1  0.50000000  0.00000000  0.00000000  1
  Ni  Ni7  1  0.00000000  0.00000000  0.50000000  1
  O  O8  1  0.96450500  0.86301200  0.74498700  1
  O  O9  1  0.53549500  0.86301200  0.24498700  1
  O  O10  1  0.03549500  0.13698800  0.25501300  1
  O  O11  1  0.46450500  0.13698800  0.75501300  1
  O  O12  1  0.81130500  0.64601800  0.55168500  1
  O  O13  1  0.68869500  0.64601800  0.05168500  1
  O  O14  1  0.18869500  0.35398200  0.44831500  1
  O  O15  1  0.31130500  0.35398200  0.94831500  1
  O  O16  1  0.70164600  0.24338200  0.44346300  1
  O  O17  1  0.79835400  0.24338200  0.94346300  1
  O  O18  1  0.29835400  0.75661800  0.55653700  1
  O  O19  1  0.20164600  0.75661800  0.05653700  1
