# generated using pymatgen
data_Os2C3
_symmetry_space_group_name_H-M   'P 1'
_cell_length_a   5.01755300
_cell_length_b   5.01755300
_cell_length_c   7.91156400
_cell_angle_alpha   90.00000000
_cell_angle_beta   90.00000000
_cell_angle_gamma   90.00000000
_symmetry_Int_Tables_number   1
_chemical_formula_structural   Os2C3
_chemical_formula_sum   'Os8 C12'
_cell_volume   199.18025444
_cell_formula_units_Z   4
loop_
 _symmetry_equiv_pos_site_id
 _symmetry_equiv_pos_as_xyz
  1  'x, y, z'
loop_
 _atom_site_type_symbol
 _atom_site_label
 _atom_site_symmetry_multiplicity
 _atom_site_fract_x
 _atom_site_fract_y
 _atom_site_fract_z
 _atom_site_occupancy
  Os  Os0  1  0.50000000  0.00000000  0.39489900  1
  Os  Os1  1  0.50000000  0.00000000  0.89489900  1
  Os  Os2  1  0.00000000  0.50000000  0.60510100  1
  Os  Os3  1  0.00000000  0.50000000  0.10510100  1
  Os  Os4  1  0.00000000  0.00000000  0.50000000  1
  Os  Os5  1  0.00000000  0.00000000  0.00000000  1
  Os  Os6  1  0.50000000  0.50000000  0.25000000  1
  Os  Os7  1  0.50000000  0.50000000  0.75000000  1
  C  C8  1  0.22997400  0.66008400  0.41933100  1
  C  C9  1  0.77002600  0.33991600  0.41933100  1
  C  C10  1  0.22997400  0.33991600  0.91933100  1
  C  C11  1  0.77002600  0.66008400  0.91933100  1
  C  C12  1  0.66008400  0.77002600  0.58066900  1
  C  C13  1  0.33991600  0.22997400  0.58066900  1
  C  C14  1  0.33991600  0.77002600  0.08066900  1
  C  C15  1  0.66008400  0.22997400  0.08066900  1
  C  C16  1  0.16783700  0.16783700  0.25000000  1
  C  C17  1  0.83216300  0.83216300  0.25000000  1
  C  C18  1  0.16783700  0.83216300  0.75000000  1
  C  C19  1  0.83216300  0.16783700  0.75000000  1
