# generated using pymatgen
data_Co(CO3)2
_symmetry_space_group_name_H-M   'P 1'
_cell_length_a   5.26749600
_cell_length_b   6.03503594
_cell_length_c   8.65504099
_cell_angle_alpha   82.19526281
_cell_angle_beta   72.28381259
_cell_angle_gamma   64.12497313
_symmetry_Int_Tables_number   1
_chemical_formula_structural   Co(CO3)2
_chemical_formula_sum   'Co2 C4 O12'
_cell_volume   235.81471750
_cell_formula_units_Z   2
loop_
 _symmetry_equiv_pos_site_id
 _symmetry_equiv_pos_as_xyz
  1  'x, y, z'
loop_
 _atom_site_type_symbol
 _atom_site_label
 _atom_site_symmetry_multiplicity
 _atom_site_fract_x
 _atom_site_fract_y
 _atom_site_fract_z
 _atom_site_occupancy
  Co  Co0  1  0.57607200  0.25000000  0.75000000  1
  Co  Co1  1  0.42392800  0.75000000  0.25000000  1
  C  C2  1  0.02905700  0.25063400  0.84342800  1
  C  C3  1  0.12311900  0.24936600  0.65657200  1
  C  C4  1  0.97094300  0.74936600  0.15657200  1
  C  C5  1  0.87688100  0.75063400  0.34342800  1
  O  O6  1  0.20572900  0.25058500  0.91503100  1
  O  O7  1  0.37134400  0.24941500  0.58496900  1
  O  O8  1  0.79427100  0.74941500  0.08496900  1
  O  O9  1  0.62865600  0.75058500  0.41503100  1
  O  O10  1  0.78085800  0.25076100  0.91531000  1
  O  O11  1  0.94692900  0.24923900  0.58469000  1
  O  O12  1  0.21914200  0.74923900  0.08469000  1
  O  O13  1  0.05307100  0.75076100  0.41531000  1
  O  O14  1  0.72683700  0.94681200  0.74954900  1
  O  O15  1  0.42319800  0.55318800  0.75045100  1
  O  O16  1  0.27316300  0.05318800  0.25045100  1
  O  O17  1  0.57680200  0.44681200  0.24954900  1
