# generated using pymatgen
data_RbPrNb2O7
_symmetry_space_group_name_H-M   'P 1'
_cell_length_a   11.91057791
_cell_length_b   11.91057791
_cell_length_c   11.91057791
_cell_angle_alpha   153.07439192
_cell_angle_beta   152.94109708
_cell_angle_gamma   38.54356909
_symmetry_Int_Tables_number   1
_chemical_formula_structural   RbPrNb2O7
_chemical_formula_sum   'Rb2 Pr2 Nb4 O14'
_cell_volume   347.48575255
_cell_formula_units_Z   2
loop_
 _symmetry_equiv_pos_site_id
 _symmetry_equiv_pos_as_xyz
  1  'x, y, z'
loop_
 _atom_site_type_symbol
 _atom_site_label
 _atom_site_symmetry_multiplicity
 _atom_site_fract_x
 _atom_site_fract_y
 _atom_site_fract_z
 _atom_site_occupancy
  Rb  Rb0  1  0.50000000  0.50000000  0.00000000  1
  Rb  Rb1  1  0.00000000  0.00000000  0.00000000  1
  Pr  Pr2  1  0.22900800  0.25000000  0.97900800  1
  Pr  Pr3  1  0.77099200  0.75000000  0.02099200  1
  Nb  Nb4  1  0.35481700  0.85269600  0.50212200  1
  Nb  Nb5  1  0.64518300  0.14730400  0.49787800  1
  Nb  Nb6  1  0.85057400  0.35269600  0.49787800  1
  Nb  Nb7  1  0.14942600  0.64730400  0.50212200  1
  O  O8  1  0.22410100  0.75000000  0.47410100  1
  O  O9  1  0.77589900  0.25000000  0.52589900  1
  O  O10  1  0.42925300  0.93299000  0.49626200  1
  O  O11  1  0.57074700  0.06701000  0.50373800  1
  O  O12  1  0.93672800  0.43299000  0.50373800  1
  O  O13  1  0.06327200  0.56701000  0.49626200  1
  O  O14  1  0.58153700  0.58153700  0.50000000  1
  O  O15  1  0.41846300  0.91846300  0.00000000  1
  O  O16  1  0.58153700  0.08153700  0.00000000  1
  O  O17  1  0.41846300  0.41846300  0.50000000  1
  O  O18  1  0.08399000  0.08399000  0.50000000  1
  O  O19  1  0.91601000  0.41601000  0.00000000  1
  O  O20  1  0.08399000  0.58399000  0.00000000  1
  O  O21  1  0.91601000  0.91601000  0.50000000  1
