# generated using pymatgen
data_RbSeO4
_symmetry_space_group_name_H-M   'P 1'
_cell_length_a   10.97144116
_cell_length_b   10.97144116
_cell_length_c   4.54558538
_cell_angle_alpha   78.09944591
_cell_angle_beta   78.09944591
_cell_angle_gamma   41.23433568
_symmetry_Int_Tables_number   1
_chemical_formula_structural   RbSeO4
_chemical_formula_sum   'Rb3 Se3 O12'
_cell_volume   351.79495601
_cell_formula_units_Z   3
loop_
 _symmetry_equiv_pos_site_id
 _symmetry_equiv_pos_as_xyz
  1  'x, y, z'
loop_
 _atom_site_type_symbol
 _atom_site_label
 _atom_site_symmetry_multiplicity
 _atom_site_fract_x
 _atom_site_fract_y
 _atom_site_fract_z
 _atom_site_occupancy
  Rb  Rb0  1  0.49346000  0.50654000  0.00000000  1
  Rb  Rb1  1  0.24578800  0.08389900  0.41757200  1
  Rb  Rb2  1  0.91610100  0.75421200  0.58242800  1
  Se  Se3  1  0.99820700  0.00179300  0.00000000  1
  Se  Se4  1  0.74286600  0.58795300  0.29074400  1
  Se  Se5  1  0.41204700  0.25713400  0.70925600  1
  O  O6  1  0.18242200  0.94546300  0.04267000  1
  O  O7  1  0.05453700  0.81757800  0.95733000  1
  O  O8  1  0.89101400  0.16383200  0.69740600  1
  O  O9  1  0.83616800  0.10898600  0.30259400  1
  O  O10  1  0.84371500  0.42179400  0.05957700  1
  O  O11  1  0.57820600  0.15628500  0.94042300  1
  O  O12  1  0.55370300  0.65688800  0.47057900  1
  O  O13  1  0.34311200  0.44629700  0.52942100  1
  O  O14  1  0.90132400  0.48841100  0.53782500  1
  O  O15  1  0.51158900  0.09867600  0.46217500  1
  O  O16  1  0.69826200  0.76212100  0.09640000  1
  O  O17  1  0.23787900  0.30173800  0.90360000  1
