# generated using pymatgen
data_RbP2(HO2)3
_symmetry_space_group_name_H-M   'P 1'
_cell_length_a   7.32486900
_cell_length_b   7.53861611
_cell_length_c   7.85475759
_cell_angle_alpha   88.13119153
_cell_angle_beta   116.34246651
_cell_angle_gamma   117.20122372
_symmetry_Int_Tables_number   1
_chemical_formula_structural   RbP2(HO2)3
_chemical_formula_sum   'Rb2 P4 H6 O12'
_cell_volume   337.73128313
_cell_formula_units_Z   2
loop_
 _symmetry_equiv_pos_site_id
 _symmetry_equiv_pos_as_xyz
  1  'x, y, z'
loop_
 _atom_site_type_symbol
 _atom_site_label
 _atom_site_symmetry_multiplicity
 _atom_site_fract_x
 _atom_site_fract_y
 _atom_site_fract_z
 _atom_site_occupancy
  Rb  Rb0  1  0.46891500  0.80678300  0.77274700  1
  Rb  Rb1  1  0.53108500  0.19321700  0.22725300  1
  P  P2  1  0.03490600  0.07273300  0.63851200  1
  P  P3  1  0.96509400  0.92726700  0.36148800  1
  P  P4  1  0.16122000  0.52186400  0.12789400  1
  P  P5  1  0.83878000  0.47813600  0.87210600  1
  H  H6  1  0.98640600  0.82471300  0.82160000  1
  H  H7  1  0.01359400  0.17528700  0.17840000  1
  H  H8  1  0.41366800  0.29787600  0.77361200  1
  H  H9  1  0.58633200  0.70212400  0.22638800  1
  H  H10  1  0.15021200  0.71551300  0.32693100  1
  H  H11  1  0.84978800  0.28448700  0.67306900  1
  O  O12  1  0.81756900  0.07632200  0.60978800  1
  O  O13  1  0.18243100  0.92367800  0.39021200  1
  O  O14  1  0.12024400  0.95317000  0.79234200  1
  O  O15  1  0.87975600  0.04683000  0.20765800  1
  O  O16  1  0.24897900  0.29339900  0.69622900  1
  O  O17  1  0.75102100  0.70660100  0.30377100  1
  O  O18  1  0.36801200  0.69600400  0.11503100  1
  O  O19  1  0.63198800  0.30399600  0.88496900  1
  O  O20  1  0.16178400  0.31902000  0.13461800  1
  O  O21  1  0.83821600  0.68098000  0.86538200  1
  O  O22  1  0.14119600  0.57631600  0.31025900  1
  O  O23  1  0.85880400  0.42368400  0.68974100  1
