# generated using pymatgen
data_Pr2Al2Fe15
_symmetry_space_group_name_H-M   'P 1'
_cell_length_a   6.48915721
_cell_length_b   6.48915721
_cell_length_c   6.48915726
_cell_angle_alpha   82.26606573
_cell_angle_beta   82.26606573
_cell_angle_gamma   82.26606931
_symmetry_Int_Tables_number   1
_chemical_formula_structural   Pr2Al2Fe15
_chemical_formula_sum   'Pr2 Al2 Fe15'
_cell_volume   266.41036250
_cell_formula_units_Z   1
loop_
 _symmetry_equiv_pos_site_id
 _symmetry_equiv_pos_as_xyz
  1  'x, y, z'
loop_
 _atom_site_type_symbol
 _atom_site_label
 _atom_site_symmetry_multiplicity
 _atom_site_fract_x
 _atom_site_fract_y
 _atom_site_fract_z
 _atom_site_occupancy
  Pr  Pr0  1  0.65176100  0.65176100  0.65176100  1
  Pr  Pr1  1  0.34823900  0.34823900  0.34823900  1
  Al  Al2  1  0.89832300  0.89832300  0.89832300  1
  Al  Al3  1  0.10167700  0.10167700  0.10167700  1
  Fe  Fe4  1  0.00000000  0.00000000  0.50000000  1
  Fe  Fe5  1  0.50000000  0.00000000  0.00000000  1
  Fe  Fe6  1  0.00000000  0.50000000  0.00000000  1
  Fe  Fe7  1  0.71254000  0.28746000  0.00000000  1
  Fe  Fe8  1  0.00000000  0.71254000  0.28746000  1
  Fe  Fe9  1  0.28746000  0.00000000  0.71254000  1
  Fe  Fe10  1  0.00000000  0.28746000  0.71254000  1
  Fe  Fe11  1  0.71254000  0.00000000  0.28746000  1
  Fe  Fe12  1  0.28746000  0.71254000  0.00000000  1
  Fe  Fe13  1  0.33995000  0.33995000  0.84460800  1
  Fe  Fe14  1  0.84460800  0.33995000  0.33995000  1
  Fe  Fe15  1  0.33995000  0.84460800  0.33995000  1
  Fe  Fe16  1  0.66005000  0.66005000  0.15539200  1
  Fe  Fe17  1  0.15539200  0.66005000  0.66005000  1
  Fe  Fe18  1  0.66005000  0.15539200  0.66005000  1
