# generated using pymatgen
data_YbBr2
_symmetry_space_group_name_H-M   'P 1'
_cell_length_a   7.05121700
_cell_length_b   7.28631800
_cell_length_c   13.80922500
_cell_angle_alpha   90.00000000
_cell_angle_beta   90.00000000
_cell_angle_gamma   90.00000000
_symmetry_Int_Tables_number   1
_chemical_formula_structural   YbBr2
_chemical_formula_sum   'Yb8 Br16'
_cell_volume   709.48220562
_cell_formula_units_Z   8
loop_
 _symmetry_equiv_pos_site_id
 _symmetry_equiv_pos_as_xyz
  1  'x, y, z'
loop_
 _atom_site_type_symbol
 _atom_site_label
 _atom_site_symmetry_multiplicity
 _atom_site_fract_x
 _atom_site_fract_y
 _atom_site_fract_z
 _atom_site_occupancy
  Yb  Yb0  1  0.77403400  0.54778400  0.61177900  1
  Yb  Yb1  1  0.22596600  0.95221600  0.11177900  1
  Yb  Yb2  1  0.72596600  0.04778400  0.38822100  1
  Yb  Yb3  1  0.27403400  0.45221600  0.88822100  1
  Yb  Yb4  1  0.22596600  0.45221600  0.38822100  1
  Yb  Yb5  1  0.77403400  0.04778400  0.88822100  1
  Yb  Yb6  1  0.27403400  0.95221600  0.61177900  1
  Yb  Yb7  1  0.72596600  0.54778400  0.11177900  1
  Br  Br8  1  0.65020500  0.88424600  0.70663800  1
  Br  Br9  1  0.34979500  0.61575400  0.20663800  1
  Br  Br10  1  0.84979500  0.38424600  0.29336200  1
  Br  Br11  1  0.15020500  0.11575400  0.79336200  1
  Br  Br12  1  0.34979500  0.11575400  0.29336200  1
  Br  Br13  1  0.65020500  0.38424600  0.79336200  1
  Br  Br14  1  0.15020500  0.61575400  0.70663800  1
  Br  Br15  1  0.84979500  0.88424600  0.20663800  1
  Br  Br16  1  0.50130600  0.73641900  0.47079400  1
  Br  Br17  1  0.49869400  0.76358100  0.97079400  1
  Br  Br18  1  0.99869400  0.23641900  0.52920600  1
  Br  Br19  1  0.00130600  0.26358100  0.02920600  1
  Br  Br20  1  0.49869400  0.26358100  0.52920600  1
  Br  Br21  1  0.50130600  0.23641900  0.02920600  1
  Br  Br22  1  0.00130600  0.76358100  0.47079400  1
  Br  Br23  1  0.99869400  0.73641900  0.97079400  1
