# generated using pymatgen
data_Pr(ClO2)3
_symmetry_space_group_name_H-M   'P 1'
_cell_length_a   8.36739200
_cell_length_b   8.02335625
_cell_length_c   6.54602630
_cell_angle_alpha   121.93952165
_cell_angle_beta   90.00000000
_cell_angle_gamma   90.00000000
_symmetry_Int_Tables_number   1
_chemical_formula_structural   Pr(ClO2)3
_chemical_formula_sum   'Pr2 Cl6 O12'
_cell_volume   372.93276062
_cell_formula_units_Z   2
loop_
 _symmetry_equiv_pos_site_id
 _symmetry_equiv_pos_as_xyz
  1  'x, y, z'
loop_
 _atom_site_type_symbol
 _atom_site_label
 _atom_site_symmetry_multiplicity
 _atom_site_fract_x
 _atom_site_fract_y
 _atom_site_fract_z
 _atom_site_occupancy
  Pr  Pr0  1  0.12323100  0.25000000  0.25000000  1
  Pr  Pr1  1  0.87676900  0.75000000  0.75000000  1
  Cl  Cl2  1  0.81997500  0.24085300  0.98904400  1
  Cl  Cl3  1  0.18002500  0.75914700  0.01095600  1
  Cl  Cl4  1  0.81997500  0.25914700  0.51095600  1
  Cl  Cl5  1  0.18002500  0.74085300  0.48904400  1
  Cl  Cl6  1  0.38619300  0.25000000  0.75000000  1
  Cl  Cl7  1  0.61380700  0.75000000  0.25000000  1
  O  O8  1  0.02724500  0.57915400  0.36415400  1
  O  O9  1  0.97275500  0.42084600  0.63584600  1
  O  O10  1  0.02724500  0.92084600  0.13584600  1
  O  O11  1  0.97275500  0.07915400  0.86415400  1
  O  O12  1  0.46535900  0.46720300  0.40110600  1
  O  O13  1  0.53464100  0.53279700  0.59889400  1
  O  O14  1  0.46535900  0.03279700  0.09889400  1
  O  O15  1  0.53464100  0.96720300  0.90110600  1
  O  O16  1  0.28599400  0.19066800  0.51984000  1
  O  O17  1  0.71400600  0.80933200  0.48016000  1
  O  O18  1  0.28599400  0.30933200  0.98016000  1
  O  O19  1  0.71400600  0.69066800  0.01984000  1
