# generated using pymatgen
data_TlPHO3
_symmetry_space_group_name_H-M   'P 1'
_cell_length_a   5.75847094
_cell_length_b   8.01708281
_cell_length_c   8.44698000
_cell_angle_alpha   90.00000000
_cell_angle_beta   90.00000000
_cell_angle_gamma   94.79219130
_symmetry_Int_Tables_number   1
_chemical_formula_structural   TlPHO3
_chemical_formula_sum   'Tl4 P4 H4 O12'
_cell_volume   388.60123125
_cell_formula_units_Z   4
loop_
 _symmetry_equiv_pos_site_id
 _symmetry_equiv_pos_as_xyz
  1  'x, y, z'
loop_
 _atom_site_type_symbol
 _atom_site_label
 _atom_site_symmetry_multiplicity
 _atom_site_fract_x
 _atom_site_fract_y
 _atom_site_fract_z
 _atom_site_occupancy
  Tl  Tl0  1  0.95849000  0.40683400  0.74357500  1
  Tl  Tl1  1  0.04151000  0.09316600  0.24357500  1
  Tl  Tl2  1  0.04151000  0.59316600  0.25642500  1
  Tl  Tl3  1  0.95849000  0.90683400  0.75642500  1
  P  P4  1  0.52121500  0.37460000  0.04936200  1
  P  P5  1  0.47878500  0.12540000  0.54936200  1
  P  P6  1  0.47878500  0.62540000  0.95063800  1
  P  P7  1  0.52121500  0.87460000  0.45063800  1
  H  H8  1  0.44045500  0.19337200  0.85417400  1
  H  H9  1  0.55954500  0.30662800  0.35417400  1
  H  H10  1  0.55954500  0.80662800  0.14582600  1
  H  H11  1  0.44045500  0.69337200  0.64582600  1
  O  O12  1  0.77569300  0.33834300  0.03287000  1
  O  O13  1  0.22430700  0.16165700  0.53287000  1
  O  O14  1  0.22430700  0.66165700  0.96713000  1
  O  O15  1  0.77569300  0.83834300  0.46713000  1
  O  O16  1  0.41817300  0.37206700  0.21682700  1
  O  O17  1  0.58182700  0.12793300  0.71682700  1
  O  O18  1  0.58182700  0.62793300  0.78317300  1
  O  O19  1  0.41817300  0.87206700  0.28317300  1
  O  O20  1  0.35325800  0.24836300  0.94483000  1
  O  O21  1  0.64674200  0.25163700  0.44483000  1
  O  O22  1  0.64674200  0.75163700  0.05517000  1
  O  O23  1  0.35325800  0.74836300  0.55517000  1
