# generated using pymatgen
data_Sb2Au(XeF6)2
_symmetry_space_group_name_H-M   'P 1'
_cell_length_a   5.67728700
_cell_length_b   7.43756991
_cell_length_c   8.23473011
_cell_angle_alpha   91.02529993
_cell_angle_beta   91.14284224
_cell_angle_gamma   98.06768786
_symmetry_Int_Tables_number   1
_chemical_formula_structural   Sb2Au(XeF6)2
_chemical_formula_sum   'Sb2 Au1 Xe2 F12'
_cell_volume   344.12825418
_cell_formula_units_Z   1
loop_
 _symmetry_equiv_pos_site_id
 _symmetry_equiv_pos_as_xyz
  1  'x, y, z'
loop_
 _atom_site_type_symbol
 _atom_site_label
 _atom_site_symmetry_multiplicity
 _atom_site_fract_x
 _atom_site_fract_y
 _atom_site_fract_z
 _atom_site_occupancy
  Sb  Sb0  1  0.48006400  0.72350200  0.74201900  1
  Sb  Sb1  1  0.51993600  0.27649800  0.25798100  1
  Au  Au2  1  0.00000000  0.00000000  0.00000000  1
  Xe  Xe3  1  0.97820000  0.22501200  0.73669000  1
  Xe  Xe4  1  0.02180000  0.77498800  0.26331000  1
  F  F5  1  0.65322400  0.84316900  0.94364800  1
  F  F6  1  0.34677600  0.15683100  0.05635200  1
  F  F7  1  0.30542500  0.61215900  0.55821700  1
  F  F8  1  0.69457500  0.38784100  0.44178300  1
  F  F9  1  0.20382000  0.69747900  0.87520600  1
  F  F10  1  0.79618000  0.30252100  0.12479400  1
  F  F11  1  0.55785400  0.49811600  0.81733100  1
  F  F12  1  0.44214600  0.50188400  0.18266900  1
  F  F13  1  0.77624400  0.76954800  0.63488400  1
  F  F14  1  0.22375600  0.23045200  0.36511600  1
  F  F15  1  0.41346500  0.95976900  0.68876100  1
  F  F16  1  0.58653500  0.04023100  0.31123900  1
