# generated using pymatgen
data_BaAl2O6
_symmetry_space_group_name_H-M   'P 1'
_cell_length_a   5.63160462
_cell_length_b   5.63160462
_cell_length_c   10.75154218
_cell_angle_alpha   71.12115331
_cell_angle_beta   71.12115331
_cell_angle_gamma   76.19485231
_symmetry_Int_Tables_number   1
_chemical_formula_structural   BaAl2O6
_chemical_formula_sum   'Ba2 Al4 O12'
_cell_volume   301.85016493
_cell_formula_units_Z   2
loop_
 _symmetry_equiv_pos_site_id
 _symmetry_equiv_pos_as_xyz
  1  'x, y, z'
loop_
 _atom_site_type_symbol
 _atom_site_label
 _atom_site_symmetry_multiplicity
 _atom_site_fract_x
 _atom_site_fract_y
 _atom_site_fract_z
 _atom_site_occupancy
  Ba  Ba0  1  0.23718200  0.76281800  0.50000000  1
  Ba  Ba1  1  0.98524900  0.01475100  0.00000000  1
  Al  Al2  1  0.75914200  0.13529200  0.33789000  1
  Al  Al3  1  0.86470800  0.24085800  0.66211000  1
  Al  Al4  1  0.34640700  0.22393500  0.16229400  1
  Al  Al5  1  0.77606500  0.65359300  0.83770600  1
  O  O6  1  0.59844000  0.09093300  0.23507900  1
  O  O7  1  0.90906700  0.40156000  0.76492100  1
  O  O8  1  0.08317500  0.07796300  0.26529000  1
  O  O9  1  0.92203700  0.91682500  0.73471000  1
  O  O10  1  0.66989000  0.92787000  0.50677600  1
  O  O11  1  0.07213000  0.33011000  0.49322400  1
  O  O12  1  0.41956900  0.18789300  0.99355900  1
  O  O13  1  0.81210700  0.58043100  0.00644100  1
  O  O14  1  0.61661800  0.42093800  0.39235100  1
  O  O15  1  0.57906200  0.38338200  0.60764900  1
  O  O16  1  0.26338000  0.56485700  0.10458300  1
  O  O17  1  0.43514300  0.73662000  0.89541700  1
