# generated using pymatgen
data_CaSO6
_symmetry_space_group_name_H-M   'P 1'
_cell_length_a   9.61573420
_cell_length_b   9.50232112
_cell_length_c   9.50232112
_cell_angle_alpha   120.55290533
_cell_angle_beta   96.32995803
_cell_angle_gamma   96.32995803
_symmetry_Int_Tables_number   1
_chemical_formula_structural   CaSO6
_chemical_formula_sum   'Ca2 S2 O12'
_cell_volume   728.97683657
_cell_formula_units_Z   2
loop_
 _symmetry_equiv_pos_site_id
 _symmetry_equiv_pos_as_xyz
  1  'x, y, z'
loop_
 _atom_site_type_symbol
 _atom_site_label
 _atom_site_symmetry_multiplicity
 _atom_site_fract_x
 _atom_site_fract_y
 _atom_site_fract_z
 _atom_site_occupancy
  Ca  Ca0  1  0.50000000  0.75693400  0.24306600  1
  Ca  Ca1  1  0.50000000  0.24306600  0.75693400  1
  S  S2  1  0.00000000  0.74728900  0.25271100  1
  S  S3  1  0.00000000  0.25271100  0.74728900  1
  O  O4  1  0.46466900  0.02962900  0.45919800  1
  O  O5  1  0.46466900  0.45919800  0.02962900  1
  O  O6  1  0.53533100  0.97037100  0.54080200  1
  O  O7  1  0.53533100  0.54080200  0.97037100  1
  O  O8  1  0.04884200  0.83670100  0.43172300  1
  O  O9  1  0.04884200  0.43172300  0.83670100  1
  O  O10  1  0.95115800  0.16329900  0.56827700  1
  O  O11  1  0.95115800  0.56827700  0.16329900  1
  O  O12  1  0.50000000  0.88805700  0.11194300  1
  O  O13  1  0.50000000  0.11194300  0.88805700  1
  O  O14  1  0.50000000  0.62706100  0.37293900  1
  O  O15  1  0.50000000  0.37293900  0.62706100  1
