# generated using pymatgen
data_La2Rh7
_symmetry_space_group_name_H-M   'P 1'
_cell_length_a   13.66911965
_cell_length_b   13.66911965
_cell_length_c   13.66912014
_cell_angle_alpha   22.52119030
_cell_angle_beta   22.52119030
_cell_angle_gamma   22.52118998
_symmetry_Int_Tables_number   1
_chemical_formula_structural   La2Rh7
_chemical_formula_sum   'La4 Rh14'
_cell_volume   328.67011740
_cell_formula_units_Z   2
loop_
 _symmetry_equiv_pos_site_id
 _symmetry_equiv_pos_as_xyz
  1  'x, y, z'
loop_
 _atom_site_type_symbol
 _atom_site_label
 _atom_site_symmetry_multiplicity
 _atom_site_fract_x
 _atom_site_fract_y
 _atom_site_fract_z
 _atom_site_occupancy
  La  La0  1  0.94974300  0.94974300  0.94974300  1
  La  La1  1  0.05025700  0.05025700  0.05025700  1
  La  La2  1  0.85334000  0.85334000  0.85334000  1
  La  La3  1  0.14666000  0.14666000  0.14666000  1
  Rh  Rh4  1  0.50000000  0.50000000  0.50000000  1
  Rh  Rh5  1  0.72229700  0.72229700  0.72229700  1
  Rh  Rh6  1  0.27770300  0.27770300  0.27770300  1
  Rh  Rh7  1  0.61151400  0.61151400  0.61151400  1
  Rh  Rh8  1  0.38848600  0.38848600  0.38848600  1
  Rh  Rh9  1  0.50000000  0.50000000  0.00000000  1
  Rh  Rh10  1  0.00000000  0.50000000  0.50000000  1
  Rh  Rh11  1  0.50000000  0.00000000  0.50000000  1
  Rh  Rh12  1  0.39024400  0.89055400  0.39024400  1
  Rh  Rh13  1  0.39024400  0.39024400  0.89055400  1
  Rh  Rh14  1  0.89055400  0.39024400  0.39024400  1
  Rh  Rh15  1  0.60975600  0.10944600  0.60975600  1
  Rh  Rh16  1  0.60975600  0.60975600  0.10944600  1
  Rh  Rh17  1  0.10944600  0.60975600  0.60975600  1
