# generated using pymatgen
data_YH9C5(NO4)2
_symmetry_space_group_name_H-M   'P 1'
_cell_length_a   6.75639029
_cell_length_b   6.75639029
_cell_length_c   6.66366071
_cell_angle_alpha   74.83561505
_cell_angle_beta   74.83561505
_cell_angle_gamma   65.76169292
_symmetry_Int_Tables_number   1
_chemical_formula_structural   YH9C5(NO4)2
_chemical_formula_sum   'Y1 H9 C5 N2 O8'
_cell_volume   263.57332658
_cell_formula_units_Z   1
loop_
 _symmetry_equiv_pos_site_id
 _symmetry_equiv_pos_as_xyz
  1  'x, y, z'
loop_
 _atom_site_type_symbol
 _atom_site_label
 _atom_site_symmetry_multiplicity
 _atom_site_fract_x
 _atom_site_fract_y
 _atom_site_fract_z
 _atom_site_occupancy
  Y  Y0  1  0.05249800  0.94750200  0.00000000  1
  H  H1  1  0.85762300  0.58416100  0.42035100  1
  H  H2  1  0.41583900  0.14237700  0.57964900  1
  H  H3  1  0.57342600  0.68269000  0.53596800  1
  H  H4  1  0.31731000  0.42657400  0.46403200  1
  H  H5  1  0.58415000  0.79149500  0.12515100  1
  H  H6  1  0.20850500  0.41585000  0.87484900  1
  H  H7  1  0.61025700  0.41249900  0.81779500  1
  H  H8  1  0.58750100  0.38974300  0.18220500  1
  H  H9  1  0.96853900  0.03146100  0.50000000  1
  C  C10  1  0.57920700  0.89410600  0.96531800  1
  C  C11  1  0.10589400  0.42079300  0.03468200  1
  C  C12  1  0.76307500  0.41224800  0.70652500  1
  C  C13  1  0.58775200  0.23692500  0.29347500  1
  C  C14  1  0.11867900  0.88132100  0.50000000  1
  N  N15  1  0.73100300  0.57353000  0.54185900  1
  N  N16  1  0.42647000  0.26899700  0.45814100  1
  O  O17  1  0.19555400  0.79636600  0.33316400  1
  O  O18  1  0.20363400  0.80444600  0.66683600  1
  O  O19  1  0.41160800  0.93722900  0.88348200  1
  O  O20  1  0.06277100  0.58839200  0.11651800  1
  O  O21  1  0.94826600  0.26933100  0.73785500  1
  O  O22  1  0.73066900  0.05173400  0.26214500  1
  O  O23  1  0.73587600  0.95950600  0.87681800  1
  O  O24  1  0.04049400  0.26412400  0.12318200  1
