# generated using pymatgen
data_KHgI3
_symmetry_space_group_name_H-M   'P 1'
_cell_length_a   8.49522100
_cell_length_b   9.29600300
_cell_length_c   12.54621600
_cell_angle_alpha   90.00000000
_cell_angle_beta   90.00000000
_cell_angle_gamma   90.00000000
_symmetry_Int_Tables_number   1
_chemical_formula_structural   KHgI3
_chemical_formula_sum   'K4 Hg4 I12'
_cell_volume   990.79475023
_cell_formula_units_Z   4
loop_
 _symmetry_equiv_pos_site_id
 _symmetry_equiv_pos_as_xyz
  1  'x, y, z'
loop_
 _atom_site_type_symbol
 _atom_site_label
 _atom_site_symmetry_multiplicity
 _atom_site_fract_x
 _atom_site_fract_y
 _atom_site_fract_z
 _atom_site_occupancy
  K  K0  1  0.21355600  0.49639000  0.63906900  1
  K  K1  1  0.78644400  0.50361000  0.13906900  1
  K  K2  1  0.71355600  0.00361000  0.13906900  1
  K  K3  1  0.28644400  0.99639000  0.63906900  1
  Hg  Hg4  1  0.31103300  0.75384000  0.99554000  1
  Hg  Hg5  1  0.68896700  0.24616000  0.49554000  1
  Hg  Hg6  1  0.81103300  0.74616000  0.49554000  1
  Hg  Hg7  1  0.18896700  0.25384000  0.99554000  1
  I  I8  1  0.23225300  0.50680500  0.13430800  1
  I  I9  1  0.76774700  0.49319500  0.63430800  1
  I  I10  1  0.73225300  0.99319500  0.63430800  1
  I  I11  1  0.26774700  0.00680500  0.13430800  1
  I  I12  1  0.09784200  0.76033800  0.82572500  1
  I  I13  1  0.90215800  0.23966200  0.32572500  1
  I  I14  1  0.59784200  0.73966200  0.32572500  1
  I  I15  1  0.40215800  0.26033800  0.82572500  1
  I  I16  1  0.63060300  0.73781600  0.94535800  1
  I  I17  1  0.36939700  0.26218400  0.44535800  1
  I  I18  1  0.13060300  0.76218400  0.44535800  1
  I  I19  1  0.86939700  0.23781600  0.94535800  1
