# generated using pymatgen
data_Na3Ti6O13
_symmetry_space_group_name_H-M   'P 1'
_cell_length_a   3.77807600
_cell_length_b   7.71607762
_cell_length_c   9.52078916
_cell_angle_alpha   100.57542491
_cell_angle_beta   90.00000000
_cell_angle_gamma   104.17110370
_symmetry_Int_Tables_number   1
_chemical_formula_structural   Na3Ti6O13
_chemical_formula_sum   'Na3 Ti6 O13'
_cell_volume   264.23817882
_cell_formula_units_Z   1
loop_
 _symmetry_equiv_pos_site_id
 _symmetry_equiv_pos_as_xyz
  1  'x, y, z'
loop_
 _atom_site_type_symbol
 _atom_site_label
 _atom_site_symmetry_multiplicity
 _atom_site_fract_x
 _atom_site_fract_y
 _atom_site_fract_z
 _atom_site_occupancy
  Na  Na0  1  0.46492100  0.92984300  0.17766800  1
  Na  Na1  1  0.53507900  0.07015700  0.82233200  1
  Na  Na2  1  0.50000000  0.00000000  0.50000000  1
  Ti  Ti3  1  0.12177200  0.24354500  0.09193100  1
  Ti  Ti4  1  0.87822800  0.75645500  0.90806900  1
  Ti  Ti5  1  0.16605400  0.33210800  0.42735200  1
  Ti  Ti6  1  0.83394600  0.66789200  0.57264800  1
  Ti  Ti7  1  0.22033700  0.44067400  0.76065300  1
  Ti  Ti8  1  0.77966300  0.55932600  0.23934700  1
  O  O9  1  0.24592600  0.49185200  0.25074300  1
  O  O10  1  0.75407400  0.50814800  0.74925700  1
  O  O11  1  0.06543300  0.13086500  0.29081300  1
  O  O12  1  0.93456700  0.86913500  0.70918700  1
  O  O13  1  0.29890700  0.59781400  0.57398300  1
  O  O14  1  0.70109300  0.40218600  0.42601700  1
  O  O15  1  0.11929000  0.23858000  0.59718300  1
  O  O16  1  0.88071000  0.76142000  0.40281700  1
  O  O17  1  0.35578200  0.71156300  0.87918400  1
  O  O18  1  0.64421800  0.28843700  0.12081600  1
  O  O19  1  0.15958300  0.31916600  0.90512600  1
  O  O20  1  0.84041700  0.68083400  0.09487400  1
  O  O21  1  0.00000000  0.00000000  0.00000000  1
