# generated using pymatgen
data_CaMg(SiO3)2
_symmetry_space_group_name_H-M   'P 1'
_cell_length_a   8.35869800
_cell_length_b   5.40613400
_cell_length_c   9.88961600
_cell_angle_alpha   89.32122003
_cell_angle_beta   90.00000000
_cell_angle_gamma   90.00000000
_symmetry_Int_Tables_number   1
_chemical_formula_structural   CaMg(SiO3)2
_chemical_formula_sum   'Ca4 Mg4 Si8 O24'
_cell_volume   446.86299505
_cell_formula_units_Z   4
loop_
 _symmetry_equiv_pos_site_id
 _symmetry_equiv_pos_as_xyz
  1  'x, y, z'
loop_
 _atom_site_type_symbol
 _atom_site_label
 _atom_site_symmetry_multiplicity
 _atom_site_fract_x
 _atom_site_fract_y
 _atom_site_fract_z
 _atom_site_occupancy
  Ca  Ca0  1  0.44761100  0.39767200  0.27035100  1
  Ca  Ca1  1  0.94761100  0.10232800  0.72964900  1
  Ca  Ca2  1  0.55238900  0.60232800  0.72964900  1
  Ca  Ca3  1  0.05238900  0.89767200  0.27035100  1
  Mg  Mg4  1  0.33396500  0.12276300  0.76802200  1
  Mg  Mg5  1  0.83396500  0.37723700  0.23197800  1
  Mg  Mg6  1  0.66603500  0.87723700  0.23197800  1
  Mg  Mg7  1  0.16603500  0.62276300  0.76802200  1
  Si  Si8  1  0.32959200  0.96613900  0.50317600  1
  Si  Si9  1  0.82959200  0.53386100  0.49682400  1
  Si  Si10  1  0.67040800  0.03386100  0.49682400  1
  Si  Si11  1  0.17040800  0.46613900  0.50317600  1
  Si  Si12  1  0.65320600  0.22889800  0.96245300  1
  Si  Si13  1  0.15320600  0.27110200  0.03754700  1
  Si  Si14  1  0.34679400  0.77110200  0.03754700  1
  Si  Si15  1  0.84679400  0.72889800  0.96245300  1
  O  O16  1  0.49329000  0.28423800  0.87979300  1
  O  O17  1  0.99329000  0.21576200  0.12020700  1
  O  O18  1  0.50671000  0.71576200  0.12020700  1
  O  O19  1  0.00671000  0.78423800  0.87979300  1
  O  O20  1  0.22944200  0.20598700  0.41717600  1
  O  O21  1  0.72944200  0.29401300  0.58282400  1
  O  O22  1  0.77055800  0.79401300  0.58282400  1
  O  O23  1  0.27055800  0.70598700  0.41717600  1
  O  O24  1  0.00944200  0.47349300  0.61354300  1
  O  O25  1  0.50944200  0.02650700  0.38645700  1
  O  O26  1  0.99055800  0.52650700  0.38645700  1
  O  O27  1  0.49055800  0.97349300  0.61354300  1
  O  O28  1  0.30802800  0.44283400  0.63258000  1
  O  O29  1  0.80802800  0.05716600  0.36742000  1
  O  O30  1  0.69197200  0.55716600  0.36742000  1
  O  O31  1  0.19197200  0.94283400  0.63258000  1
  O  O32  1  0.14734800  0.28361900  0.87391900  1
  O  O33  1  0.64734800  0.21638100  0.12608100  1
  O  O34  1  0.85265200  0.71638100  0.12608100  1
  O  O35  1  0.35265200  0.78361900  0.87391900  1
  O  O36  1  0.77074400  0.46209200  0.90366500  1
  O  O37  1  0.27074400  0.03790800  0.09633500  1
  O  O38  1  0.22925600  0.53790800  0.09633500  1
  O  O39  1  0.72925600  0.96209200  0.90366500  1
