# generated using pymatgen
data_YbH9C5(NO4)2
_symmetry_space_group_name_H-M   'P 1'
_cell_length_a   6.87257929
_cell_length_b   6.87257929
_cell_length_c   6.79567555
_cell_angle_alpha   73.97258697
_cell_angle_beta   73.97258697
_cell_angle_gamma   65.18195194
_symmetry_Int_Tables_number   1
_chemical_formula_structural   YbH9C5(NO4)2
_chemical_formula_sum   'Yb1 H9 C5 N2 O8'
_cell_volume   275.24552884
_cell_formula_units_Z   1
loop_
 _symmetry_equiv_pos_site_id
 _symmetry_equiv_pos_as_xyz
  1  'x, y, z'
loop_
 _atom_site_type_symbol
 _atom_site_label
 _atom_site_symmetry_multiplicity
 _atom_site_fract_x
 _atom_site_fract_y
 _atom_site_fract_z
 _atom_site_occupancy
  Yb  Yb0  1  0.35870400  0.64129600  0.00000000  1
  H  H1  1  0.00523500  0.44813300  0.43174600  1
  H  H2  1  0.55186700  0.99476500  0.56825400  1
  H  H3  1  0.08570100  0.16745600  0.53993500  1
  H  H4  1  0.83254400  0.91429900  0.46006500  1
  H  H5  1  0.80530400  0.20506400  0.80958800  1
  H  H6  1  0.79493600  0.19469600  0.19041200  1
  H  H7  1  0.83136600  0.78540500  0.87632900  1
  H  H8  1  0.21459500  0.16863400  0.12367100  1
  H  H9  1  0.43601300  0.56398700  0.50000000  1
  C  C10  1  0.81387600  0.35751300  0.70562600  1
  C  C11  1  0.64248700  0.18612400  0.29437400  1
  C  C12  1  0.83529200  0.69188700  0.03980400  1
  C  C13  1  0.30811300  0.16470800  0.96019600  1
  C  C14  1  0.28360700  0.71639300  0.50000000  1
  N  N15  1  0.98056000  0.32397700  0.54590200  1
  N  N16  1  0.67602300  0.01944000  0.45409800  1
  O  O17  1  0.21870900  0.79703100  0.66261200  1
  O  O18  1  0.20296900  0.78129100  0.33738800  1
  O  O19  1  0.67695400  0.53996400  0.73956600  1
  O  O20  1  0.46003600  0.32304600  0.26043400  1
  O  O21  1  0.99798700  0.65644300  0.11565400  1
  O  O22  1  0.34355700  0.00201300  0.88434600  1
  O  O23  1  0.67433700  0.63537100  0.12427100  1
  O  O24  1  0.36462900  0.32566300  0.87572900  1
