# generated using pymatgen
data_Yb2ZnTe2(SO7)2
_symmetry_space_group_name_H-M   'P 1'
_cell_length_a   5.44317000
_cell_length_b   8.24782852
_cell_length_c   8.35987319
_cell_angle_alpha   114.09264087
_cell_angle_beta   107.33639646
_cell_angle_gamma   95.42058307
_symmetry_Int_Tables_number   1
_chemical_formula_structural   Yb2ZnTe2(SO7)2
_chemical_formula_sum   'Yb2 Zn1 Te2 S2 O14'
_cell_volume   316.83526169
_cell_formula_units_Z   1
loop_
 _symmetry_equiv_pos_site_id
 _symmetry_equiv_pos_as_xyz
  1  'x, y, z'
loop_
 _atom_site_type_symbol
 _atom_site_label
 _atom_site_symmetry_multiplicity
 _atom_site_fract_x
 _atom_site_fract_y
 _atom_site_fract_z
 _atom_site_occupancy
  Yb  Yb0  1  0.34133300  0.76831900  0.97529600  1
  Yb  Yb1  1  0.65866700  0.23168100  0.02470400  1
  Zn  Zn2  1  0.00000000  0.50000000  0.50000000  1
  Te  Te3  1  0.61599100  0.76346200  0.64575800  1
  Te  Te4  1  0.38400900  0.23653800  0.35424200  1
  S  S5  1  0.07473900  0.27739200  0.76732500  1
  S  S6  1  0.92526100  0.72260800  0.23267500  1
  O  O7  1  0.93508000  0.68781600  0.72340100  1
  O  O8  1  0.06492000  0.31218400  0.27659900  1
  O  O9  1  0.95142000  0.27906400  0.58346500  1
  O  O10  1  0.04858000  0.72093600  0.41653500  1
  O  O11  1  0.63648900  0.92027800  0.88881100  1
  O  O12  1  0.36351100  0.07972200  0.11118900  1
  O  O13  1  0.20406900  0.46539100  0.92300200  1
  O  O14  1  0.79593100  0.53460900  0.07699800  1
  O  O15  1  0.86512100  0.18423000  0.80371000  1
  O  O16  1  0.13487900  0.81577000  0.19629000  1
  O  O17  1  0.38451700  0.57105900  0.64997900  1
  O  O18  1  0.61548300  0.42894100  0.35002100  1
  O  O19  1  0.28200400  0.17130900  0.75839200  1
  O  O20  1  0.71799600  0.82869100  0.24160800  1
