# generated using pymatgen
data_EuH9C5(NO4)2
_symmetry_space_group_name_H-M   'P 1'
_cell_length_a   6.94964881
_cell_length_b   6.94964881
_cell_length_c   6.85825082
_cell_angle_alpha   74.44117595
_cell_angle_beta   74.44117595
_cell_angle_gamma   65.13384287
_symmetry_Int_Tables_number   1
_chemical_formula_structural   EuH9C5(NO4)2
_chemical_formula_sum   'Eu1 H9 C5 N2 O8'
_cell_volume   284.90139629
_cell_formula_units_Z   1
loop_
 _symmetry_equiv_pos_site_id
 _symmetry_equiv_pos_as_xyz
  1  'x, y, z'
loop_
 _atom_site_type_symbol
 _atom_site_label
 _atom_site_symmetry_multiplicity
 _atom_site_fract_x
 _atom_site_fract_y
 _atom_site_fract_z
 _atom_site_occupancy
  Eu  Eu0  1  0.32610200  0.67389800  0.00000000  1
  H  H1  1  0.12310900  0.31846600  0.42178500  1
  H  H2  1  0.68153400  0.87689100  0.57821500  1
  H  H3  1  0.84670900  0.41226000  0.53729800  1
  H  H4  1  0.58774000  0.15329100  0.46270200  1
  H  H5  1  0.88662000  0.14724600  0.81261000  1
  H  H6  1  0.85275400  0.11338000  0.18739000  1
  H  H7  1  0.24653700  0.75346300  0.50000000  1
  H  H8  1  0.47647400  0.14336900  0.88006300  1
  H  H9  1  0.85663100  0.52352600  0.11993700  1
  C  C10  1  0.03554000  0.14583600  0.70199200  1
  C  C11  1  0.85416400  0.96446000  0.29800800  1
  C  C12  1  0.39471400  0.60528600  0.50000000  1
  C  C13  1  0.37634200  0.14797100  0.03649700  1
  C  C14  1  0.85202900  0.62365800  0.96350300  1
  N  N15  1  0.00129700  0.30495500  0.54127200  1
  N  N16  1  0.69504500  0.99870300  0.45872800  1
  O  O17  1  0.21643100  0.00433100  0.73169900  1
  O  O18  1  0.99566900  0.78356900  0.26830100  1
  O  O19  1  0.46537200  0.52007700  0.33929900  1
  O  O20  1  0.47992300  0.53462800  0.66070100  1
  O  O21  1  0.33522500  0.30901300  0.11821700  1
  O  O22  1  0.69098700  0.66477500  0.88178300  1
  O  O23  1  0.31225100  0.99479700  0.12079100  1
  O  O24  1  0.00520300  0.68774900  0.87920900  1
