# generated using pymatgen
data_Na2Zn(GeSe3)2
_symmetry_space_group_name_H-M   'P 1'
_cell_length_a   11.06007167
_cell_length_b   11.06007167
_cell_length_c   11.06007167
_cell_angle_alpha   137.88447240
_cell_angle_beta   137.88447240
_cell_angle_gamma   61.07998054
_symmetry_Int_Tables_number   1
_chemical_formula_structural   Na2Zn(GeSe3)2
_chemical_formula_sum   'Na4 Zn2 Ge4 Se12'
_cell_volume   601.74381702
_cell_formula_units_Z   2
loop_
 _symmetry_equiv_pos_site_id
 _symmetry_equiv_pos_as_xyz
  1  'x, y, z'
loop_
 _atom_site_type_symbol
 _atom_site_label
 _atom_site_symmetry_multiplicity
 _atom_site_fract_x
 _atom_site_fract_y
 _atom_site_fract_z
 _atom_site_occupancy
  Na  Na0  1  0.38257700  0.38257700  0.00000000  1
  Na  Na1  1  0.88257700  0.88257700  0.00000000  1
  Na  Na2  1  0.61742300  0.61742300  0.00000000  1
  Na  Na3  1  0.11742300  0.11742300  0.00000000  1
  Zn  Zn4  1  0.75000000  0.25000000  0.50000000  1
  Zn  Zn5  1  0.25000000  0.75000000  0.50000000  1
  Ge  Ge6  1  0.91504900  0.41504900  0.50000000  1
  Ge  Ge7  1  0.41504900  0.91504900  0.50000000  1
  Ge  Ge8  1  0.08495100  0.58495100  0.50000000  1
  Ge  Ge9  1  0.58495100  0.08495100  0.50000000  1
  Se  Se10  1  0.83808800  0.33808800  0.17617600  1
  Se  Se11  1  0.16191200  0.66191200  0.82382400  1
  Se  Se12  1  0.33808800  0.16191200  0.50000000  1
  Se  Se13  1  0.66191200  0.83808800  0.50000000  1
  Se  Se14  1  0.67213700  0.50527400  0.50000000  1
  Se  Se15  1  0.00527400  0.17213700  0.50000000  1
  Se  Se16  1  0.17213700  0.67213700  0.16686300  1
  Se  Se17  1  0.50527400  0.00527400  0.83313700  1
  Se  Se18  1  0.32786300  0.49472600  0.50000000  1
  Se  Se19  1  0.99472600  0.82786300  0.50000000  1
  Se  Se20  1  0.82786300  0.32786300  0.83313700  1
  Se  Se21  1  0.49472600  0.99472600  0.16686300  1
