# generated using pymatgen
data_K3Zn2Cl7
_symmetry_space_group_name_H-M   'P 1'
_cell_length_a   7.06303800
_cell_length_b   10.93872376
_cell_length_c   11.04393140
_cell_angle_alpha   118.52062856
_cell_angle_beta   107.53140522
_cell_angle_gamma   90.60645891
_symmetry_Int_Tables_number   1
_chemical_formula_structural   K3Zn2Cl7
_chemical_formula_sum   'K6 Zn4 Cl14'
_cell_volume   702.64483182
_cell_formula_units_Z   2
loop_
 _symmetry_equiv_pos_site_id
 _symmetry_equiv_pos_as_xyz
  1  'x, y, z'
loop_
 _atom_site_type_symbol
 _atom_site_label
 _atom_site_symmetry_multiplicity
 _atom_site_fract_x
 _atom_site_fract_y
 _atom_site_fract_z
 _atom_site_occupancy
  K  K0  1  0.61182400  0.09189600  0.21688600  1
  K  K1  1  0.38817600  0.90810400  0.78311400  1
  K  K2  1  0.09242400  0.81227500  0.22127500  1
  K  K3  1  0.90757600  0.18772500  0.77872500  1
  K  K4  1  0.86885900  0.58946900  0.71415100  1
  K  K5  1  0.13114100  0.41053100  0.28584900  1
  Zn  Zn6  1  0.49569100  0.66267000  0.99348700  1
  Zn  Zn7  1  0.50430900  0.33733000  0.00651300  1
  Zn  Zn8  1  0.35872900  0.27114800  0.56482100  1
  Zn  Zn9  1  0.64127100  0.72885200  0.43517900  1
  Cl  Cl10  1  0.33132000  0.17012400  0.70114500  1
  Cl  Cl11  1  0.66868000  0.82987600  0.29885500  1
  Cl  Cl12  1  0.30706500  0.49986300  0.65663200  1
  Cl  Cl13  1  0.69293500  0.50013700  0.34336800  1
  Cl  Cl14  1  0.72234600  0.80306100  0.97131800  1
  Cl  Cl15  1  0.27765400  0.19693900  0.02868200  1
  Cl  Cl16  1  0.72601400  0.49648200  0.98921100  1
  Cl  Cl17  1  0.27398600  0.50351800  0.01078900  1
  Cl  Cl18  1  0.25237300  0.80550600  0.98341700  1
  Cl  Cl19  1  0.74762700  0.19449400  0.01658300  1
  Cl  Cl20  1  0.67871700  0.26919800  0.55062200  1
  Cl  Cl21  1  0.32128300  0.73080200  0.44937800  1
  Cl  Cl22  1  0.13512700  0.14025000  0.32774300  1
  Cl  Cl23  1  0.86487300  0.85975000  0.67225700  1
