# generated using pymatgen
data_Ba3UFeS6
_symmetry_space_group_name_H-M   'P 1'
_cell_length_a   8.33579030
_cell_length_b   8.33579030
_cell_length_c   8.33579000
_cell_angle_alpha   94.10865171
_cell_angle_beta   94.10865171
_cell_angle_gamma   94.10865844
_symmetry_Int_Tables_number   1
_chemical_formula_structural   Ba3UFeS6
_chemical_formula_sum   'Ba6 U2 Fe2 S12'
_cell_volume   574.52359895
_cell_formula_units_Z   2
loop_
 _symmetry_equiv_pos_site_id
 _symmetry_equiv_pos_as_xyz
  1  'x, y, z'
loop_
 _atom_site_type_symbol
 _atom_site_label
 _atom_site_symmetry_multiplicity
 _atom_site_fract_x
 _atom_site_fract_y
 _atom_site_fract_z
 _atom_site_occupancy
  Ba  Ba0  1  0.36739200  0.13260800  0.75000000  1
  Ba  Ba1  1  0.75000000  0.36739200  0.13260800  1
  Ba  Ba2  1  0.13260800  0.75000000  0.36739200  1
  Ba  Ba3  1  0.25000000  0.63260800  0.86739200  1
  Ba  Ba4  1  0.86739200  0.25000000  0.63260800  1
  Ba  Ba5  1  0.63260800  0.86739200  0.25000000  1
  U  U6  1  0.25000000  0.25000000  0.25000000  1
  U  U7  1  0.75000000  0.75000000  0.75000000  1
  Fe  Fe8  1  0.50000000  0.50000000  0.50000000  1
  Fe  Fe9  1  0.00000000  0.00000000  0.00000000  1
  S  S10  1  0.20311900  0.41275000  0.53254600  1
  S  S11  1  0.53254600  0.20311900  0.41275000  1
  S  S12  1  0.41275000  0.53254600  0.20311900  1
  S  S13  1  0.03254600  0.91275000  0.70311900  1
  S  S14  1  0.70311900  0.03254600  0.91275000  1
  S  S15  1  0.91275000  0.70311900  0.03254600  1
  S  S16  1  0.79688100  0.58725000  0.46745400  1
  S  S17  1  0.46745400  0.79688100  0.58725000  1
  S  S18  1  0.58725000  0.46745400  0.79688100  1
  S  S19  1  0.96745400  0.08725000  0.29688100  1
  S  S20  1  0.29688100  0.96745400  0.08725000  1
  S  S21  1  0.08725000  0.29688100  0.96745400  1
