# generated using pymatgen
data_Ho2CuTe2(SO7)2
_symmetry_space_group_name_H-M   'P 1'
_cell_length_a   5.20045981
_cell_length_b   7.93868721
_cell_length_c   8.19231901
_cell_angle_alpha   62.33634491
_cell_angle_beta   74.16660845
_cell_angle_gamma   85.30338726
_symmetry_Int_Tables_number   1
_chemical_formula_structural   Ho2CuTe2(SO7)2
_chemical_formula_sum   'Ho2 Cu1 Te2 S2 O14'
_cell_volume   287.79219447
_cell_formula_units_Z   1
loop_
 _symmetry_equiv_pos_site_id
 _symmetry_equiv_pos_as_xyz
  1  'x, y, z'
loop_
 _atom_site_type_symbol
 _atom_site_label
 _atom_site_symmetry_multiplicity
 _atom_site_fract_x
 _atom_site_fract_y
 _atom_site_fract_z
 _atom_site_occupancy
  Ho  Ho0  1  0.92639000  0.74840500  0.98207100  1
  Ho  Ho1  1  0.07361000  0.25159400  0.01792900  1
  Cu  Cu2  1  0.00000000  0.00000000  0.50000000  1
  Te  Te3  1  0.48928400  0.72796600  0.65540600  1
  Te  Te4  1  0.51071600  0.27203400  0.34459400  1
  S  S5  1  0.25167600  0.74793600  0.25052000  1
  S  S6  1  0.74832400  0.25206400  0.74948000  1
  O  O7  1  0.13582000  0.58680000  0.24172200  1
  O  O8  1  0.86418000  0.41320000  0.75827800  1
  O  O9  1  0.14072100  0.74798000  0.43565400  1
  O  O10  1  0.85927900  0.25202000  0.56434600  1
  O  O11  1  0.54776000  0.73617400  0.21382200  1
  O  O12  1  0.45224000  0.26382600  0.78617800  1
  O  O13  1  0.17570400  0.92250500  0.09200100  1
  O  O14  1  0.82429600  0.07749500  0.90799900  1
  O  O15  1  0.24865500  0.56081500  0.89178900  1
  O  O16  1  0.75134500  0.43918500  0.10821100  1
  O  O17  1  0.72924900  0.81242600  0.74632000  1
  O  O18  1  0.27075100  0.18757400  0.25368000  1
  O  O19  1  0.24926700  0.92780600  0.65876400  1
  O  O20  1  0.75073300  0.07219400  0.34123600  1
