# generated using pymatgen
data_Tm2CuTe2(SO7)2
_symmetry_space_group_name_H-M   'P 1'
_cell_length_a   5.17744612
_cell_length_b   7.90646629
_cell_length_c   8.15683175
_cell_angle_alpha   62.26098775
_cell_angle_beta   74.06596113
_cell_angle_gamma   85.09900435
_symmetry_Int_Tables_number   1
_chemical_formula_structural   Tm2CuTe2(SO7)2
_chemical_formula_sum   'Tm2 Cu1 Te2 S2 O14'
_cell_volume   283.82261959
_cell_formula_units_Z   1
loop_
 _symmetry_equiv_pos_site_id
 _symmetry_equiv_pos_as_xyz
  1  'x, y, z'
loop_
 _atom_site_type_symbol
 _atom_site_label
 _atom_site_symmetry_multiplicity
 _atom_site_fract_x
 _atom_site_fract_y
 _atom_site_fract_z
 _atom_site_occupancy
  Tm  Tm0  1  0.92726000  0.74765600  0.98123300  1
  Tm  Tm1  1  0.07274000  0.25234400  0.01876700  1
  Cu  Cu2  1  0.00000000  0.00000000  0.50000000  1
  Te  Te3  1  0.49027300  0.72616900  0.65623700  1
  Te  Te4  1  0.50972700  0.27383100  0.34376300  1
  S  S5  1  0.25349400  0.74885800  0.24842900  1
  S  S6  1  0.74650600  0.25114200  0.75157100  1
  O  O7  1  0.13805000  0.58905500  0.23702900  1
  O  O8  1  0.86195000  0.41094500  0.76297100  1
  O  O9  1  0.14219700  0.74561700  0.43589000  1
  O  O10  1  0.85780300  0.25438300  0.56411000  1
  O  O11  1  0.55071600  0.73688900  0.21133600  1
  O  O12  1  0.44928400  0.26311100  0.78866400  1
  O  O13  1  0.17541800  0.92542400  0.09090300  1
  O  O14  1  0.82458200  0.07457600  0.90909700  1
  O  O15  1  0.24633200  0.55898200  0.89257000  1
  O  O16  1  0.75366800  0.44101800  0.10743000  1
  O  O17  1  0.72946800  0.81082700  0.74846800  1
  O  O18  1  0.27053200  0.18917300  0.25153200  1
  O  O19  1  0.24898000  0.92708800  0.66083500  1
  O  O20  1  0.75102000  0.07291200  0.33916500  1
