# generated using pymatgen
data_NaSm3GeS7
_symmetry_space_group_name_H-M   'P 1'
_cell_length_a   10.14977972
_cell_length_b   10.14977972
_cell_length_c   5.87283400
_cell_angle_alpha   90.00000000
_cell_angle_beta   90.00000000
_cell_angle_gamma   119.99999818
_symmetry_Int_Tables_number   1
_chemical_formula_structural   NaSm3GeS7
_chemical_formula_sum   'Na2 Sm6 Ge2 S14'
_cell_volume   523.95211628
_cell_formula_units_Z   2
loop_
 _symmetry_equiv_pos_site_id
 _symmetry_equiv_pos_as_xyz
  1  'x, y, z'
loop_
 _atom_site_type_symbol
 _atom_site_label
 _atom_site_symmetry_multiplicity
 _atom_site_fract_x
 _atom_site_fract_y
 _atom_site_fract_z
 _atom_site_occupancy
  Na  Na0  1  0.00000000  0.00000000  0.47590700  1
  Na  Na1  1  0.00000000  0.00000000  0.97590700  1
  Sm  Sm2  1  0.77188900  0.13321900  0.75352900  1
  Sm  Sm3  1  0.36133000  0.22811100  0.75352900  1
  Sm  Sm4  1  0.86678100  0.63867000  0.75352900  1
  Sm  Sm5  1  0.22811100  0.86678100  0.25352900  1
  Sm  Sm6  1  0.63867000  0.77188900  0.25352900  1
  Sm  Sm7  1  0.13321900  0.36133000  0.25352900  1
  Ge  Ge8  1  0.66666700  0.33333300  0.33529500  1
  Ge  Ge9  1  0.33333300  0.66666700  0.83529500  1
  S  S10  1  0.66666700  0.33333300  0.95834100  1
  S  S11  1  0.33333300  0.66666700  0.45834100  1
  S  S12  1  0.73991900  0.83757400  0.71998300  1
  S  S13  1  0.09765500  0.26008100  0.71998300  1
  S  S14  1  0.16242600  0.90234500  0.71998300  1
  S  S15  1  0.26008100  0.16242600  0.21998300  1
  S  S16  1  0.90234500  0.73991900  0.21998300  1
  S  S17  1  0.83757400  0.09765500  0.21998300  1
  S  S18  1  0.58241500  0.47953800  0.49281600  1
  S  S19  1  0.89712300  0.41758500  0.49281600  1
  S  S20  1  0.52046200  0.10287700  0.49281600  1
  S  S21  1  0.41758500  0.52046200  0.99281600  1
  S  S22  1  0.10287700  0.58241500  0.99281600  1
  S  S23  1  0.47953800  0.89712300  0.99281600  1
