# generated using pymatgen
data_Er2ZnTe2(SO7)2
_symmetry_space_group_name_H-M   'P 1'
_cell_length_a   5.27522217
_cell_length_b   7.89291112
_cell_length_c   8.17042911
_cell_angle_alpha   64.13810028
_cell_angle_beta   73.39794580
_cell_angle_gamma   85.40108047
_symmetry_Int_Tables_number   1
_chemical_formula_structural   Er2ZnTe2(SO7)2
_chemical_formula_sum   'Er2 Zn1 Te2 S2 O14'
_cell_volume   292.96873619
_cell_formula_units_Z   1
loop_
 _symmetry_equiv_pos_site_id
 _symmetry_equiv_pos_as_xyz
  1  'x, y, z'
loop_
 _atom_site_type_symbol
 _atom_site_label
 _atom_site_symmetry_multiplicity
 _atom_site_fract_x
 _atom_site_fract_y
 _atom_site_fract_z
 _atom_site_occupancy
  Er  Er0  1  0.91574400  0.74623800  0.98412100  1
  Er  Er1  1  0.08425600  0.25376200  0.01587900  1
  Zn  Zn2  1  0.00000000  0.00000000  0.50000000  1
  Te  Te3  1  0.48152900  0.72565300  0.66491400  1
  Te  Te4  1  0.51847100  0.27434700  0.33508600  1
  S  S5  1  0.23745100  0.75514700  0.24720400  1
  S  S6  1  0.76254900  0.24485300  0.75279600  1
  O  O7  1  0.10246700  0.59501600  0.24987700  1
  O  O8  1  0.89753300  0.40498400  0.75012300  1
  O  O9  1  0.13403400  0.77057500  0.42843600  1
  O  O10  1  0.86596600  0.22942500  0.57156400  1
  O  O11  1  0.52751600  0.73045100  0.21215300  1
  O  O12  1  0.47248400  0.26954900  0.78784700  1
  O  O13  1  0.17649000  0.92666300  0.08676100  1
  O  O14  1  0.82351000  0.07333700  0.91323900  1
  O  O15  1  0.24295500  0.56063600  0.89752200  1
  O  O16  1  0.75704500  0.43936400  0.10247800  1
  O  O17  1  0.72345000  0.80447600  0.75470300  1
  O  O18  1  0.27655000  0.19552400  0.24529700  1
  O  O19  1  0.24504500  0.92231000  0.66994200  1
  O  O20  1  0.75495500  0.07769000  0.33005800  1
