# generated using pymatgen
data_Bi8Mo3
_symmetry_space_group_name_H-M   'P 1'
_cell_length_a   4.90132700
_cell_length_b   7.31877300
_cell_length_c   17.14918002
_cell_angle_alpha   77.93492724
_cell_angle_beta   90.00000000
_cell_angle_gamma   90.00000000
_symmetry_Int_Tables_number   1
_chemical_formula_structural   Bi8Mo3
_chemical_formula_sum   'Bi16 Mo6'
_cell_volume   601.58164082
_cell_formula_units_Z   2
loop_
 _symmetry_equiv_pos_site_id
 _symmetry_equiv_pos_as_xyz
  1  'x, y, z'
loop_
 _atom_site_type_symbol
 _atom_site_label
 _atom_site_symmetry_multiplicity
 _atom_site_fract_x
 _atom_site_fract_y
 _atom_site_fract_z
 _atom_site_occupancy
  Bi  Bi0  1  0.25000000  0.16449000  0.48463200  1
  Bi  Bi1  1  0.75000000  0.83551000  0.51536800  1
  Bi  Bi2  1  0.75000000  0.14526100  0.63488600  1
  Bi  Bi3  1  0.25000000  0.85473900  0.36511400  1
  Bi  Bi4  1  0.25000000  0.17283800  0.76476500  1
  Bi  Bi5  1  0.75000000  0.82716200  0.23523500  1
  Bi  Bi6  1  0.75000000  0.22227400  0.89808600  1
  Bi  Bi7  1  0.25000000  0.77772600  0.10191400  1
  Bi  Bi8  1  0.25000000  0.26344300  0.03354600  1
  Bi  Bi9  1  0.75000000  0.73655700  0.96645400  1
  Bi  Bi10  1  0.75000000  0.30286600  0.16869000  1
  Bi  Bi11  1  0.25000000  0.69713400  0.83131000  1
  Bi  Bi12  1  0.25000000  0.36756800  0.28711600  1
  Bi  Bi13  1  0.75000000  0.63243200  0.71288400  1
  Bi  Bi14  1  0.75000000  0.44691300  0.40761600  1
  Bi  Bi15  1  0.25000000  0.55308700  0.59238400  1
  Mo  Mo16  1  0.75000000  0.01663600  0.06579300  1
  Mo  Mo17  1  0.25000000  0.98336400  0.93420700  1
  Mo  Mo18  1  0.25000000  0.06421100  0.20455400  1
  Mo  Mo19  1  0.75000000  0.93578900  0.79544600  1
  Mo  Mo20  1  0.75000000  0.10803700  0.34883800  1
  Mo  Mo21  1  0.25000000  0.89196300  0.65116200  1
