# generated using pymatgen
data_Zn5(N2O7)2
_symmetry_space_group_name_H-M   'P 1'
_cell_length_a   5.29086013
_cell_length_b   6.20076500
_cell_length_c   10.75102260
_cell_angle_alpha   106.76100552
_cell_angle_beta   90.86269250
_cell_angle_gamma   90.00000000
_symmetry_Int_Tables_number   1
_chemical_formula_structural   Zn5(N2O7)2
_chemical_formula_sum   'Zn5 N4 O14'
_cell_volume   337.68647311
_cell_formula_units_Z   1
loop_
 _symmetry_equiv_pos_site_id
 _symmetry_equiv_pos_as_xyz
  1  'x, y, z'
loop_
 _atom_site_type_symbol
 _atom_site_label
 _atom_site_symmetry_multiplicity
 _atom_site_fract_x
 _atom_site_fract_y
 _atom_site_fract_z
 _atom_site_occupancy
  Zn  Zn0  1  0.00000000  0.00000000  0.00000000  1
  Zn  Zn1  1  0.50000000  0.74169600  0.00000000  1
  Zn  Zn2  1  0.50000000  0.25830400  0.00000000  1
  Zn  Zn3  1  0.00336600  0.57922000  0.15844000  1
  Zn  Zn4  1  0.99663400  0.42078000  0.84156000  1
  N  N5  1  0.99540600  0.31988700  0.63977400  1
  N  N6  1  0.00459400  0.68011300  0.36022600  1
  N  N7  1  0.49792500  0.78884700  0.57769300  1
  N  N8  1  0.50207500  0.21115300  0.42230700  1
  O  O9  1  0.82528200  0.70689700  0.89605400  1
  O  O10  1  0.82528200  0.18915700  0.89605400  1
  O  O11  1  0.17471800  0.29310300  0.10394600  1
  O  O12  1  0.17471800  0.81084300  0.10394600  1
  O  O13  1  0.65243200  0.55311100  0.10622300  1
  O  O14  1  0.34756800  0.44688900  0.89377700  1
  O  O15  1  0.66516500  0.04529400  0.09058800  1
  O  O16  1  0.33483500  0.95470600  0.90941200  1
  O  O17  1  0.50544300  0.27268400  0.54536700  1
  O  O18  1  0.49455700  0.72731600  0.45463300  1
  O  O19  1  0.70510000  0.81878700  0.63757400  1
  O  O20  1  0.29490000  0.18121300  0.36242600  1
  O  O21  1  0.70663000  0.18174500  0.36349100  1
  O  O22  1  0.29337000  0.81825500  0.63650900  1
