# generated using pymatgen
data_Cu2IO8
_symmetry_space_group_name_H-M   'P 1'
_cell_length_a   5.10123200
_cell_length_b   5.75230514
_cell_length_c   9.66990453
_cell_angle_alpha   98.41533660
_cell_angle_beta   90.00000000
_cell_angle_gamma   90.00000000
_symmetry_Int_Tables_number   1
_chemical_formula_structural   Cu2IO8
_chemical_formula_sum   'Cu4 I2 O16'
_cell_volume   280.69705640
_cell_formula_units_Z   2
loop_
 _symmetry_equiv_pos_site_id
 _symmetry_equiv_pos_as_xyz
  1  'x, y, z'
loop_
 _atom_site_type_symbol
 _atom_site_label
 _atom_site_symmetry_multiplicity
 _atom_site_fract_x
 _atom_site_fract_y
 _atom_site_fract_z
 _atom_site_occupancy
  Cu  Cu0  1  0.93067700  0.17996200  0.59801400  1
  Cu  Cu1  1  0.43067700  0.82003800  0.40198600  1
  Cu  Cu2  1  0.01665000  0.77276000  0.88983200  1
  Cu  Cu3  1  0.51665000  0.22724000  0.11016800  1
  I  I4  1  0.47574200  0.04272800  0.75722100  1
  I  I5  1  0.97574200  0.95727200  0.24277900  1
  O  O6  1  0.12034800  0.02581300  0.43596400  1
  O  O7  1  0.62034800  0.97418700  0.56403600  1
  O  O8  1  0.84179000  0.88623600  0.05728800  1
  O  O9  1  0.34179000  0.11376400  0.94271200  1
  O  O10  1  0.75668300  0.72846000  0.30378000  1
  O  O11  1  0.25668300  0.27154000  0.69622000  1
  O  O12  1  0.20044500  0.20441700  0.20282800  1
  O  O13  1  0.70044500  0.79558300  0.79717200  1
  O  O14  1  0.25524700  0.73781500  0.22347900  1
  O  O15  1  0.75524700  0.26218500  0.77652100  1
  O  O16  1  0.70626800  0.19264400  0.27856300  1
  O  O17  1  0.20626800  0.80735600  0.72143700  1
  O  O18  1  0.87465900  0.46082600  0.52296300  1
  O  O19  1  0.37465900  0.53917400  0.47703700  1
  O  O20  1  0.74249100  0.40616700  0.03847700  1
  O  O21  1  0.24249100  0.59383300  0.96152300  1
