# generated using pymatgen
data_Sm2Co17N3
_symmetry_space_group_name_H-M   'P 1'
_cell_length_a   6.38461220
_cell_length_b   6.38461220
_cell_length_c   6.38461208
_cell_angle_alpha   83.68432826
_cell_angle_beta   83.68432826
_cell_angle_gamma   83.68433370
_symmetry_Int_Tables_number   1
_chemical_formula_structural   Sm2Co17N3
_chemical_formula_sum   'Sm2 Co17 N3'
_cell_volume   255.84248965
_cell_formula_units_Z   1
loop_
 _symmetry_equiv_pos_site_id
 _symmetry_equiv_pos_as_xyz
  1  'x, y, z'
loop_
 _atom_site_type_symbol
 _atom_site_label
 _atom_site_symmetry_multiplicity
 _atom_site_fract_x
 _atom_site_fract_y
 _atom_site_fract_z
 _atom_site_occupancy
  Sm  Sm0  1  0.65771800  0.65771800  0.65771800  1
  Sm  Sm1  1  0.34228200  0.34228200  0.34228200  1
  Co  Co2  1  0.00000000  0.00000000  0.50000000  1
  Co  Co3  1  0.50000000  0.00000000  0.00000000  1
  Co  Co4  1  0.00000000  0.50000000  0.00000000  1
  Co  Co5  1  0.71939600  0.28060400  0.00000000  1
  Co  Co6  1  0.00000000  0.71939600  0.28060400  1
  Co  Co7  1  0.28060400  0.00000000  0.71939600  1
  Co  Co8  1  0.00000000  0.28060400  0.71939600  1
  Co  Co9  1  0.71939600  0.00000000  0.28060400  1
  Co  Co10  1  0.28060400  0.71939600  0.00000000  1
  Co  Co11  1  0.34353400  0.34353400  0.86460800  1
  Co  Co12  1  0.86460800  0.34353400  0.34353400  1
  Co  Co13  1  0.34353400  0.86460800  0.34353400  1
  Co  Co14  1  0.65646600  0.65646600  0.13539200  1
  Co  Co15  1  0.13539200  0.65646600  0.65646600  1
  Co  Co16  1  0.65646600  0.13539200  0.65646600  1
  Co  Co17  1  0.90394900  0.90394900  0.90394900  1
  Co  Co18  1  0.09605100  0.09605100  0.09605100  1
  N  N19  1  0.50000000  0.50000000  0.00000000  1
  N  N20  1  0.00000000  0.50000000  0.50000000  1
  N  N21  1  0.50000000  0.00000000  0.50000000  1
