# generated using pymatgen
data_Ta6Ga5
_symmetry_space_group_name_H-M   'P 1'
_cell_length_a   8.94044123
_cell_length_b   8.94044123
_cell_length_c   5.47129100
_cell_angle_alpha   90.00000000
_cell_angle_beta   90.00000000
_cell_angle_gamma   119.99999428
_symmetry_Int_Tables_number   1
_chemical_formula_structural   Ta6Ga5
_chemical_formula_sum   'Ta12 Ga10'
_cell_volume   378.73755909
_cell_formula_units_Z   2
loop_
 _symmetry_equiv_pos_site_id
 _symmetry_equiv_pos_as_xyz
  1  'x, y, z'
loop_
 _atom_site_type_symbol
 _atom_site_label
 _atom_site_symmetry_multiplicity
 _atom_site_fract_x
 _atom_site_fract_y
 _atom_site_fract_z
 _atom_site_occupancy
  Ta  Ta0  1  0.50000000  0.50000000  0.50000000  1
  Ta  Ta1  1  0.50000000  0.00000000  0.50000000  1
  Ta  Ta2  1  0.00000000  0.50000000  0.50000000  1
  Ta  Ta3  1  0.50000000  0.50000000  0.00000000  1
  Ta  Ta4  1  0.50000000  0.00000000  0.00000000  1
  Ta  Ta5  1  0.00000000  0.50000000  0.00000000  1
  Ta  Ta6  1  0.15316500  0.84683500  0.25000000  1
  Ta  Ta7  1  0.15316500  0.30633000  0.25000000  1
  Ta  Ta8  1  0.69367000  0.84683500  0.25000000  1
  Ta  Ta9  1  0.84683500  0.15316500  0.75000000  1
  Ta  Ta10  1  0.84683500  0.69367000  0.75000000  1
  Ta  Ta11  1  0.30633000  0.15316500  0.75000000  1
  Ga  Ga12  1  0.00000000  0.00000000  0.50000000  1
  Ga  Ga13  1  0.00000000  0.00000000  0.00000000  1
  Ga  Ga14  1  0.33333300  0.66666700  0.25000000  1
  Ga  Ga15  1  0.66666700  0.33333300  0.75000000  1
  Ga  Ga16  1  0.79441600  0.20558400  0.25000000  1
  Ga  Ga17  1  0.79441600  0.58883200  0.25000000  1
  Ga  Ga18  1  0.41116800  0.20558400  0.25000000  1
  Ga  Ga19  1  0.20558400  0.79441600  0.75000000  1
  Ga  Ga20  1  0.20558400  0.41116800  0.75000000  1
  Ga  Ga21  1  0.58883200  0.79441600  0.75000000  1
