# generated using pymatgen
data_Ba3UMnS6
_symmetry_space_group_name_H-M   'P 1'
_cell_length_a   8.34515567
_cell_length_b   8.34515567
_cell_length_c   8.34515558
_cell_angle_alpha   93.39111372
_cell_angle_beta   93.39111372
_cell_angle_gamma   93.39111140
_symmetry_Int_Tables_number   1
_chemical_formula_structural   Ba3UMnS6
_chemical_formula_sum   'Ba6 U2 Mn2 S12'
_cell_volume   577.99101499
_cell_formula_units_Z   2
loop_
 _symmetry_equiv_pos_site_id
 _symmetry_equiv_pos_as_xyz
  1  'x, y, z'
loop_
 _atom_site_type_symbol
 _atom_site_label
 _atom_site_symmetry_multiplicity
 _atom_site_fract_x
 _atom_site_fract_y
 _atom_site_fract_z
 _atom_site_occupancy
  Ba  Ba0  1  0.36912000  0.13088000  0.75000000  1
  Ba  Ba1  1  0.75000000  0.36912000  0.13088000  1
  Ba  Ba2  1  0.13088000  0.75000000  0.36912000  1
  Ba  Ba3  1  0.25000000  0.63088000  0.86912000  1
  Ba  Ba4  1  0.86912000  0.25000000  0.63088000  1
  Ba  Ba5  1  0.63088000  0.86912000  0.25000000  1
  U  U6  1  0.25000000  0.25000000  0.25000000  1
  U  U7  1  0.75000000  0.75000000  0.75000000  1
  Mn  Mn8  1  0.50000000  0.50000000  0.50000000  1
  Mn  Mn9  1  0.00000000  0.00000000  0.00000000  1
  S  S10  1  0.20352200  0.40818000  0.53443000  1
  S  S11  1  0.53443000  0.20352200  0.40818000  1
  S  S12  1  0.40818000  0.53443000  0.20352200  1
  S  S13  1  0.03443000  0.90818000  0.70352200  1
  S  S14  1  0.70352200  0.03443000  0.90818000  1
  S  S15  1  0.90818000  0.70352200  0.03443000  1
  S  S16  1  0.79647800  0.59182000  0.46557000  1
  S  S17  1  0.46557000  0.79647800  0.59182000  1
  S  S18  1  0.59182000  0.46557000  0.79647800  1
  S  S19  1  0.96557000  0.09182000  0.29647800  1
  S  S20  1  0.29647800  0.96557000  0.09182000  1
  S  S21  1  0.09182000  0.29647800  0.96557000  1
