# generated using pymatgen
data_AlH6ClO4
_symmetry_space_group_name_H-M   'P 1'
_cell_length_a   5.22388395
_cell_length_b   7.26777412
_cell_length_c   8.05281963
_cell_angle_alpha   115.96664799
_cell_angle_beta   107.80007512
_cell_angle_gamma   92.36925716
_symmetry_Int_Tables_number   1
_chemical_formula_structural   AlH6ClO4
_chemical_formula_sum   'Al2 H12 Cl2 O8'
_cell_volume   256.17165981
_cell_formula_units_Z   2
loop_
 _symmetry_equiv_pos_site_id
 _symmetry_equiv_pos_as_xyz
  1  'x, y, z'
loop_
 _atom_site_type_symbol
 _atom_site_label
 _atom_site_symmetry_multiplicity
 _atom_site_fract_x
 _atom_site_fract_y
 _atom_site_fract_z
 _atom_site_occupancy
  Al  Al0  1  0.20000500  0.95000500  0.90000900  1
  Al  Al1  1  0.79999500  0.04999500  0.09999100  1
  H  H2  1  0.49005400  0.32360800  0.14769600  1
  H  H3  1  0.15764200  0.82408800  0.14769600  1
  H  H4  1  0.50994600  0.67639200  0.85230400  1
  H  H5  1  0.84235800  0.17591200  0.85230400  1
  H  H6  1  0.85927100  0.58797900  0.70428400  1
  H  H7  1  0.34501300  0.11630500  0.70428400  1
  H  H8  1  0.14072900  0.41202100  0.29571600  1
  H  H9  1  0.65498700  0.88369500  0.29571600  1
  H  H10  1  0.81419400  0.68543800  0.56073900  1
  H  H11  1  0.24654500  0.87530100  0.56073900  1
  H  H12  1  0.18580600  0.31456200  0.43926100  1
  H  H13  1  0.75345500  0.12469900  0.43926100  1
  Cl  Cl14  1  0.41236900  0.66236900  0.32473900  1
  Cl  Cl15  1  0.58763100  0.33763100  0.67526100  1
  O  O16  1  0.49857900  0.17736600  0.07537100  1
  O  O17  1  0.07679100  0.89800500  0.07537100  1
  O  O18  1  0.50142100  0.82263400  0.92462900  1
  O  O19  1  0.92320900  0.10199500  0.92462900  1
  O  O20  1  0.95489300  0.68425500  0.67449800  1
  O  O21  1  0.21960500  0.99024300  0.67449800  1
  O  O22  1  0.04510700  0.31574500  0.32550200  1
  O  O23  1  0.78039500  0.00975700  0.32550200  1
