# generated using pymatgen
data_NdCrB4
_symmetry_space_group_name_H-M   'P 1'
_cell_length_a   3.54911300
_cell_length_b   6.03580600
_cell_length_c   11.67399300
_cell_angle_alpha   90.00000000
_cell_angle_beta   90.00000000
_cell_angle_gamma   90.00000000
_symmetry_Int_Tables_number   1
_chemical_formula_structural   NdCrB4
_chemical_formula_sum   'Nd4 Cr4 B16'
_cell_volume   250.07744757
_cell_formula_units_Z   4
loop_
 _symmetry_equiv_pos_site_id
 _symmetry_equiv_pos_as_xyz
  1  'x, y, z'
loop_
 _atom_site_type_symbol
 _atom_site_label
 _atom_site_symmetry_multiplicity
 _atom_site_fract_x
 _atom_site_fract_y
 _atom_site_fract_z
 _atom_site_occupancy
  Nd  Nd0  1  0.00000000  0.62375100  0.34856300  1
  Nd  Nd1  1  0.00000000  0.37624900  0.65143700  1
  Nd  Nd2  1  0.00000000  0.12375100  0.15143700  1
  Nd  Nd3  1  0.00000000  0.87624900  0.84856300  1
  Cr  Cr4  1  0.00000000  0.61995400  0.07768500  1
  Cr  Cr5  1  0.00000000  0.38004600  0.92231500  1
  Cr  Cr6  1  0.00000000  0.11995400  0.42231500  1
  Cr  Cr7  1  0.00000000  0.88004600  0.57768500  1
  B  B8  1  0.50000000  0.77670100  0.18148800  1
  B  B9  1  0.50000000  0.22329900  0.81851200  1
  B  B10  1  0.50000000  0.27670100  0.31851200  1
  B  B11  1  0.50000000  0.72329900  0.68148800  1
  B  B12  1  0.50000000  0.85921000  0.03272000  1
  B  B13  1  0.50000000  0.14079000  0.96728000  1
  B  B14  1  0.50000000  0.35921000  0.46728000  1
  B  B15  1  0.50000000  0.64079000  0.53272000  1
  B  B16  1  0.50000000  0.88883900  0.45442400  1
  B  B17  1  0.50000000  0.11116100  0.54557600  1
  B  B18  1  0.50000000  0.38883900  0.04557600  1
  B  B19  1  0.50000000  0.61116100  0.95442400  1
  B  B20  1  0.50000000  0.97712500  0.31120300  1
  B  B21  1  0.50000000  0.02287500  0.68879700  1
  B  B22  1  0.50000000  0.47712500  0.18879700  1
  B  B23  1  0.50000000  0.52287500  0.81120300  1
