# generated using pymatgen
data_CsDy2Cu3S5
_symmetry_space_group_name_H-M   'P 1'
_cell_length_a   7.31865959
_cell_length_b   7.31865959
_cell_length_c   16.88658100
_cell_angle_alpha   90.00000000
_cell_angle_beta   90.00000000
_cell_angle_gamma   148.45744413
_symmetry_Int_Tables_number   1
_chemical_formula_structural   CsDy2Cu3S5
_chemical_formula_sum   'Cs2 Dy4 Cu6 S10'
_cell_volume   473.16854730
_cell_formula_units_Z   2
loop_
 _symmetry_equiv_pos_site_id
 _symmetry_equiv_pos_as_xyz
  1  'x, y, z'
loop_
 _atom_site_type_symbol
 _atom_site_label
 _atom_site_symmetry_multiplicity
 _atom_site_fract_x
 _atom_site_fract_y
 _atom_site_fract_z
 _atom_site_occupancy
  Cs  Cs0  1  0.06479700  0.93520300  0.25000000  1
  Cs  Cs1  1  0.93520300  0.06479700  0.75000000  1
  Dy  Dy2  1  0.80782000  0.19218000  0.09098400  1
  Dy  Dy3  1  0.19218000  0.80782000  0.90901600  1
  Dy  Dy4  1  0.80782000  0.19218000  0.40901600  1
  Dy  Dy5  1  0.19218000  0.80782000  0.59098400  1
  Cu  Cu6  1  0.34288300  0.65711700  0.25000000  1
  Cu  Cu7  1  0.65711700  0.34288300  0.75000000  1
  Cu  Cu8  1  0.58371900  0.41628100  0.46398900  1
  Cu  Cu9  1  0.41628100  0.58371900  0.53601100  1
  Cu  Cu10  1  0.58371900  0.41628100  0.03601100  1
  Cu  Cu11  1  0.41628100  0.58371900  0.96398900  1
  S  S12  1  0.77072000  0.22928000  0.25000000  1
  S  S13  1  0.22928000  0.77072000  0.75000000  1
  S  S14  1  0.56200800  0.43799200  0.89287100  1
  S  S15  1  0.43799200  0.56200800  0.10712900  1
  S  S16  1  0.56200800  0.43799200  0.60712900  1
  S  S17  1  0.43799200  0.56200800  0.39287100  1
  S  S18  1  0.83013500  0.16986500  0.93158800  1
  S  S19  1  0.16986500  0.83013500  0.06841200  1
  S  S20  1  0.83013500  0.16986500  0.56841200  1
  S  S21  1  0.16986500  0.83013500  0.43158800  1
