# generated using pymatgen
data_La3SbO7
_symmetry_space_group_name_H-M   'P 1'
_cell_length_a   6.78452345
_cell_length_b   6.78452345
_cell_length_c   7.83245900
_cell_angle_alpha   90.00000000
_cell_angle_beta   90.00000000
_cell_angle_gamma   110.90810550
_symmetry_Int_Tables_number   1
_chemical_formula_structural   La3SbO7
_chemical_formula_sum   'La6 Sb2 O14'
_cell_volume   336.78698741
_cell_formula_units_Z   2
loop_
 _symmetry_equiv_pos_site_id
 _symmetry_equiv_pos_as_xyz
  1  'x, y, z'
loop_
 _atom_site_type_symbol
 _atom_site_label
 _atom_site_symmetry_multiplicity
 _atom_site_fract_x
 _atom_site_fract_y
 _atom_site_fract_z
 _atom_site_occupancy
  La  La0  1  0.00000000  0.00000000  0.50000000  1
  La  La1  1  0.00000000  0.00000000  0.00000000  1
  La  La2  1  0.52301500  0.06602000  0.25000000  1
  La  La3  1  0.93398000  0.47698500  0.75000000  1
  La  La4  1  0.47698500  0.93398000  0.75000000  1
  La  La5  1  0.06602000  0.52301500  0.25000000  1
  Sb  Sb6  1  0.50000000  0.50000000  0.50000000  1
  Sb  Sb7  1  0.50000000  0.50000000  0.00000000  1
  O  O8  1  0.44042400  0.18964700  0.53190600  1
  O  O9  1  0.81035300  0.55957600  0.46809400  1
  O  O10  1  0.44042400  0.18964700  0.96809400  1
  O  O11  1  0.81035300  0.55957600  0.03190600  1
  O  O12  1  0.55957600  0.81035300  0.46809400  1
  O  O13  1  0.18964700  0.44042400  0.53190600  1
  O  O14  1  0.55957600  0.81035300  0.03190600  1
  O  O15  1  0.18964700  0.44042400  0.96809400  1
  O  O16  1  0.15389400  0.89237500  0.25000000  1
  O  O17  1  0.10762500  0.84610600  0.75000000  1
  O  O18  1  0.84610600  0.10762500  0.75000000  1
  O  O19  1  0.89237500  0.15389400  0.25000000  1
  O  O20  1  0.42562300  0.42562300  0.25000000  1
  O  O21  1  0.57437700  0.57437700  0.75000000  1
