# generated using pymatgen
data_Y3AlFeS7
_symmetry_space_group_name_H-M   'P 1'
_cell_length_a   9.51699214
_cell_length_b   9.51699214
_cell_length_c   6.19601600
_cell_angle_alpha   90.00000000
_cell_angle_beta   90.00000000
_cell_angle_gamma   120.00000097
_symmetry_Int_Tables_number   1
_chemical_formula_structural   Y3AlFeS7
_chemical_formula_sum   'Y6 Al2 Fe2 S14'
_cell_volume   486.00706123
_cell_formula_units_Z   2
loop_
 _symmetry_equiv_pos_site_id
 _symmetry_equiv_pos_as_xyz
  1  'x, y, z'
loop_
 _atom_site_type_symbol
 _atom_site_label
 _atom_site_symmetry_multiplicity
 _atom_site_fract_x
 _atom_site_fract_y
 _atom_site_fract_z
 _atom_site_occupancy
  Y  Y0  1  0.22160800  0.37450600  0.27721100  1
  Y  Y1  1  0.62549400  0.84710200  0.27721100  1
  Y  Y2  1  0.15289800  0.77839200  0.27721100  1
  Y  Y3  1  0.77839200  0.62549400  0.77721100  1
  Y  Y4  1  0.37450600  0.15289800  0.77721100  1
  Y  Y5  1  0.84710200  0.22160800  0.77721100  1
  Al  Al6  1  0.33333300  0.66666700  0.84977300  1
  Al  Al7  1  0.66666700  0.33333300  0.34977300  1
  Fe  Fe8  1  0.00000000  0.00000000  0.42906400  1
  Fe  Fe9  1  0.00000000  0.00000000  0.92906400  1
  S  S10  1  0.12345500  0.21515800  0.67454100  1
  S  S11  1  0.78484200  0.90829600  0.67454100  1
  S  S12  1  0.09170400  0.87654500  0.67454100  1
  S  S13  1  0.87654500  0.78484200  0.17454100  1
  S  S14  1  0.21515800  0.09170400  0.17454100  1
  S  S15  1  0.90829600  0.12345500  0.17454100  1
  S  S16  1  0.08892600  0.51891200  0.00398300  1
  S  S17  1  0.48108800  0.57001500  0.00398300  1
  S  S18  1  0.42998500  0.91107400  0.00398300  1
  S  S19  1  0.91107400  0.48108800  0.50398300  1
  S  S20  1  0.51891200  0.42998500  0.50398300  1
  S  S21  1  0.57001500  0.08892600  0.50398300  1
  S  S22  1  0.33333300  0.66666700  0.48876000  1
  S  S23  1  0.66666700  0.33333300  0.98876000  1
