# generated using pymatgen
data_Cs2HgC2SI4O
_symmetry_space_group_name_H-M   'P 1'
_cell_length_a   8.59705200
_cell_length_b   9.98899174
_cell_length_c   11.73326229
_cell_angle_alpha   81.95537752
_cell_angle_beta   73.48831921
_cell_angle_gamma   76.36303469
_symmetry_Int_Tables_number   1
_chemical_formula_structural   Cs2HgC2SI4O
_chemical_formula_sum   'Cs4 Hg2 C4 S2 I8 O2'
_cell_volume   935.93772260
_cell_formula_units_Z   2
loop_
 _symmetry_equiv_pos_site_id
 _symmetry_equiv_pos_as_xyz
  1  'x, y, z'
loop_
 _atom_site_type_symbol
 _atom_site_label
 _atom_site_symmetry_multiplicity
 _atom_site_fract_x
 _atom_site_fract_y
 _atom_site_fract_z
 _atom_site_occupancy
  Cs  Cs0  1  0.83018600  0.32546800  0.08394700  1
  Cs  Cs1  1  0.16981400  0.67453200  0.91605300  1
  Cs  Cs2  1  0.26372100  0.71692500  0.38917000  1
  Cs  Cs3  1  0.73627900  0.28307500  0.61083000  1
  Hg  Hg4  1  0.28037400  0.28510400  0.23293000  1
  Hg  Hg5  1  0.71962600  0.71489600  0.76707000  1
  C  C6  1  0.29259400  0.03513200  0.77206400  1
  C  C7  1  0.70740600  0.96486800  0.22793600  1
  C  C8  1  0.45008800  0.99260900  0.74242400  1
  C  C9  1  0.54991200  0.00739100  0.25757600  1
  S  S10  1  0.10152200  0.11326700  0.77832300  1
  S  S11  1  0.89847800  0.88673300  0.22167700  1
  I  I12  1  0.05349000  0.10769300  0.33340300  1
  I  I13  1  0.94651000  0.89230700  0.66659700  1
  I  I14  1  0.98215400  0.54275600  0.27388400  1
  I  I15  1  0.01784600  0.45724400  0.72611600  1
  I  I16  1  0.41456700  0.30525000  0.98635300  1
  I  I17  1  0.58543300  0.69475000  0.01364700  1
  I  I18  1  0.47215800  0.33046700  0.37762200  1
  I  I19  1  0.52784200  0.66953300  0.62237800  1
  O  O20  1  0.99524600  0.11795600  0.90239700  1
  O  O21  1  0.00475400  0.88204400  0.09760300  1
