# generated using pymatgen
data_HCN3O
_symmetry_space_group_name_H-M   'P 1'
_cell_length_a   12.68540200
_cell_length_b   4.25313700
_cell_length_c   7.98135888
_cell_angle_alpha   90.00000000
_cell_angle_beta   106.60571274
_cell_angle_gamma   90.00000000
_symmetry_Int_Tables_number   1
_chemical_formula_structural   HCN3O
_chemical_formula_sum   'H4 C4 N12 O4'
_cell_volume   412.65703483
_cell_formula_units_Z   4
loop_
 _symmetry_equiv_pos_site_id
 _symmetry_equiv_pos_as_xyz
  1  'x, y, z'
loop_
 _atom_site_type_symbol
 _atom_site_label
 _atom_site_symmetry_multiplicity
 _atom_site_fract_x
 _atom_site_fract_y
 _atom_site_fract_z
 _atom_site_occupancy
  H  H0  1  0.90090000  0.92464500  0.81889700  1
  H  H1  1  0.90090000  0.07535500  0.31889700  1
  H  H2  1  0.71271800  0.57908100  0.46849800  1
  H  H3  1  0.71271800  0.42091900  0.96849800  1
  C  C4  1  0.95762200  0.79105500  0.76396400  1
  C  C5  1  0.95762200  0.20894500  0.26396400  1
  C  C6  1  0.65671100  0.70902600  0.35959300  1
  C  C7  1  0.65671100  0.29097400  0.85959300  1
  N  N8  1  0.06885200  0.86275500  0.85605100  1
  N  N9  1  0.06885200  0.13724500  0.35605100  1
  N  N10  1  0.13848300  0.71904700  0.80263800  1
  N  N11  1  0.13848300  0.28095300  0.30263800  1
  N  N12  1  0.20682200  0.59564000  0.76116000  1
  N  N13  1  0.20682200  0.40436000  0.26116000  1
  N  N14  1  0.54514800  0.63485500  0.34715700  1
  N  N15  1  0.54514800  0.36514500  0.84715700  1
  N  N16  1  0.47622200  0.77683800  0.22850400  1
  N  N17  1  0.47622200  0.22316200  0.72850400  1
  N  N18  1  0.40872100  0.89890200  0.12322000  1
  N  N19  1  0.40872100  0.10109800  0.62322000  1
  O  O20  1  0.92938300  0.60897200  0.64148000  1
  O  O21  1  0.92938300  0.39102800  0.14148000  1
  O  O22  1  0.68586800  0.89053800  0.26348800  1
  O  O23  1  0.68586800  0.10946200  0.76348800  1
