# generated using pymatgen
data_Pr3InFeS7
_symmetry_space_group_name_H-M   'P 1'
_cell_length_a   10.06903243
_cell_length_b   10.06903243
_cell_length_c   6.42295200
_cell_angle_alpha   90.00000000
_cell_angle_beta   90.00000000
_cell_angle_gamma   120.00000283
_symmetry_Int_Tables_number   1
_chemical_formula_structural   Pr3InFeS7
_chemical_formula_sum   'Pr6 In2 Fe2 S14'
_cell_volume   563.95022599
_cell_formula_units_Z   2
loop_
 _symmetry_equiv_pos_site_id
 _symmetry_equiv_pos_as_xyz
  1  'x, y, z'
loop_
 _atom_site_type_symbol
 _atom_site_label
 _atom_site_symmetry_multiplicity
 _atom_site_fract_x
 _atom_site_fract_y
 _atom_site_fract_z
 _atom_site_occupancy
  Pr  Pr0  1  0.84565700  0.22013500  0.31887200  1
  Pr  Pr1  1  0.77986500  0.62552100  0.31887200  1
  Pr  Pr2  1  0.37447900  0.15434300  0.31887200  1
  Pr  Pr3  1  0.15434300  0.77986500  0.81887200  1
  Pr  Pr4  1  0.22013500  0.37447900  0.81887200  1
  Pr  Pr5  1  0.62552100  0.84565700  0.81887200  1
  In  In6  1  0.33333300  0.66666700  0.39033000  1
  In  In7  1  0.66666700  0.33333300  0.89033000  1
  Fe  Fe8  1  0.00000000  0.00000000  0.47734900  1
  Fe  Fe9  1  0.00000000  0.00000000  0.97734900  1
  S  S10  1  0.12825700  0.22410300  0.21919800  1
  S  S11  1  0.77589700  0.90415400  0.21919800  1
  S  S12  1  0.09584600  0.87174300  0.21919800  1
  S  S13  1  0.87174300  0.77589700  0.71919800  1
  S  S14  1  0.22410300  0.09584600  0.71919800  1
  S  S15  1  0.90415400  0.12825700  0.71919800  1
  S  S16  1  0.56593200  0.08057500  0.05867200  1
  S  S17  1  0.91942500  0.48535700  0.05867200  1
  S  S18  1  0.51464300  0.43406800  0.05867200  1
  S  S19  1  0.43406800  0.91942500  0.55867200  1
  S  S20  1  0.08057500  0.51464300  0.55867200  1
  S  S21  1  0.48535700  0.56593200  0.55867200  1
  S  S22  1  0.33333300  0.66666700  0.01175200  1
  S  S23  1  0.66666700  0.33333300  0.51175200  1
