# generated using pymatgen
data_HfMo2
_symmetry_space_group_name_H-M   'P 1'
_cell_length_a   5.37782023
_cell_length_b   5.37782023
_cell_length_c   17.45633300
_cell_angle_alpha   90.00000000
_cell_angle_beta   90.00000000
_cell_angle_gamma   120.00000280
_symmetry_Int_Tables_number   1
_chemical_formula_structural   HfMo2
_chemical_formula_sum   'Hf8 Mo16'
_cell_volume   437.21615247
_cell_formula_units_Z   8
loop_
 _symmetry_equiv_pos_site_id
 _symmetry_equiv_pos_as_xyz
  1  'x, y, z'
loop_
 _atom_site_type_symbol
 _atom_site_label
 _atom_site_symmetry_multiplicity
 _atom_site_fract_x
 _atom_site_fract_y
 _atom_site_fract_z
 _atom_site_occupancy
  Hf  Hf0  1  0.00000000  0.00000000  0.40560400  1
  Hf  Hf1  1  0.00000000  0.00000000  0.59439600  1
  Hf  Hf2  1  0.00000000  0.00000000  0.90560400  1
  Hf  Hf3  1  0.00000000  0.00000000  0.09439600  1
  Hf  Hf4  1  0.33333300  0.66666700  0.65647700  1
  Hf  Hf5  1  0.66666700  0.33333300  0.34352300  1
  Hf  Hf6  1  0.66666700  0.33333300  0.15647700  1
  Hf  Hf7  1  0.33333300  0.66666700  0.84352300  1
  Mo  Mo8  1  0.33333300  0.66666700  0.37607400  1
  Mo  Mo9  1  0.66666700  0.33333300  0.62392600  1
  Mo  Mo10  1  0.66666700  0.33333300  0.87607400  1
  Mo  Mo11  1  0.33333300  0.66666700  0.12392600  1
  Mo  Mo12  1  0.50000000  0.50000000  0.50000000  1
  Mo  Mo13  1  0.50000000  0.00000000  0.50000000  1
  Mo  Mo14  1  0.00000000  0.50000000  0.50000000  1
  Mo  Mo15  1  0.50000000  0.50000000  0.00000000  1
  Mo  Mo16  1  0.50000000  0.00000000  0.00000000  1
  Mo  Mo17  1  0.00000000  0.50000000  0.00000000  1
  Mo  Mo18  1  0.16339300  0.83660700  0.25000000  1
  Mo  Mo19  1  0.16339300  0.32678600  0.25000000  1
  Mo  Mo20  1  0.67321400  0.83660700  0.25000000  1
  Mo  Mo21  1  0.83660700  0.16339300  0.75000000  1
  Mo  Mo22  1  0.83660700  0.67321400  0.75000000  1
  Mo  Mo23  1  0.32678600  0.16339300  0.75000000  1
