# generated using pymatgen
data_InI4N
_symmetry_space_group_name_H-M   'P 1'
_cell_length_a   7.31566800
_cell_length_b   11.84801100
_cell_length_c   12.14908000
_cell_angle_alpha   90.00000000
_cell_angle_beta   90.00000000
_cell_angle_gamma   90.00000000
_symmetry_Int_Tables_number   1
_chemical_formula_structural   InI4N
_chemical_formula_sum   'In4 I16 N4'
_cell_volume   1053.03505445
_cell_formula_units_Z   4
loop_
 _symmetry_equiv_pos_site_id
 _symmetry_equiv_pos_as_xyz
  1  'x, y, z'
loop_
 _atom_site_type_symbol
 _atom_site_label
 _atom_site_symmetry_multiplicity
 _atom_site_fract_x
 _atom_site_fract_y
 _atom_site_fract_z
 _atom_site_occupancy
  In  In0  1  0.75000000  0.50000000  0.67364100  1
  In  In1  1  0.75000000  0.00000000  0.82635900  1
  In  In2  1  0.25000000  0.50000000  0.32635900  1
  In  In3  1  0.25000000  0.00000000  0.17364100  1
  I  I4  1  0.83447900  0.31925800  0.53566600  1
  I  I5  1  0.66552100  0.68074200  0.53566600  1
  I  I6  1  0.83447900  0.18074200  0.96433400  1
  I  I7  1  0.66552100  0.81925800  0.96433400  1
  I  I8  1  0.16552100  0.68074200  0.46433400  1
  I  I9  1  0.33447900  0.31925800  0.46433400  1
  I  I10  1  0.16552100  0.81925800  0.03566600  1
  I  I11  1  0.33447900  0.18074200  0.03566600  1
  I  I12  1  0.47886700  0.44458700  0.82211600  1
  I  I13  1  0.02113300  0.55541300  0.82211600  1
  I  I14  1  0.47886700  0.05541300  0.67788400  1
  I  I15  1  0.02113300  0.94458700  0.67788400  1
  I  I16  1  0.52113300  0.55541300  0.17788400  1
  I  I17  1  0.97886700  0.44458700  0.17788400  1
  I  I18  1  0.52113300  0.94458700  0.32211600  1
  I  I19  1  0.97886700  0.05541300  0.32211600  1
  N  N20  1  0.17264800  0.25000000  0.75000000  1
  N  N21  1  0.32735200  0.75000000  0.75000000  1
  N  N22  1  0.82735200  0.75000000  0.25000000  1
  N  N23  1  0.67264800  0.25000000  0.25000000  1
