# generated using pymatgen
data_Co(IO4)2
_symmetry_space_group_name_H-M   'P 1'
_cell_length_a   4.66295458
_cell_length_b   6.66956450
_cell_length_c   10.05738111
_cell_angle_alpha   95.95701042
_cell_angle_beta   91.16647125
_cell_angle_gamma   89.43641549
_symmetry_Int_Tables_number   1
_chemical_formula_structural   Co(IO4)2
_chemical_formula_sum   'Co2 I4 O16'
_cell_volume   311.02044169
_cell_formula_units_Z   2
loop_
 _symmetry_equiv_pos_site_id
 _symmetry_equiv_pos_as_xyz
  1  'x, y, z'
loop_
 _atom_site_type_symbol
 _atom_site_label
 _atom_site_symmetry_multiplicity
 _atom_site_fract_x
 _atom_site_fract_y
 _atom_site_fract_z
 _atom_site_occupancy
  Co  Co0  1  0.00000000  0.00000000  0.00000000  1
  Co  Co1  1  0.00000000  0.00000000  0.50000000  1
  I  I2  1  0.39167000  0.76546900  0.73062300  1
  I  I3  1  0.60833000  0.23453100  0.26937700  1
  I  I4  1  0.91616300  0.28712200  0.76946200  1
  I  I5  1  0.08383700  0.71287800  0.23053800  1
  O  O6  1  0.18820000  0.78374500  0.88984600  1
  O  O7  1  0.81180000  0.21625500  0.11015400  1
  O  O8  1  0.23546100  0.99898800  0.65951200  1
  O  O9  1  0.76453900  0.00101200  0.34048800  1
  O  O10  1  0.16165900  0.57893100  0.63963800  1
  O  O11  1  0.83834100  0.42106900  0.36036200  1
  O  O12  1  0.77018500  0.80609200  0.02768900  1
  O  O13  1  0.22981500  0.19390800  0.97231100  1
  O  O14  1  0.75930400  0.06897200  0.85253200  1
  O  O15  1  0.24069600  0.93102800  0.14746800  1
  O  O16  1  0.76665500  0.19744500  0.59994200  1
  O  O17  1  0.23334500  0.80255500  0.40005800  1
  O  O18  1  0.62419100  0.46144500  0.81292700  1
  O  O19  1  0.37580900  0.53855500  0.18707300  1
  O  O20  1  0.77695400  0.80807200  0.54513500  1
  O  O21  1  0.22304600  0.19192800  0.45486500  1
