# generated using pymatgen
data_BaAl4Se7
_symmetry_space_group_name_H-M   'P 1'
_cell_length_a   6.62518600
_cell_length_b   7.72266800
_cell_length_c   14.91439570
_cell_angle_alpha   58.98566460
_cell_angle_beta   90.00000000
_cell_angle_gamma   90.00000000
_symmetry_Int_Tables_number   1
_chemical_formula_structural   BaAl4Se7
_chemical_formula_sum   'Ba2 Al8 Se14'
_cell_volume   653.99042298
_cell_formula_units_Z   2
loop_
 _symmetry_equiv_pos_site_id
 _symmetry_equiv_pos_as_xyz
  1  'x, y, z'
loop_
 _atom_site_type_symbol
 _atom_site_label
 _atom_site_symmetry_multiplicity
 _atom_site_fract_x
 _atom_site_fract_y
 _atom_site_fract_z
 _atom_site_occupancy
  Ba  Ba0  1  0.64197800  0.43496000  0.54539000  1
  Ba  Ba1  1  0.35802200  0.43496000  0.04539000  1
  Al  Al2  1  0.83874400  0.99239800  0.24046700  1
  Al  Al3  1  0.16125600  0.99239800  0.74046700  1
  Al  Al4  1  0.98752700  0.99648500  0.50257000  1
  Al  Al5  1  0.01247300  0.99648500  0.00257000  1
  Al  Al6  1  0.84562700  0.50868700  0.22865600  1
  Al  Al7  1  0.15437300  0.50868700  0.72865600  1
  Al  Al8  1  0.63518000  0.76410100  0.72499200  1
  Al  Al9  1  0.36482000  0.76410100  0.22499200  1
  Se  Se10  1  0.85315900  0.21089300  0.05611000  1
  Se  Se11  1  0.14684100  0.21089300  0.55611000  1
  Se  Se12  1  0.63795700  0.99208600  0.54049900  1
  Se  Se13  1  0.36204300  0.99208600  0.04049900  1
  Se  Se14  1  0.89470000  0.66936800  0.04572300  1
  Se  Se15  1  0.10530000  0.66936800  0.54572300  1
  Se  Se16  1  0.97709300  0.67491700  0.80727000  1
  Se  Se17  1  0.02290700  0.67491700  0.30727000  1
  Se  Se18  1  0.48616600  0.90619000  0.81893300  1
  Se  Se19  1  0.51383400  0.90619000  0.31893300  1
  Se  Se20  1  0.49839900  0.43813200  0.77952000  1
  Se  Se21  1  0.50160100  0.43813200  0.27952000  1
  Se  Se22  1  0.97752200  0.18048300  0.80758800  1
  Se  Se23  1  0.02247800  0.18048300  0.30758800  1
