# generated using pymatgen
data_YbAlB4
_symmetry_space_group_name_H-M   'P 1'
_cell_length_a   3.47593400
_cell_length_b   6.00323900
_cell_length_c   11.61712100
_cell_angle_alpha   90.00000000
_cell_angle_beta   90.00000000
_cell_angle_gamma   90.00000000
_symmetry_Int_Tables_number   1
_chemical_formula_structural   YbAlB4
_chemical_formula_sum   'Yb4 Al4 B16'
_cell_volume   242.41286714
_cell_formula_units_Z   4
loop_
 _symmetry_equiv_pos_site_id
 _symmetry_equiv_pos_as_xyz
  1  'x, y, z'
loop_
 _atom_site_type_symbol
 _atom_site_label
 _atom_site_symmetry_multiplicity
 _atom_site_fract_x
 _atom_site_fract_y
 _atom_site_fract_z
 _atom_site_occupancy
  Yb  Yb0  1  0.00000000  0.62830200  0.34957800  1
  Yb  Yb1  1  0.00000000  0.37169800  0.65042200  1
  Yb  Yb2  1  0.00000000  0.12830200  0.15042200  1
  Yb  Yb3  1  0.00000000  0.87169800  0.84957800  1
  Al  Al4  1  0.00000000  0.63978900  0.09131100  1
  Al  Al5  1  0.00000000  0.36021100  0.90868900  1
  Al  Al6  1  0.00000000  0.13978900  0.40868900  1
  Al  Al7  1  0.00000000  0.86021100  0.59131100  1
  B  B8  1  0.50000000  0.78963700  0.18722500  1
  B  B9  1  0.50000000  0.21036300  0.81277500  1
  B  B10  1  0.50000000  0.28963700  0.31277500  1
  B  B11  1  0.50000000  0.71036300  0.68722500  1
  B  B12  1  0.50000000  0.86558200  0.03089500  1
  B  B13  1  0.50000000  0.13441800  0.96910500  1
  B  B14  1  0.50000000  0.36558200  0.46910500  1
  B  B15  1  0.50000000  0.63441800  0.53089500  1
  B  B16  1  0.50000000  0.88634100  0.45305000  1
  B  B17  1  0.50000000  0.11365900  0.54695000  1
  B  B18  1  0.50000000  0.38634100  0.04695000  1
  B  B19  1  0.50000000  0.61365900  0.95305000  1
  B  B20  1  0.50000000  0.97437500  0.30751500  1
  B  B21  1  0.50000000  0.02562500  0.69248500  1
  B  B22  1  0.50000000  0.47437500  0.19248500  1
  B  B23  1  0.50000000  0.52562500  0.80751500  1
