# generated using pymatgen
data_Cu3Bi2(PO7)2
_symmetry_space_group_name_H-M   'P 1'
_cell_length_a   7.25617727
_cell_length_b   7.25617727
_cell_length_c   9.45380224
_cell_angle_alpha   53.78293260
_cell_angle_beta   53.78293260
_cell_angle_gamma   49.89923491
_symmetry_Int_Tables_number   1
_chemical_formula_structural   Cu3Bi2(PO7)2
_chemical_formula_sum   'Cu3 Bi2 P2 O14'
_cell_volume   288.79951301
_cell_formula_units_Z   1
loop_
 _symmetry_equiv_pos_site_id
 _symmetry_equiv_pos_as_xyz
  1  'x, y, z'
loop_
 _atom_site_type_symbol
 _atom_site_label
 _atom_site_symmetry_multiplicity
 _atom_site_fract_x
 _atom_site_fract_y
 _atom_site_fract_z
 _atom_site_occupancy
  Cu  Cu0  1  0.50000000  0.50000000  0.00000000  1
  Cu  Cu1  1  0.50000000  0.00000000  0.00000000  1
  Cu  Cu2  1  0.00000000  0.50000000  0.00000000  1
  Bi  Bi3  1  0.16910200  0.16910200  0.76533000  1
  Bi  Bi4  1  0.83089800  0.83089800  0.23467000  1
  P  P5  1  0.80012400  0.80012400  0.65778900  1
  P  P6  1  0.19987600  0.19987600  0.34221100  1
  O  O7  1  0.15892100  0.15892100  0.01496700  1
  O  O8  1  0.84107900  0.84107900  0.98503300  1
  O  O9  1  0.11319300  0.11319300  0.55225500  1
  O  O10  1  0.88680700  0.88680700  0.44774500  1
  O  O11  1  0.65017600  0.65017600  0.73610900  1
  O  O12  1  0.34982400  0.34982400  0.26389100  1
  O  O13  1  0.20332900  0.79667100  0.00000000  1
  O  O14  1  0.79667100  0.20332900  0.00000000  1
  O  O15  1  0.60912700  0.03492500  0.72613100  1
  O  O16  1  0.03492500  0.60912700  0.72613100  1
  O  O17  1  0.39087300  0.96507500  0.27386900  1
  O  O18  1  0.96507500  0.39087300  0.27386900  1
  O  O19  1  0.63285400  0.63285400  0.06345600  1
  O  O20  1  0.36714600  0.36714600  0.93654400  1
