# generated using pymatgen
data_CoN6(ClO)2
_symmetry_space_group_name_H-M   'P 1'
_cell_length_a   7.89426816
_cell_length_b   7.89426816
_cell_length_c   10.18803438
_cell_angle_alpha   72.34202871
_cell_angle_beta   72.34202871
_cell_angle_gamma   86.13760402
_symmetry_Int_Tables_number   1
_chemical_formula_structural   CoN6(ClO)2
_chemical_formula_sum   'Co2 N12 Cl4 O4'
_cell_volume   576.28103905
_cell_formula_units_Z   2
loop_
 _symmetry_equiv_pos_site_id
 _symmetry_equiv_pos_as_xyz
  1  'x, y, z'
loop_
 _atom_site_type_symbol
 _atom_site_label
 _atom_site_symmetry_multiplicity
 _atom_site_fract_x
 _atom_site_fract_y
 _atom_site_fract_z
 _atom_site_occupancy
  Co  Co0  1  0.99021800  0.00978200  0.75000000  1
  Co  Co1  1  0.00978200  0.99021800  0.25000000  1
  N  N2  1  0.70739000  0.29261000  0.75000000  1
  N  N3  1  0.29261000  0.70739000  0.25000000  1
  N  N4  1  0.82639200  0.17360800  0.75000000  1
  N  N5  1  0.17360800  0.82639200  0.25000000  1
  N  N6  1  0.41141500  0.83430500  0.83700100  1
  N  N7  1  0.16569500  0.58858500  0.66299900  1
  N  N8  1  0.58858500  0.16569500  0.16299900  1
  N  N9  1  0.83430500  0.41141500  0.33700100  1
  N  N10  1  0.49402200  0.76651000  0.90796000  1
  N  N11  1  0.23349000  0.50597800  0.59204000  1
  N  N12  1  0.50597800  0.23349000  0.09204000  1
  N  N13  1  0.76651000  0.49402200  0.40796000  1
  Cl  Cl14  1  0.78692000  0.95300800  0.43294900  1
  Cl  Cl15  1  0.04699200  0.21308000  0.06705100  1
  Cl  Cl16  1  0.21308000  0.04699200  0.56705100  1
  Cl  Cl17  1  0.95300800  0.78692000  0.93294900  1
  O  O18  1  0.56602400  0.25970200  0.72952600  1
  O  O19  1  0.74029800  0.43397600  0.77047400  1
  O  O20  1  0.43397600  0.74029800  0.27047400  1
  O  O21  1  0.25970200  0.56602400  0.22952600  1
