# generated using pymatgen
data_CoSbS
_symmetry_space_group_name_H-M   'P 1'
_cell_length_a   5.86026400
_cell_length_b   5.93599800
_cell_length_c   11.69824800
_cell_angle_alpha   90.00000000
_cell_angle_beta   90.00000000
_cell_angle_gamma   90.00000000
_symmetry_Int_Tables_number   1
_chemical_formula_structural   CoSbS
_chemical_formula_sum   'Co8 Sb8 S8'
_cell_volume   406.94128401
_cell_formula_units_Z   8
loop_
 _symmetry_equiv_pos_site_id
 _symmetry_equiv_pos_as_xyz
  1  'x, y, z'
loop_
 _atom_site_type_symbol
 _atom_site_label
 _atom_site_symmetry_multiplicity
 _atom_site_fract_x
 _atom_site_fract_y
 _atom_site_fract_z
 _atom_site_occupancy
  Co  Co0  1  0.51663800  0.82165300  0.35886100  1
  Co  Co1  1  0.01663800  0.67834700  0.64113900  1
  Co  Co2  1  0.48336200  0.32165300  0.14113900  1
  Co  Co3  1  0.98336200  0.17834700  0.85886100  1
  Co  Co4  1  0.48336200  0.17834700  0.64113900  1
  Co  Co5  1  0.98336200  0.32165300  0.35886100  1
  Co  Co6  1  0.51663800  0.67834700  0.85886100  1
  Co  Co7  1  0.01663800  0.82165300  0.14113900  1
  Sb  Sb8  1  0.36937800  0.19302300  0.43033200  1
  Sb  Sb9  1  0.86937800  0.30697700  0.56966800  1
  Sb  Sb10  1  0.63062200  0.69302300  0.06966800  1
  Sb  Sb11  1  0.13062200  0.80697700  0.93033200  1
  Sb  Sb12  1  0.63062200  0.80697700  0.56966800  1
  Sb  Sb13  1  0.13062200  0.69302300  0.43033200  1
  Sb  Sb14  1  0.36937800  0.30697700  0.93033200  1
  Sb  Sb15  1  0.86937800  0.19302300  0.06966800  1
  S  S16  1  0.62698000  0.44817100  0.31384900  1
  S  S17  1  0.12698000  0.05182900  0.68615100  1
  S  S18  1  0.37302000  0.94817100  0.18615100  1
  S  S19  1  0.87302000  0.55182900  0.81384900  1
  S  S20  1  0.37302000  0.55182900  0.68615100  1
  S  S21  1  0.87302000  0.94817100  0.31384900  1
  S  S22  1  0.62698000  0.05182900  0.81384900  1
  S  S23  1  0.12698000  0.44817100  0.18615100  1
