# generated using pymatgen
data_TlHgAsS3
_symmetry_space_group_name_H-M   'P 1'
_cell_length_a   9.81621932
_cell_length_b   9.81621932
_cell_length_c   9.81621932
_cell_angle_alpha   107.03563213
_cell_angle_beta   107.03563213
_cell_angle_gamma   114.46059085
_symmetry_Int_Tables_number   1
_chemical_formula_structural   TlHgAsS3
_chemical_formula_sum   'Tl4 Hg4 As4 S12'
_cell_volume   723.95523249
_cell_formula_units_Z   4
loop_
 _symmetry_equiv_pos_site_id
 _symmetry_equiv_pos_as_xyz
  1  'x, y, z'
loop_
 _atom_site_type_symbol
 _atom_site_label
 _atom_site_symmetry_multiplicity
 _atom_site_fract_x
 _atom_site_fract_y
 _atom_site_fract_z
 _atom_site_occupancy
  Tl  Tl0  1  0.34241200  0.34241200  0.00000000  1
  Tl  Tl1  1  0.65758800  0.65758800  0.00000000  1
  Tl  Tl2  1  0.75000000  0.25000000  0.50000000  1
  Tl  Tl3  1  0.25000000  0.75000000  0.50000000  1
  Hg  Hg4  1  0.00000000  0.27669500  0.27669500  1
  Hg  Hg5  1  0.00000000  0.72330500  0.72330500  1
  Hg  Hg6  1  0.72330500  0.00000000  0.72330500  1
  Hg  Hg7  1  0.27669500  0.00000000  0.27669500  1
  As  As8  1  0.01882200  0.01882200  0.49632100  1
  As  As9  1  0.52250100  0.52250100  0.50367900  1
  As  As10  1  0.98117800  0.47749900  0.00000000  1
  As  As11  1  0.47749900  0.98117800  0.00000000  1
  S  S12  1  0.08469800  0.28679300  0.55306500  1
  S  S13  1  0.73372900  0.53163300  0.44693500  1
  S  S14  1  0.91530200  0.46836700  0.20209600  1
  S  S15  1  0.26627100  0.71320700  0.79790400  1
  S  S16  1  0.71320700  0.26627100  0.79790400  1
  S  S17  1  0.46836700  0.91530200  0.20209600  1
  S  S18  1  0.28679300  0.08469800  0.55306500  1
  S  S19  1  0.53163300  0.73372900  0.44693500  1
  S  S20  1  0.02640900  0.02640900  0.74005200  1
  S  S21  1  0.28635700  0.28635700  0.25994800  1
  S  S22  1  0.97359100  0.71364300  0.00000000  1
  S  S23  1  0.71364300  0.97359100  0.00000000  1
