# generated using pymatgen
data_S2NO9
_symmetry_space_group_name_H-M   'P 1'
_cell_length_a   6.03601976
_cell_length_b   8.15069207
_cell_length_c   8.69854383
_cell_angle_alpha   80.36316510
_cell_angle_beta   72.02640635
_cell_angle_gamma   80.42530965
_symmetry_Int_Tables_number   1
_chemical_formula_structural   S2NO9
_chemical_formula_sum   'S4 N2 O18'
_cell_volume   398.30813451
_cell_formula_units_Z   2
loop_
 _symmetry_equiv_pos_site_id
 _symmetry_equiv_pos_as_xyz
  1  'x, y, z'
loop_
 _atom_site_type_symbol
 _atom_site_label
 _atom_site_symmetry_multiplicity
 _atom_site_fract_x
 _atom_site_fract_y
 _atom_site_fract_z
 _atom_site_occupancy
  S  S0  1  0.24271500  0.85328300  0.81451300  1
  S  S1  1  0.75728500  0.14671700  0.18548700  1
  S  S2  1  0.66239100  0.71593600  0.57437500  1
  S  S3  1  0.33760900  0.28406400  0.42562500  1
  N  N4  1  0.56224300  0.27049200  0.81199400  1
  N  N5  1  0.43775700  0.72950800  0.18800600  1
  O  O6  1  0.24442100  0.70305500  0.93220100  1
  O  O7  1  0.75557900  0.29694500  0.06779900  1
  O  O8  1  0.70045000  0.58003900  0.69903900  1
  O  O9  1  0.29955000  0.41996100  0.30096100  1
  O  O10  1  0.67811200  0.66191200  0.41926400  1
  O  O11  1  0.32188800  0.33808800  0.58073600  1
  O  O12  1  0.37356900  0.97803000  0.83701100  1
  O  O13  1  0.62643100  0.02197000  0.16298900  1
  O  O14  1  0.01457300  0.91804200  0.79328800  1
  O  O15  1  0.98542700  0.08195800  0.20671200  1
  O  O16  1  0.38250200  0.79219000  0.63181600  1
  O  O17  1  0.61749800  0.20781000  0.36818400  1
  O  O18  1  0.80037100  0.85290000  0.55504500  1
  O  O19  1  0.19962900  0.14710000  0.44495500  1
  O  O20  1  0.39027300  0.32569300  0.89608000  1
  O  O21  1  0.60972700  0.67430700  0.10392000  1
  O  O22  1  0.73478600  0.21244600  0.73127700  1
  O  O23  1  0.26521400  0.78755400  0.26872300  1
