# generated using pymatgen
data_La3BeBiS7
_symmetry_space_group_name_H-M   'P 1'
_cell_length_a   10.31170879
_cell_length_b   10.31170879
_cell_length_c   6.28034100
_cell_angle_alpha   90.00000000
_cell_angle_beta   90.00000000
_cell_angle_gamma   120.00000509
_symmetry_Int_Tables_number   1
_chemical_formula_structural   La3BeBiS7
_chemical_formula_sum   'La6 Be2 Bi2 S14'
_cell_volume   578.32919155
_cell_formula_units_Z   2
loop_
 _symmetry_equiv_pos_site_id
 _symmetry_equiv_pos_as_xyz
  1  'x, y, z'
loop_
 _atom_site_type_symbol
 _atom_site_label
 _atom_site_symmetry_multiplicity
 _atom_site_fract_x
 _atom_site_fract_y
 _atom_site_fract_z
 _atom_site_occupancy
  La  La0  1  0.73857600  0.13632000  0.24739600  1
  La  La1  1  0.39774400  0.26142400  0.24739600  1
  La  La2  1  0.86368000  0.60225600  0.24739600  1
  La  La3  1  0.26142400  0.86368000  0.74739600  1
  La  La4  1  0.60225600  0.73857600  0.74739600  1
  La  La5  1  0.13632000  0.39774400  0.74739600  1
  Be  Be6  1  0.66666700  0.33333300  0.65970000  1
  Be  Be7  1  0.33333300  0.66666700  0.15970000  1
  Bi  Bi8  1  0.00000000  0.00000000  0.01002800  1
  Bi  Bi9  1  0.00000000  0.00000000  0.51002800  1
  S  S10  1  0.83213700  0.08702100  0.77656400  1
  S  S11  1  0.25488500  0.16786300  0.77656400  1
  S  S12  1  0.91297900  0.74511500  0.77656400  1
  S  S13  1  0.16786300  0.91297900  0.27656400  1
  S  S14  1  0.74511500  0.83213700  0.27656400  1
  S  S15  1  0.08702100  0.25488500  0.27656400  1
  S  S16  1  0.88267800  0.40325800  0.52764400  1
  S  S17  1  0.52058000  0.11732200  0.52764400  1
  S  S18  1  0.59674200  0.47942000  0.52764400  1
  S  S19  1  0.11732200  0.59674200  0.02764400  1
  S  S20  1  0.47942000  0.88267800  0.02764400  1
  S  S21  1  0.40325800  0.52058000  0.02764400  1
  S  S22  1  0.66666700  0.33333300  0.00746300  1
  S  S23  1  0.33333300  0.66666700  0.50746300  1
