# generated using pymatgen
data_Sm4Ge7
_symmetry_space_group_name_H-M   'P 1'
_cell_length_a   7.57233623
_cell_length_b   7.57233623
_cell_length_c   11.95302800
_cell_angle_alpha   90.00000000
_cell_angle_beta   90.00000000
_cell_angle_gamma   133.56859403
_symmetry_Int_Tables_number   1
_chemical_formula_structural   Sm4Ge7
_chemical_formula_sum   'Sm8 Ge14'
_cell_volume   496.59910389
_cell_formula_units_Z   2
loop_
 _symmetry_equiv_pos_site_id
 _symmetry_equiv_pos_as_xyz
  1  'x, y, z'
loop_
 _atom_site_type_symbol
 _atom_site_label
 _atom_site_symmetry_multiplicity
 _atom_site_fract_x
 _atom_site_fract_y
 _atom_site_fract_z
 _atom_site_occupancy
  Sm  Sm0  1  0.49188200  0.98255900  0.38018500  1
  Sm  Sm1  1  0.98255900  0.49188200  0.61981500  1
  Sm  Sm2  1  0.50811800  0.01744100  0.88018500  1
  Sm  Sm3  1  0.01744100  0.50811800  0.11981500  1
  Sm  Sm4  1  0.99567400  0.00432600  0.25000000  1
  Sm  Sm5  1  0.00432600  0.99567400  0.75000000  1
  Sm  Sm6  1  0.48664000  0.48664000  0.50000000  1
  Sm  Sm7  1  0.51336000  0.51336000  0.00000000  1
  Ge  Ge8  1  0.92904300  0.10673400  0.98914900  1
  Ge  Ge9  1  0.10673400  0.92904300  0.01085100  1
  Ge  Ge10  1  0.07095700  0.89326600  0.48914900  1
  Ge  Ge11  1  0.89326600  0.07095700  0.51085100  1
  Ge  Ge12  1  0.57417900  0.91899400  0.12828900  1
  Ge  Ge13  1  0.91899400  0.57417900  0.87171100  1
  Ge  Ge14  1  0.42582100  0.08100600  0.62828900  1
  Ge  Ge15  1  0.08100600  0.42582100  0.37171100  1
  Ge  Ge16  1  0.47449000  0.18013100  0.16306000  1
  Ge  Ge17  1  0.18013100  0.47449000  0.83694000  1
  Ge  Ge18  1  0.52551000  0.81986900  0.66306000  1
  Ge  Ge19  1  0.81986900  0.52551000  0.33694000  1
  Ge  Ge20  1  0.43914100  0.56085900  0.25000000  1
  Ge  Ge21  1  0.56085900  0.43914100  0.75000000  1
