# generated using pymatgen
data_Cd5(NO8)2
_symmetry_space_group_name_H-M   'P 1'
_cell_length_a   9.83652778
_cell_length_b   9.83652778
_cell_length_c   5.72041081
_cell_angle_alpha   87.61252659
_cell_angle_beta   87.61252659
_cell_angle_gamma   45.21051630
_symmetry_Int_Tables_number   1
_chemical_formula_structural   Cd5(NO8)2
_chemical_formula_sum   'Cd5 N2 O16'
_cell_volume   392.41274672
_cell_formula_units_Z   1
loop_
 _symmetry_equiv_pos_site_id
 _symmetry_equiv_pos_as_xyz
  1  'x, y, z'
loop_
 _atom_site_type_symbol
 _atom_site_label
 _atom_site_symmetry_multiplicity
 _atom_site_fract_x
 _atom_site_fract_y
 _atom_site_fract_z
 _atom_site_occupancy
  Cd  Cd0  1  0.00000000  0.00000000  0.00000000  1
  Cd  Cd1  1  0.77486000  0.22514000  0.50000000  1
  Cd  Cd2  1  0.22514000  0.77486000  0.50000000  1
  Cd  Cd3  1  0.37312200  0.37312200  0.03129700  1
  Cd  Cd4  1  0.62687800  0.62687800  0.96870300  1
  N  N5  1  0.76123000  0.76123000  0.75413600  1
  N  N6  1  0.23877000  0.23877000  0.24586400  1
  O  O7  1  0.57915600  0.57915600  0.53428300  1
  O  O8  1  0.42084400  0.42084400  0.46571700  1
  O  O9  1  0.64472700  0.29952000  0.92062200  1
  O  O10  1  0.29952000  0.64472700  0.92062200  1
  O  O11  1  0.35527300  0.70048000  0.07937800  1
  O  O12  1  0.70048000  0.35527300  0.07937800  1
  O  O13  1  0.05162000  0.05162000  0.67554100  1
  O  O14  1  0.94838000  0.94838000  0.32445900  1
  O  O15  1  0.87185800  0.58007100  0.80136600  1
  O  O16  1  0.58007100  0.87185800  0.80136600  1
  O  O17  1  0.12814200  0.41992900  0.19863400  1
  O  O18  1  0.41992900  0.12814200  0.19863400  1
  O  O19  1  0.82470700  0.82470700  0.67135400  1
  O  O20  1  0.17529300  0.17529300  0.32864600  1
  O  O21  1  0.36235800  0.36235800  0.61349100  1
  O  O22  1  0.63764200  0.63764200  0.38650900  1
