# generated using pymatgen
data_NaH5CO4
_symmetry_space_group_name_H-M   'P 1'
_cell_length_a   3.73574100
_cell_length_b   7.69169681
_cell_length_c   8.21249924
_cell_angle_alpha   110.90136490
_cell_angle_beta   90.00000000
_cell_angle_gamma   90.00000000
_symmetry_Int_Tables_number   1
_chemical_formula_structural   NaH5CO4
_chemical_formula_sum   'Na2 H10 C2 O8'
_cell_volume   220.45108971
_cell_formula_units_Z   2
loop_
 _symmetry_equiv_pos_site_id
 _symmetry_equiv_pos_as_xyz
  1  'x, y, z'
loop_
 _atom_site_type_symbol
 _atom_site_label
 _atom_site_symmetry_multiplicity
 _atom_site_fract_x
 _atom_site_fract_y
 _atom_site_fract_z
 _atom_site_occupancy
  Na  Na0  1  0.19341800  0.18817600  0.65471300  1
  Na  Na1  1  0.69341800  0.81182400  0.34528700  1
  H  H2  1  0.60565200  0.33796800  0.47252800  1
  H  H3  1  0.10565200  0.66203200  0.52747200  1
  H  H4  1  0.71558100  0.50187200  0.64511800  1
  H  H5  1  0.21558100  0.49812800  0.35488200  1
  H  H6  1  0.25831000  0.31627900  0.05931700  1
  H  H7  1  0.75831000  0.68372100  0.94068300  1
  H  H8  1  0.00762400  0.45226900  0.99911000  1
  H  H9  1  0.50762400  0.54773100  0.00089000  1
  H  H10  1  0.03034900  0.03533100  0.11008600  1
  H  H11  1  0.53034900  0.96466900  0.88991400  1
  C  C12  1  0.18818700  0.10322200  0.23120300  1
  C  C13  1  0.68818700  0.89677800  0.76879700  1
  O  O14  1  0.19432900  0.02305000  0.34136900  1
  O  O15  1  0.69432900  0.97695000  0.65863100  1
  O  O16  1  0.34866900  0.25446300  0.24485700  1
  O  O17  1  0.84866900  0.74553700  0.75514300  1
  O  O18  1  0.20858400  0.36107000  0.96151700  1
  O  O19  1  0.70858400  0.63893000  0.03848300  1
  O  O20  1  0.68399600  0.36582700  0.59401200  1
  O  O21  1  0.18399600  0.63417300  0.40598800  1
