# generated using pymatgen
data_VCuBi2O7
_symmetry_space_group_name_H-M   'P 1'
_cell_length_a   6.07182900
_cell_length_b   7.25333667
_cell_length_c   7.83770214
_cell_angle_alpha   89.88332458
_cell_angle_beta   107.42343862
_cell_angle_gamma   107.71684009
_symmetry_Int_Tables_number   1
_chemical_formula_structural   VCuBi2O7
_chemical_formula_sum   'V2 Cu2 Bi4 O14'
_cell_volume   312.21209660
_cell_formula_units_Z   2
loop_
 _symmetry_equiv_pos_site_id
 _symmetry_equiv_pos_as_xyz
  1  'x, y, z'
loop_
 _atom_site_type_symbol
 _atom_site_label
 _atom_site_symmetry_multiplicity
 _atom_site_fract_x
 _atom_site_fract_y
 _atom_site_fract_z
 _atom_site_occupancy
  V  V0  1  0.89771800  0.72351200  0.07302300  1
  V  V1  1  0.10228200  0.27648800  0.92697700  1
  Cu  Cu2  1  0.00000000  0.50000000  0.50000000  1
  Cu  Cu3  1  0.00000000  0.00000000  0.50000000  1
  Bi  Bi4  1  0.47234800  0.86809100  0.70617400  1
  Bi  Bi5  1  0.52765200  0.13190900  0.29382600  1
  Bi  Bi6  1  0.51896700  0.37882700  0.72304600  1
  Bi  Bi7  1  0.48103300  0.62117300  0.27695400  1
  O  O8  1  0.76757800  0.50064800  0.13860000  1
  O  O9  1  0.23242200  0.49935200  0.86140000  1
  O  O10  1  0.76994500  0.87609700  0.14790200  1
  O  O11  1  0.23005500  0.12390300  0.85209800  1
  O  O12  1  0.22233800  0.80241500  0.16883300  1
  O  O13  1  0.77766200  0.19758500  0.83116700  1
  O  O14  1  0.77920200  0.69601500  0.83490300  1
  O  O15  1  0.22079800  0.30398500  0.16509700  1
  O  O16  1  0.32771100  0.57772800  0.51803700  1
  O  O17  1  0.67228900  0.42227200  0.48196300  1
  O  O18  1  0.05122100  0.76296300  0.57138900  1
  O  O19  1  0.94877900  0.23703700  0.42861100  1
  O  O20  1  0.33447700  0.08812000  0.51549400  1
  O  O21  1  0.66552300  0.91188000  0.48450600  1
