# generated using pymatgen
data_K2Cr2O7
_symmetry_space_group_name_H-M   'P 1'
_cell_length_a   8.04532907
_cell_length_b   8.04532907
_cell_length_c   8.37234598
_cell_angle_alpha   87.03296801
_cell_angle_beta   87.03296801
_cell_angle_gamma   52.29152727
_symmetry_Int_Tables_number   1
_chemical_formula_structural   K2Cr2O7
_chemical_formula_sum   'K4 Cr4 O14'
_cell_volume   428.01713768
_cell_formula_units_Z   2
loop_
 _symmetry_equiv_pos_site_id
 _symmetry_equiv_pos_as_xyz
  1  'x, y, z'
loop_
 _atom_site_type_symbol
 _atom_site_label
 _atom_site_symmetry_multiplicity
 _atom_site_fract_x
 _atom_site_fract_y
 _atom_site_fract_z
 _atom_site_occupancy
  K  K0  1  0.35279100  0.35279100  0.68877000  1
  K  K1  1  0.64720900  0.64720900  0.31123000  1
  K  K2  1  0.35052300  0.35052300  0.21946600  1
  K  K3  1  0.64947700  0.64947700  0.78053400  1
  Cr  Cr4  1  0.86504600  0.86504600  0.00708300  1
  Cr  Cr5  1  0.13495400  0.13495400  0.99291700  1
  Cr  Cr6  1  0.89017800  0.89017800  0.58142400  1
  Cr  Cr7  1  0.10982200  0.10982200  0.41857600  1
  O  O8  1  0.09588400  0.72069100  0.08733900  1
  O  O9  1  0.27930900  0.90411600  0.91266100  1
  O  O10  1  0.90411600  0.27930900  0.91266100  1
  O  O11  1  0.72069100  0.09588400  0.08733900  1
  O  O12  1  0.89281700  0.89281700  0.79806300  1
  O  O13  1  0.10718300  0.10718300  0.20193700  1
  O  O14  1  0.16379400  0.73719000  0.48633200  1
  O  O15  1  0.26281000  0.83620600  0.51366800  1
  O  O16  1  0.83620600  0.26281000  0.51366800  1
  O  O17  1  0.73719000  0.16379400  0.48633200  1
  O  O18  1  0.75113100  0.75113100  0.04256400  1
  O  O19  1  0.24886900  0.24886900  0.95743600  1
  O  O20  1  0.77896500  0.77896500  0.53107800  1
  O  O21  1  0.22103500  0.22103500  0.46892200  1
