# generated using pymatgen
data_La4CrS7
_symmetry_space_group_name_H-M   'P 1'
_cell_length_a   10.42079900
_cell_length_b   6.47115100
_cell_length_c   10.43608353
_cell_angle_alpha   90.00000000
_cell_angle_beta   119.71264142
_cell_angle_gamma   90.00000000
_symmetry_Int_Tables_number   1
_chemical_formula_structural   La4CrS7
_chemical_formula_sum   'La8 Cr2 S14'
_cell_volume   611.22486388
_cell_formula_units_Z   2
loop_
 _symmetry_equiv_pos_site_id
 _symmetry_equiv_pos_as_xyz
  1  'x, y, z'
loop_
 _atom_site_type_symbol
 _atom_site_label
 _atom_site_symmetry_multiplicity
 _atom_site_fract_x
 _atom_site_fract_y
 _atom_site_fract_z
 _atom_site_occupancy
  La  La0  1  0.99823400  0.97675000  0.00136000  1
  La  La1  1  0.00176600  0.47675000  0.99864000  1
  La  La2  1  0.73901900  0.74599900  0.13599200  1
  La  La3  1  0.39654700  0.75499000  0.25918400  1
  La  La4  1  0.86328200  0.75655900  0.60170500  1
  La  La5  1  0.26098100  0.24599900  0.86400800  1
  La  La6  1  0.60345300  0.25499000  0.74081600  1
  La  La7  1  0.13671800  0.25655900  0.39829500  1
  Cr  Cr8  1  0.66601200  0.33357500  0.33285700  1
  Cr  Cr9  1  0.33398800  0.83357500  0.66714300  1
  S  S10  1  0.83453500  0.23018500  0.08972000  1
  S  S11  1  0.25302000  0.22255300  0.16472600  1
  S  S12  1  0.91046300  0.22231900  0.74592200  1
  S  S13  1  0.16546500  0.73018500  0.91028000  1
  S  S14  1  0.74698000  0.72255300  0.83527400  1
  S  S15  1  0.08953700  0.72231900  0.25407800  1
  S  S16  1  0.89520800  0.49270700  0.40896700  1
  S  S17  1  0.50963400  0.49133200  0.10579400  1
  S  S18  1  0.59368500  0.49681900  0.48585200  1
  S  S19  1  0.10479200  0.99270700  0.59103300  1
  S  S20  1  0.49036600  0.99133200  0.89420600  1
  S  S21  1  0.40631500  0.99681900  0.51414800  1
  S  S22  1  0.66606300  0.96621300  0.33020100  1
  S  S23  1  0.33393700  0.46621300  0.66979900  1
