# generated using pymatgen
data_Ho3AlNi8
_symmetry_space_group_name_H-M   'P 1'
_cell_length_a   5.03872848
_cell_length_b   5.03872848
_cell_length_c   15.91722500
_cell_angle_alpha   90.00000000
_cell_angle_beta   90.00000000
_cell_angle_gamma   120.00000625
_symmetry_Int_Tables_number   1
_chemical_formula_structural   Ho3AlNi8
_chemical_formula_sum   'Ho6 Al2 Ni16'
_cell_volume   349.97729620
_cell_formula_units_Z   2
loop_
 _symmetry_equiv_pos_site_id
 _symmetry_equiv_pos_as_xyz
  1  'x, y, z'
loop_
 _atom_site_type_symbol
 _atom_site_label
 _atom_site_symmetry_multiplicity
 _atom_site_fract_x
 _atom_site_fract_y
 _atom_site_fract_z
 _atom_site_occupancy
  Ho  Ho0  1  0.33333300  0.66666700  0.95492900  1
  Ho  Ho1  1  0.66666700  0.33333300  0.04507100  1
  Ho  Ho2  1  0.66666700  0.33333300  0.45492900  1
  Ho  Ho3  1  0.33333300  0.66666700  0.54507100  1
  Ho  Ho4  1  0.33333300  0.66666700  0.75000000  1
  Ho  Ho5  1  0.66666700  0.33333300  0.25000000  1
  Al  Al6  1  0.00000000  0.00000000  0.50000000  1
  Al  Al7  1  0.00000000  0.00000000  0.00000000  1
  Ni  Ni8  1  0.16955300  0.83044700  0.37507000  1
  Ni  Ni9  1  0.16955300  0.33910700  0.37507000  1
  Ni  Ni10  1  0.66089300  0.83044700  0.37507000  1
  Ni  Ni11  1  0.83044700  0.16955300  0.62493000  1
  Ni  Ni12  1  0.83044700  0.66089300  0.62493000  1
  Ni  Ni13  1  0.33910700  0.16955300  0.62493000  1
  Ni  Ni14  1  0.83044700  0.16955300  0.87507000  1
  Ni  Ni15  1  0.83044700  0.66089300  0.87507000  1
  Ni  Ni16  1  0.33910700  0.16955300  0.87507000  1
  Ni  Ni17  1  0.16955300  0.83044700  0.12493000  1
  Ni  Ni18  1  0.16955300  0.33910700  0.12493000  1
  Ni  Ni19  1  0.66089300  0.83044700  0.12493000  1
  Ni  Ni20  1  0.33333300  0.66666700  0.25000000  1
  Ni  Ni21  1  0.66666700  0.33333300  0.75000000  1
  Ni  Ni22  1  0.00000000  0.00000000  0.25000000  1
  Ni  Ni23  1  0.00000000  0.00000000  0.75000000  1
