# generated using pymatgen
data_PW6Cl17
_symmetry_space_group_name_H-M   'P 1'
_cell_length_a   10.30554528
_cell_length_b   10.30554528
_cell_length_c   10.30554528
_cell_angle_alpha   141.07613079
_cell_angle_beta   119.15386580
_cell_angle_gamma   74.62484090
_symmetry_Int_Tables_number   1
_chemical_formula_structural   PW6Cl17
_chemical_formula_sum   'P1 W6 Cl17'
_cell_volume   587.46753868
_cell_formula_units_Z   1
loop_
 _symmetry_equiv_pos_site_id
 _symmetry_equiv_pos_as_xyz
  1  'x, y, z'
loop_
 _atom_site_type_symbol
 _atom_site_label
 _atom_site_symmetry_multiplicity
 _atom_site_fract_x
 _atom_site_fract_y
 _atom_site_fract_z
 _atom_site_occupancy
  P  P0  1  0.81776400  0.50000000  0.31776400  1
  W  W1  1  0.62126300  0.29759000  0.91885300  1
  W  W2  1  0.62126300  0.70241000  0.32367300  1
  W  W3  1  0.62141800  0.35905100  0.26236700  1
  W  W4  1  0.90331600  0.64094900  0.26236700  1
  W  W5  1  0.93517300  0.42082100  0.51435200  1
  W  W6  1  0.09353000  0.57917900  0.51435200  1
  Cl  Cl7  1  0.46586100  0.00000000  0.46586100  1
  Cl  Cl8  1  0.76149900  0.00000000  0.76149900  1
  Cl  Cl9  1  0.43111000  0.50000000  0.93111000  1
  Cl  Cl10  1  0.44792500  0.11547700  0.85328900  1
  Cl  Cl11  1  0.73781300  0.88452300  0.33244800  1
  Cl  Cl12  1  0.44792500  0.59463500  0.33244800  1
  Cl  Cl13  1  0.73781300  0.40536500  0.85328900  1
  Cl  Cl14  1  0.76360100  0.07973400  0.14804000  1
  Cl  Cl15  1  0.06830600  0.92026600  0.68386700  1
  Cl  Cl16  1  0.76360100  0.61556100  0.68386700  1
  Cl  Cl17  1  0.06830600  0.38443900  0.14804000  1
  Cl  Cl18  1  0.13439000  0.74425800  0.87864800  1
  Cl  Cl19  1  0.13439000  0.25574200  0.39013200  1
  Cl  Cl20  1  0.47939500  0.21678300  0.26261200  1
  Cl  Cl21  1  0.04582900  0.78321700  0.26261200  1
  Cl  Cl22  1  0.01718500  0.32887900  0.68830500  1
  Cl  Cl23  1  0.35942600  0.67112100  0.68830500  1
