# generated using pymatgen
data_La3BeGaS7
_symmetry_space_group_name_H-M   'P 1'
_cell_length_a   10.20292814
_cell_length_b   10.20292814
_cell_length_c   6.02996100
_cell_angle_alpha   90.00000000
_cell_angle_beta   90.00000000
_cell_angle_gamma   120.00000089
_symmetry_Int_Tables_number   1
_chemical_formula_structural   La3BeGaS7
_chemical_formula_sum   'La6 Be2 Ga2 S14'
_cell_volume   543.61919942
_cell_formula_units_Z   2
loop_
 _symmetry_equiv_pos_site_id
 _symmetry_equiv_pos_as_xyz
  1  'x, y, z'
loop_
 _atom_site_type_symbol
 _atom_site_label
 _atom_site_symmetry_multiplicity
 _atom_site_fract_x
 _atom_site_fract_y
 _atom_site_fract_z
 _atom_site_occupancy
  La  La0  1  0.60895400  0.86191100  0.25422100  1
  La  La1  1  0.13808900  0.74704300  0.25422100  1
  La  La2  1  0.25295700  0.39104600  0.25422100  1
  La  La3  1  0.39104600  0.13808900  0.75422100  1
  La  La4  1  0.86191100  0.25295700  0.75422100  1
  La  La5  1  0.74704300  0.60895400  0.75422100  1
  Be  Be6  1  0.33333300  0.66666700  0.84019800  1
  Be  Be7  1  0.66666700  0.33333300  0.34019800  1
  Ga  Ga8  1  0.00000000  0.00000000  0.49052000  1
  Ga  Ga9  1  0.00000000  0.00000000  0.99052000  1
  S  S10  1  0.77729700  0.92188200  0.72423500  1
  S  S11  1  0.07811800  0.85541400  0.72423500  1
  S  S12  1  0.14458600  0.22270300  0.72423500  1
  S  S13  1  0.22270300  0.07811800  0.22423500  1
  S  S14  1  0.92188200  0.14458600  0.22423500  1
  S  S15  1  0.85541400  0.77729700  0.22423500  1
  S  S16  1  0.48038600  0.59376500  0.97082200  1
  S  S17  1  0.40623500  0.88662200  0.97082200  1
  S  S18  1  0.11337800  0.51961400  0.97082200  1
  S  S19  1  0.51961400  0.40623500  0.47082200  1
  S  S20  1  0.59376500  0.11337800  0.47082200  1
  S  S21  1  0.88662200  0.48038600  0.47082200  1
  S  S22  1  0.33333300  0.66666700  0.48946500  1
  S  S23  1  0.66666700  0.33333300  0.98946500  1
