# generated using pymatgen
data_Nd3GaFeS7
_symmetry_space_group_name_H-M   'P 1'
_cell_length_a   9.97907076
_cell_length_b   9.97907076
_cell_length_c   6.10608100
_cell_angle_alpha   90.00000000
_cell_angle_beta   90.00000000
_cell_angle_gamma   120.00000502
_symmetry_Int_Tables_number   1
_chemical_formula_structural   Nd3GaFeS7
_chemical_formula_sum   'Nd6 Ga2 Fe2 S14'
_cell_volume   526.59093040
_cell_formula_units_Z   2
loop_
 _symmetry_equiv_pos_site_id
 _symmetry_equiv_pos_as_xyz
  1  'x, y, z'
loop_
 _atom_site_type_symbol
 _atom_site_label
 _atom_site_symmetry_multiplicity
 _atom_site_fract_x
 _atom_site_fract_y
 _atom_site_fract_z
 _atom_site_occupancy
  Nd  Nd0  1  0.62438500  0.77358700  0.02403900  1
  Nd  Nd1  1  0.22641300  0.85079800  0.02403900  1
  Nd  Nd2  1  0.14920200  0.37561500  0.02403900  1
  Nd  Nd3  1  0.37561500  0.22641300  0.52403800  1
  Nd  Nd4  1  0.77358700  0.14920200  0.52403800  1
  Nd  Nd5  1  0.85079800  0.62438500  0.52403800  1
  Ga  Ga6  1  0.66666700  0.33333300  0.94624100  1
  Ga  Ga7  1  0.33333300  0.66666700  0.44624100  1
  Fe  Fe8  1  0.00000000  0.00000000  0.32540000  1
  Fe  Fe9  1  0.00000000  0.00000000  0.82540000  1
  S  S10  1  0.48164300  0.90807600  0.29594600  1
  S  S11  1  0.09192400  0.57356800  0.29594600  1
  S  S12  1  0.42643200  0.51835700  0.29594600  1
  S  S13  1  0.51835700  0.09192400  0.79594600  1
  S  S14  1  0.90807600  0.42643200  0.79594600  1
  S  S15  1  0.57356800  0.48164300  0.79594600  1
  S  S16  1  0.66666700  0.33333300  0.31651100  1
  S  S17  1  0.33333300  0.66666700  0.81651100  1
  S  S18  1  0.90638100  0.76801800  0.08839300  1
  S  S19  1  0.23198200  0.13836300  0.08839300  1
  S  S20  1  0.86163700  0.09361900  0.08839300  1
  S  S21  1  0.09361900  0.23198200  0.58839300  1
  S  S22  1  0.76801800  0.86163700  0.58839300  1
  S  S23  1  0.13836300  0.90638100  0.58839300  1
