# generated using pymatgen
data_SmP2H2CO6
_symmetry_space_group_name_H-M   'P 1'
_cell_length_a   5.32307846
_cell_length_b   8.10329052
_cell_length_c   8.23048162
_cell_angle_alpha   113.45361361
_cell_angle_beta   100.36244741
_cell_angle_gamma   106.94824179
_symmetry_Int_Tables_number   1
_chemical_formula_structural   SmP2H2CO6
_chemical_formula_sum   'Sm2 P4 H4 C2 O12'
_cell_volume   293.29683403
_cell_formula_units_Z   2
loop_
 _symmetry_equiv_pos_site_id
 _symmetry_equiv_pos_as_xyz
  1  'x, y, z'
loop_
 _atom_site_type_symbol
 _atom_site_label
 _atom_site_symmetry_multiplicity
 _atom_site_fract_x
 _atom_site_fract_y
 _atom_site_fract_z
 _atom_site_occupancy
  Sm  Sm0  1  0.77064600  0.77064600  0.54129200  1
  Sm  Sm1  1  0.22935400  0.22935400  0.45870800  1
  P  P2  1  0.74094700  0.36692500  0.22472700  1
  P  P3  1  0.51622000  0.14219800  0.77527300  1
  P  P4  1  0.25905300  0.63307500  0.77527300  1
  P  P5  1  0.48378000  0.85780200  0.22472700  1
  H  H6  1  0.32657500  0.09588200  0.00000000  1
  H  H7  1  0.67342500  0.90411800  0.00000000  1
  H  H8  1  0.34060000  0.31771900  0.00000000  1
  H  H9  1  0.65940000  0.68228100  0.00000000  1
  C  C10  1  0.46142300  0.22806200  0.00000000  1
  C  C11  1  0.53857700  0.77193800  0.00000000  1
  O  O12  1  0.88838300  0.58316900  0.26521600  1
  O  O13  1  0.62316700  0.31795300  0.73478400  1
  O  O14  1  0.11161700  0.41683100  0.73478400  1
  O  O15  1  0.37683300  0.68204700  0.26521600  1
  O  O16  1  0.40366300  0.60514000  0.62420400  1
  O  O17  1  0.77946000  0.98093700  0.37579600  1
  O  O18  1  0.59633700  0.39485900  0.37579600  1
  O  O19  1  0.22054000  0.01906300  0.62420400  1
  O  O20  1  0.06488100  0.73646500  0.76351000  1
  O  O21  1  0.30137100  0.97295400  0.23649000  1
  O  O22  1  0.93511900  0.26353500  0.23649000  1
  O  O23  1  0.69862900  0.02704600  0.76351000  1
