# generated using pymatgen
data_K2FeP2O7
_symmetry_space_group_name_H-M   'P 1'
_cell_length_a   10.37484262
_cell_length_b   10.37593305
_cell_length_c   10.37616444
_cell_angle_alpha   72.17696803
_cell_angle_beta   67.17156012
_cell_angle_gamma   107.81746484
_symmetry_Int_Tables_number   1
_chemical_formula_structural   K2FeP2O7
_chemical_formula_sum   'K8 Fe4 P8 O28'
_cell_volume   857.60115455
_cell_formula_units_Z   4
loop_
 _symmetry_equiv_pos_site_id
 _symmetry_equiv_pos_as_xyz
  1  'x, y, z'
loop_
 _atom_site_type_symbol
 _atom_site_label
 _atom_site_symmetry_multiplicity
 _atom_site_fract_x
 _atom_site_fract_y
 _atom_site_fract_z
 _atom_site_occupancy
  K  K0  1  0.56810500  0.35608000  0.57536100  1
  K  K1  1  0.06835000  0.35641100  0.07546100  1
  K  K2  1  0.57541900  0.14387400  0.06808400  1
  K  K3  1  0.07547400  0.14350000  0.56852600  1
  K  K4  1  0.06822400  0.64362200  0.78806700  1
  K  K5  1  0.56843500  0.64391400  0.28803900  1
  K  K6  1  0.78800400  0.85632500  0.56831300  1
  K  K7  1  0.28804500  0.85616700  0.06842300  1
  Fe  Fe8  1  0.99994800  0.49983600  0.50003200  1
  Fe  Fe9  1  0.49977400  0.99989100  0.50003300  1
  Fe  Fe10  1  0.49995700  0.50009300  0.00012100  1
  Fe  Fe11  1  0.00000600  0.99998800  0.00003800  1
  P  P12  1  0.69013300  0.37425600  0.18422500  1
  P  P13  1  0.19021800  0.37435600  0.68411400  1
  P  P14  1  0.68395900  0.12551900  0.69017500  1
  P  P15  1  0.18403600  0.12574300  0.19033300  1
  P  P16  1  0.44162000  0.62562000  0.68412500  1
  P  P17  1  0.94158200  0.62574500  0.18401600  1
  P  P18  1  0.18418800  0.87432100  0.44147100  1
  P  P19  1  0.68427200  0.87443400  0.94147300  1
  O  O20  1  0.26433200  0.49998600  0.73571500  1
  O  O21  1  0.76432700  0.50005700  0.23564600  1
  O  O22  1  0.73568400  0.99998300  0.76424800  1
  O  O23  1  0.23566500  0.00002800  0.26428100  1
  O  O24  1  0.82266300  0.37457700  0.05217600  1
  O  O25  1  0.32271900  0.37489900  0.55183300  1
  O  O26  1  0.55173600  0.12501600  0.82267600  1
  O  O27  1  0.05199700  0.12535400  0.32292000  1
  O  O28  1  0.57332000  0.62502200  0.55217700  1
  O  O29  1  0.07332900  0.62546900  0.05181600  1
  O  O30  1  0.05213000  0.87467100  0.57329400  1
  O  O31  1  0.55229500  0.87494100  0.07320500  1
  O  O32  1  0.84065600  0.27953300  0.58658900  1
  O  O33  1  0.34080200  0.27963200  0.08662100  1
  O  O34  1  0.58640000  0.22040700  0.34101300  1
  O  O35  1  0.08666400  0.22040200  0.84073300  1
  O  O36  1  0.13394900  0.72041800  0.43860100  1
  O  O37  1  0.63387200  0.72045700  0.93878900  1
  O  O38  1  0.43897900  0.77959700  0.63360500  1
  O  O39  1  0.93870900  0.77964000  0.13386400  1
  O  O40  1  0.43869100  0.57268400  0.84092900  1
  O  O41  1  0.93887100  0.57268000  0.34070300  1
  O  O42  1  0.34099300  0.92741700  0.43851500  1
  O  O43  1  0.84112300  0.92751200  0.93842400  1
  O  O44  1  0.58649700  0.42733100  0.13390900  1
  O  O45  1  0.08636300  0.42738800  0.63407200  1
  O  O46  1  0.63385700  0.07246800  0.58647400  1
  O  O47  1  0.13362800  0.07273800  0.08674200  1
