# generated using pymatgen
data_TlAgTeO3
_symmetry_space_group_name_H-M   'P 1'
_cell_length_a   9.87870853
_cell_length_b   9.87870853
_cell_length_c   9.87870853
_cell_angle_alpha   149.03293401
_cell_angle_beta   110.14550041
_cell_angle_gamma   78.35375151
_symmetry_Int_Tables_number   1
_chemical_formula_structural   TlAgTeO3
_chemical_formula_sum   'Tl4 Ag4 Te4 O12'
_cell_volume   456.90424414
_cell_formula_units_Z   4
loop_
 _symmetry_equiv_pos_site_id
 _symmetry_equiv_pos_as_xyz
  1  'x, y, z'
loop_
 _atom_site_type_symbol
 _atom_site_label
 _atom_site_symmetry_multiplicity
 _atom_site_fract_x
 _atom_site_fract_y
 _atom_site_fract_z
 _atom_site_occupancy
  Tl  Tl0  1  0.28206800  0.39567800  0.86597300  1
  Tl  Tl1  1  0.71793200  0.58390500  0.11361000  1
  Tl  Tl2  1  0.47029500  0.08390500  0.36597300  1
  Tl  Tl3  1  0.52970500  0.89567800  0.61361000  1
  Ag  Ag4  1  0.13847000  0.75798400  0.38617900  1
  Ag  Ag5  1  0.86153000  0.24770900  0.61951400  1
  Ag  Ag6  1  0.62819600  0.74770900  0.88617900  1
  Ag  Ag7  1  0.37180400  0.25798400  0.11951400  1
  Te  Te8  1  0.02795500  0.91185400  0.15323100  1
  Te  Te9  1  0.97204500  0.12527600  0.88389900  1
  Te  Te10  1  0.24137700  0.62527600  0.65323100  1
  Te  Te11  1  0.75862300  0.41185400  0.38389900  1
  O  O12  1  0.88221000  0.74670400  0.08596300  1
  O  O13  1  0.11779000  0.20375300  0.86449400  1
  O  O14  1  0.33925900  0.70375300  0.58596300  1
  O  O15  1  0.66074100  0.24670400  0.36449400  1
  O  O16  1  0.19678500  0.85398600  0.25989100  1
  O  O17  1  0.80321500  0.06310600  0.65720100  1
  O  O18  1  0.40590500  0.56310600  0.75989100  1
  O  O19  1  0.59409500  0.35398600  0.15720100  1
  O  O20  1  0.03543200  0.27598200  0.52029400  1
  O  O21  1  0.96456800  0.48486200  0.24055100  1
  O  O22  1  0.24431200  0.98486200  0.02029400  1
  O  O23  1  0.75568800  0.77598200  0.74055100  1
