# generated using pymatgen
data_PuP2H2CO6
_symmetry_space_group_name_H-M   'P 1'
_cell_length_a   5.42046306
_cell_length_b   8.04304379
_cell_length_c   8.12173854
_cell_angle_alpha   114.32257923
_cell_angle_beta   102.12966130
_cell_angle_gamma   104.45209464
_symmetry_Int_Tables_number   1
_chemical_formula_structural   PuP2H2CO6
_chemical_formula_sum   'Pu2 P4 H4 C2 O12'
_cell_volume   292.14030401
_cell_formula_units_Z   2
loop_
 _symmetry_equiv_pos_site_id
 _symmetry_equiv_pos_as_xyz
  1  'x, y, z'
loop_
 _atom_site_type_symbol
 _atom_site_label
 _atom_site_symmetry_multiplicity
 _atom_site_fract_x
 _atom_site_fract_y
 _atom_site_fract_z
 _atom_site_occupancy
  Pu  Pu0  1  0.76657700  0.76657700  0.53315400  1
  Pu  Pu1  1  0.23342300  0.23342300  0.46684600  1
  P  P2  1  0.73526500  0.36742100  0.23296200  1
  P  P3  1  0.50230300  0.13446000  0.76703800  1
  P  P4  1  0.26473500  0.63257900  0.76703800  1
  P  P5  1  0.49769700  0.86554000  0.23296200  1
  H  H6  1  0.33530800  0.09723000  0.00000000  1
  H  H7  1  0.66469200  0.90277000  0.00000000  1
  H  H8  1  0.34015900  0.31773600  0.00000000  1
  H  H9  1  0.65984100  0.68226400  0.00000000  1
  C  C10  1  0.46307400  0.22742800  0.00000000  1
  C  C11  1  0.53692600  0.77257200  0.00000000  1
  O  O12  1  0.41050700  0.60864500  0.61711600  1
  O  O13  1  0.79339100  0.99152900  0.38288400  1
  O  O14  1  0.58949300  0.39135500  0.38288400  1
  O  O15  1  0.20660900  0.00847100  0.61711600  1
  O  O16  1  0.87687300  0.58270000  0.28192200  1
  O  O17  1  0.59495100  0.30077800  0.71807800  1
  O  O18  1  0.12312700  0.41730000  0.71807800  1
  O  O19  1  0.40504900  0.69922200  0.28192200  1
  O  O20  1  0.06877400  0.73957300  0.75637700  1
  O  O21  1  0.31239700  0.98319600  0.24362300  1
  O  O22  1  0.93122600  0.26042700  0.24362300  1
  O  O23  1  0.68760300  0.01680400  0.75637700  1
