# generated using pymatgen
data_Hg3(NCl3)2
_symmetry_space_group_name_H-M   'P 1'
_cell_length_a   5.54359000
_cell_length_b   8.14805400
_cell_length_c   12.67804400
_cell_angle_alpha   90.00000000
_cell_angle_beta   90.00000000
_cell_angle_gamma   90.00000000
_symmetry_Int_Tables_number   1
_chemical_formula_structural   Hg3(NCl3)2
_chemical_formula_sum   'Hg6 N4 Cl12'
_cell_volume   572.66053666
_cell_formula_units_Z   2
loop_
 _symmetry_equiv_pos_site_id
 _symmetry_equiv_pos_as_xyz
  1  'x, y, z'
loop_
 _atom_site_type_symbol
 _atom_site_label
 _atom_site_symmetry_multiplicity
 _atom_site_fract_x
 _atom_site_fract_y
 _atom_site_fract_z
 _atom_site_occupancy
  Hg  Hg0  1  0.50000000  0.34913800  0.12909000  1
  Hg  Hg1  1  0.50000000  0.65086200  0.87091000  1
  Hg  Hg2  1  0.00000000  0.34913800  0.37091000  1
  Hg  Hg3  1  0.00000000  0.65086200  0.62909000  1
  Hg  Hg4  1  0.50000000  0.00000000  0.50000000  1
  Hg  Hg5  1  0.00000000  0.00000000  0.00000000  1
  N  N6  1  0.50000000  0.82701600  0.37170300  1
  N  N7  1  0.50000000  0.17298400  0.62829700  1
  N  N8  1  0.00000000  0.82701600  0.12829700  1
  N  N9  1  0.00000000  0.17298400  0.87170300  1
  Cl  Cl10  1  0.50000000  0.05507800  0.13616300  1
  Cl  Cl11  1  0.50000000  0.94492200  0.86383700  1
  Cl  Cl12  1  0.00000000  0.05507800  0.36383700  1
  Cl  Cl13  1  0.00000000  0.94492200  0.63616300  1
  Cl  Cl14  1  0.50000000  0.64180400  0.12388300  1
  Cl  Cl15  1  0.50000000  0.35819600  0.87611700  1
  Cl  Cl16  1  0.00000000  0.64180400  0.37611700  1
  Cl  Cl17  1  0.00000000  0.35819600  0.62388300  1
  Cl  Cl18  1  0.50000000  0.33977200  0.37562100  1
  Cl  Cl19  1  0.50000000  0.66022800  0.62437900  1
  Cl  Cl20  1  0.00000000  0.33977200  0.12437900  1
  Cl  Cl21  1  0.00000000  0.66022800  0.87562100  1
