# generated using pymatgen
data_La3BeAlS7
_symmetry_space_group_name_H-M   'P 1'
_cell_length_a   10.21682029
_cell_length_b   10.21682029
_cell_length_c   5.93516700
_cell_angle_alpha   90.00000000
_cell_angle_beta   90.00000000
_cell_angle_gamma   120.00000187
_symmetry_Int_Tables_number   1
_chemical_formula_structural   La3BeAlS7
_chemical_formula_sum   'La6 Be2 Al2 S14'
_cell_volume   536.53131578
_cell_formula_units_Z   2
loop_
 _symmetry_equiv_pos_site_id
 _symmetry_equiv_pos_as_xyz
  1  'x, y, z'
loop_
 _atom_site_type_symbol
 _atom_site_label
 _atom_site_symmetry_multiplicity
 _atom_site_fract_x
 _atom_site_fract_y
 _atom_site_fract_z
 _atom_site_occupancy
  La  La0  1  0.74688600  0.13759300  0.24958400  1
  La  La1  1  0.39070700  0.25311400  0.24958400  1
  La  La2  1  0.86240700  0.60929300  0.24958400  1
  La  La3  1  0.25311400  0.86240700  0.74958400  1
  La  La4  1  0.60929300  0.74688600  0.74958400  1
  La  La5  1  0.13759300  0.39070700  0.74958400  1
  Be  Be6  1  0.66666700  0.33333300  0.66232800  1
  Be  Be7  1  0.33333300  0.66666700  0.16232800  1
  Al  Al8  1  0.00000000  0.00000000  0.01016500  1
  Al  Al9  1  0.00000000  0.00000000  0.51016500  1
  S  S10  1  0.85879200  0.07564000  0.76644300  1
  S  S11  1  0.21684800  0.14120800  0.76644300  1
  S  S12  1  0.92436000  0.78315200  0.76644300  1
  S  S13  1  0.14120800  0.92436000  0.26644300  1
  S  S14  1  0.78315200  0.85879200  0.26644300  1
  S  S15  1  0.07564000  0.21684800  0.26644300  1
  S  S16  1  0.88697500  0.40669300  0.53418100  1
  S  S17  1  0.51971800  0.11302500  0.53418100  1
  S  S18  1  0.59330700  0.48028200  0.53418100  1
  S  S19  1  0.11302500  0.59330700  0.03418100  1
  S  S20  1  0.48028200  0.88697500  0.03418100  1
  S  S21  1  0.40669300  0.51971800  0.03418100  1
  S  S22  1  0.66666700  0.33333300  0.01589900  1
  S  S23  1  0.33333300  0.66666700  0.51589900  1
