# generated using pymatgen
data_ErNiB4
_symmetry_space_group_name_H-M   'P 1'
_cell_length_a   3.39218200
_cell_length_b   5.87010100
_cell_length_c   11.39537500
_cell_angle_alpha   90.00000000
_cell_angle_beta   90.00000000
_cell_angle_gamma   90.00000000
_symmetry_Int_Tables_number   1
_chemical_formula_structural   ErNiB4
_chemical_formula_sum   'Er4 Ni4 B16'
_cell_volume   226.90984575
_cell_formula_units_Z   4
loop_
 _symmetry_equiv_pos_site_id
 _symmetry_equiv_pos_as_xyz
  1  'x, y, z'
loop_
 _atom_site_type_symbol
 _atom_site_label
 _atom_site_symmetry_multiplicity
 _atom_site_fract_x
 _atom_site_fract_y
 _atom_site_fract_z
 _atom_site_occupancy
  Er  Er0  1  0.00000000  0.62721500  0.34967400  1
  Er  Er1  1  0.00000000  0.37278500  0.65032600  1
  Er  Er2  1  0.00000000  0.12721500  0.15032600  1
  Er  Er3  1  0.00000000  0.87278500  0.84967400  1
  Ni  Ni4  1  0.00000000  0.63389000  0.08822400  1
  Ni  Ni5  1  0.00000000  0.36611000  0.91177600  1
  Ni  Ni6  1  0.00000000  0.13389000  0.41177600  1
  Ni  Ni7  1  0.00000000  0.86611000  0.58822400  1
  B  B8  1  0.50000000  0.78485700  0.18495300  1
  B  B9  1  0.50000000  0.21514300  0.81504700  1
  B  B10  1  0.50000000  0.28485700  0.31504700  1
  B  B11  1  0.50000000  0.71514300  0.68495300  1
  B  B12  1  0.50000000  0.86240800  0.03308000  1
  B  B13  1  0.50000000  0.13759200  0.96692000  1
  B  B14  1  0.50000000  0.36240800  0.46692000  1
  B  B15  1  0.50000000  0.63759200  0.53308000  1
  B  B16  1  0.50000000  0.88658500  0.45250300  1
  B  B17  1  0.50000000  0.11341500  0.54749700  1
  B  B18  1  0.50000000  0.38658500  0.04749700  1
  B  B19  1  0.50000000  0.61341500  0.95250300  1
  B  B20  1  0.50000000  0.97854400  0.30827600  1
  B  B21  1  0.50000000  0.02145600  0.69172400  1
  B  B22  1  0.50000000  0.47854400  0.19172400  1
  B  B23  1  0.50000000  0.52145600  0.80827600  1
