# generated using pymatgen
data_RbTlF4
_symmetry_space_group_name_H-M   'P 1'
_cell_length_a   6.33892200
_cell_length_b   8.45116100
_cell_length_c   8.62671800
_cell_angle_alpha   90.00000000
_cell_angle_beta   90.00000000
_cell_angle_gamma   90.00000000
_symmetry_Int_Tables_number   1
_chemical_formula_structural   RbTlF4
_chemical_formula_sum   'Rb4 Tl4 F16'
_cell_volume   462.14407001
_cell_formula_units_Z   4
loop_
 _symmetry_equiv_pos_site_id
 _symmetry_equiv_pos_as_xyz
  1  'x, y, z'
loop_
 _atom_site_type_symbol
 _atom_site_label
 _atom_site_symmetry_multiplicity
 _atom_site_fract_x
 _atom_site_fract_y
 _atom_site_fract_z
 _atom_site_occupancy
  Rb  Rb0  1  0.49211100  0.69380600  0.76484300  1
  Rb  Rb1  1  0.50788900  0.30619400  0.26484300  1
  Rb  Rb2  1  0.49211100  0.80619400  0.26484300  1
  Rb  Rb3  1  0.50788900  0.19380600  0.76484300  1
  Tl  Tl4  1  0.00024800  0.50677800  0.01254100  1
  Tl  Tl5  1  0.99975200  0.49322200  0.51254100  1
  Tl  Tl6  1  0.00024800  0.99322200  0.51254100  1
  Tl  Tl7  1  0.99975200  0.00677800  0.01254100  1
  F  F8  1  0.13860200  0.75732600  0.02163000  1
  F  F9  1  0.86139800  0.24267400  0.52163000  1
  F  F10  1  0.13860200  0.74267400  0.52163000  1
  F  F11  1  0.86139800  0.25732600  0.02163000  1
  F  F12  1  0.89149400  0.51749800  0.76189900  1
  F  F13  1  0.10850600  0.48250200  0.26189900  1
  F  F14  1  0.89149400  0.98250200  0.26189900  1
  F  F15  1  0.10850600  0.01749800  0.76189900  1
  F  F16  1  0.30289400  0.43619100  0.94523100  1
  F  F17  1  0.69710600  0.56380900  0.44523100  1
  F  F18  1  0.30289400  0.06380900  0.44523100  1
  F  F19  1  0.69710600  0.93619100  0.94523100  1
  F  F20  1  0.69765200  0.58688000  0.07385700  1
  F  F21  1  0.30234800  0.41312000  0.57385700  1
  F  F22  1  0.69765200  0.91312000  0.57385700  1
  F  F23  1  0.30234800  0.08688000  0.07385700  1
