# generated using pymatgen
data_Na5V2(PO5)3
_symmetry_space_group_name_H-M   'P 1'
_cell_length_a   5.22719701
_cell_length_b   6.36136572
_cell_length_c   10.65333384
_cell_angle_alpha   72.62873075
_cell_angle_beta   89.65477108
_cell_angle_gamma   88.84363267
_symmetry_Int_Tables_number   1
_chemical_formula_structural   Na5V2(PO5)3
_chemical_formula_sum   'Na5 V2 P3 O15'
_cell_volume   338.01989806
_cell_formula_units_Z   1
loop_
 _symmetry_equiv_pos_site_id
 _symmetry_equiv_pos_as_xyz
  1  'x, y, z'
loop_
 _atom_site_type_symbol
 _atom_site_label
 _atom_site_symmetry_multiplicity
 _atom_site_fract_x
 _atom_site_fract_y
 _atom_site_fract_z
 _atom_site_occupancy
  Na  Na0  1  0.98811900  0.91290300  0.82768000  1
  Na  Na1  1  0.98811900  0.74058300  0.17232000  1
  Na  Na2  1  0.01904400  0.49274400  0.52448300  1
  Na  Na3  1  0.01904400  0.01722600  0.47551700  1
  Na  Na4  1  0.39655400  0.18462900  0.00000000  1
  V  V5  1  0.50056100  0.65054800  0.69848700  1
  V  V6  1  0.50056100  0.34903500  0.30151300  1
  P  P7  1  0.50349100  0.18255700  0.62777600  1
  P  P8  1  0.50349100  0.81033300  0.37222400  1
  P  P9  1  0.46308200  0.65682100  0.00000000  1
  O  O10  1  0.89347000  0.20547100  0.00000000  1
  O  O11  1  0.79391400  0.17191000  0.62064300  1
  O  O12  1  0.79391400  0.79255400  0.37935700  1
  O  O13  1  0.81488700  0.66194600  0.68624200  1
  O  O14  1  0.81488700  0.34818800  0.31375800  1
  O  O15  1  0.40400600  0.34497100  0.70284100  1
  O  O16  1  0.40400600  0.04781200  0.29715900  1
  O  O17  1  0.37469700  0.74523600  0.51284800  1
  O  O18  1  0.37469700  0.25808400  0.48715200  1
  O  O19  1  0.38943100  0.95267500  0.70082900  1
  O  O20  1  0.38943100  0.65350400  0.29917100  1
  O  O21  1  0.39939000  0.56485900  0.87990000  1
  O  O22  1  0.39939000  0.44476000  0.12010000  1
  O  O23  1  0.27856700  0.84536300  0.00000000  1
  O  O24  1  0.74274800  0.71468900  0.00000000  1
