# generated using pymatgen
data_Gd3NbO7
_symmetry_space_group_name_H-M   'P 1'
_cell_length_a   6.54238961
_cell_length_b   6.54238961
_cell_length_c   7.63057200
_cell_angle_alpha   90.00000000
_cell_angle_beta   90.00000000
_cell_angle_gamma   109.65893032
_symmetry_Int_Tables_number   1
_chemical_formula_structural   Gd3NbO7
_chemical_formula_sum   'Gd6 Nb2 O14'
_cell_volume   307.57283462
_cell_formula_units_Z   2
loop_
 _symmetry_equiv_pos_site_id
 _symmetry_equiv_pos_as_xyz
  1  'x, y, z'
loop_
 _atom_site_type_symbol
 _atom_site_label
 _atom_site_symmetry_multiplicity
 _atom_site_fract_x
 _atom_site_fract_y
 _atom_site_fract_z
 _atom_site_occupancy
  Gd  Gd0  1  0.50000000  0.50000000  0.50000000  1
  Gd  Gd1  1  0.50000000  0.50000000  0.00000000  1
  Gd  Gd2  1  0.53503900  0.00030500  0.75000000  1
  Gd  Gd3  1  0.00030500  0.53503900  0.25000000  1
  Gd  Gd4  1  0.46496100  0.99969500  0.25000000  1
  Gd  Gd5  1  0.99969500  0.46496100  0.75000000  1
  Nb  Nb6  1  0.00000000  0.00000000  0.50000000  1
  Nb  Nb7  1  0.00000000  0.00000000  0.00000000  1
  O  O8  1  0.67950700  0.92780400  0.46829400  1
  O  O9  1  0.92780400  0.67950700  0.53170600  1
  O  O10  1  0.67950700  0.92780400  0.03170600  1
  O  O11  1  0.92780400  0.67950700  0.96829400  1
  O  O12  1  0.32049300  0.07219600  0.53170600  1
  O  O13  1  0.07219600  0.32049300  0.46829400  1
  O  O14  1  0.32049300  0.07219600  0.96829400  1
  O  O15  1  0.07219600  0.32049300  0.03170600  1
  O  O16  1  0.36921300  0.63078700  0.75000000  1
  O  O17  1  0.63078700  0.36921300  0.25000000  1
  O  O18  1  0.63549800  0.36450200  0.75000000  1
  O  O19  1  0.36450200  0.63549800  0.25000000  1
  O  O20  1  0.93467500  0.06532500  0.75000000  1
  O  O21  1  0.06532500  0.93467500  0.25000000  1
