# generated using pymatgen
data_MnMoH2SeO7
_symmetry_space_group_name_H-M   'P 1'
_cell_length_a   5.11319524
_cell_length_b   6.88806129
_cell_length_c   9.15551248
_cell_angle_alpha   92.18843779
_cell_angle_beta   96.47426192
_cell_angle_gamma   109.75824776
_symmetry_Int_Tables_number   1
_chemical_formula_structural   MnMoH2SeO7
_chemical_formula_sum   'Mn2 Mo2 H4 Se2 O14'
_cell_volume   300.53237931
_cell_formula_units_Z   2
loop_
 _symmetry_equiv_pos_site_id
 _symmetry_equiv_pos_as_xyz
  1  'x, y, z'
loop_
 _atom_site_type_symbol
 _atom_site_label
 _atom_site_symmetry_multiplicity
 _atom_site_fract_x
 _atom_site_fract_y
 _atom_site_fract_z
 _atom_site_occupancy
  Mn  Mn0  1  0.00000000  0.00000000  0.00000000  1
  Mn  Mn1  1  0.50000000  0.50000000  0.50000000  1
  Mo  Mo2  1  0.20548400  0.90747800  0.60085600  1
  Mo  Mo3  1  0.79451600  0.09252200  0.39914400  1
  H  H4  1  0.59224200  0.62928700  0.86579000  1
  H  H5  1  0.40775800  0.37071300  0.13421000  1
  H  H6  1  0.45134800  0.73817600  0.98238700  1
  H  H7  1  0.54865200  0.26182400  0.01761300  1
  Se  Se8  1  0.15182200  0.69021700  0.24545600  1
  Se  Se9  1  0.84817800  0.30978300  0.75454400  1
  O  O10  1  0.62639500  0.74099100  0.94421300  1
  O  O11  1  0.37360500  0.25900900  0.05578700  1
  O  O12  1  0.21342300  0.78248400  0.07940600  1
  O  O13  1  0.78657700  0.21751600  0.92059400  1
  O  O14  1  0.34335900  0.53260600  0.27453300  1
  O  O15  1  0.65664100  0.46739400  0.72546700  1
  O  O16  1  0.37580900  0.91236000  0.37693100  1
  O  O17  1  0.62419100  0.08764000  0.62306900  1
  O  O18  1  0.26166100  0.66700400  0.60712600  1
  O  O19  1  0.73833900  0.33299600  0.39287400  1
  O  O20  1  0.84306200  0.81187100  0.49133200  1
  O  O21  1  0.15693800  0.18812900  0.50866800  1
  O  O22  1  0.14732300  0.96736400  0.78025900  1
  O  O23  1  0.85267700  0.03263600  0.21974100  1
