# generated using pymatgen
data_Si(SnS2)2
_symmetry_space_group_name_H-M   'P 1'
_cell_length_a   8.33774870
_cell_length_b   8.46493200
_cell_length_c   10.63088554
_cell_angle_alpha   90.00000000
_cell_angle_beta   107.71995415
_cell_angle_gamma   90.00000000
_symmetry_Int_Tables_number   1
_chemical_formula_structural   Si(SnS2)2
_chemical_formula_sum   'Si4 Sn8 S16'
_cell_volume   714.71356324
_cell_formula_units_Z   4
loop_
 _symmetry_equiv_pos_site_id
 _symmetry_equiv_pos_as_xyz
  1  'x, y, z'
loop_
 _atom_site_type_symbol
 _atom_site_label
 _atom_site_symmetry_multiplicity
 _atom_site_fract_x
 _atom_site_fract_y
 _atom_site_fract_z
 _atom_site_occupancy
  Si  Si0  1  0.31346700  0.21291800  0.01997900  1
  Si  Si1  1  0.18653300  0.71291800  0.48002100  1
  Si  Si2  1  0.68653300  0.78708200  0.98002100  1
  Si  Si3  1  0.81346700  0.28708200  0.51997900  1
  Sn  Sn4  1  0.74684600  0.34561200  0.19665400  1
  Sn  Sn5  1  0.75315400  0.84561200  0.30334600  1
  Sn  Sn6  1  0.25315400  0.65438800  0.80334600  1
  Sn  Sn7  1  0.24684600  0.15438800  0.69665400  1
  Sn  Sn8  1  0.38565100  0.24378100  0.39119600  1
  Sn  Sn9  1  0.11434900  0.74378100  0.10880400  1
  Sn  Sn10  1  0.61434900  0.75621900  0.60880400  1
  Sn  Sn11  1  0.88565100  0.25621900  0.89119600  1
  S  S12  1  0.49545300  0.11973900  0.19463500  1
  S  S13  1  0.00454700  0.61973900  0.30536500  1
  S  S14  1  0.50454700  0.88026100  0.80536500  1
  S  S15  1  0.99545300  0.38026100  0.69463500  1
  S  S16  1  0.14801600  0.03649800  0.90004500  1
  S  S17  1  0.35198400  0.53649800  0.59995500  1
  S  S18  1  0.85198400  0.96350200  0.09995500  1
  S  S19  1  0.64801600  0.46350200  0.40004500  1
  S  S20  1  0.44457200  0.31859300  0.89898000  1
  S  S21  1  0.05542800  0.81859300  0.60102000  1
  S  S22  1  0.55542800  0.68140700  0.10102000  1
  S  S23  1  0.94457200  0.18140700  0.39898000  1
  S  S24  1  0.15001200  0.36536200  0.08385600  1
  S  S25  1  0.34998800  0.86536200  0.41614400  1
  S  S26  1  0.84998800  0.63463800  0.91614400  1
  S  S27  1  0.65001200  0.13463800  0.58385600  1
