# generated using pymatgen
data_TeP2(N2O7)2
_symmetry_space_group_name_H-M   'P 1'
_cell_length_a   6.41186500
_cell_length_b   6.45047157
_cell_length_c   9.97054372
_cell_angle_alpha   89.17289976
_cell_angle_beta   93.47824287
_cell_angle_gamma   111.93575020
_symmetry_Int_Tables_number   1
_chemical_formula_structural   TeP2(N2O7)2
_chemical_formula_sum   'Te1 P2 N4 O14'
_cell_volume   381.80277643
_cell_formula_units_Z   1
loop_
 _symmetry_equiv_pos_site_id
 _symmetry_equiv_pos_as_xyz
  1  'x, y, z'
loop_
 _atom_site_type_symbol
 _atom_site_label
 _atom_site_symmetry_multiplicity
 _atom_site_fract_x
 _atom_site_fract_y
 _atom_site_fract_z
 _atom_site_occupancy
  Te  Te0  1  0.00000000  0.00000000  0.00000000  1
  P  P1  1  0.94658700  0.53715100  0.73111100  1
  P  P2  1  0.05341300  0.46284900  0.26888900  1
  N  N3  1  0.44574100  0.18933700  0.82078500  1
  N  N4  1  0.55425900  0.81066300  0.17921500  1
  N  N5  1  0.62919500  0.88094500  0.60276000  1
  N  N6  1  0.37080500  0.11905500  0.39724000  1
  O  O7  1  0.16866200  0.61167600  0.80435600  1
  O  O8  1  0.83133800  0.38832400  0.19564400  1
  O  O9  1  0.32580400  0.10509500  0.72091700  1
  O  O10  1  0.67419600  0.89490500  0.27908300  1
  O  O11  1  0.85774700  0.39300500  0.61149700  1
  O  O12  1  0.14225300  0.60699500  0.38850300  1
  O  O13  1  0.51594900  0.69819700  0.59137600  1
  O  O14  1  0.48405100  0.30180300  0.40862400  1
  O  O15  1  0.62548000  0.82384900  0.06274500  1
  O  O16  1  0.37452000  0.17615100  0.93725500  1
  O  O17  1  0.76102300  0.62043100  0.78531300  1
  O  O18  1  0.23897700  0.37956900  0.21468700  1
  O  O19  1  0.84954900  0.87907000  0.80893200  1
  O  O20  1  0.15045100  0.12093000  0.19106800  1
