# generated using pymatgen
data_Ce2Mn3Cu9P7
_symmetry_space_group_name_H-M   'P 1'
_cell_length_a   9.48838349
_cell_length_b   9.48838349
_cell_length_c   3.80311000
_cell_angle_alpha   90.00000000
_cell_angle_beta   90.00000000
_cell_angle_gamma   119.99999647
_symmetry_Int_Tables_number   1
_chemical_formula_structural   Ce2Mn3Cu9P7
_chemical_formula_sum   'Ce2 Mn3 Cu9 P7'
_cell_volume   296.52000092
_cell_formula_units_Z   1
loop_
 _symmetry_equiv_pos_site_id
 _symmetry_equiv_pos_as_xyz
  1  'x, y, z'
loop_
 _atom_site_type_symbol
 _atom_site_label
 _atom_site_symmetry_multiplicity
 _atom_site_fract_x
 _atom_site_fract_y
 _atom_site_fract_z
 _atom_site_occupancy
  Ce  Ce0  1  0.00000000  0.00000000  0.00000000  1
  Ce  Ce1  1  0.33333300  0.66666700  0.50000000  1
  Mn  Mn2  1  0.88398100  0.46009900  0.50000000  1
  Mn  Mn3  1  0.53990100  0.42388200  0.50000000  1
  Mn  Mn4  1  0.57611800  0.11601900  0.50000000  1
  Cu  Cu5  1  0.08948100  0.70697200  0.00000000  1
  Cu  Cu6  1  0.29302800  0.38250800  0.00000000  1
  Cu  Cu7  1  0.61749200  0.91051900  0.00000000  1
  Cu  Cu8  1  0.82781100  0.21657300  0.00000000  1
  Cu  Cu9  1  0.78342700  0.61123800  0.00000000  1
  Cu  Cu10  1  0.38876200  0.17218900  0.00000000  1
  Cu  Cu11  1  0.04999300  0.29075900  0.50000000  1
  Cu  Cu12  1  0.70924100  0.75923400  0.50000000  1
  Cu  Cu13  1  0.24076600  0.95000700  0.50000000  1
  P  P14  1  0.08276400  0.45649400  0.00000000  1
  P  P15  1  0.54350600  0.62627000  0.00000000  1
  P  P16  1  0.37373000  0.91723600  0.00000000  1
  P  P17  1  0.78600400  0.04024800  0.50000000  1
  P  P18  1  0.95975200  0.74575500  0.50000000  1
  P  P19  1  0.25424500  0.21399600  0.50000000  1
  P  P20  1  0.66666700  0.33333300  0.00000000  1
