# generated using pymatgen
data_SnP2(NO3)2
_symmetry_space_group_name_H-M   'P 1'
_cell_length_a   5.05271000
_cell_length_b   10.32399844
_cell_length_c   11.15889785
_cell_angle_alpha   107.25381092
_cell_angle_beta   101.12839796
_cell_angle_gamma   89.62558235
_symmetry_Int_Tables_number   1
_chemical_formula_structural   SnP2(NO3)2
_chemical_formula_sum   'Sn2 P4 N4 O12'
_cell_volume   544.64860742
_cell_formula_units_Z   2
loop_
 _symmetry_equiv_pos_site_id
 _symmetry_equiv_pos_as_xyz
  1  'x, y, z'
loop_
 _atom_site_type_symbol
 _atom_site_label
 _atom_site_symmetry_multiplicity
 _atom_site_fract_x
 _atom_site_fract_y
 _atom_site_fract_z
 _atom_site_occupancy
  Sn  Sn0  1  0.61569400  0.35866000  0.31772600  1
  Sn  Sn1  1  0.38430600  0.64134000  0.68227400  1
  P  P2  1  0.24907200  0.23208100  0.48260600  1
  P  P3  1  0.75092800  0.76791900  0.51739400  1
  P  P4  1  0.97376500  0.23989000  0.08699700  1
  P  P5  1  0.02623500  0.76011000  0.91300300  1
  N  N6  1  0.13450100  0.64707500  0.24037900  1
  N  N7  1  0.86549900  0.35292500  0.75962100  1
  N  N8  1  0.60821200  0.93015500  0.19212800  1
  N  N9  1  0.39178800  0.06984500  0.80787200  1
  O  O10  1  0.00027000  0.30823500  0.45670200  1
  O  O11  1  0.99973000  0.69176500  0.54329800  1
  O  O12  1  0.42870500  0.20889400  0.38385400  1
  O  O13  1  0.57129500  0.79110600  0.61614600  1
  O  O14  1  0.32881300  0.18876800  0.59769200  1
  O  O15  1  0.67118700  0.81123200  0.40230800  1
  O  O16  1  0.75329800  0.21649300  0.15547500  1
  O  O17  1  0.24670200  0.78350700  0.84452500  1
  O  O18  1  0.94937100  0.17480700  0.94894900  1
  O  O19  1  0.05062900  0.82519300  0.05105100  1
  O  O20  1  0.20580600  0.33570000  0.17015400  1
  O  O21  1  0.79419400  0.66430000  0.82984600  1
