# generated using pymatgen
data_Ba7In2(Se3F4)2
_symmetry_space_group_name_H-M   'P 1'
_cell_length_a   12.44535364
_cell_length_b   12.44535364
_cell_length_c   11.15852677
_cell_angle_alpha   73.07244646
_cell_angle_beta   73.07244646
_cell_angle_gamma   20.63942065
_symmetry_Int_Tables_number   1
_chemical_formula_structural   Ba7In2(Se3F4)2
_chemical_formula_sum   'Ba7 In2 Se6 F8'
_cell_volume   581.91375914
_cell_formula_units_Z   1
loop_
 _symmetry_equiv_pos_site_id
 _symmetry_equiv_pos_as_xyz
  1  'x, y, z'
loop_
 _atom_site_type_symbol
 _atom_site_label
 _atom_site_symmetry_multiplicity
 _atom_site_fract_x
 _atom_site_fract_y
 _atom_site_fract_z
 _atom_site_occupancy
  Ba  Ba0  1  0.00000000  0.00000000  0.00000000  1
  Ba  Ba1  1  0.82789700  0.82789700  0.24002900  1
  Ba  Ba2  1  0.17210300  0.17210300  0.75997100  1
  Ba  Ba3  1  0.36502800  0.36502800  0.89857000  1
  Ba  Ba4  1  0.63497200  0.63497200  0.10143000  1
  Ba  Ba5  1  0.54265800  0.54265800  0.64432500  1
  Ba  Ba6  1  0.45734200  0.45734200  0.35567500  1
  In  In7  1  0.82774400  0.82774400  0.62342600  1
  In  In8  1  0.17225600  0.17225600  0.37657400  1
  Se  Se9  1  0.31030300  0.31030300  0.50207900  1
  Se  Se10  1  0.68969700  0.68969700  0.49792100  1
  Se  Se11  1  0.93200100  0.93200100  0.63134900  1
  Se  Se12  1  0.06799900  0.06799900  0.36865100  1
  Se  Se13  1  0.76148900  0.76148900  0.84902200  1
  Se  Se14  1  0.23851100  0.23851100  0.15097800  1
  F  F15  1  0.38381000  0.38381000  0.16646800  1
  F  F16  1  0.61619000  0.61619000  0.83353200  1
  F  F17  1  0.06457800  0.06457800  0.73662000  1
  F  F18  1  0.93542200  0.93542200  0.26338000  1
  F  F19  1  0.88579500  0.88579500  0.99654000  1
  F  F20  1  0.11420500  0.11420500  0.00346000  1
  F  F21  1  0.47636300  0.47636300  0.87818100  1
  F  F22  1  0.52363700  0.52363700  0.12181900  1
