# generated using pymatgen
data_Gd3AlZnS7
_symmetry_space_group_name_H-M   'P 1'
_cell_length_a   9.76494710
_cell_length_b   9.76494710
_cell_length_c   6.20964400
_cell_angle_alpha   90.00000000
_cell_angle_beta   90.00000000
_cell_angle_gamma   119.99999393
_symmetry_Int_Tables_number   1
_chemical_formula_structural   Gd3AlZnS7
_chemical_formula_sum   'Gd6 Al2 Zn2 S14'
_cell_volume   512.78717071
_cell_formula_units_Z   2
loop_
 _symmetry_equiv_pos_site_id
 _symmetry_equiv_pos_as_xyz
  1  'x, y, z'
loop_
 _atom_site_type_symbol
 _atom_site_label
 _atom_site_symmetry_multiplicity
 _atom_site_fract_x
 _atom_site_fract_y
 _atom_site_fract_z
 _atom_site_occupancy
  Gd  Gd0  1  0.76766200  0.14473100  0.23442000  1
  Gd  Gd1  1  0.37706900  0.23233800  0.23442000  1
  Gd  Gd2  1  0.85526900  0.62293100  0.23442000  1
  Gd  Gd3  1  0.23233800  0.85526900  0.73442000  1
  Gd  Gd4  1  0.62293100  0.76766200  0.73442000  1
  Gd  Gd5  1  0.14473100  0.37706900  0.73442000  1
  Al  Al6  1  0.66666700  0.33333300  0.66198400  1
  Al  Al7  1  0.33333300  0.66666700  0.16198400  1
  Zn  Zn8  1  0.00000000  0.00000000  0.00325300  1
  Zn  Zn9  1  0.00000000  0.00000000  0.50325300  1
  S  S10  1  0.85579100  0.09948600  0.81874600  1
  S  S11  1  0.24369500  0.14420900  0.81874600  1
  S  S12  1  0.90051400  0.75630500  0.81874600  1
  S  S13  1  0.14420900  0.90051400  0.31874600  1
  S  S14  1  0.75630500  0.85579100  0.31874600  1
  S  S15  1  0.09948600  0.24369500  0.31874600  1
  S  S16  1  0.90475300  0.42307700  0.50491500  1
  S  S17  1  0.51832300  0.09524700  0.50491500  1
  S  S18  1  0.57692300  0.48167700  0.50491500  1
  S  S19  1  0.09524700  0.57692300  0.00491500  1
  S  S20  1  0.48167700  0.90475300  0.00491500  1
  S  S21  1  0.42307700  0.51832300  0.00491500  1
  S  S22  1  0.66666700  0.33333300  0.02448800  1
  S  S23  1  0.33333300  0.66666700  0.52448800  1
