# generated using pymatgen
data_V2FeAg3O8
_symmetry_space_group_name_H-M   'P 1'
_cell_length_a   5.21290700
_cell_length_b   5.61308129
_cell_length_c   14.51882876
_cell_angle_alpha   93.70649521
_cell_angle_beta   90.00000000
_cell_angle_gamma   117.66839034
_symmetry_Int_Tables_number   1
_chemical_formula_structural   V2FeAg3O8
_chemical_formula_sum   'V4 Fe2 Ag6 O16'
_cell_volume   375.24504887
_cell_formula_units_Z   2
loop_
 _symmetry_equiv_pos_site_id
 _symmetry_equiv_pos_as_xyz
  1  'x, y, z'
loop_
 _atom_site_type_symbol
 _atom_site_label
 _atom_site_symmetry_multiplicity
 _atom_site_fract_x
 _atom_site_fract_y
 _atom_site_fract_z
 _atom_site_occupancy
  V  V0  1  0.36818700  0.66429400  0.60612800  1
  V  V1  1  0.70389300  0.33570600  0.89387200  1
  V  V2  1  0.63181300  0.33570600  0.39387200  1
  V  V3  1  0.29610700  0.66429400  0.10612800  1
  Fe  Fe4  1  0.00000000  0.00000000  0.00000000  1
  Fe  Fe5  1  0.00000000  0.00000000  0.50000000  1
  Ag  Ag6  1  0.04397600  0.00000000  0.75000000  1
  Ag  Ag7  1  0.95602400  0.00000000  0.25000000  1
  Ag  Ag8  1  0.71736100  0.32085800  0.64055200  1
  Ag  Ag9  1  0.39650400  0.67914200  0.85944800  1
  Ag  Ag10  1  0.28263900  0.67914200  0.35944800  1
  Ag  Ag11  1  0.60349600  0.32085800  0.14055200  1
  O  O12  1  0.21409500  0.66802100  0.71119800  1
  O  O13  1  0.54607400  0.33197900  0.78880200  1
  O  O14  1  0.78590500  0.33197900  0.28880200  1
  O  O15  1  0.45392600  0.66802100  0.21119800  1
  O  O16  1  0.21164900  0.78579500  0.52859500  1
  O  O17  1  0.42585400  0.21420500  0.97140500  1
  O  O18  1  0.78835100  0.21420500  0.47140500  1
  O  O19  1  0.57414600  0.78579500  0.02859500  1
  O  O20  1  0.75105800  0.88129800  0.61473000  1
  O  O21  1  0.86976000  0.11870200  0.88527000  1
  O  O22  1  0.24894200  0.11870200  0.38527000  1
  O  O23  1  0.13024000  0.88129800  0.11473000  1
  O  O24  1  0.29214400  0.32727200  0.57473700  1
  O  O25  1  0.96487200  0.67272800  0.92526300  1
  O  O26  1  0.70785600  0.67272800  0.42526300  1
  O  O27  1  0.03512800  0.32727200  0.07473700  1
