# generated using pymatgen
data_Mn3NiO10
_symmetry_space_group_name_H-M   'P 1'
_cell_length_a   8.16427351
_cell_length_b   8.16427351
_cell_length_c   8.16427366
_cell_angle_alpha   55.65135251
_cell_angle_beta   55.65135251
_cell_angle_gamma   55.65135049
_symmetry_Int_Tables_number   1
_chemical_formula_structural   Mn3NiO10
_chemical_formula_sum   'Mn6 Ni2 O20'
_cell_volume   345.97513724
_cell_formula_units_Z   2
loop_
 _symmetry_equiv_pos_site_id
 _symmetry_equiv_pos_as_xyz
  1  'x, y, z'
loop_
 _atom_site_type_symbol
 _atom_site_label
 _atom_site_symmetry_multiplicity
 _atom_site_fract_x
 _atom_site_fract_y
 _atom_site_fract_z
 _atom_site_occupancy
  Mn  Mn0  1  0.57670800  0.14204200  0.28296800  1
  Mn  Mn1  1  0.28296800  0.57670800  0.14204200  1
  Mn  Mn2  1  0.14204200  0.28296800  0.57670800  1
  Mn  Mn3  1  0.42329200  0.85795800  0.71703200  1
  Mn  Mn4  1  0.71703200  0.42329200  0.85795800  1
  Mn  Mn5  1  0.85795800  0.71703200  0.42329200  1
  Ni  Ni6  1  0.90453900  0.90453900  0.90453900  1
  Ni  Ni7  1  0.09546100  0.09546100  0.09546100  1
  O  O8  1  0.57326800  0.85909100  0.42685400  1
  O  O9  1  0.42685400  0.57326800  0.85909100  1
  O  O10  1  0.85909100  0.42685400  0.57326800  1
  O  O11  1  0.42673200  0.14090900  0.57314600  1
  O  O12  1  0.57314600  0.42673200  0.14090900  1
  O  O13  1  0.14090900  0.57314600  0.42673200  1
  O  O14  1  0.14458800  0.99929700  0.70511600  1
  O  O15  1  0.70511600  0.14458800  0.99929700  1
  O  O16  1  0.99929700  0.70511600  0.14458800  1
  O  O17  1  0.85541200  0.00070300  0.29488400  1
  O  O18  1  0.29488400  0.85541200  0.00070300  1
  O  O19  1  0.00070300  0.29488400  0.85541200  1
  O  O20  1  0.28844700  0.28844700  0.28844700  1
  O  O21  1  0.71155300  0.71155300  0.71155300  1
  O  O22  1  0.80449400  0.02093600  0.69644600  1
  O  O23  1  0.69644600  0.80449400  0.02093600  1
  O  O24  1  0.02093600  0.69644600  0.80449400  1
  O  O25  1  0.19550600  0.97906400  0.30355400  1
  O  O26  1  0.30355400  0.19550600  0.97906400  1
  O  O27  1  0.97906400  0.30355400  0.19550600  1
