# generated using pymatgen
data_Ni(ClO2)2
_symmetry_space_group_name_H-M   'P 1'
_cell_length_a   7.69394700
_cell_length_b   5.20935200
_cell_length_c   11.60330188
_cell_angle_alpha   68.30896660
_cell_angle_beta   90.00000000
_cell_angle_gamma   90.00000000
_symmetry_Int_Tables_number   1
_chemical_formula_structural   Ni(ClO2)2
_chemical_formula_sum   'Ni4 Cl8 O16'
_cell_volume   432.13476988
_cell_formula_units_Z   4
loop_
 _symmetry_equiv_pos_site_id
 _symmetry_equiv_pos_as_xyz
  1  'x, y, z'
loop_
 _atom_site_type_symbol
 _atom_site_label
 _atom_site_symmetry_multiplicity
 _atom_site_fract_x
 _atom_site_fract_y
 _atom_site_fract_z
 _atom_site_occupancy
  Ni  Ni0  1  0.66365300  0.72436700  0.76018000  1
  Ni  Ni1  1  0.83634700  0.72436700  0.26018000  1
  Ni  Ni2  1  0.33634700  0.27563300  0.23982000  1
  Ni  Ni3  1  0.16365300  0.27563300  0.73982000  1
  Cl  Cl4  1  0.87694600  0.79310900  0.61842400  1
  Cl  Cl5  1  0.62305400  0.79310900  0.11842400  1
  Cl  Cl6  1  0.12305400  0.20689100  0.38157600  1
  Cl  Cl7  1  0.37694600  0.20689100  0.88157600  1
  Cl  Cl8  1  0.82126900  0.43759600  0.92221600  1
  Cl  Cl9  1  0.67873100  0.43759600  0.42221600  1
  Cl  Cl10  1  0.17873100  0.56240400  0.07778400  1
  Cl  Cl11  1  0.32126900  0.56240400  0.57778400  1
  O  O12  1  0.73575800  0.02670800  0.79762200  1
  O  O13  1  0.76424200  0.02670800  0.29762200  1
  O  O14  1  0.26424200  0.97329200  0.20237800  1
  O  O15  1  0.23575800  0.97329200  0.70237800  1
  O  O16  1  0.58942600  0.42431000  0.71992100  1
  O  O17  1  0.91057400  0.42431000  0.21992100  1
  O  O18  1  0.41057400  0.57569000  0.28007900  1
  O  O19  1  0.08942600  0.57569000  0.78007900  1
  O  O20  1  0.51220500  0.94753500  0.64478400  1
  O  O21  1  0.98779500  0.94753500  0.14478400  1
  O  O22  1  0.48779500  0.05246500  0.35521600  1
  O  O23  1  0.01220500  0.05246500  0.85521600  1
  O  O24  1  0.46507200  0.68938500  0.85371500  1
  O  O25  1  0.03492800  0.68938500  0.35371500  1
  O  O26  1  0.53492800  0.31061500  0.14628500  1
  O  O27  1  0.96507200  0.31061500  0.64628500  1
