# generated using pymatgen
data_NdMoO4F
_symmetry_space_group_name_H-M   'P 1'
_cell_length_a   6.61203000
_cell_length_b   7.02773500
_cell_length_c   10.13012838
_cell_angle_alpha   64.16676826
_cell_angle_beta   90.00000000
_cell_angle_gamma   90.00000000
_symmetry_Int_Tables_number   1
_chemical_formula_structural   NdMoO4F
_chemical_formula_sum   'Nd4 Mo4 O16 F4'
_cell_volume   423.68158397
_cell_formula_units_Z   4
loop_
 _symmetry_equiv_pos_site_id
 _symmetry_equiv_pos_as_xyz
  1  'x, y, z'
loop_
 _atom_site_type_symbol
 _atom_site_label
 _atom_site_symmetry_multiplicity
 _atom_site_fract_x
 _atom_site_fract_y
 _atom_site_fract_z
 _atom_site_occupancy
  Nd  Nd0  1  0.62815000  0.80379500  0.42206200  1
  Nd  Nd1  1  0.87185000  0.80379500  0.92206200  1
  Nd  Nd2  1  0.37185000  0.19620500  0.57793800  1
  Nd  Nd3  1  0.12815000  0.19620500  0.07793800  1
  Mo  Mo4  1  0.63569800  0.33358100  0.83498600  1
  Mo  Mo5  1  0.86430200  0.33358100  0.33498600  1
  Mo  Mo6  1  0.36430200  0.66641900  0.16501400  1
  Mo  Mo7  1  0.13569800  0.66641900  0.66501400  1
  O  O8  1  0.66022600  0.55430400  0.87303700  1
  O  O9  1  0.83977400  0.55430400  0.37303700  1
  O  O10  1  0.33977400  0.44569600  0.12696300  1
  O  O11  1  0.16022600  0.44569600  0.62696300  1
  O  O12  1  0.90092000  0.78601300  0.58767700  1
  O  O13  1  0.59908000  0.78601300  0.08767700  1
  O  O14  1  0.09908000  0.21398700  0.41232300  1
  O  O15  1  0.40092000  0.21398700  0.91232300  1
  O  O16  1  0.60578600  0.43957100  0.63614800  1
  O  O17  1  0.89421400  0.43957100  0.13614800  1
  O  O18  1  0.39421400  0.56042900  0.36385200  1
  O  O19  1  0.10578600  0.56042900  0.86385200  1
  O  O20  1  0.85783600  0.16484600  0.91945400  1
  O  O21  1  0.64216400  0.16484600  0.41945400  1
  O  O22  1  0.14216400  0.83515400  0.08054600  1
  O  O23  1  0.35783600  0.83515400  0.58054600  1
  F  F24  1  0.88261800  0.01370400  0.26122300  1
  F  F25  1  0.61738200  0.01370400  0.76122300  1
  F  F26  1  0.11738200  0.98629600  0.73877700  1
  F  F27  1  0.38261800  0.98629600  0.23877700  1
