# generated using pymatgen
data_Mn(FeO2)2
_symmetry_space_group_name_H-M   'P 1'
_cell_length_a   2.98358300
_cell_length_b   5.14900769
_cell_length_c   10.04397600
_cell_angle_alpha   90.00000000
_cell_angle_beta   90.00000000
_cell_angle_gamma   106.84143181
_symmetry_Int_Tables_number   1
_chemical_formula_structural   Mn(FeO2)2
_chemical_formula_sum   'Mn2 Fe4 O8'
_cell_volume   147.68258810
_cell_formula_units_Z   2
loop_
 _symmetry_equiv_pos_site_id
 _symmetry_equiv_pos_as_xyz
  1  'x, y, z'
loop_
 _atom_site_type_symbol
 _atom_site_label
 _atom_site_symmetry_multiplicity
 _atom_site_fract_x
 _atom_site_fract_y
 _atom_site_fract_z
 _atom_site_occupancy
  Mn  Mn0  1  0.88873700  0.27747500  0.75000000  1
  Mn  Mn1  1  0.11126300  0.72252500  0.25000000  1
  Fe  Fe2  1  0.36679300  0.23358700  0.42756900  1
  Fe  Fe3  1  0.63320700  0.76641300  0.92756900  1
  Fe  Fe4  1  0.63320700  0.76641300  0.57243100  1
  Fe  Fe5  1  0.36679300  0.23358700  0.07243100  1
  O  O6  1  0.00000000  0.50000000  0.50000000  1
  O  O7  1  0.00000000  0.50000000  0.00000000  1
  O  O8  1  0.45355600  0.40711100  0.25000000  1
  O  O9  1  0.54644400  0.59288900  0.75000000  1
  O  O10  1  0.73049400  0.96098800  0.38875800  1
  O  O11  1  0.26950600  0.03901200  0.88875800  1
  O  O12  1  0.26950600  0.03901200  0.61124200  1
  O  O13  1  0.73049400  0.96098800  0.11124200  1
