# generated using pymatgen
data_TmWBrO4
_symmetry_space_group_name_H-M   'P 1'
_cell_length_a   6.98351300
_cell_length_b   7.26263674
_cell_length_c   10.93652275
_cell_angle_alpha   102.91484832
_cell_angle_beta   108.21895584
_cell_angle_gamma   95.11519175
_symmetry_Int_Tables_number   1
_chemical_formula_structural   TmWBrO4
_chemical_formula_sum   'Tm4 W4 Br4 O16'
_cell_volume   505.91761271
_cell_formula_units_Z   4
loop_
 _symmetry_equiv_pos_site_id
 _symmetry_equiv_pos_as_xyz
  1  'x, y, z'
loop_
 _atom_site_type_symbol
 _atom_site_label
 _atom_site_symmetry_multiplicity
 _atom_site_fract_x
 _atom_site_fract_y
 _atom_site_fract_z
 _atom_site_occupancy
  Tm  Tm0  1  0.66563200  0.10247500  0.73038500  1
  Tm  Tm1  1  0.33436800  0.89752500  0.26961500  1
  Tm  Tm2  1  0.37781100  0.66339100  0.76671200  1
  Tm  Tm3  1  0.62218900  0.33660900  0.23328800  1
  W  W4  1  0.72601000  0.81650600  0.13368800  1
  W  W5  1  0.27399000  0.18349400  0.86631200  1
  W  W6  1  0.76705600  0.58572200  0.62546500  1
  W  W7  1  0.23294400  0.41427800  0.37453500  1
  Br  Br8  1  0.26562900  0.01024200  0.52005500  1
  Br  Br9  1  0.73437100  0.98975800  0.47994500  1
  Br  Br10  1  0.19083500  0.72325700  0.98339500  1
  Br  Br11  1  0.80916500  0.27674300  0.01660500  1
  O  O12  1  0.65022500  0.73166700  0.95472500  1
  O  O13  1  0.34977500  0.26833300  0.04527500  1
  O  O14  1  0.00004500  0.88644000  0.20334200  1
  O  O15  1  0.99995500  0.11356000  0.79665800  1
  O  O16  1  0.64663200  0.62857600  0.20107000  1
  O  O17  1  0.35336800  0.37142400  0.79893000  1
  O  O18  1  0.40497700  0.98593800  0.81123900  1
  O  O19  1  0.59502300  0.01406200  0.18876100  1
  O  O20  1  0.03880700  0.65159400  0.66832100  1
  O  O21  1  0.96119300  0.34840600  0.33167900  1
  O  O22  1  0.72574200  0.39325700  0.69923300  1
  O  O23  1  0.27425800  0.60674300  0.30076700  1
  O  O24  1  0.66101800  0.49694100  0.44410700  1
  O  O25  1  0.33898200  0.50305900  0.55589300  1
  O  O26  1  0.65773900  0.78460500  0.70567000  1
  O  O27  1  0.34226100  0.21539500  0.29433000  1
