# generated using pymatgen
data_BaV2Cu(AgO4)2
_symmetry_space_group_name_H-M   'P 1'
_cell_length_a   5.47899100
_cell_length_b   5.70594244
_cell_length_c   14.52686933
_cell_angle_alpha   94.99023302
_cell_angle_beta   90.48539342
_cell_angle_gamma   117.81831938
_symmetry_Int_Tables_number   1
_chemical_formula_structural   BaV2Cu(AgO4)2
_chemical_formula_sum   'Ba2 V4 Cu2 Ag4 O16'
_cell_volume   399.52191666
_cell_formula_units_Z   2
loop_
 _symmetry_equiv_pos_site_id
 _symmetry_equiv_pos_as_xyz
  1  'x, y, z'
loop_
 _atom_site_type_symbol
 _atom_site_label
 _atom_site_symmetry_multiplicity
 _atom_site_fract_x
 _atom_site_fract_y
 _atom_site_fract_z
 _atom_site_occupancy
  Ba  Ba0  1  0.46724100  0.95616500  0.74870000  1
  Ba  Ba1  1  0.53275900  0.04383500  0.25130000  1
  V  V2  1  0.84085600  0.68224800  0.87314700  1
  V  V3  1  0.15914400  0.31775200  0.12685300  1
  V  V4  1  0.14253200  0.28373400  0.62508500  1
  V  V5  1  0.85746800  0.71626600  0.37491500  1
  Cu  Cu6  1  0.50000000  0.00000000  0.00000000  1
  Cu  Cu7  1  0.50000000  0.00000000  0.50000000  1
  Ag  Ag8  1  0.17014700  0.33161500  0.91033000  1
  Ag  Ag9  1  0.82985300  0.66838500  0.08967000  1
  Ag  Ag10  1  0.81050100  0.62367900  0.58810400  1
  Ag  Ag11  1  0.18949900  0.37632100  0.41189600  1
  O  O12  1  0.57845700  0.76219200  0.91321900  1
  O  O13  1  0.42154300  0.23780800  0.08678100  1
  O  O14  1  0.17660900  0.92145800  0.91934900  1
  O  O15  1  0.82339100  0.07854200  0.08065100  1
  O  O16  1  0.23413500  0.03366900  0.58477900  1
  O  O17  1  0.76586500  0.96633100  0.41522100  1
  O  O18  1  0.78454200  0.18090000  0.60061200  1
  O  O19  1  0.21545800  0.81910000  0.39938800  1
  O  O20  1  0.85459700  0.70506700  0.75638600  1
  O  O21  1  0.14540300  0.29493300  0.24361400  1
  O  O22  1  0.20109500  0.33661000  0.74274300  1
  O  O23  1  0.79890500  0.66339000  0.25725700  1
  O  O24  1  0.64840400  0.41682900  0.41903100  1
  O  O25  1  0.35159600  0.58317100  0.58096900  1
  O  O26  1  0.76038800  0.36031000  0.89605800  1
  O  O27  1  0.23961200  0.63969000  0.10394200  1
