# generated using pymatgen
data_ErWBrO4
_symmetry_space_group_name_H-M   'P 1'
_cell_length_a   7.01777600
_cell_length_b   7.28929979
_cell_length_c   10.98197066
_cell_angle_alpha   102.74985061
_cell_angle_beta   108.46822360
_cell_angle_gamma   95.27302752
_symmetry_Int_Tables_number   1
_chemical_formula_structural   ErWBrO4
_chemical_formula_sum   'Er4 W4 Br4 O16'
_cell_volume   511.69694130
_cell_formula_units_Z   4
loop_
 _symmetry_equiv_pos_site_id
 _symmetry_equiv_pos_as_xyz
  1  'x, y, z'
loop_
 _atom_site_type_symbol
 _atom_site_label
 _atom_site_symmetry_multiplicity
 _atom_site_fract_x
 _atom_site_fract_y
 _atom_site_fract_z
 _atom_site_occupancy
  Er  Er0  1  0.66236200  0.10394000  0.73052600  1
  Er  Er1  1  0.33763800  0.89606000  0.26947400  1
  Er  Er2  1  0.37822000  0.66335900  0.76586700  1
  Er  Er3  1  0.62178000  0.33664100  0.23413300  1
  W  W4  1  0.72635100  0.81518100  0.13298200  1
  W  W5  1  0.27364900  0.18481900  0.86701800  1
  W  W6  1  0.76711600  0.58765200  0.62592200  1
  W  W7  1  0.23288400  0.41234800  0.37407800  1
  Br  Br8  1  0.26485800  0.00992200  0.51884800  1
  Br  Br9  1  0.73514200  0.99007800  0.48115200  1
  Br  Br10  1  0.19464300  0.72223700  0.98519100  1
  Br  Br11  1  0.80535700  0.27776300  0.01480900  1
  O  O12  1  0.65117400  0.73276200  0.95446700  1
  O  O13  1  0.34882600  0.26723800  0.04553300  1
  O  O14  1  0.99997100  0.88243700  0.20431800  1
  O  O15  1  0.00002900  0.11756300  0.79568200  1
  O  O16  1  0.64576800  0.62931100  0.20094400  1
  O  O17  1  0.35423200  0.37068900  0.79905600  1
  O  O18  1  0.40201600  0.98734600  0.81158400  1
  O  O19  1  0.59798400  0.01265400  0.18841600  1
  O  O20  1  0.03858500  0.65273900  0.67037000  1
  O  O21  1  0.96141500  0.34726100  0.32963000  1
  O  O22  1  0.72546800  0.39481600  0.69828400  1
  O  O23  1  0.27453200  0.60518400  0.30171600  1
  O  O24  1  0.66075300  0.49896400  0.44516700  1
  O  O25  1  0.33924700  0.50103600  0.55483300  1
  O  O26  1  0.65687100  0.78493300  0.70495700  1
  O  O27  1  0.34312900  0.21506700  0.29504300  1
