# generated using pymatgen
data_Hf6Ga16Pd7
_symmetry_space_group_name_H-M   'P 1'
_cell_length_a   8.81172288
_cell_length_b   8.81172288
_cell_length_c   8.81172288
_cell_angle_alpha   60.00000000
_cell_angle_beta   60.00000000
_cell_angle_gamma   60.00000000
_symmetry_Int_Tables_number   1
_chemical_formula_structural   Hf6Ga16Pd7
_chemical_formula_sum   'Hf6 Ga16 Pd7'
_cell_volume   483.80181505
_cell_formula_units_Z   1
loop_
 _symmetry_equiv_pos_site_id
 _symmetry_equiv_pos_as_xyz
  1  'x, y, z'
loop_
 _atom_site_type_symbol
 _atom_site_label
 _atom_site_symmetry_multiplicity
 _atom_site_fract_x
 _atom_site_fract_y
 _atom_site_fract_z
 _atom_site_occupancy
  Hf  Hf0  1  0.68549400  0.68549400  0.31450600  1
  Hf  Hf1  1  0.31450600  0.68549400  0.31450600  1
  Hf  Hf2  1  0.68549400  0.31450600  0.31450600  1
  Hf  Hf3  1  0.31450600  0.31450600  0.68549400  1
  Hf  Hf4  1  0.68549400  0.31450600  0.68549400  1
  Hf  Hf5  1  0.31450600  0.68549400  0.68549400  1
  Ga  Ga6  1  0.87824000  0.87824000  0.36528000  1
  Ga  Ga7  1  0.87824000  0.36528000  0.87824000  1
  Ga  Ga8  1  0.36528000  0.87824000  0.87824000  1
  Ga  Ga9  1  0.87824000  0.87824000  0.87824000  1
  Ga  Ga10  1  0.12176000  0.12176000  0.63472000  1
  Ga  Ga11  1  0.12176000  0.63472000  0.12176000  1
  Ga  Ga12  1  0.63472000  0.12176000  0.12176000  1
  Ga  Ga13  1  0.12176000  0.12176000  0.12176000  1
  Ga  Ga14  1  0.65943000  0.65943000  0.02171000  1
  Ga  Ga15  1  0.65943000  0.02171000  0.65943000  1
  Ga  Ga16  1  0.02171000  0.65943000  0.65943000  1
  Ga  Ga17  1  0.65943000  0.65943000  0.65943000  1
  Ga  Ga18  1  0.34057000  0.34057000  0.97829000  1
  Ga  Ga19  1  0.34057000  0.97829000  0.34057000  1
  Ga  Ga20  1  0.97829000  0.34057000  0.34057000  1
  Ga  Ga21  1  0.34057000  0.34057000  0.34057000  1
  Pd  Pd22  1  0.00000000  0.00000000  0.00000000  1
  Pd  Pd23  1  0.00000000  0.00000000  0.50000000  1
  Pd  Pd24  1  0.50000000  0.00000000  0.50000000  1
  Pd  Pd25  1  0.00000000  0.50000000  0.50000000  1
  Pd  Pd26  1  0.50000000  0.50000000  0.00000000  1
  Pd  Pd27  1  0.00000000  0.50000000  0.00000000  1
  Pd  Pd28  1  0.50000000  0.00000000  0.00000000  1
