# generated using pymatgen
data_PWO5
_symmetry_space_group_name_H-M   'P 1'
_cell_length_a   5.43537300
_cell_length_b   6.66413200
_cell_length_c   11.46078900
_cell_angle_alpha   90.00000000
_cell_angle_beta   90.00000000
_cell_angle_gamma   90.00000000
_symmetry_Int_Tables_number   1
_chemical_formula_structural   PWO5
_chemical_formula_sum   'P4 W4 O20'
_cell_volume   415.13319359
_cell_formula_units_Z   4
loop_
 _symmetry_equiv_pos_site_id
 _symmetry_equiv_pos_as_xyz
  1  'x, y, z'
loop_
 _atom_site_type_symbol
 _atom_site_label
 _atom_site_symmetry_multiplicity
 _atom_site_fract_x
 _atom_site_fract_y
 _atom_site_fract_z
 _atom_site_occupancy
  P  P0  1  0.75000000  0.97223100  0.15581000  1
  P  P1  1  0.25000000  0.02776900  0.84419000  1
  P  P2  1  0.75000000  0.52776900  0.65581000  1
  P  P3  1  0.25000000  0.47223100  0.34419000  1
  W  W4  1  0.75000000  0.32804200  0.93829400  1
  W  W5  1  0.25000000  0.67195800  0.06170600  1
  W  W6  1  0.75000000  0.17195800  0.43829400  1
  W  W7  1  0.25000000  0.82804200  0.56170600  1
  O  O8  1  0.75000000  0.32906500  0.58857200  1
  O  O9  1  0.25000000  0.67093500  0.41142800  1
  O  O10  1  0.75000000  0.17093500  0.08857200  1
  O  O11  1  0.25000000  0.82906500  0.91142800  1
  O  O12  1  0.75000000  0.00870700  0.28773600  1
  O  O13  1  0.25000000  0.99129300  0.71226400  1
  O  O14  1  0.75000000  0.49129300  0.78773600  1
  O  O15  1  0.25000000  0.50870700  0.21226400  1
  O  O16  1  0.48278800  0.34911000  0.37346300  1
  O  O17  1  0.98278800  0.65089000  0.62653700  1
  O  O18  1  0.51721200  0.65089000  0.62653700  1
  O  O19  1  0.01721200  0.34911000  0.37346300  1
  O  O20  1  0.51721200  0.84911000  0.12653700  1
  O  O21  1  0.01721200  0.15089000  0.87346300  1
  O  O22  1  0.48278800  0.15089000  0.87346300  1
  O  O23  1  0.98278800  0.84911000  0.12653700  1
  O  O24  1  0.50000000  0.00000000  0.50000000  1
  O  O25  1  0.00000000  0.00000000  0.50000000  1
  O  O26  1  0.50000000  0.50000000  0.00000000  1
  O  O27  1  0.00000000  0.50000000  0.00000000  1
