# generated using pymatgen
data_PuB4ClO8
_symmetry_space_group_name_H-M   'P 1'
_cell_length_a   6.52901494
_cell_length_b   6.52901494
_cell_length_c   9.27921281
_cell_angle_alpha   82.42847382
_cell_angle_beta   82.42847382
_cell_angle_gamma   120.27250568
_symmetry_Int_Tables_number   1
_chemical_formula_structural   PuB4ClO8
_chemical_formula_sum   'Pu2 B8 Cl2 O16'
_cell_volume   329.43832926
_cell_formula_units_Z   2
loop_
 _symmetry_equiv_pos_site_id
 _symmetry_equiv_pos_as_xyz
  1  'x, y, z'
loop_
 _atom_site_type_symbol
 _atom_site_label
 _atom_site_symmetry_multiplicity
 _atom_site_fract_x
 _atom_site_fract_y
 _atom_site_fract_z
 _atom_site_occupancy
  Pu  Pu0  1  0.61465600  0.22497700  0.39866900  1
  Pu  Pu1  1  0.22497700  0.61465600  0.89866900  1
  B  B2  1  0.96648600  0.89532400  0.31253800  1
  B  B3  1  0.89532400  0.96648600  0.81253800  1
  B  B4  1  0.14537200  0.33947600  0.24547900  1
  B  B5  1  0.33947600  0.14537200  0.74547900  1
  B  B6  1  0.24564600  0.75454500  0.22678300  1
  B  B7  1  0.75454500  0.24564600  0.72678300  1
  B  B8  1  0.53286100  0.64025700  0.29318700  1
  B  B9  1  0.64025700  0.53286100  0.79318700  1
  Cl  Cl10  1  0.36833500  0.73658200  0.57368100  1
  Cl  Cl11  1  0.73658200  0.36833500  0.07368100  1
  O  O12  1  0.06422100  0.49643800  0.29059400  1
  O  O13  1  0.49643800  0.06422100  0.79059400  1
  O  O14  1  0.94679500  0.09268400  0.31337700  1
  O  O15  1  0.09268400  0.94679500  0.81337700  1
  O  O16  1  0.74660600  0.67096600  0.33284500  1
  O  O17  1  0.67096600  0.74660600  0.83284500  1
  O  O18  1  0.19756600  0.38307000  0.07896200  1
  O  O19  1  0.38307000  0.19756600  0.57896200  1
  O  O20  1  0.18593600  0.91330000  0.29228900  1
  O  O21  1  0.91330000  0.18593600  0.79228900  1
  O  O22  1  0.26057800  0.79179000  0.06381900  1
  O  O23  1  0.79179000  0.26057800  0.56381900  1
  O  O24  1  0.49192800  0.82034900  0.24918200  1
  O  O25  1  0.82034900  0.49192800  0.74918200  1
  O  O26  1  0.37337500  0.40031900  0.29538500  1
  O  O27  1  0.40031900  0.37337500  0.79538500  1
