# generated using pymatgen
data_LiGa(H2N)4
_symmetry_space_group_name_H-M   'P 1'
_cell_length_a   6.60052627
_cell_length_b   6.19117041
_cell_length_c   7.98482600
_cell_angle_alpha   90.00000000
_cell_angle_beta   90.00000000
_cell_angle_gamma   104.11066109
_symmetry_Int_Tables_number   1
_chemical_formula_structural   LiGa(H2N)4
_chemical_formula_sum   'Li2 Ga2 H16 N8'
_cell_volume   316.45422687
_cell_formula_units_Z   2
loop_
 _symmetry_equiv_pos_site_id
 _symmetry_equiv_pos_as_xyz
  1  'x, y, z'
loop_
 _atom_site_type_symbol
 _atom_site_label
 _atom_site_symmetry_multiplicity
 _atom_site_fract_x
 _atom_site_fract_y
 _atom_site_fract_z
 _atom_site_occupancy
  Li  Li0  1  0.40311800  0.64696600  0.04306700  1
  Li  Li1  1  0.59688200  0.35303400  0.54306700  1
  Ga  Ga2  1  0.36475300  0.15322100  0.82628200  1
  Ga  Ga3  1  0.63524700  0.84677900  0.32628200  1
  H  H4  1  0.13269100  0.77681300  0.86072500  1
  H  H5  1  0.86730900  0.22318700  0.36072500  1
  H  H6  1  0.32184800  0.76605400  0.73496700  1
  H  H7  1  0.67815200  0.23394600  0.23496700  1
  H  H8  1  0.73135800  0.37951900  0.86670900  1
  H  H9  1  0.26864200  0.62048100  0.36670900  1
  H  H10  1  0.73874200  0.12700500  0.80764000  1
  H  H11  1  0.26125800  0.87299500  0.30764000  1
  H  H12  1  0.11205400  0.29415200  0.99599600  1
  H  H13  1  0.88794600  0.70584800  0.49599600  1
  H  H14  1  0.27395600  0.21776100  0.12182000  1
  H  H15  1  0.72604400  0.78223900  0.62182000  1
  H  H16  1  0.18947800  0.38153700  0.64449900  1
  H  H17  1  0.81052200  0.61846300  0.14449900  1
  H  H18  1  0.15932200  0.14022500  0.55796100  1
  H  H19  1  0.84067800  0.85977500  0.05796100  1
  N  N20  1  0.29139100  0.83128000  0.84736200  1
  N  N21  1  0.70860900  0.16872000  0.34736200  1
  N  N22  1  0.66260900  0.25098700  0.78986800  1
  N  N23  1  0.33739100  0.74901300  0.28986800  1
  N  N24  1  0.26748400  0.30126400  0.01166400  1
  N  N25  1  0.73251600  0.69873600  0.51166400  1
  N  N26  1  0.26832900  0.26188500  0.61773900  1
  N  N27  1  0.73167100  0.73811500  0.11773900  1
