# generated using pymatgen
data_Sr2Ti(SiO4)2
_symmetry_space_group_name_H-M   'P 1'
_cell_length_a   8.48821800
_cell_length_b   8.48821800
_cell_length_c   5.10869900
_cell_angle_alpha   90.00000000
_cell_angle_beta   90.00000000
_cell_angle_gamma   90.00000000
_symmetry_Int_Tables_number   1
_chemical_formula_structural   Sr2Ti(SiO4)2
_chemical_formula_sum   'Sr4 Ti2 Si4 O16'
_cell_volume   368.08097016
_cell_formula_units_Z   2
loop_
 _symmetry_equiv_pos_site_id
 _symmetry_equiv_pos_as_xyz
  1  'x, y, z'
loop_
 _atom_site_type_symbol
 _atom_site_label
 _atom_site_symmetry_multiplicity
 _atom_site_fract_x
 _atom_site_fract_y
 _atom_site_fract_z
 _atom_site_occupancy
  Sr  Sr0  1  0.17335400  0.67335400  0.99788300  1
  Sr  Sr1  1  0.82664600  0.32664600  0.99788300  1
  Sr  Sr2  1  0.67335400  0.82664600  0.99788300  1
  Sr  Sr3  1  0.32664600  0.17335400  0.99788300  1
  Ti  Ti4  1  0.50000000  0.50000000  0.55436800  1
  Ti  Ti5  1  0.00000000  0.00000000  0.55436800  1
  Si  Si6  1  0.37055000  0.87055000  0.53062900  1
  Si  Si7  1  0.62945000  0.12945000  0.53062900  1
  Si  Si8  1  0.87055000  0.62945000  0.53062900  1
  Si  Si9  1  0.12945000  0.37055000  0.53062900  1
  O  O10  1  0.50000000  0.00000000  0.65651600  1
  O  O11  1  0.00000000  0.50000000  0.65651600  1
  O  O12  1  0.37183400  0.87183400  0.21650900  1
  O  O13  1  0.62816600  0.12816600  0.21650900  1
  O  O14  1  0.87183400  0.62816600  0.21650900  1
  O  O15  1  0.12816600  0.37183400  0.21650900  1
  O  O16  1  0.20526400  0.91943800  0.67372200  1
  O  O17  1  0.79473600  0.08056200  0.67372200  1
  O  O18  1  0.70526400  0.58056200  0.67372200  1
  O  O19  1  0.29473600  0.41943800  0.67372200  1
  O  O20  1  0.08056200  0.20526400  0.67372200  1
  O  O21  1  0.91943800  0.79473600  0.67372200  1
  O  O22  1  0.41943800  0.70526400  0.67372200  1
  O  O23  1  0.58056200  0.29473600  0.67372200  1
  O  O24  1  0.50000000  0.50000000  0.22018800  1
  O  O25  1  0.00000000  0.00000000  0.22018800  1
