# generated using pymatgen
data_Ba2CuP2O9
_symmetry_space_group_name_H-M   'P 1'
_cell_length_a   5.82243100
_cell_length_b   8.48997100
_cell_length_c   9.04736470
_cell_angle_alpha   67.79646642
_cell_angle_beta   90.00000000
_cell_angle_gamma   90.00000000
_symmetry_Int_Tables_number   1
_chemical_formula_structural   Ba2CuP2O9
_chemical_formula_sum   'Ba4 Cu2 P4 O18'
_cell_volume   414.06832499
_cell_formula_units_Z   2
loop_
 _symmetry_equiv_pos_site_id
 _symmetry_equiv_pos_as_xyz
  1  'x, y, z'
loop_
 _atom_site_type_symbol
 _atom_site_label
 _atom_site_symmetry_multiplicity
 _atom_site_fract_x
 _atom_site_fract_y
 _atom_site_fract_z
 _atom_site_occupancy
  Ba  Ba0  1  0.75000000  0.79093000  0.09358400  1
  Ba  Ba1  1  0.25000000  0.20907000  0.90641600  1
  Ba  Ba2  1  0.75000000  0.19674700  0.28199900  1
  Ba  Ba3  1  0.25000000  0.80325300  0.71800100  1
  Cu  Cu4  1  0.50000000  0.50000000  0.50000000  1
  Cu  Cu5  1  0.00000000  0.50000000  0.50000000  1
  P  P6  1  0.25000000  0.50793400  0.18724000  1
  P  P7  1  0.75000000  0.49206600  0.81276000  1
  P  P8  1  0.25000000  0.94209700  0.30265400  1
  P  P9  1  0.75000000  0.05790300  0.69734600  1
  O  O10  1  0.47516200  0.49436900  0.29058700  1
  O  O11  1  0.97516200  0.50563100  0.70941300  1
  O  O12  1  0.52483800  0.50563100  0.70941300  1
  O  O13  1  0.02483800  0.49436900  0.29058700  1
  O  O14  1  0.25000000  0.68131400  0.04851300  1
  O  O15  1  0.75000000  0.31868600  0.95148700  1
  O  O16  1  0.25000000  0.35863800  0.13153900  1
  O  O17  1  0.75000000  0.64136200  0.86846100  1
  O  O18  1  0.46628500  0.98094900  0.19485800  1
  O  O19  1  0.96628500  0.01905100  0.80514200  1
  O  O20  1  0.53371500  0.01905100  0.80514200  1
  O  O21  1  0.03371500  0.98094900  0.19485800  1
  O  O22  1  0.25000000  0.75806100  0.43193100  1
  O  O23  1  0.75000000  0.24193900  0.56806900  1
  O  O24  1  0.25000000  0.05648400  0.40332000  1
  O  O25  1  0.75000000  0.94351600  0.59668000  1
  O  O26  1  0.75000000  0.63258600  0.43512300  1
  O  O27  1  0.25000000  0.36741400  0.56487700  1
