# generated using pymatgen
data_Al2Te2Cl7
_symmetry_space_group_name_H-M   'P 1'
_cell_length_a   8.69914031
_cell_length_b   11.30733550
_cell_length_c   12.47548624
_cell_angle_alpha   93.14235990
_cell_angle_beta   93.64582585
_cell_angle_gamma   99.21009974
_symmetry_Int_Tables_number   1
_chemical_formula_structural   Al2Te2Cl7
_chemical_formula_sum   'Al4 Te4 Cl14'
_cell_volume   1206.23430423
_cell_formula_units_Z   2
loop_
 _symmetry_equiv_pos_site_id
 _symmetry_equiv_pos_as_xyz
  1  'x, y, z'
loop_
 _atom_site_type_symbol
 _atom_site_label
 _atom_site_symmetry_multiplicity
 _atom_site_fract_x
 _atom_site_fract_y
 _atom_site_fract_z
 _atom_site_occupancy
  Al  Al0  1  0.61489600  0.83502000  0.70053600  1
  Al  Al1  1  0.38510400  0.16498000  0.29946400  1
  Al  Al2  1  0.80585700  0.41189300  0.84539500  1
  Al  Al3  1  0.19414300  0.58810700  0.15460500  1
  Te  Te4  1  0.93044900  0.89689500  0.96014500  1
  Te  Te5  1  0.06955100  0.10310500  0.03985500  1
  Te  Te6  1  0.86086300  0.45337700  0.46991400  1
  Te  Te7  1  0.13913700  0.54662300  0.53008600  1
  Cl  Cl8  1  0.60795100  0.82770400  0.88087500  1
  Cl  Cl9  1  0.39204900  0.17229600  0.11912500  1
  Cl  Cl10  1  0.85789100  0.88218100  0.67161300  1
  Cl  Cl11  1  0.14210900  0.11781900  0.32838700  1
  Cl  Cl12  1  0.52871000  0.65461700  0.63509000  1
  Cl  Cl13  1  0.47129000  0.34538300  0.36491000  1
  Cl  Cl14  1  0.47167400  0.96054400  0.65233900  1
  Cl  Cl15  1  0.52832600  0.03945600  0.34766100  1
  Cl  Cl16  1  0.79359500  0.37143300  0.00624800  1
  Cl  Cl17  1  0.20640500  0.62856700  0.99375200  1
  Cl  Cl18  1  0.76033900  0.27400900  0.72540100  1
  Cl  Cl19  1  0.23966100  0.72599100  0.27459900  1
  Cl  Cl20  1  0.86309400  0.58792700  0.80414700  1
  Cl  Cl21  1  0.13690600  0.41207300  0.19585300  1
