# generated using pymatgen
data_Ce4B14O27
_symmetry_space_group_name_H-M   'P 1'
_cell_length_a   6.47971480
_cell_length_b   6.49306476
_cell_length_c   25.34102501
_cell_angle_alpha   84.31081711
_cell_angle_beta   82.65461359
_cell_angle_gamma   60.06798975
_symmetry_Int_Tables_number   1
_chemical_formula_structural   Ce4B14O27
_chemical_formula_sum   'Ce8 B28 O54'
_cell_volume   915.61191935
_cell_formula_units_Z   2
loop_
 _symmetry_equiv_pos_site_id
 _symmetry_equiv_pos_as_xyz
  1  'x, y, z'
loop_
 _atom_site_type_symbol
 _atom_site_label
 _atom_site_symmetry_multiplicity
 _atom_site_fract_x
 _atom_site_fract_y
 _atom_site_fract_z
 _atom_site_occupancy
  Ce  Ce0  1  0.26213799  0.34655851  0.31556215  1
  Ce  Ce1  1  0.92425865  0.15344149  0.18443785  1
  Ce  Ce2  1  0.73786201  0.65344149  0.68443785  1
  Ce  Ce3  1  0.07574135  0.84655851  0.81556215  1
  Ce  Ce4  1  0.34992331  0.74310554  0.05625838  1
  Ce  Ce5  1  0.14928724  0.75689446  0.44374162  1
  Ce  Ce6  1  0.65007669  0.25689446  0.94374162  1
  Ce  Ce7  1  0.85071276  0.24310554  0.55625838  1
  B  B8  1  0.35997715  0.61145297  0.20530883  1
  B  B9  1  0.17673896  0.88854703  0.29469117  1
  B  B10  1  0.64002285  0.38854703  0.79469117  1
  B  B11  1  0.82326104  0.11145297  0.70530883  1
  B  B12  1  0.35984149  0.26086365  0.17488087  1
  B  B13  1  0.79558602  0.23913635  0.32511913  1
  B  B14  1  0.64015851  0.73913635  0.82511913  1
  B  B15  1  0.20441398  0.76086365  0.67488087  1
  B  B16  1  0.83498713  0.84743065  0.35098041  1
  B  B17  1  0.03339820  0.65256935  0.14901959  1
  B  B18  1  0.16501287  0.15256935  0.64901959  1
  B  B19  1  0.96660180  0.34743065  0.85098041  1
  B  B20  1  0.63294936  0.76644395  0.44545955  1
  B  B21  1  0.84485286  0.73355605  0.05454045  1
  B  B22  1  0.36705064  0.23355605  0.55454045  1
  B  B23  1  0.15514714  0.26644395  0.94545955  1
  B  B24  1  0.54848550  0.16409153  0.07743633  1
  B  B25  1  0.79001336  0.33590847  0.42256367  1
  B  B26  1  0.45151450  0.83590847  0.92256367  1
  B  B27  1  0.20998664  0.66409153  0.57743633  1
  B  B28  1  0.31064222  0.21176824  0.45310254  1
  B  B29  1  0.97551300  0.28823176  0.04689746  1
  B  B30  1  0.68935778  0.78823176  0.54689746  1
  B  B31  1  0.02448700  0.71176824  0.95310254  1
  B  B32  1  0.60397595  0.67977123  0.31352424  1
  B  B33  1  0.59727143  0.82022877  0.18647576  1
  B  B34  1  0.39602405  0.32022877  0.68647576  1
  B  B35  1  0.40272857  0.17977123  0.81352424  1
  O  O36  1  0.20387569  0.75000000  0.25000000  1
  O  O37  1  0.79612431  0.25000000  0.75000000  1
  O  O38  1  0.21870755  0.71681884  0.15786634  1
  O  O39  1  0.09339273  0.78318116  0.34213366  1
  O  O40  1  0.78129245  0.28318116  0.84213366  1
  O  O41  1  0.90660727  0.21681884  0.65786634  1
  O  O42  1  0.59391592  0.60846527  0.19279555  1
  O  O43  1  0.39517674  0.89153473  0.30720445  1
  O  O44  1  0.40608408  0.39153473  0.80720445  1
  O  O45  1  0.60482326  0.10846527  0.69279555  1
  O  O46  1  0.43046763  0.35402325  0.21666654  1
  O  O47  1  0.00115743  0.14597675  0.28333346  1
  O  O48  1  0.56953237  0.64597675  0.78333346  1
  O  O49  1  0.99884257  0.85402325  0.71666654  1
  O  O50  1  0.68354999  0.08836329  0.33094807  1
  O  O51  1  0.10286135  0.41163671  0.16905193  1
  O  O52  1  0.31645001  0.91163671  0.66905193  1
  O  O53  1  0.89713865  0.58836329  0.83094807  1
  O  O54  1  0.60081417  0.47218956  0.30937665  1
  O  O55  1  0.38238038  0.02781044  0.19062335  1
  O  O56  1  0.39918583  0.52781044  0.69062335  1
  O  O57  1  0.61761962  0.97218956  0.80937665  1
  O  O58  1  0.51184352  0.25969837  0.12641476  1
  O  O59  1  0.89795665  0.24030163  0.37358524  1
  O  O60  1  0.48815648  0.74030163  0.87358524  1
  O  O61  1  0.10204335  0.75969837  0.62641476  1
  O  O62  1  0.81301345  0.67196639  0.32205833  1
  O  O63  1  0.80703817  0.82803361  0.17794167  1
  O  O64  1  0.18698655  0.32803361  0.67794167  1
  O  O65  1  0.19296183  0.17196639  0.82205833  1
  O  O66  1  0.79676730  0.81649722  0.40925729  1
  O  O67  1  0.02252181  0.68350278  0.09074271  1
  O  O68  1  0.20323270  0.18350278  0.59074271  1
  O  O69  1  0.97747819  0.31649722  0.90925729  1
  O  O70  1  0.60093397  0.57268351  0.42644061  1
  O  O71  1  0.60005808  0.92731649  0.07355939  1
  O  O72  1  0.39906603  0.42731649  0.57355939  1
  O  O73  1  0.39994192  0.07268351  0.92644061  1
  O  O74  1  0.38888287  0.96951913  0.44969712  1
  O  O75  1  0.80809912  0.53048087  0.05030288  1
  O  O76  1  0.61111713  0.03048087  0.55030288  1
  O  O77  1  0.19190088  0.46951913  0.94969712  1
  O  O78  1  0.73750164  0.68474804  0.49786619  1
  O  O79  1  0.92011586  0.81525196  0.00213381  1
  O  O80  1  0.26249836  0.31525196  0.50213381  1
  O  O81  1  0.07988414  0.18474804  0.99786619  1
  O  O82  1  0.26546695  0.36187902  0.40942390  1
  O  O83  1  0.03676987  0.13812098  0.09057610  1
  O  O84  1  0.73453305  0.63812098  0.59057610  1
  O  O85  1  0.96323013  0.86187902  0.90942390  1
  O  O86  1  0.53627193  0.30729567  0.03403726  1
  O  O87  1  0.87760486  0.19270433  0.46596274  1
  O  O88  1  0.46372807  0.69270433  0.96596274  1
  O  O89  1  0.12239514  0.80729567  0.53403726  1
