# generated using pymatgen
data_AgH2CS2N
_symmetry_space_group_name_H-M   'P 1'
_cell_length_a   8.06013900
_cell_length_b   8.06013900
_cell_length_c   8.49656848
_cell_angle_alpha   118.31490559
_cell_angle_beta   118.31490559
_cell_angle_gamma   90.00000000
_symmetry_Int_Tables_number   1
_chemical_formula_structural   AgH2CS2N
_chemical_formula_sum   'Ag4 H8 C4 S8 N4'
_cell_volume   409.38153054
_cell_formula_units_Z   4
loop_
 _symmetry_equiv_pos_site_id
 _symmetry_equiv_pos_as_xyz
  1  'x, y, z'
loop_
 _atom_site_type_symbol
 _atom_site_label
 _atom_site_symmetry_multiplicity
 _atom_site_fract_x
 _atom_site_fract_y
 _atom_site_fract_z
 _atom_site_occupancy
  Ag  Ag0  1  0.09601200  0.59601200  0.19202500  1
  Ag  Ag1  1  0.65398800  0.65398800  0.30797500  1
  Ag  Ag2  1  0.40398800  0.90398800  0.80797500  1
  Ag  Ag3  1  0.34601200  0.34601200  0.69202500  1
  H  H4  1  0.00817300  0.57490200  0.82946800  1
  H  H5  1  0.74182700  0.99543400  0.67053200  1
  H  H6  1  0.82129500  0.25456600  0.82946800  1
  H  H7  1  0.92870500  0.67509800  0.67053200  1
  H  H8  1  0.74543400  0.99182700  0.17053200  1
  H  H9  1  0.00456600  0.07129500  0.32946800  1
  H  H10  1  0.42509800  0.17870500  0.17053200  1
  H  H11  1  0.32490200  0.25817300  0.32946800  1
  C  C12  1  0.73841500  0.62500000  0.75000000  1
  C  C13  1  0.01158500  0.12500000  0.75000000  1
  C  C14  1  0.87500000  0.26158500  0.25000000  1
  C  C15  1  0.37500000  0.98841500  0.25000000  1
  S  S16  1  0.71179500  0.55254200  0.90042900  1
  S  S17  1  0.03820500  0.90211300  0.59957100  1
  S  S18  1  0.18863300  0.34788700  0.90042900  1
  S  S19  1  0.56136700  0.69745800  0.59957100  1
  S  S20  1  0.65211300  0.28820500  0.09957100  1
  S  S21  1  0.09788700  0.43863300  0.40042900  1
  S  S22  1  0.44745800  0.81136700  0.09957100  1
  S  S23  1  0.30254200  0.96179500  0.40042900  1
  N  N24  1  0.90333000  0.62500000  0.75000000  1
  N  N25  1  0.84667000  0.12500000  0.75000000  1
  N  N26  1  0.87500000  0.09667000  0.25000000  1
  N  N27  1  0.37500000  0.15333000  0.25000000  1
