# generated using pymatgen
data_W(C3N2)2
_symmetry_space_group_name_H-M   'P 1'
_cell_length_a   3.95295527
_cell_length_b   8.30294270
_cell_length_c   13.45776900
_cell_angle_alpha   90.00000000
_cell_angle_beta   90.00000000
_cell_angle_gamma   102.48811220
_symmetry_Int_Tables_number   1
_chemical_formula_structural   W(C3N2)2
_chemical_formula_sum   'W2 C12 N8'
_cell_volume   431.24938686
_cell_formula_units_Z   2
loop_
 _symmetry_equiv_pos_site_id
 _symmetry_equiv_pos_as_xyz
  1  'x, y, z'
loop_
 _atom_site_type_symbol
 _atom_site_label
 _atom_site_symmetry_multiplicity
 _atom_site_fract_x
 _atom_site_fract_y
 _atom_site_fract_z
 _atom_site_occupancy
  W  W0  1  0.94913300  0.95956300  0.75000000  1
  W  W1  1  0.05086700  0.04043700  0.25000000  1
  C  C2  1  0.38173800  0.74869300  0.49211600  1
  C  C3  1  0.61826200  0.25130700  0.99211600  1
  C  C4  1  0.61826200  0.25130700  0.50788400  1
  C  C5  1  0.38173800  0.74869300  0.00788400  1
  C  C6  1  0.53383600  0.47377800  0.75000000  1
  C  C7  1  0.46616400  0.52622200  0.25000000  1
  C  C8  1  0.05147000  0.85618900  0.62504700  1
  C  C9  1  0.94853000  0.14381100  0.12504700  1
  C  C10  1  0.94853000  0.14381100  0.37495300  1
  C  C11  1  0.05147000  0.85618900  0.87495300  1
  C  C12  1  0.14395800  0.19504300  0.75000000  1
  C  C13  1  0.85604200  0.80495700  0.25000000  1
  N  N14  1  0.21822800  0.80057600  0.55668900  1
  N  N15  1  0.78177200  0.19942400  0.05668900  1
  N  N16  1  0.78177200  0.19942400  0.44331100  1
  N  N17  1  0.21822800  0.80057600  0.94331100  1
  N  N18  1  0.34218300  0.33811600  0.75000000  1
  N  N19  1  0.65781700  0.66188400  0.25000000  1
  N  N20  1  0.47400500  0.95557600  0.75000000  1
  N  N21  1  0.52599500  0.04442400  0.25000000  1
