# generated using pymatgen
data_Fe23C6
_symmetry_space_group_name_H-M   'P 1'
_cell_length_a   7.38610085
_cell_length_b   7.38610085
_cell_length_c   7.38610085
_cell_angle_alpha   60.00000000
_cell_angle_beta   60.00000000
_cell_angle_gamma   60.00000000
_symmetry_Int_Tables_number   1
_chemical_formula_structural   Fe23C6
_chemical_formula_sum   'Fe23 C6'
_cell_volume   284.92509546
_cell_formula_units_Z   1
loop_
 _symmetry_equiv_pos_site_id
 _symmetry_equiv_pos_as_xyz
  1  'x, y, z'
loop_
 _atom_site_type_symbol
 _atom_site_label
 _atom_site_symmetry_multiplicity
 _atom_site_fract_x
 _atom_site_fract_y
 _atom_site_fract_z
 _atom_site_occupancy
  Fe  Fe0  1  0.00000000  0.00000000  0.00000000  1
  Fe  Fe1  1  0.75000000  0.75000000  0.75000000  1
  Fe  Fe2  1  0.25000000  0.25000000  0.25000000  1
  Fe  Fe3  1  0.61631700  0.61631700  0.15104800  1
  Fe  Fe4  1  0.61631700  0.15104800  0.61631700  1
  Fe  Fe5  1  0.15104800  0.61631700  0.61631700  1
  Fe  Fe6  1  0.61631700  0.61631700  0.61631700  1
  Fe  Fe7  1  0.38368300  0.38368300  0.84895200  1
  Fe  Fe8  1  0.38368300  0.84895200  0.38368300  1
  Fe  Fe9  1  0.84895200  0.38368300  0.38368300  1
  Fe  Fe10  1  0.38368300  0.38368300  0.38368300  1
  Fe  Fe11  1  0.00000000  0.00000000  0.33839900  1
  Fe  Fe12  1  0.66160100  0.00000000  0.33839900  1
  Fe  Fe13  1  0.00000000  0.66160100  0.33839900  1
  Fe  Fe14  1  0.66160100  0.33839900  0.00000000  1
  Fe  Fe15  1  0.00000000  0.33839900  0.00000000  1
  Fe  Fe16  1  0.00000000  0.33839900  0.66160100  1
  Fe  Fe17  1  0.33839900  0.66160100  0.00000000  1
  Fe  Fe18  1  0.33839900  0.00000000  0.66160100  1
  Fe  Fe19  1  0.33839900  0.00000000  0.00000000  1
  Fe  Fe20  1  0.00000000  0.00000000  0.66160100  1
  Fe  Fe21  1  0.00000000  0.66160100  0.00000000  1
  Fe  Fe22  1  0.66160100  0.00000000  0.00000000  1
  C  C23  1  0.27741000  0.27741000  0.72259000  1
  C  C24  1  0.72259000  0.27741000  0.72259000  1
  C  C25  1  0.27741000  0.72259000  0.72259000  1
  C  C26  1  0.72259000  0.72259000  0.27741000  1
  C  C27  1  0.27741000  0.72259000  0.27741000  1
  C  C28  1  0.72259000  0.27741000  0.27741000  1
