# generated using pymatgen
data_CuH2CS2N
_symmetry_space_group_name_H-M   'P 1'
_cell_length_a   5.96138500
_cell_length_b   6.81324500
_cell_length_c   9.61126800
_cell_angle_alpha   90.00000000
_cell_angle_beta   90.00000000
_cell_angle_gamma   90.00000000
_symmetry_Int_Tables_number   1
_chemical_formula_structural   CuH2CS2N
_chemical_formula_sum   'Cu4 H8 C4 S8 N4'
_cell_volume   390.37488016
_cell_formula_units_Z   4
loop_
 _symmetry_equiv_pos_site_id
 _symmetry_equiv_pos_as_xyz
  1  'x, y, z'
loop_
 _atom_site_type_symbol
 _atom_site_label
 _atom_site_symmetry_multiplicity
 _atom_site_fract_x
 _atom_site_fract_y
 _atom_site_fract_z
 _atom_site_occupancy
  Cu  Cu0  1  0.09368000  0.74005900  0.63009400  1
  Cu  Cu1  1  0.40632000  0.25994100  0.13009400  1
  Cu  Cu2  1  0.59368000  0.75994100  0.36990600  1
  Cu  Cu3  1  0.90632000  0.24005900  0.86990600  1
  H  H4  1  0.34250700  0.87055800  0.83970300  1
  H  H5  1  0.15749300  0.12944200  0.33970300  1
  H  H6  1  0.84250700  0.62944200  0.16029700  1
  H  H7  1  0.65749300  0.37055800  0.66029700  1
  H  H8  1  0.59910500  0.94574300  0.91111600  1
  H  H9  1  0.90089500  0.05425700  0.41111600  1
  H  H10  1  0.09910500  0.55425700  0.08888400  1
  H  H11  1  0.40089500  0.44574300  0.58888400  1
  C  C12  1  0.58656300  0.93826100  0.69751200  1
  C  C13  1  0.91343700  0.06173900  0.19751200  1
  C  C14  1  0.08656300  0.56173900  0.30248800  1
  C  C15  1  0.41343700  0.43826100  0.80248800  1
  S  S16  1  0.41377900  0.89183200  0.55769100  1
  S  S17  1  0.08622100  0.10816800  0.05769100  1
  S  S18  1  0.91377900  0.60816800  0.44230900  1
  S  S19  1  0.58622100  0.39183200  0.94230900  1
  S  S20  1  0.13947100  0.52239900  0.82128900  1
  S  S21  1  0.36052900  0.47760100  0.32128900  1
  S  S22  1  0.63947100  0.97760100  0.17871100  1
  S  S23  1  0.86052900  0.02239900  0.67871100  1
  N  N24  1  0.50343300  0.91846800  0.82512700  1
  N  N25  1  0.99656700  0.08153200  0.32512700  1
  N  N26  1  0.00343300  0.58153200  0.17487300  1
  N  N27  1  0.49656700  0.41846800  0.67487300  1
