# generated using pymatgen
data_Mo3NO9
_symmetry_space_group_name_H-M   'P 1'
_cell_length_a   8.68450287
_cell_length_b   8.68450287
_cell_length_c   6.45317575
_cell_angle_alpha   86.38674126
_cell_angle_beta   86.38674126
_cell_angle_gamma   53.05861222
_symmetry_Int_Tables_number   1
_chemical_formula_structural   Mo3NO9
_chemical_formula_sum   'Mo6 N2 O18'
_cell_volume   388.03097721
_cell_formula_units_Z   2
loop_
 _symmetry_equiv_pos_site_id
 _symmetry_equiv_pos_as_xyz
  1  'x, y, z'
loop_
 _atom_site_type_symbol
 _atom_site_label
 _atom_site_symmetry_multiplicity
 _atom_site_fract_x
 _atom_site_fract_y
 _atom_site_fract_z
 _atom_site_occupancy
  Mo  Mo0  1  0.87685200  0.87685200  0.64500200  1
  Mo  Mo1  1  0.12314800  0.12314800  0.35499800  1
  Mo  Mo2  1  0.19755700  0.68046300  0.27029600  1
  Mo  Mo3  1  0.68046300  0.19755700  0.27029600  1
  Mo  Mo4  1  0.80244300  0.31953700  0.72970400  1
  Mo  Mo5  1  0.31953700  0.80244300  0.72970400  1
  N  N6  1  0.68378700  0.68378700  0.17240100  1
  N  N7  1  0.31621300  0.31621300  0.82759900  1
  O  O8  1  0.25093500  0.74906500  0.00000000  1
  O  O9  1  0.74906500  0.25093500  0.00000000  1
  O  O10  1  0.15485900  0.68450200  0.57842600  1
  O  O11  1  0.68450200  0.15485900  0.57842600  1
  O  O12  1  0.84514100  0.31549800  0.42157400  1
  O  O13  1  0.31549800  0.84514100  0.42157400  1
  O  O14  1  0.09398400  0.57521400  0.21285200  1
  O  O15  1  0.57521400  0.09398400  0.21285200  1
  O  O16  1  0.90601600  0.42478600  0.78714800  1
  O  O17  1  0.42478600  0.90601600  0.78714800  1
  O  O18  1  0.96142800  0.96142800  0.29702700  1
  O  O19  1  0.03857200  0.03857200  0.70297300  1
  O  O20  1  0.77985100  0.77985100  0.53449700  1
  O  O21  1  0.22014900  0.22014900  0.46550300  1
  O  O22  1  0.85360100  0.85360100  0.90868400  1
  O  O23  1  0.14639900  0.14639900  0.09131600  1
  O  O24  1  0.46045000  0.46045000  0.29820300  1
  O  O25  1  0.53955000  0.53955000  0.70179700  1
