# generated using pymatgen
data_BaCl2O11
_symmetry_space_group_name_H-M   'P 1'
_cell_length_a   6.83516652
_cell_length_b   6.83516652
_cell_length_c   11.45684600
_cell_angle_alpha   90.00000000
_cell_angle_beta   90.00000000
_cell_angle_gamma   120.00000507
_symmetry_Int_Tables_number   1
_chemical_formula_structural   BaCl2O11
_chemical_formula_sum   'Ba2 Cl4 O22'
_cell_volume   463.54711694
_cell_formula_units_Z   2
loop_
 _symmetry_equiv_pos_site_id
 _symmetry_equiv_pos_as_xyz
  1  'x, y, z'
loop_
 _atom_site_type_symbol
 _atom_site_label
 _atom_site_symmetry_multiplicity
 _atom_site_fract_x
 _atom_site_fract_y
 _atom_site_fract_z
 _atom_site_occupancy
  Ba  Ba0  1  0.00000000  0.00000000  0.50000000  1
  Ba  Ba1  1  0.00000000  0.00000000  0.00000000  1
  Cl  Cl2  1  0.66666700  0.33333300  0.53859000  1
  Cl  Cl3  1  0.33333300  0.66666700  0.03859000  1
  Cl  Cl4  1  0.33333300  0.66666700  0.46141000  1
  Cl  Cl5  1  0.66666700  0.33333300  0.96141000  1
  O  O6  1  0.66666700  0.33333300  0.41250300  1
  O  O7  1  0.33333300  0.66666700  0.91250300  1
  O  O8  1  0.33333300  0.66666700  0.58749700  1
  O  O9  1  0.66666700  0.33333300  0.08749700  1
  O  O10  1  0.73764100  0.56054300  0.58341400  1
  O  O11  1  0.43945700  0.17709700  0.58341400  1
  O  O12  1  0.82290300  0.26235900  0.58341400  1
  O  O13  1  0.26235900  0.43945700  0.08341400  1
  O  O14  1  0.56054300  0.82290300  0.08341400  1
  O  O15  1  0.17709700  0.73764100  0.08341400  1
  O  O16  1  0.26235900  0.43945700  0.41658600  1
  O  O17  1  0.56054300  0.82290300  0.41658600  1
  O  O18  1  0.17709700  0.73764100  0.41658600  1
  O  O19  1  0.73764100  0.56054300  0.91658600  1
  O  O20  1  0.43945700  0.17709700  0.91658600  1
  O  O21  1  0.82290300  0.26235900  0.91658600  1
  O  O22  1  0.04924300  0.90831100  0.75000000  1
  O  O23  1  0.09168900  0.14093300  0.75000000  1
  O  O24  1  0.85906700  0.95075700  0.75000000  1
  O  O25  1  0.95075700  0.09168900  0.25000000  1
  O  O26  1  0.90831100  0.85906700  0.25000000  1
  O  O27  1  0.14093300  0.04924300  0.25000000  1
