# generated using pymatgen
data_KNaTe(HO)6
_symmetry_space_group_name_H-M   'P 1'
_cell_length_a   6.69361780
_cell_length_b   6.69361780
_cell_length_c   9.00686600
_cell_angle_alpha   90.00000000
_cell_angle_beta   90.00000000
_cell_angle_gamma   119.99999802
_symmetry_Int_Tables_number   1
_chemical_formula_structural   KNaTe(HO)6
_chemical_formula_sum   'K2 Na2 Te2 H12 O12'
_cell_volume   349.48308735
_cell_formula_units_Z   2
loop_
 _symmetry_equiv_pos_site_id
 _symmetry_equiv_pos_as_xyz
  1  'x, y, z'
loop_
 _atom_site_type_symbol
 _atom_site_label
 _atom_site_symmetry_multiplicity
 _atom_site_fract_x
 _atom_site_fract_y
 _atom_site_fract_z
 _atom_site_occupancy
  K  K0  1  0.66666700  0.33333300  0.28915500  1
  K  K1  1  0.33333300  0.66666700  0.78915500  1
  Na  Na2  1  0.33333300  0.66666700  0.21739200  1
  Na  Na3  1  0.66666700  0.33333300  0.71739200  1
  Te  Te4  1  0.00000000  0.00000000  0.26973900  1
  Te  Te5  1  0.00000000  0.00000000  0.76973900  1
  H  H6  1  0.38074900  0.06008400  0.98630800  1
  H  H7  1  0.67933500  0.61925100  0.98630800  1
  H  H8  1  0.93991600  0.32066500  0.98630800  1
  H  H9  1  0.32066500  0.93991600  0.48630800  1
  H  H10  1  0.06008400  0.38074900  0.48630800  1
  H  H11  1  0.61925100  0.67933500  0.48630800  1
  H  H12  1  0.59712200  0.02793500  0.99622300  1
  H  H13  1  0.43081300  0.40287800  0.99622300  1
  H  H14  1  0.97206500  0.56918700  0.99622300  1
  H  H15  1  0.56918700  0.97206500  0.49622300  1
  H  H16  1  0.02793500  0.59712200  0.49622300  1
  H  H17  1  0.40287800  0.43081300  0.49622300  1
  O  O18  1  0.10105700  0.81249000  0.36292000  1
  O  O19  1  0.71143300  0.89894300  0.36292000  1
  O  O20  1  0.18751000  0.28856700  0.36292000  1
  O  O21  1  0.28856700  0.18751000  0.86292000  1
  O  O22  1  0.81249000  0.10105700  0.86292000  1
  O  O23  1  0.89894300  0.71143300  0.86292000  1
  O  O24  1  0.00437800  0.46080800  0.05234900  1
  O  O25  1  0.45642900  0.99562200  0.05234900  1
  O  O26  1  0.53919200  0.54357100  0.05234900  1
  O  O27  1  0.54357100  0.53919200  0.55234900  1
  O  O28  1  0.46080800  0.00437800  0.55234900  1
  O  O29  1  0.99562200  0.45642900  0.55234900  1
