# generated using pymatgen
data_Sr(YbSe2)2
_symmetry_space_group_name_H-M   'P 1'
_cell_length_a   4.68606400
_cell_length_b   11.06995600
_cell_length_c   15.09279300
_cell_angle_alpha   90.00000000
_cell_angle_beta   90.00000000
_cell_angle_gamma   90.00000000
_symmetry_Int_Tables_number   1
_chemical_formula_structural   Sr(YbSe2)2
_chemical_formula_sum   'Sr4 Yb8 Se16'
_cell_volume   782.93142694
_cell_formula_units_Z   4
loop_
 _symmetry_equiv_pos_site_id
 _symmetry_equiv_pos_as_xyz
  1  'x, y, z'
loop_
 _atom_site_type_symbol
 _atom_site_label
 _atom_site_symmetry_multiplicity
 _atom_site_fract_x
 _atom_site_fract_y
 _atom_site_fract_z
 _atom_site_occupancy
  Sr  Sr0  1  0.75000000  0.72357500  0.18138000  1
  Sr  Sr1  1  0.75000000  0.22357500  0.31862000  1
  Sr  Sr2  1  0.25000000  0.27642500  0.81862000  1
  Sr  Sr3  1  0.25000000  0.77642500  0.68138000  1
  Yb  Yb4  1  0.75000000  0.05989000  0.10366900  1
  Yb  Yb5  1  0.75000000  0.55989000  0.39633100  1
  Yb  Yb6  1  0.25000000  0.94011000  0.89633100  1
  Yb  Yb7  1  0.25000000  0.44011000  0.60366900  1
  Yb  Yb8  1  0.75000000  0.09682300  0.60338300  1
  Yb  Yb9  1  0.75000000  0.59682300  0.89661700  1
  Yb  Yb10  1  0.25000000  0.90317700  0.39661700  1
  Yb  Yb11  1  0.25000000  0.40317700  0.10338300  1
  Se  Se12  1  0.75000000  0.33501400  0.67152500  1
  Se  Se13  1  0.75000000  0.83501400  0.82847500  1
  Se  Se14  1  0.25000000  0.66498600  0.32847500  1
  Se  Se15  1  0.25000000  0.16498600  0.17152500  1
  Se  Se16  1  0.75000000  0.32618000  0.97302100  1
  Se  Se17  1  0.75000000  0.82618000  0.52697900  1
  Se  Se18  1  0.25000000  0.67382000  0.02697900  1
  Se  Se19  1  0.25000000  0.17382000  0.47302100  1
  Se  Se20  1  0.75000000  0.45442400  0.20568100  1
  Se  Se21  1  0.75000000  0.95442400  0.29431900  1
  Se  Se22  1  0.25000000  0.54557600  0.79431900  1
  Se  Se23  1  0.25000000  0.04557600  0.70568100  1
  Se  Se24  1  0.75000000  0.11094500  0.90857000  1
  Se  Se25  1  0.75000000  0.61094500  0.59143000  1
  Se  Se26  1  0.25000000  0.88905500  0.09143000  1
  Se  Se27  1  0.25000000  0.38905500  0.40857000  1
