# generated using pymatgen
data_Rb2SnO12
_symmetry_space_group_name_H-M   'P 1'
_cell_length_a   7.97770235
_cell_length_b   7.97770235
_cell_length_c   10.60015700
_cell_angle_alpha   90.00000000
_cell_angle_beta   90.00000000
_cell_angle_gamma   120.00000290
_symmetry_Int_Tables_number   1
_chemical_formula_structural   Rb2SnO12
_chemical_formula_sum   'Rb4 Sn2 O24'
_cell_volume   584.24980212
_cell_formula_units_Z   2
loop_
 _symmetry_equiv_pos_site_id
 _symmetry_equiv_pos_as_xyz
  1  'x, y, z'
loop_
 _atom_site_type_symbol
 _atom_site_label
 _atom_site_symmetry_multiplicity
 _atom_site_fract_x
 _atom_site_fract_y
 _atom_site_fract_z
 _atom_site_occupancy
  Rb  Rb0  1  0.33333300  0.66666700  0.96982500  1
  Rb  Rb1  1  0.33333300  0.66666700  0.46982500  1
  Rb  Rb2  1  0.66666700  0.33333300  0.03017500  1
  Rb  Rb3  1  0.66666700  0.33333300  0.53017500  1
  Sn  Sn4  1  0.00000000  0.00000000  0.00000000  1
  Sn  Sn5  1  0.00000000  0.00000000  0.50000000  1
  O  O6  1  0.86366700  0.13333100  0.88647700  1
  O  O7  1  0.26966400  0.13633300  0.88647700  1
  O  O8  1  0.86666900  0.73033600  0.88647700  1
  O  O9  1  0.86366700  0.73033600  0.38647700  1
  O  O10  1  0.86666900  0.13633300  0.38647700  1
  O  O11  1  0.26966400  0.13333100  0.38647700  1
  O  O12  1  0.13633300  0.86666900  0.11352300  1
  O  O13  1  0.73033600  0.86366700  0.11352300  1
  O  O14  1  0.13333100  0.26966400  0.11352300  1
  O  O15  1  0.13633300  0.26966400  0.61352300  1
  O  O16  1  0.13333100  0.86366700  0.61352300  1
  O  O17  1  0.73033600  0.86666900  0.61352300  1
  O  O18  1  0.97521300  0.32455700  0.87598000  1
  O  O19  1  0.34934500  0.02478700  0.87598000  1
  O  O20  1  0.67544300  0.65065500  0.87598000  1
  O  O21  1  0.97521300  0.65065500  0.37598000  1
  O  O22  1  0.67544300  0.02478700  0.37598000  1
  O  O23  1  0.34934500  0.32455700  0.37598000  1
  O  O24  1  0.02478700  0.67544300  0.12402000  1
  O  O25  1  0.65065500  0.97521300  0.12402000  1
  O  O26  1  0.32455700  0.34934500  0.12402000  1
  O  O27  1  0.02478700  0.34934500  0.62402000  1
  O  O28  1  0.32455700  0.97521300  0.62402000  1
  O  O29  1  0.65065500  0.67544300  0.62402000  1
