# generated using pymatgen
data_KHC(NO)2
_symmetry_space_group_name_H-M   'P 1'
_cell_length_a   8.19483480
_cell_length_b   8.19483480
_cell_length_c   8.19483480
_cell_angle_alpha   109.70258447
_cell_angle_beta   109.70258447
_cell_angle_gamma   109.00947734
_symmetry_Int_Tables_number   1
_chemical_formula_structural   KHC(NO)2
_chemical_formula_sum   'K4 H4 C4 N8 O8'
_cell_volume   423.62109986
_cell_formula_units_Z   4
loop_
 _symmetry_equiv_pos_site_id
 _symmetry_equiv_pos_as_xyz
  1  'x, y, z'
loop_
 _atom_site_type_symbol
 _atom_site_label
 _atom_site_symmetry_multiplicity
 _atom_site_fract_x
 _atom_site_fract_y
 _atom_site_fract_z
 _atom_site_occupancy
  K  K0  1  0.87500000  0.54979700  0.17479700  1
  K  K1  1  0.37500000  0.70020300  0.82520300  1
  K  K2  1  0.29979700  0.12500000  0.67479700  1
  K  K3  1  0.45020300  0.62500000  0.32520300  1
  H  H4  1  0.87500000  0.04930400  0.67430400  1
  H  H5  1  0.37500000  0.20069600  0.32569600  1
  H  H6  1  0.79930400  0.12500000  0.17430400  1
  H  H7  1  0.95069600  0.62500000  0.82569600  1
  C  C8  1  0.87500000  0.16575300  0.79075300  1
  C  C9  1  0.37500000  0.08424700  0.20924700  1
  C  C10  1  0.91575300  0.12500000  0.29075300  1
  C  C11  1  0.83424700  0.62500000  0.70924700  1
  N  N12  1  0.03081400  0.35329500  0.91369300  1
  N  N13  1  0.31039800  0.89670500  0.17751900  1
  N  N14  1  0.43960200  0.11712100  0.08630700  1
  N  N15  1  0.71918600  0.13287900  0.82248100  1
  N  N16  1  0.88287900  0.96918600  0.32248100  1
  N  N17  1  0.10329500  0.28081400  0.41369300  1
  N  N18  1  0.64670500  0.56039800  0.67751900  1
  N  N19  1  0.86712100  0.68960200  0.58630700  1
  O  O20  1  0.18239700  0.38647300  0.88838500  1
  O  O21  1  0.25191100  0.86352700  0.29592300  1
  O  O22  1  0.49808900  0.29401200  0.11161500  1
  O  O23  1  0.56760300  0.95598800  0.70407700  1
  O  O24  1  0.70598800  0.81760300  0.20407700  1
  O  O25  1  0.13647300  0.43239700  0.38838500  1
  O  O26  1  0.61352700  0.50191100  0.79592300  1
  O  O27  1  0.04401200  0.74808900  0.61161500  1
