# generated using pymatgen
data_Er2ZnS4
_symmetry_space_group_name_H-M   'P 1'
_cell_length_a   6.31042600
_cell_length_b   7.85433300
_cell_length_c   13.44695000
_cell_angle_alpha   90.00000000
_cell_angle_beta   90.00000000
_cell_angle_gamma   90.00000000
_symmetry_Int_Tables_number   1
_chemical_formula_structural   Er2ZnS4
_chemical_formula_sum   'Er8 Zn4 S16'
_cell_volume   666.48714674
_cell_formula_units_Z   4
loop_
 _symmetry_equiv_pos_site_id
 _symmetry_equiv_pos_as_xyz
  1  'x, y, z'
loop_
 _atom_site_type_symbol
 _atom_site_label
 _atom_site_symmetry_multiplicity
 _atom_site_fract_x
 _atom_site_fract_y
 _atom_site_fract_z
 _atom_site_occupancy
  Er  Er0  1  0.49535400  0.75000000  0.23304900  1
  Er  Er1  1  0.00464600  0.75000000  0.73304900  1
  Er  Er2  1  0.50464600  0.25000000  0.76695100  1
  Er  Er3  1  0.99535400  0.25000000  0.26695100  1
  Er  Er4  1  0.00000000  0.50000000  0.00000000  1
  Er  Er5  1  0.50000000  0.00000000  0.50000000  1
  Er  Er6  1  0.00000000  0.00000000  0.00000000  1
  Er  Er7  1  0.50000000  0.50000000  0.50000000  1
  Zn  Zn8  1  0.91474500  0.75000000  0.40836700  1
  Zn  Zn9  1  0.58525500  0.75000000  0.90836700  1
  Zn  Zn10  1  0.08525500  0.25000000  0.59163300  1
  Zn  Zn11  1  0.41474500  0.25000000  0.09163300  1
  S  S12  1  0.27901100  0.75000000  0.40890300  1
  S  S13  1  0.22098900  0.75000000  0.90890300  1
  S  S14  1  0.72098900  0.25000000  0.59109700  1
  S  S15  1  0.77901100  0.25000000  0.09109700  1
  S  S16  1  0.75489800  0.75000000  0.57018700  1
  S  S17  1  0.74510200  0.75000000  0.07018700  1
  S  S18  1  0.24510200  0.25000000  0.42981300  1
  S  S19  1  0.25489800  0.25000000  0.92981300  1
  S  S20  1  0.74454400  0.51393400  0.33161500  1
  S  S21  1  0.75545600  0.98606600  0.83161500  1
  S  S22  1  0.25545600  0.01393400  0.66838500  1
  S  S23  1  0.24454400  0.48606600  0.16838500  1
  S  S24  1  0.25545600  0.48606600  0.66838500  1
  S  S25  1  0.24454400  0.01393400  0.16838500  1
  S  S26  1  0.74454400  0.98606600  0.33161500  1
  S  S27  1  0.75545600  0.51393400  0.83161500  1
