data_image0
_chemical_formula_structural       F6LiSb
_chemical_formula_sum              "F6 Li1 Sb1"
_cell_length_a       4.75181
_cell_length_b       4.75181
_cell_length_c       5.1994
_cell_angle_alpha    90
_cell_angle_beta     117.191
_cell_angle_gamma    60

_space_group_name_H-M_alt    "P 1"
_space_group_IT_number       1

loop_
  _space_group_symop_operation_xyz
  'x, y, z'

loop_
  _atom_site_type_symbol
  _atom_site_label
  _atom_site_symmetry_multiplicity
  _atom_site_fract_x
  _atom_site_fract_y
  _atom_site_fract_z
  _atom_site_occupancy
  F   F1        1.0  0.16100  0.24700  0.24800  1.0000
  F   F2        1.0  0.49500  0.59200  0.24800  1.0000
  F   F3        1.0  0.84100  0.91200  0.24800  1.0000
  F   F4        1.0  0.15900  0.08750  0.75200  1.0000
  F   F5        1.0  0.50500  0.40800  0.75200  1.0000
  F   F6        1.0  0.83900  0.75300  0.75200  1.0000
  Li  Li1       1.0  0.00000  0.50000  0.50000  1.0000
  Sb  Sb1       1.0  0.00000  0.00000  0.00000  1.0000
