# generated using pymatgen
data_Y6Zn23
_symmetry_space_group_name_H-M   'P 1'
_cell_length_a   8.98067049
_cell_length_b   8.98067049
_cell_length_c   8.98067049
_cell_angle_alpha   60.00000000
_cell_angle_beta   60.00000000
_cell_angle_gamma   60.00000000
_symmetry_Int_Tables_number   1
_chemical_formula_structural   Y6Zn23
_chemical_formula_sum   'Y6 Zn23'
_cell_volume   512.16664023
_cell_formula_units_Z   1
loop_
 _symmetry_equiv_pos_site_id
 _symmetry_equiv_pos_as_xyz
  1  'x, y, z'
loop_
 _atom_site_type_symbol
 _atom_site_label
 _atom_site_symmetry_multiplicity
 _atom_site_fract_x
 _atom_site_fract_y
 _atom_site_fract_z
 _atom_site_occupancy
  Y  Y0  1  0.70808800  0.70808800  0.29191200  1
  Y  Y1  1  0.29191200  0.70808800  0.29191200  1
  Y  Y2  1  0.70808800  0.29191200  0.29191200  1
  Y  Y3  1  0.29191200  0.29191200  0.70808800  1
  Y  Y4  1  0.70808800  0.29191200  0.70808800  1
  Y  Y5  1  0.29191200  0.70808800  0.70808800  1
  Zn  Zn6  1  0.00000000  0.00000000  0.00000000  1
  Zn  Zn7  1  0.00000000  0.00000000  0.50000000  1
  Zn  Zn8  1  0.50000000  0.00000000  0.50000000  1
  Zn  Zn9  1  0.00000000  0.50000000  0.50000000  1
  Zn  Zn10  1  0.50000000  0.50000000  0.00000000  1
  Zn  Zn11  1  0.00000000  0.50000000  0.00000000  1
  Zn  Zn12  1  0.50000000  0.00000000  0.00000000  1
  Zn  Zn13  1  0.87711600  0.87711600  0.36865300  1
  Zn  Zn14  1  0.87711600  0.36865300  0.87711600  1
  Zn  Zn15  1  0.36865300  0.87711600  0.87711600  1
  Zn  Zn16  1  0.87711600  0.87711600  0.87711600  1
  Zn  Zn17  1  0.12288400  0.12288400  0.63134700  1
  Zn  Zn18  1  0.12288400  0.63134700  0.12288400  1
  Zn  Zn19  1  0.63134700  0.12288400  0.12288400  1
  Zn  Zn20  1  0.12288400  0.12288400  0.12288400  1
  Zn  Zn21  1  0.67183800  0.67183800  0.98448600  1
  Zn  Zn22  1  0.67183800  0.98448600  0.67183800  1
  Zn  Zn23  1  0.98448600  0.67183800  0.67183800  1
  Zn  Zn24  1  0.67183800  0.67183800  0.67183800  1
  Zn  Zn25  1  0.32816200  0.32816200  0.01551400  1
  Zn  Zn26  1  0.32816200  0.01551400  0.32816200  1
  Zn  Zn27  1  0.01551400  0.32816200  0.32816200  1
  Zn  Zn28  1  0.32816200  0.32816200  0.32816200  1
