# generated using pymatgen
data_CdRe2C4(N2O3)4
_symmetry_space_group_name_H-M   'P 1'
_cell_length_a   7.80363221
_cell_length_b   8.06110942
_cell_length_c   8.13877647
_cell_angle_alpha   83.64106545
_cell_angle_beta   84.32123397
_cell_angle_gamma   76.39427086
_symmetry_Int_Tables_number   1
_chemical_formula_structural   CdRe2C4(N2O3)4
_chemical_formula_sum   'Cd1 Re2 C4 N8 O12'
_cell_volume   493.13818437
_cell_formula_units_Z   1
loop_
 _symmetry_equiv_pos_site_id
 _symmetry_equiv_pos_as_xyz
  1  'x, y, z'
loop_
 _atom_site_type_symbol
 _atom_site_label
 _atom_site_symmetry_multiplicity
 _atom_site_fract_x
 _atom_site_fract_y
 _atom_site_fract_z
 _atom_site_occupancy
  Cd  Cd0  1  0.00000000  0.00000000  0.50000000  1
  Re  Re1  1  0.85725300  0.67827200  0.83205300  1
  Re  Re2  1  0.14274700  0.32172800  0.16794700  1
  C  C3  1  0.78401800  0.03381300  0.17299000  1
  C  C4  1  0.21598200  0.96618700  0.82700900  1
  C  C5  1  0.62805900  0.26481000  0.64306700  1
  C  C6  1  0.37194100  0.73519000  0.35693300  1
  N  N7  1  0.87931100  0.87391800  0.12955000  1
  N  N8  1  0.12068900  0.12608200  0.87045000  1
  N  N9  1  0.65336800  0.12287000  0.08446900  1
  N  N10  1  0.34663200  0.87713000  0.91553100  1
  N  N11  1  0.47187500  0.23414800  0.59970700  1
  N  N12  1  0.52812500  0.76585200  0.40029300  1
  N  N13  1  0.46446600  0.34414600  0.71169900  1
  N  N14  1  0.53553400  0.65585400  0.28830100  1
  O  O15  1  0.83428300  0.80165800  0.64059000  1
  O  O16  1  0.16571700  0.19834200  0.35941000  1
  O  O17  1  0.06025800  0.53502000  0.82559600  1
  O  O18  1  0.93974200  0.46498000  0.17440400  1
  O  O19  1  0.81651900  0.83803700  0.98788900  1
  O  O20  1  0.18348100  0.16196300  0.01211100  1
  O  O21  1  0.69286800  0.56546200  0.85534900  1
  O  O22  1  0.30713200  0.43453800  0.14465100  1
  O  O23  1  0.82848900  0.09339300  0.30038200  1
  O  O24  1  0.17151100  0.90660700  0.69961800  1
  O  O25  1  0.78724500  0.24232100  0.63187000  1
  O  O26  1  0.21275500  0.75767900  0.36813000  1
