# generated using pymatgen
data_NaMn4O8
_symmetry_space_group_name_H-M   'P 1'
_cell_length_a   5.95022500
_cell_length_b   9.79518100
_cell_length_c   13.94231137
_cell_angle_alpha   46.79763730
_cell_angle_beta   90.00000000
_cell_angle_gamma   90.00000000
_symmetry_Int_Tables_number   1
_chemical_formula_structural   NaMn4O8
_chemical_formula_sum   'Na4 Mn16 O32'
_cell_volume   592.34216851
_cell_formula_units_Z   4
loop_
 _symmetry_equiv_pos_site_id
 _symmetry_equiv_pos_as_xyz
  1  'x, y, z'
loop_
 _atom_site_type_symbol
 _atom_site_label
 _atom_site_symmetry_multiplicity
 _atom_site_fract_x
 _atom_site_fract_y
 _atom_site_fract_z
 _atom_site_occupancy
  Na  Na0  1  0.63123900  0.60074200  0.16280200  1
  Na  Na1  1  0.86876100  0.60074200  0.66280200  1
  Na  Na2  1  0.13123900  0.39925800  0.33719800  1
  Na  Na3  1  0.36876100  0.39925800  0.83719800  1
  Mn  Mn4  1  0.62366200  0.98233900  0.10091800  1
  Mn  Mn5  1  0.12585300  0.97290200  0.10454800  1
  Mn  Mn6  1  0.62567100  0.31623900  0.58667400  1
  Mn  Mn7  1  0.12536800  0.31672700  0.59024700  1
  Mn  Mn8  1  0.12567100  0.68376100  0.91332600  1
  Mn  Mn9  1  0.62536800  0.68327300  0.90975300  1
  Mn  Mn10  1  0.12366200  0.01766100  0.39908200  1
  Mn  Mn11  1  0.62585300  0.02709800  0.39545200  1
  Mn  Mn12  1  0.87633800  0.98233900  0.60091800  1
  Mn  Mn13  1  0.37414700  0.97290200  0.60454800  1
  Mn  Mn14  1  0.87432900  0.31623900  0.08667400  1
  Mn  Mn15  1  0.37463200  0.31672700  0.09024700  1
  Mn  Mn16  1  0.87463200  0.68327300  0.40975300  1
  Mn  Mn17  1  0.37432900  0.68376100  0.41332600  1
  Mn  Mn18  1  0.87414700  0.02709800  0.89545200  1
  Mn  Mn19  1  0.37633800  0.01766100  0.89908200  1
  O  O20  1  0.87596000  0.88722400  0.40244600  1
  O  O21  1  0.37256900  0.89235800  0.39893700  1
  O  O22  1  0.87625100  0.77428000  0.79130100  1
  O  O23  1  0.37407600  0.76995800  0.79280500  1
  O  O24  1  0.87407600  0.23004200  0.70719500  1
  O  O25  1  0.37625100  0.22572000  0.70869900  1
  O  O26  1  0.87256900  0.10764200  0.10106300  1
  O  O27  1  0.37596000  0.11277600  0.09755400  1
  O  O28  1  0.12743100  0.89235800  0.89893700  1
  O  O29  1  0.62404000  0.88722400  0.90244600  1
  O  O30  1  0.12592400  0.76995800  0.29280500  1
  O  O31  1  0.62374900  0.77428000  0.29130100  1
  O  O32  1  0.62592400  0.23004200  0.20719500  1
  O  O33  1  0.12374900  0.22572000  0.20869900  1
  O  O34  1  0.62743100  0.10764200  0.60106300  1
  O  O35  1  0.12404000  0.11277600  0.59755400  1
  O  O36  1  0.63434700  0.85924200  0.58730700  1
  O  O37  1  0.11377700  0.85177900  0.59040500  1
  O  O38  1  0.12800100  0.43609900  0.96117300  1
  O  O39  1  0.62129500  0.43810400  0.95888500  1
  O  O40  1  0.13434700  0.14075800  0.91269300  1
  O  O41  1  0.61377700  0.14822100  0.90959500  1
  O  O42  1  0.62800100  0.56390100  0.53882700  1
  O  O43  1  0.12129500  0.56189600  0.54111500  1
  O  O44  1  0.86565300  0.85924200  0.08730700  1
  O  O45  1  0.38622300  0.85177900  0.09040500  1
  O  O46  1  0.87870500  0.43810400  0.45888500  1
  O  O47  1  0.37199900  0.43609900  0.46117300  1
  O  O48  1  0.88622300  0.14822100  0.40959500  1
  O  O49  1  0.36565300  0.14075800  0.41269300  1
  O  O50  1  0.87199900  0.56390100  0.03882700  1
  O  O51  1  0.37870500  0.56189600  0.04111500  1
