# generated using pymatgen
data_GdWBrO4
_symmetry_space_group_name_H-M   'P 1'
_cell_length_a   7.01847500
_cell_length_b   7.40215480
_cell_length_c   11.24418949
_cell_angle_alpha   105.59468499
_cell_angle_beta   107.61791289
_cell_angle_gamma   92.87453440
_symmetry_Int_Tables_number   1
_chemical_formula_structural   GdWBrO4
_chemical_formula_sum   'Gd4 W4 Br4 O16'
_cell_volume   530.72988773
_cell_formula_units_Z   4
loop_
 _symmetry_equiv_pos_site_id
 _symmetry_equiv_pos_as_xyz
  1  'x, y, z'
loop_
 _atom_site_type_symbol
 _atom_site_label
 _atom_site_symmetry_multiplicity
 _atom_site_fract_x
 _atom_site_fract_y
 _atom_site_fract_z
 _atom_site_occupancy
  Gd  Gd0  1  0.64933400  0.12174000  0.73025300  1
  Gd  Gd1  1  0.35066600  0.87826000  0.26974700  1
  Gd  Gd2  1  0.38791100  0.65170700  0.76859100  1
  Gd  Gd3  1  0.61208900  0.34829300  0.23140900  1
  W  W4  1  0.73213600  0.81414500  0.13351200  1
  W  W5  1  0.26786400  0.18585500  0.86648800  1
  W  W6  1  0.77124700  0.59077100  0.62847500  1
  W  W7  1  0.22875300  0.40922900  0.37152500  1
  Br  Br8  1  0.26111200  0.99176300  0.51754800  1
  Br  Br9  1  0.73888800  0.00823700  0.48245200  1
  Br  Br10  1  0.19521400  0.71741900  0.98109200  1
  Br  Br11  1  0.80478600  0.28258100  0.01890800  1
  O  O12  1  0.66560600  0.72863000  0.95844900  1
  O  O13  1  0.33439400  0.27137000  0.04155100  1
  O  O14  1  0.00282400  0.86724900  0.20685100  1
  O  O15  1  0.99717600  0.13275100  0.79314900  1
  O  O16  1  0.62581300  0.64860300  0.20005800  1
  O  O17  1  0.37418700  0.35139700  0.79994200  1
  O  O18  1  0.39274100  0.97919700  0.81707800  1
  O  O19  1  0.60725900  0.02080300  0.18292200  1
  O  O20  1  0.04051500  0.64510200  0.67442800  1
  O  O21  1  0.95948500  0.35489800  0.32557200  1
  O  O22  1  0.70980900  0.41481300  0.70123900  1
  O  O23  1  0.29019100  0.58518700  0.29876100  1
  O  O24  1  0.67075800  0.50360600  0.45144600  1
  O  O25  1  0.32924200  0.49639400  0.54855400  1
  O  O26  1  0.65643600  0.79466300  0.70051400  1
  O  O27  1  0.34356400  0.20533700  0.29948600  1
