# generated using pymatgen
data_Nb2Pt
_symmetry_space_group_name_H-M   'P 1'
_cell_length_a   10.02034400
_cell_length_b   10.02034400
_cell_length_c   5.18531800
_cell_angle_alpha   90.00000000
_cell_angle_beta   90.00000000
_cell_angle_gamma   90.00000000
_symmetry_Int_Tables_number   1
_chemical_formula_structural   Nb2Pt
_chemical_formula_sum   'Nb20 Pt10'
_cell_volume   520.64374828
_cell_formula_units_Z   10
loop_
 _symmetry_equiv_pos_site_id
 _symmetry_equiv_pos_as_xyz
  1  'x, y, z'
loop_
 _atom_site_type_symbol
 _atom_site_label
 _atom_site_symmetry_multiplicity
 _atom_site_fract_x
 _atom_site_fract_y
 _atom_site_fract_z
 _atom_site_occupancy
  Nb  Nb0  1  0.89461300  0.10538700  0.50000000  1
  Nb  Nb1  1  0.10538700  0.89461300  0.50000000  1
  Nb  Nb2  1  0.39461300  0.39461300  0.00000000  1
  Nb  Nb3  1  0.60538700  0.60538700  0.00000000  1
  Nb  Nb4  1  0.96284500  0.37421400  0.50000000  1
  Nb  Nb5  1  0.03715500  0.62578600  0.50000000  1
  Nb  Nb6  1  0.46284500  0.12578600  0.00000000  1
  Nb  Nb7  1  0.53715500  0.87421400  0.00000000  1
  Nb  Nb8  1  0.37421400  0.96284500  0.50000000  1
  Nb  Nb9  1  0.62578600  0.03715500  0.50000000  1
  Nb  Nb10  1  0.12578600  0.46284500  0.00000000  1
  Nb  Nb11  1  0.87421400  0.53715500  0.00000000  1
  Nb  Nb12  1  0.68102100  0.31897900  0.24779900  1
  Nb  Nb13  1  0.31897900  0.68102100  0.24779900  1
  Nb  Nb14  1  0.18102100  0.18102100  0.74779900  1
  Nb  Nb15  1  0.81897900  0.81897900  0.74779900  1
  Nb  Nb16  1  0.31897900  0.68102100  0.75220100  1
  Nb  Nb17  1  0.68102100  0.31897900  0.75220100  1
  Nb  Nb18  1  0.81897900  0.81897900  0.25220100  1
  Nb  Nb19  1  0.18102100  0.18102100  0.25220100  1
  Pt  Pt20  1  0.50000000  0.50000000  0.50000000  1
  Pt  Pt21  1  0.00000000  0.00000000  0.00000000  1
  Pt  Pt22  1  0.23728000  0.43259500  0.50000000  1
  Pt  Pt23  1  0.76272000  0.56740500  0.50000000  1
  Pt  Pt24  1  0.73728000  0.06740500  0.00000000  1
  Pt  Pt25  1  0.26272000  0.93259500  0.00000000  1
  Pt  Pt26  1  0.43259500  0.23728000  0.50000000  1
  Pt  Pt27  1  0.56740500  0.76272000  0.50000000  1
  Pt  Pt28  1  0.06740500  0.73728000  0.00000000  1
  Pt  Pt29  1  0.93259500  0.26272000  0.00000000  1
