# generated using pymatgen
data_Tl2Cu2S3
_symmetry_space_group_name_H-M   'P 1'
_cell_length_a   4.01373600
_cell_length_b   12.54071200
_cell_length_c   12.71546900
_cell_angle_alpha   90.00000000
_cell_angle_beta   90.00000000
_cell_angle_gamma   90.00000000
_symmetry_Int_Tables_number   1
_chemical_formula_structural   Tl2Cu2S3
_chemical_formula_sum   'Tl8 Cu8 S12'
_cell_volume   640.03449547
_cell_formula_units_Z   4
loop_
 _symmetry_equiv_pos_site_id
 _symmetry_equiv_pos_as_xyz
  1  'x, y, z'
loop_
 _atom_site_type_symbol
 _atom_site_label
 _atom_site_symmetry_multiplicity
 _atom_site_fract_x
 _atom_site_fract_y
 _atom_site_fract_z
 _atom_site_occupancy
  Tl  Tl0  1  0.25000000  0.92530100  0.82995000  1
  Tl  Tl1  1  0.25000000  0.57469900  0.32995000  1
  Tl  Tl2  1  0.75000000  0.07469900  0.17005000  1
  Tl  Tl3  1  0.75000000  0.42530100  0.67005000  1
  Tl  Tl4  1  0.25000000  0.25108100  0.93638400  1
  Tl  Tl5  1  0.25000000  0.24891900  0.43638400  1
  Tl  Tl6  1  0.75000000  0.74891900  0.06361600  1
  Tl  Tl7  1  0.75000000  0.75108100  0.56361600  1
  Cu  Cu8  1  0.25000000  0.65744200  0.79365500  1
  Cu  Cu9  1  0.25000000  0.84255800  0.29365500  1
  Cu  Cu10  1  0.75000000  0.34255800  0.20634500  1
  Cu  Cu11  1  0.75000000  0.15744200  0.70634500  1
  Cu  Cu12  1  0.25000000  0.02562500  0.57980700  1
  Cu  Cu13  1  0.25000000  0.47437500  0.07980700  1
  Cu  Cu14  1  0.75000000  0.97437500  0.42019300  1
  Cu  Cu15  1  0.75000000  0.52562500  0.92019300  1
  S  S16  1  0.25000000  0.44794200  0.87228700  1
  S  S17  1  0.25000000  0.05205800  0.37228700  1
  S  S18  1  0.75000000  0.55205800  0.12771300  1
  S  S19  1  0.75000000  0.94794200  0.62771300  1
  S  S20  1  0.25000000  0.62716900  0.61734300  1
  S  S21  1  0.25000000  0.87283100  0.11734300  1
  S  S22  1  0.75000000  0.37283100  0.38265700  1
  S  S23  1  0.75000000  0.12716900  0.88265700  1
  S  S24  1  0.25000000  0.20588400  0.63923400  1
  S  S25  1  0.25000000  0.29411600  0.13923400  1
  S  S26  1  0.75000000  0.79411600  0.36076600  1
  S  S27  1  0.75000000  0.70588400  0.86076600  1
