# generated using pymatgen
data_Al5Re24
_symmetry_space_group_name_H-M   'P 1'
_cell_length_a   8.33760588
_cell_length_b   8.33760588
_cell_length_c   8.33760588
_cell_angle_alpha   109.47122063
_cell_angle_beta   109.47122063
_cell_angle_gamma   109.47122063
_symmetry_Int_Tables_number   1
_chemical_formula_structural   Al5Re24
_chemical_formula_sum   'Al5 Re24'
_cell_volume   446.17188040
_cell_formula_units_Z   1
loop_
 _symmetry_equiv_pos_site_id
 _symmetry_equiv_pos_as_xyz
  1  'x, y, z'
loop_
 _atom_site_type_symbol
 _atom_site_label
 _atom_site_symmetry_multiplicity
 _atom_site_fract_x
 _atom_site_fract_y
 _atom_site_fract_z
 _atom_site_occupancy
  Al  Al0  1  0.00000000  0.00000000  0.00000000  1
  Al  Al1  1  0.64100600  0.00000000  0.00000000  1
  Al  Al2  1  0.00000000  0.64100600  0.00000000  1
  Al  Al3  1  0.00000000  0.00000000  0.64100600  1
  Al  Al4  1  0.35899400  0.35899400  0.35899400  1
  Re  Re5  1  0.39853100  0.68037300  0.00000000  1
  Re  Re6  1  0.71815800  0.31962700  0.31962700  1
  Re  Re7  1  0.39853100  0.00000000  0.68037300  1
  Re  Re8  1  0.68037300  0.39853100  0.00000000  1
  Re  Re9  1  0.00000000  0.39853100  0.68037300  1
  Re  Re10  1  0.31962700  0.71815800  0.31962700  1
  Re  Re11  1  0.31962700  0.31962700  0.71815800  1
  Re  Re12  1  0.00000000  0.68037300  0.39853100  1
  Re  Re13  1  0.68037300  0.00000000  0.39853100  1
  Re  Re14  1  0.60146900  0.60146900  0.28184200  1
  Re  Re15  1  0.28184200  0.60146900  0.60146900  1
  Re  Re16  1  0.60146900  0.28184200  0.60146900  1
  Re  Re17  1  0.37491400  0.19160400  0.00000000  1
  Re  Re18  1  0.18331000  0.80839600  0.80839600  1
  Re  Re19  1  0.37491400  0.00000000  0.19160400  1
  Re  Re20  1  0.19160400  0.37491400  0.00000000  1
  Re  Re21  1  0.00000000  0.37491400  0.19160400  1
  Re  Re22  1  0.80839600  0.18331000  0.80839600  1
  Re  Re23  1  0.80839600  0.80839600  0.18331000  1
  Re  Re24  1  0.00000000  0.19160400  0.37491400  1
  Re  Re25  1  0.19160400  0.00000000  0.37491400  1
  Re  Re26  1  0.62508600  0.62508600  0.81669000  1
  Re  Re27  1  0.81669000  0.62508600  0.62508600  1
  Re  Re28  1  0.62508600  0.81669000  0.62508600  1
