# generated using pymatgen
data_Rb2BeF4
_symmetry_space_group_name_H-M   'P 1'
_cell_length_a   5.98767100
_cell_length_b   7.78346700
_cell_length_c   10.48827000
_cell_angle_alpha   90.00000000
_cell_angle_beta   90.00000000
_cell_angle_gamma   90.00000000
_symmetry_Int_Tables_number   1
_chemical_formula_structural   Rb2BeF4
_chemical_formula_sum   'Rb8 Be4 F16'
_cell_volume   488.80414140
_cell_formula_units_Z   4
loop_
 _symmetry_equiv_pos_site_id
 _symmetry_equiv_pos_as_xyz
  1  'x, y, z'
loop_
 _atom_site_type_symbol
 _atom_site_label
 _atom_site_symmetry_multiplicity
 _atom_site_fract_x
 _atom_site_fract_y
 _atom_site_fract_z
 _atom_site_occupancy
  Rb  Rb0  1  0.75443600  0.33850200  0.58780800  1
  Rb  Rb1  1  0.25443600  0.66149800  0.41219200  1
  Rb  Rb2  1  0.25443600  0.16149800  0.08780800  1
  Rb  Rb3  1  0.75443600  0.83850200  0.91219200  1
  Rb  Rb4  1  0.25793200  0.49736200  0.81076500  1
  Rb  Rb5  1  0.75793200  0.50263800  0.18923500  1
  Rb  Rb6  1  0.75793200  0.00263800  0.31076500  1
  Rb  Rb7  1  0.25793200  0.99736200  0.68923500  1
  Be  Be8  1  0.75395800  0.26683400  0.91292200  1
  Be  Be9  1  0.25395800  0.73316600  0.08707800  1
  Be  Be10  1  0.25395800  0.23316600  0.41292200  1
  Be  Be11  1  0.75395800  0.76683400  0.58707800  1
  F  F12  1  0.54616300  0.19531500  0.83900600  1
  F  F13  1  0.04616300  0.80468500  0.16099400  1
  F  F14  1  0.04616300  0.30468500  0.33900600  1
  F  F15  1  0.54616300  0.69531500  0.66099400  1
  F  F16  1  0.97467400  0.20537800  0.84531000  1
  F  F17  1  0.47467400  0.79462200  0.15469000  1
  F  F18  1  0.47467400  0.29462200  0.34531000  1
  F  F19  1  0.97467400  0.70537800  0.65469000  1
  F  F20  1  0.74329500  0.46694700  0.91561100  1
  F  F21  1  0.24329500  0.53305300  0.08438900  1
  F  F22  1  0.24329500  0.03305300  0.41561100  1
  F  F23  1  0.74329500  0.96694700  0.58438900  1
  F  F24  1  0.25154200  0.31243400  0.55247000  1
  F  F25  1  0.75154200  0.68756600  0.44753000  1
  F  F26  1  0.75154200  0.18756600  0.05247000  1
  F  F27  1  0.25154200  0.81243400  0.94753000  1
