# generated using pymatgen
data_KZnBr3O2
_symmetry_space_group_name_H-M   'P 1'
_cell_length_a   14.60033100
_cell_length_b   7.07049400
_cell_length_c   8.81280234
_cell_angle_alpha   73.36704720
_cell_angle_beta   90.00000000
_cell_angle_gamma   90.00000000
_symmetry_Int_Tables_number   1
_chemical_formula_structural   KZnBr3O2
_chemical_formula_sum   'K4 Zn4 Br12 O8'
_cell_volume   871.69321871
_cell_formula_units_Z   4
loop_
 _symmetry_equiv_pos_site_id
 _symmetry_equiv_pos_as_xyz
  1  'x, y, z'
loop_
 _atom_site_type_symbol
 _atom_site_label
 _atom_site_symmetry_multiplicity
 _atom_site_fract_x
 _atom_site_fract_y
 _atom_site_fract_z
 _atom_site_occupancy
  K  K0  1  0.81355000  0.22869000  0.96584400  1
  K  K1  1  0.31355000  0.77131000  0.53415600  1
  K  K2  1  0.18645000  0.77131000  0.03415600  1
  K  K3  1  0.68645000  0.22869000  0.46584400  1
  Zn  Zn4  1  0.94675700  0.01476700  0.65781900  1
  Zn  Zn5  1  0.44675700  0.98523300  0.84218100  1
  Zn  Zn6  1  0.05324300  0.98523300  0.34218100  1
  Zn  Zn7  1  0.55324300  0.01476700  0.15781900  1
  Br  Br8  1  0.44985400  0.23006400  0.59713600  1
  Br  Br9  1  0.94985400  0.76993600  0.90286400  1
  Br  Br10  1  0.55014600  0.76993600  0.40286400  1
  Br  Br11  1  0.05014600  0.23006400  0.09713600  1
  Br  Br12  1  0.39304100  0.65130100  0.89042800  1
  Br  Br13  1  0.89304100  0.34869900  0.60957200  1
  Br  Br14  1  0.60695900  0.34869900  0.10957200  1
  Br  Br15  1  0.10695900  0.65130100  0.39042800  1
  Br  Br16  1  0.16862900  0.17121700  0.62015300  1
  Br  Br17  1  0.66862900  0.82878300  0.87984700  1
  Br  Br18  1  0.83137100  0.82878300  0.37984700  1
  Br  Br19  1  0.33137100  0.17121700  0.12015300  1
  O  O20  1  0.92454400  0.94956700  0.44899300  1
  O  O21  1  0.42454400  0.05043300  0.05100700  1
  O  O22  1  0.07545600  0.05043300  0.55100700  1
  O  O23  1  0.57545600  0.94956700  0.94899300  1
  O  O24  1  0.73540500  0.01524700  0.76314800  1
  O  O25  1  0.23540500  0.98475300  0.73685200  1
  O  O26  1  0.26459500  0.98475300  0.23685200  1
  O  O27  1  0.76459500  0.01524700  0.26314800  1
