# generated using pymatgen
data_SrMnO3
_symmetry_space_group_name_H-M   'P 1'
_cell_length_a   5.53033869
_cell_length_b   5.53033869
_cell_length_c   13.67187100
_cell_angle_alpha   90.00000000
_cell_angle_beta   90.00000000
_cell_angle_gamma   120.00000829
_symmetry_Int_Tables_number   1
_chemical_formula_structural   SrMnO3
_chemical_formula_sum   'Sr6 Mn6 O18'
_cell_volume   362.12791689
_cell_formula_units_Z   6
loop_
 _symmetry_equiv_pos_site_id
 _symmetry_equiv_pos_as_xyz
  1  'x, y, z'
loop_
 _atom_site_type_symbol
 _atom_site_label
 _atom_site_symmetry_multiplicity
 _atom_site_fract_x
 _atom_site_fract_y
 _atom_site_fract_z
 _atom_site_occupancy
  Sr  Sr0  1  0.00000000  0.00000000  0.25000000  1
  Sr  Sr1  1  0.00000000  0.00000000  0.75000000  1
  Sr  Sr2  1  0.33333300  0.66666700  0.41160300  1
  Sr  Sr3  1  0.66666700  0.33333300  0.58839700  1
  Sr  Sr4  1  0.66666700  0.33333300  0.91160300  1
  Sr  Sr5  1  0.33333300  0.66666700  0.08839700  1
  Mn  Mn6  1  0.00000000  0.00000000  0.50000000  1
  Mn  Mn7  1  0.00000000  0.00000000  0.00000000  1
  Mn  Mn8  1  0.33333300  0.66666700  0.65599400  1
  Mn  Mn9  1  0.66666700  0.33333300  0.34400600  1
  Mn  Mn10  1  0.66666700  0.33333300  0.15599400  1
  Mn  Mn11  1  0.33333300  0.66666700  0.84400600  1
  O  O12  1  0.51444000  0.48556000  0.25000000  1
  O  O13  1  0.51444000  0.02887900  0.25000000  1
  O  O14  1  0.97112100  0.48556000  0.25000000  1
  O  O15  1  0.48556000  0.51444000  0.75000000  1
  O  O16  1  0.48556000  0.97112100  0.75000000  1
  O  O17  1  0.02887900  0.51444000  0.75000000  1
  O  O18  1  0.83558000  0.16442000  0.41823300  1
  O  O19  1  0.83558000  0.67116100  0.41823300  1
  O  O20  1  0.32883900  0.16442000  0.41823300  1
  O  O21  1  0.16442000  0.83558000  0.58176700  1
  O  O22  1  0.16442000  0.32883900  0.58176700  1
  O  O23  1  0.67116100  0.83558000  0.58176700  1
  O  O24  1  0.16442000  0.83558000  0.91823300  1
  O  O25  1  0.16442000  0.32883900  0.91823300  1
  O  O26  1  0.67116100  0.83558000  0.91823300  1
  O  O27  1  0.83558000  0.16442000  0.08176700  1
  O  O28  1  0.83558000  0.67116100  0.08176700  1
  O  O29  1  0.32883900  0.16442000  0.08176700  1
