# generated using pymatgen
data_Cu3H2(CO4)2
_symmetry_space_group_name_H-M   'P 1'
_cell_length_a   5.90695000
_cell_length_b   5.08278400
_cell_length_c   10.52727578
_cell_angle_alpha   87.93193887
_cell_angle_beta   90.00000000
_cell_angle_gamma   90.00000000
_symmetry_Int_Tables_number   1
_chemical_formula_structural   Cu3H2(CO4)2
_chemical_formula_sum   'Cu6 H4 C4 O16'
_cell_volume   315.86243993
_cell_formula_units_Z   2
loop_
 _symmetry_equiv_pos_site_id
 _symmetry_equiv_pos_as_xyz
  1  'x, y, z'
loop_
 _atom_site_type_symbol
 _atom_site_label
 _atom_site_symmetry_multiplicity
 _atom_site_fract_x
 _atom_site_fract_y
 _atom_site_fract_z
 _atom_site_occupancy
  Cu  Cu0  1  0.49996700  0.99770400  0.74975100  1
  Cu  Cu1  1  0.99996700  0.00229600  0.25024900  1
  Cu  Cu2  1  0.00196600  0.25391600  0.66564100  1
  Cu  Cu3  1  0.50196600  0.74608400  0.33435900  1
  Cu  Cu4  1  0.99865900  0.74842700  0.83399400  1
  Cu  Cu5  1  0.49865900  0.25157300  0.16600600  1
  H  H6  1  0.69728600  0.17677900  0.38028000  1
  H  H7  1  0.19728600  0.82322100  0.61972000  1
  H  H8  1  0.29761800  0.81582500  0.12354300  1
  H  H9  1  0.79761800  0.18417500  0.87645700  1
  C  C10  1  0.19821000  0.33138200  0.43175600  1
  C  C11  1  0.69821000  0.66861800  0.56824400  1
  C  C12  1  0.80254500  0.66952800  0.06883300  1
  C  C13  1  0.30254500  0.33047200  0.93116700  1
  O  O14  1  0.09848100  0.10745900  0.41718900  1
  O  O15  1  0.59848100  0.89254100  0.58281100  1
  O  O16  1  0.90453200  0.89286800  0.08318700  1
  O  O17  1  0.40453200  0.10713200  0.91681300  1
  O  O18  1  0.68600500  0.06822700  0.30469700  1
  O  O19  1  0.18600500  0.93177300  0.69530300  1
  O  O20  1  0.31334200  0.92458700  0.19869300  1
  O  O21  1  0.81334200  0.07541300  0.80130700  1
  O  O22  1  0.29260100  0.45094800  0.33479300  1
  O  O23  1  0.79260100  0.54905200  0.66520700  1
  O  O24  1  0.70990400  0.54794500  0.16576700  1
  O  O25  1  0.20990400  0.45205500  0.83423300  1
  O  O26  1  0.20185900  0.43114600  0.54263200  1
  O  O27  1  0.70185900  0.56885400  0.45736800  1
  O  O28  1  0.79702300  0.57174900  0.95733800  1
  O  O29  1  0.29702300  0.42825100  0.04266200  1
