# generated using pymatgen
data_CaB3O10
_symmetry_space_group_name_H-M   'P 1'
_cell_length_a   7.24560128
_cell_length_b   6.24402099
_cell_length_c   9.67436366
_cell_angle_alpha   95.19135786
_cell_angle_beta   108.02458347
_cell_angle_gamma   102.15922667
_symmetry_Int_Tables_number   1
_chemical_formula_structural   CaB3O10
_chemical_formula_sum   'Ca2 B6 O20'
_cell_volume   401.12306580
_cell_formula_units_Z   2
loop_
 _symmetry_equiv_pos_site_id
 _symmetry_equiv_pos_as_xyz
  1  'x, y, z'
loop_
 _atom_site_type_symbol
 _atom_site_label
 _atom_site_symmetry_multiplicity
 _atom_site_fract_x
 _atom_site_fract_y
 _atom_site_fract_z
 _atom_site_occupancy
  Ca  Ca0  1  0.82714600  0.79751200  0.61442900  1
  Ca  Ca1  1  0.17285400  0.20248800  0.38557000  1
  B  B2  1  0.46929500  0.75488600  0.10189700  1
  B  B3  1  0.53070500  0.24511400  0.89810300  1
  B  B4  1  0.81775300  0.69400800  0.26015400  1
  B  B5  1  0.18224700  0.30599200  0.73984600  1
  B  B6  1  0.54440600  0.11512200  0.29142500  1
  B  B7  1  0.45559400  0.88487800  0.70857500  1
  O  O8  1  0.65092700  0.69758700  0.14065800  1
  O  O9  1  0.34907300  0.30241300  0.85934200  1
  O  O10  1  0.45016900  0.94793200  0.17309300  1
  O  O11  1  0.54983100  0.05206800  0.82690700  1
  O  O12  1  0.85809600  0.08126000  0.42741400  1
  O  O13  1  0.14190400  0.91874000  0.57258600  1
  O  O14  1  0.30785300  0.63944600  0.98940400  1
  O  O15  1  0.69214700  0.36055400  0.01059600  1
  O  O16  1  0.00986600  0.79312600  0.26768500  1
  O  O17  1  0.99013400  0.20687400  0.73231500  1
  O  O18  1  0.80582600  0.62200800  0.38536500  1
  O  O19  1  0.19417400  0.37799200  0.61463500  1
  O  O20  1  0.76883700  0.17524400  0.31403700  1
  O  O21  1  0.23116300  0.82475600  0.68596300  1
  O  O22  1  0.47798200  0.21954700  0.37945900  1
  O  O23  1  0.52201800  0.78045300  0.62054100  1
  O  O24  1  0.95544200  0.91647600  0.95371900  1
  O  O25  1  0.04455800  0.08352400  0.04628100  1
  O  O26  1  0.22987600  0.56052600  0.29169200  1
  O  O27  1  0.77012400  0.43947400  0.70830800  1
