# generated using pymatgen
data_Ca4MgB4(CO9)2
_symmetry_space_group_name_H-M   'P 1'
_cell_length_a   10.08135182
_cell_length_b   10.08135182
_cell_length_c   4.57072239
_cell_angle_alpha   77.04475917
_cell_angle_beta   77.04475917
_cell_angle_gamma   46.62749626
_symmetry_Int_Tables_number   1
_chemical_formula_structural   Ca4MgB4(CO9)2
_chemical_formula_sum   'Ca4 Mg1 B4 C2 O18'
_cell_volume   327.45903091
_cell_formula_units_Z   1
loop_
 _symmetry_equiv_pos_site_id
 _symmetry_equiv_pos_as_xyz
  1  'x, y, z'
loop_
 _atom_site_type_symbol
 _atom_site_label
 _atom_site_symmetry_multiplicity
 _atom_site_fract_x
 _atom_site_fract_y
 _atom_site_fract_z
 _atom_site_occupancy
  Ca  Ca0  1  0.39172200  0.92331300  0.85405200  1
  Ca  Ca1  1  0.92331300  0.39172200  0.85405200  1
  Ca  Ca2  1  0.60827800  0.07668700  0.14594800  1
  Ca  Ca3  1  0.07668700  0.60827800  0.14594800  1
  Mg  Mg4  1  0.00000000  0.00000000  0.00000000  1
  B  B5  1  0.25805100  0.74194900  0.50000000  1
  B  B6  1  0.74194900  0.25805100  0.50000000  1
  B  B7  1  0.09651700  0.09651700  0.44259400  1
  B  B8  1  0.90348300  0.90348300  0.55740600  1
  C  C9  1  0.69395100  0.69395100  0.36905300  1
  C  C10  1  0.30604900  0.30604900  0.63094700  1
  O  O11  1  0.09731800  0.09731800  0.13228400  1
  O  O12  1  0.90268200  0.90268200  0.86771600  1
  O  O13  1  0.20403000  0.90063200  0.62386100  1
  O  O14  1  0.90063200  0.20403000  0.62386100  1
  O  O15  1  0.79597000  0.09936800  0.37613900  1
  O  O16  1  0.09936800  0.79597000  0.37613900  1
  O  O17  1  0.39790600  0.69342500  0.24836500  1
  O  O18  1  0.69342500  0.39790600  0.24836500  1
  O  O19  1  0.60209400  0.30657500  0.75163500  1
  O  O20  1  0.30657500  0.60209400  0.75163500  1
  O  O21  1  0.57237000  0.85447800  0.23009900  1
  O  O22  1  0.85447800  0.57237000  0.23009900  1
  O  O23  1  0.42763000  0.14552200  0.76990100  1
  O  O24  1  0.14552200  0.42763000  0.76990100  1
  O  O25  1  0.16722500  0.16722500  0.51108700  1
  O  O26  1  0.83277500  0.83277500  0.48891300  1
  O  O27  1  0.65680500  0.65680500  0.64499000  1
  O  O28  1  0.34319500  0.34319500  0.35501000  1
