# generated using pymatgen
data_Ba2InS4
_symmetry_space_group_name_H-M   'P 1'
_cell_length_a   6.34159002
_cell_length_b   10.19020353
_cell_length_c   13.23300450
_cell_angle_alpha   104.17782281
_cell_angle_beta   90.42962779
_cell_angle_gamma   91.07865006
_symmetry_Int_Tables_number   1
_chemical_formula_structural   Ba2InS4
_chemical_formula_sum   'Ba8 In4 S16'
_cell_volume   828.88534351
_cell_formula_units_Z   4
loop_
 _symmetry_equiv_pos_site_id
 _symmetry_equiv_pos_as_xyz
  1  'x, y, z'
loop_
 _atom_site_type_symbol
 _atom_site_label
 _atom_site_symmetry_multiplicity
 _atom_site_fract_x
 _atom_site_fract_y
 _atom_site_fract_z
 _atom_site_occupancy
  Ba  Ba0  1  0.74577000  0.37873900  0.52315100  1
  Ba  Ba1  1  0.25423000  0.62126100  0.47684900  1
  Ba  Ba2  1  0.76209100  0.92105300  0.61815800  1
  Ba  Ba3  1  0.23790900  0.07894700  0.38184200  1
  Ba  Ba4  1  0.25887100  0.89291200  0.84962900  1
  Ba  Ba5  1  0.74112900  0.10708800  0.15037100  1
  Ba  Ba6  1  0.74433400  0.57506700  0.89218700  1
  Ba  Ba7  1  0.25566600  0.42493300  0.10781300  1
  In  In8  1  0.67862700  0.79272200  0.30338200  1
  In  In9  1  0.32137300  0.20727800  0.69661800  1
  In  In10  1  0.83189500  0.19661200  0.88870400  1
  In  In11  1  0.16810500  0.80338800  0.11129600  1
  S  S12  1  0.58539700  0.65249800  0.68673700  1
  S  S13  1  0.41460300  0.34750200  0.31326300  1
  S  S14  1  0.91905200  0.65186800  0.68730100  1
  S  S15  1  0.08094800  0.34813200  0.31269900  1
  S  S16  1  0.76038400  0.66398800  0.42963800  1
  S  S17  1  0.23961600  0.33601200  0.57036200  1
  S  S18  1  0.26431700  0.95948500  0.60753800  1
  S  S19  1  0.73568300  0.04051500  0.39246200  1
  S  S20  1  0.71942200  0.25545200  0.72359900  1
  S  S21  1  0.28057800  0.74454800  0.27640100  1
  S  S22  1  0.24752500  0.63228400  0.95217200  1
  S  S23  1  0.75247500  0.36771600  0.04782800  1
  S  S24  1  0.75596600  0.96061300  0.88636000  1
  S  S25  1  0.24403400  0.03938700  0.11364000  1
  S  S26  1  0.77097200  0.77999800  0.12051200  1
  S  S27  1  0.22902800  0.22000200  0.87948800  1
