# generated using pymatgen
data_CsSeO4
_symmetry_space_group_name_H-M   'P 1'
_cell_length_a   7.56978242
_cell_length_b   8.14526002
_cell_length_c   8.75601400
_cell_angle_alpha   90.00000000
_cell_angle_beta   90.00000000
_cell_angle_gamma   107.65915695
_symmetry_Int_Tables_number   1
_chemical_formula_structural   CsSeO4
_chemical_formula_sum   'Cs4 Se4 O16'
_cell_volume   514.43686434
_cell_formula_units_Z   4
loop_
 _symmetry_equiv_pos_site_id
 _symmetry_equiv_pos_as_xyz
  1  'x, y, z'
loop_
 _atom_site_type_symbol
 _atom_site_label
 _atom_site_symmetry_multiplicity
 _atom_site_fract_x
 _atom_site_fract_y
 _atom_site_fract_z
 _atom_site_occupancy
  Cs  Cs0  1  0.70544000  0.21203100  0.37341100  1
  Cs  Cs1  1  0.79456000  0.78796900  0.87341100  1
  Cs  Cs2  1  0.29456000  0.78796900  0.62658900  1
  Cs  Cs3  1  0.20544000  0.21203100  0.12658900  1
  Se  Se4  1  0.78182700  0.74127900  0.36273600  1
  Se  Se5  1  0.71817300  0.25872100  0.86273600  1
  Se  Se6  1  0.21817300  0.25872100  0.63726400  1
  Se  Se7  1  0.28182700  0.74127900  0.13726400  1
  O  O8  1  0.62008400  0.57146900  0.28070400  1
  O  O9  1  0.87991600  0.42853100  0.78070400  1
  O  O10  1  0.37991600  0.42853100  0.71929600  1
  O  O11  1  0.12008400  0.57146900  0.21929600  1
  O  O12  1  0.86703900  0.89795000  0.23946400  1
  O  O13  1  0.63296100  0.10205000  0.73946400  1
  O  O14  1  0.13296100  0.10205000  0.76053600  1
  O  O15  1  0.36703900  0.89795000  0.26053600  1
  O  O16  1  0.94731200  0.65303000  0.42688900  1
  O  O17  1  0.55268800  0.34697000  0.92688900  1
  O  O18  1  0.05268800  0.34697000  0.57311100  1
  O  O19  1  0.44731200  0.65303000  0.07311100  1
  O  O20  1  0.70111500  0.80865800  0.52014200  1
  O  O21  1  0.79888500  0.19134200  0.02014200  1
  O  O22  1  0.29888500  0.19134200  0.47985800  1
  O  O23  1  0.20111500  0.80865800  0.97985800  1
