# generated using pymatgen
data_Al8Fe5
_symmetry_space_group_name_H-M   'P 1'
_cell_length_a   7.63394812
_cell_length_b   7.63394812
_cell_length_c   7.63394812
_cell_angle_alpha   109.47122063
_cell_angle_beta   109.47122063
_cell_angle_gamma   109.47122063
_symmetry_Int_Tables_number   1
_chemical_formula_structural   Al8Fe5
_chemical_formula_sum   'Al16 Fe10'
_cell_volume   342.47251348
_cell_formula_units_Z   2
loop_
 _symmetry_equiv_pos_site_id
 _symmetry_equiv_pos_as_xyz
  1  'x, y, z'
loop_
 _atom_site_type_symbol
 _atom_site_label
 _atom_site_symmetry_multiplicity
 _atom_site_fract_x
 _atom_site_fract_y
 _atom_site_fract_z
 _atom_site_occupancy
  Al  Al0  1  0.21154100  0.00000000  0.00000000  1
  Al  Al1  1  0.00000000  0.21154100  0.00000000  1
  Al  Al2  1  0.00000000  0.00000000  0.21154100  1
  Al  Al3  1  0.78845900  0.78845900  0.78845900  1
  Al  Al4  1  0.34931500  0.72745200  0.00000000  1
  Al  Al5  1  0.62186300  0.27254800  0.27254800  1
  Al  Al6  1  0.34931500  0.00000000  0.72745200  1
  Al  Al7  1  0.72745200  0.34931500  0.00000000  1
  Al  Al8  1  0.00000000  0.34931500  0.72745200  1
  Al  Al9  1  0.27254800  0.62186300  0.27254800  1
  Al  Al10  1  0.27254800  0.27254800  0.62186300  1
  Al  Al11  1  0.00000000  0.72745200  0.34931500  1
  Al  Al12  1  0.72745200  0.00000000  0.34931500  1
  Al  Al13  1  0.65068500  0.65068500  0.37813700  1
  Al  Al14  1  0.37813700  0.65068500  0.65068500  1
  Al  Al15  1  0.65068500  0.37813700  0.65068500  1
  Fe  Fe16  1  0.66248100  0.00000000  0.00000000  1
  Fe  Fe17  1  0.00000000  0.66248100  0.00000000  1
  Fe  Fe18  1  0.00000000  0.00000000  0.66248100  1
  Fe  Fe19  1  0.33751900  0.33751900  0.33751900  1
  Fe  Fe20  1  0.00000000  0.64016900  0.64016900  1
  Fe  Fe21  1  0.35983100  0.00000000  0.35983100  1
  Fe  Fe22  1  0.35983100  0.35983100  0.00000000  1
  Fe  Fe23  1  0.00000000  0.35983100  0.35983100  1
  Fe  Fe24  1  0.64016900  0.00000000  0.64016900  1
  Fe  Fe25  1  0.64016900  0.64016900  0.00000000  1
