# generated using pymatgen
data_KBe2B3O7
_symmetry_space_group_name_H-M   'P 1'
_cell_length_a   6.93164977
_cell_length_b   6.93164977
_cell_length_c   6.65516703
_cell_angle_alpha   71.70755328
_cell_angle_beta   71.70755328
_cell_angle_gamma   81.64635425
_symmetry_Int_Tables_number   1
_chemical_formula_structural   KBe2B3O7
_chemical_formula_sum   'K2 Be4 B6 O14'
_cell_volume   287.87671575
_cell_formula_units_Z   2
loop_
 _symmetry_equiv_pos_site_id
 _symmetry_equiv_pos_as_xyz
  1  'x, y, z'
loop_
 _atom_site_type_symbol
 _atom_site_label
 _atom_site_symmetry_multiplicity
 _atom_site_fract_x
 _atom_site_fract_y
 _atom_site_fract_z
 _atom_site_occupancy
  K  K0  1  0.17877900  0.82122100  0.75000000  1
  K  K1  1  0.82122100  0.17877900  0.25000000  1
  Be  Be2  1  0.05457500  0.63554000  0.34281700  1
  Be  Be3  1  0.36446000  0.94542500  0.15718300  1
  Be  Be4  1  0.94542500  0.36446000  0.65718300  1
  Be  Be5  1  0.63554000  0.05457500  0.84281700  1
  B  B6  1  0.44899000  0.55101000  0.25000000  1
  B  B7  1  0.55101000  0.44899000  0.75000000  1
  B  B8  1  0.77041900  0.73204800  0.68315600  1
  B  B9  1  0.26795200  0.22958100  0.81684400  1
  B  B10  1  0.22958100  0.26795200  0.31684400  1
  B  B11  1  0.73204800  0.77041900  0.18315600  1
  O  O12  1  0.29720800  0.70279200  0.25000000  1
  O  O13  1  0.70279200  0.29720800  0.75000000  1
  O  O14  1  0.94411900  0.61379800  0.61533600  1
  O  O15  1  0.38620200  0.05588100  0.88466400  1
  O  O16  1  0.05588100  0.38620200  0.38466400  1
  O  O17  1  0.61379800  0.94411900  0.11533600  1
  O  O18  1  0.58079600  0.64686800  0.73571200  1
  O  O19  1  0.35313200  0.41920400  0.76428800  1
  O  O20  1  0.41920400  0.35313200  0.26428800  1
  O  O21  1  0.64686800  0.58079600  0.23571200  1
  O  O22  1  0.77761300  0.91941600  0.69754700  1
  O  O23  1  0.08058400  0.22238700  0.80245300  1
  O  O24  1  0.22238700  0.08058400  0.30245300  1
  O  O25  1  0.91941600  0.77761300  0.19754700  1
