# generated using pymatgen
data_Fe2Cu(PO5)2
_symmetry_space_group_name_H-M   'P 1'
_cell_length_a   6.91234386
_cell_length_b   7.26425389
_cell_length_c   8.14089700
_cell_angle_alpha   90.00046782
_cell_angle_beta   90.00008616
_cell_angle_gamma   61.78238542
_symmetry_Int_Tables_number   1
_chemical_formula_structural   Fe2Cu(PO5)2
_chemical_formula_sum   'Fe4 Cu2 P4 O20'
_cell_volume   360.19896712
_cell_formula_units_Z   2
loop_
 _symmetry_equiv_pos_site_id
 _symmetry_equiv_pos_as_xyz
  1  'x, y, z'
loop_
 _atom_site_type_symbol
 _atom_site_label
 _atom_site_symmetry_multiplicity
 _atom_site_fract_x
 _atom_site_fract_y
 _atom_site_fract_z
 _atom_site_occupancy
  Fe  Fe0  1  0.25762300  0.51692000  0.22413600  1
  Fe  Fe1  1  0.74240500  0.98314000  0.72416700  1
  Fe  Fe2  1  0.25900700  0.02445500  0.27959400  1
  Fe  Fe3  1  0.74105300  0.47557200  0.77954700  1
  Cu  Cu4  1  0.00156300  0.49976100  0.49998400  1
  Cu  Cu5  1  0.99843900  0.99997600  0.99997800  1
  P  P6  1  0.74278600  0.25601800  0.40697100  1
  P  P7  1  0.74126200  0.75641500  0.09274600  1
  P  P8  1  0.25871700  0.74357700  0.59271800  1
  P  P9  1  0.25719600  0.24398600  0.90699600  1
  O  O10  1  0.66064000  0.13539600  0.51644700  1
  O  O11  1  0.65894700  0.63502000  0.98376900  1
  O  O12  1  0.34101400  0.86504000  0.48379400  1
  O  O13  1  0.33936100  0.36464500  0.01642400  1
  O  O14  1  0.56001300  0.42241400  0.30233100  1
  O  O15  1  0.55791800  0.92442200  0.19543000  1
  O  O16  1  0.44211700  0.57562200  0.69540600  1
  O  O17  1  0.43997700  0.07766500  0.80229300  1
  O  O18  1  0.83973100  0.35744300  0.53503100  1
  O  O19  1  0.83910800  0.85559900  0.96310900  1
  O  O20  1  0.16086200  0.64436300  0.46311000  1
  O  O21  1  0.16027900  0.14248900  0.03501800  1
  O  O22  1  0.93347100  0.11474100  0.29394000  1
  O  O23  1  0.93246500  0.61560200  0.20449000  1
  O  O24  1  0.06752500  0.88442100  0.70448400  1
  O  O25  1  0.06648400  0.38533400  0.79398300  1
  O  O26  1  0.20448900  0.80142000  0.14026900  1
  O  O27  1  0.21126200  0.30075000  0.36177900  1
  O  O28  1  0.78873800  0.19924100  0.86183900  1
  O  O29  1  0.79555000  0.69855300  0.64021700  1
