# generated using pymatgen
data_FeBiO3
_symmetry_space_group_name_H-M   'P 1'
_cell_length_a   5.61153168
_cell_length_b   7.94478500
_cell_length_c   9.81426749
_cell_angle_alpha   113.87589743
_cell_angle_beta   106.91210572
_cell_angle_gamma   90.00000000
_symmetry_Int_Tables_number   1
_chemical_formula_structural   FeBiO3
_chemical_formula_sum   'Fe6 Bi6 O18'
_cell_volume   379.31444175
_cell_formula_units_Z   6
loop_
 _symmetry_equiv_pos_site_id
 _symmetry_equiv_pos_as_xyz
  1  'x, y, z'
loop_
 _atom_site_type_symbol
 _atom_site_label
 _atom_site_symmetry_multiplicity
 _atom_site_fract_x
 _atom_site_fract_y
 _atom_site_fract_z
 _atom_site_occupancy
  Fe  Fe0  1  0.00000000  0.00000000  0.50000000  1
  Fe  Fe1  1  0.00000000  0.50000000  0.50000000  1
  Fe  Fe2  1  0.67488200  0.17015800  0.83334200  1
  Fe  Fe3  1  0.67488200  0.66318400  0.83334200  1
  Fe  Fe4  1  0.32511800  0.82984200  0.16665800  1
  Fe  Fe5  1  0.32511800  0.33681600  0.16665800  1
  Bi  Bi6  1  0.46819000  0.24893000  0.49786100  1
  Bi  Bi7  1  0.53181000  0.75107000  0.50213900  1
  Bi  Bi8  1  0.21532600  0.41740400  0.83480700  1
  Bi  Bi9  1  0.78467400  0.58259600  0.16519300  1
  Bi  Bi10  1  0.20497500  0.91505100  0.83010200  1
  Bi  Bi11  1  0.79502500  0.08494900  0.16989800  1
  O  O12  1  0.58004200  0.38432500  0.76865000  1
  O  O13  1  0.41995800  0.61567500  0.23135000  1
  O  O14  1  0.00000000  0.28742400  0.00000000  1
  O  O15  1  0.00000000  0.71257600  0.00000000  1
  O  O16  1  0.76441200  0.04934600  0.63596900  1
  O  O17  1  0.76441200  0.58662300  0.63596900  1
  O  O18  1  0.23558800  0.95065400  0.36403100  1
  O  O19  1  0.23558800  0.41337700  0.36403100  1
  O  O20  1  0.70702000  0.94189500  0.30332800  1
  O  O21  1  0.70702000  0.36143300  0.30332800  1
  O  O22  1  0.29298000  0.05810500  0.69667200  1
  O  O23  1  0.29298000  0.63856700  0.69667200  1
  O  O24  1  0.50000000  0.32046800  0.00000000  1
  O  O25  1  0.50000000  0.67953200  0.00000000  1
  O  O26  1  0.63184700  0.94316300  0.88632600  1
  O  O27  1  0.36815300  0.05683700  0.11367400  1
  O  O28  1  0.08204800  0.26898800  0.53797600  1
  O  O29  1  0.91795200  0.73101200  0.46202400  1
