data_image0
_chemical_formula_structural       Cl6Sc2
_chemical_formula_sum              "Cl6 Sc2"
_cell_length_a       6.38658
_cell_length_b       6.38658
_cell_length_c       7.02834
_cell_angle_alpha    117.023
_cell_angle_beta     62.9772
_cell_angle_gamma    120

_space_group_name_H-M_alt    "P 1"
_space_group_IT_number       1

loop_
  _space_group_symop_operation_xyz
  'x, y, z'

loop_
  _atom_site_type_symbol
  _atom_site_label
  _atom_site_symmetry_multiplicity
  _atom_site_fract_x
  _atom_site_fract_y
  _atom_site_fract_z
  _atom_site_occupancy
  Cl  Cl1       1.0  0.28000  0.07940  0.23800  1.0000
  Cl  Cl2       1.0  0.92100  0.43900  0.23800  1.0000
  Cl  Cl3       1.0  0.56100  0.72000  0.23800  1.0000
  Cl  Cl4       1.0  0.43900  0.28000  0.76200  1.0000
  Cl  Cl5       1.0  0.07940  0.56100  0.76200  1.0000
  Cl  Cl6       1.0  0.72000  0.92100  0.76200  1.0000
  Sc  Sc1       1.0  0.33300  0.66700  0.00000  1.0000
  Sc  Sc2       1.0  0.66700  0.33300  0.00020  1.0000
