# generated using pymatgen
data_Yb6Cu23
_symmetry_space_group_name_H-M   'P 1'
_cell_length_a   8.52749848
_cell_length_b   8.52749848
_cell_length_c   8.52749848
_cell_angle_alpha   60.00000000
_cell_angle_beta   60.00000000
_cell_angle_gamma   60.00000000
_symmetry_Int_Tables_number   1
_chemical_formula_structural   Yb6Cu23
_chemical_formula_sum   'Yb6 Cu23'
_cell_volume   438.48016631
_cell_formula_units_Z   1
loop_
 _symmetry_equiv_pos_site_id
 _symmetry_equiv_pos_as_xyz
  1  'x, y, z'
loop_
 _atom_site_type_symbol
 _atom_site_label
 _atom_site_symmetry_multiplicity
 _atom_site_fract_x
 _atom_site_fract_y
 _atom_site_fract_z
 _atom_site_occupancy
  Yb  Yb0  1  0.71760400  0.71760400  0.28239600  1
  Yb  Yb1  1  0.28239600  0.71760400  0.28239600  1
  Yb  Yb2  1  0.71760400  0.28239600  0.28239600  1
  Yb  Yb3  1  0.28239600  0.28239600  0.71760400  1
  Yb  Yb4  1  0.71760400  0.28239600  0.71760400  1
  Yb  Yb5  1  0.28239600  0.71760400  0.71760400  1
  Cu  Cu6  1  0.00000000  0.00000000  0.00000000  1
  Cu  Cu7  1  0.00000000  0.00000000  0.50000000  1
  Cu  Cu8  1  0.50000000  0.00000000  0.50000000  1
  Cu  Cu9  1  0.00000000  0.50000000  0.50000000  1
  Cu  Cu10  1  0.50000000  0.50000000  0.00000000  1
  Cu  Cu11  1  0.00000000  0.50000000  0.00000000  1
  Cu  Cu12  1  0.50000000  0.00000000  0.00000000  1
  Cu  Cu13  1  0.87797500  0.87797500  0.36607400  1
  Cu  Cu14  1  0.87797500  0.36607400  0.87797500  1
  Cu  Cu15  1  0.36607400  0.87797500  0.87797500  1
  Cu  Cu16  1  0.87797500  0.87797500  0.87797500  1
  Cu  Cu17  1  0.12202500  0.12202500  0.63392600  1
  Cu  Cu18  1  0.12202500  0.63392600  0.12202500  1
  Cu  Cu19  1  0.63392600  0.12202500  0.12202500  1
  Cu  Cu20  1  0.12202500  0.12202500  0.12202500  1
  Cu  Cu21  1  0.67411400  0.67411400  0.97765800  1
  Cu  Cu22  1  0.67411400  0.97765800  0.67411400  1
  Cu  Cu23  1  0.97765800  0.67411400  0.67411400  1
  Cu  Cu24  1  0.67411400  0.67411400  0.67411400  1
  Cu  Cu25  1  0.32588600  0.32588600  0.02234200  1
  Cu  Cu26  1  0.32588600  0.02234200  0.32588600  1
  Cu  Cu27  1  0.02234200  0.32588600  0.32588600  1
  Cu  Cu28  1  0.32588600  0.32588600  0.32588600  1
