# generated using pymatgen
data_SnCS(NCl)2
_symmetry_space_group_name_H-M   'P 1'
_cell_length_a   6.98271930
_cell_length_b   8.34273847
_cell_length_c   15.76052900
_cell_angle_alpha   90.00000000
_cell_angle_beta   90.00000000
_cell_angle_gamma   126.10558130
_symmetry_Int_Tables_number   1
_chemical_formula_structural   SnCS(NCl)2
_chemical_formula_sum   'Sn4 C4 S4 N8 Cl8'
_cell_volume   741.78675416
_cell_formula_units_Z   4
loop_
 _symmetry_equiv_pos_site_id
 _symmetry_equiv_pos_as_xyz
  1  'x, y, z'
loop_
 _atom_site_type_symbol
 _atom_site_label
 _atom_site_symmetry_multiplicity
 _atom_site_fract_x
 _atom_site_fract_y
 _atom_site_fract_z
 _atom_site_occupancy
  Sn  Sn0  1  0.31346600  0.15759900  0.24105600  1
  Sn  Sn1  1  0.18653400  0.34240100  0.74105600  1
  Sn  Sn2  1  0.68653400  0.84240100  0.75894400  1
  Sn  Sn3  1  0.81346600  0.65759900  0.25894400  1
  C  C4  1  0.67180500  0.25720400  0.48217100  1
  C  C5  1  0.82819500  0.24279600  0.98217100  1
  C  C6  1  0.32819500  0.74279600  0.51782900  1
  C  C7  1  0.17180500  0.75720400  0.01782900  1
  S  S8  1  0.44908800  0.43361400  0.33779300  1
  S  S9  1  0.05091200  0.06638600  0.83779300  1
  S  S10  1  0.55091200  0.56638600  0.66220700  1
  S  S11  1  0.94908800  0.93361400  0.16220700  1
  N  N12  1  0.48991800  0.22068500  0.51556200  1
  N  N13  1  0.01008200  0.27931500  0.01556200  1
  N  N14  1  0.51008200  0.77931500  0.48443800  1
  N  N15  1  0.98991800  0.72068500  0.98443800  1
  N  N16  1  0.85337200  0.29233400  0.44904000  1
  N  N17  1  0.64662800  0.20766600  0.94904000  1
  N  N18  1  0.14662800  0.70766600  0.55096000  1
  N  N19  1  0.35337200  0.79233400  0.05096000  1
  Cl  Cl20  1  0.03582900  0.90742800  0.37564600  1
  Cl  Cl21  1  0.46417100  0.59257200  0.87564600  1
  Cl  Cl22  1  0.96417100  0.09257200  0.62435400  1
  Cl  Cl23  1  0.53582900  0.40742800  0.12435400  1
  Cl  Cl24  1  0.55326700  0.04677300  0.24823700  1
  Cl  Cl25  1  0.94673300  0.45322700  0.74823700  1
  Cl  Cl26  1  0.44673300  0.95322700  0.75176300  1
  Cl  Cl27  1  0.05326700  0.54677300  0.25176300  1
