# generated using pymatgen
data_Al(HO)3
_symmetry_space_group_name_H-M   'P 1'
_cell_length_a   5.01923700
_cell_length_b   5.03390200
_cell_length_c   7.04835500
_cell_angle_alpha   90.00000000
_cell_angle_beta   90.00000000
_cell_angle_gamma   90.00000000
_symmetry_Int_Tables_number   1
_chemical_formula_structural   Al(HO)3
_chemical_formula_sum   'Al4 H12 O12'
_cell_volume   178.08618443
_cell_formula_units_Z   4
loop_
 _symmetry_equiv_pos_site_id
 _symmetry_equiv_pos_as_xyz
  1  'x, y, z'
loop_
 _atom_site_type_symbol
 _atom_site_label
 _atom_site_symmetry_multiplicity
 _atom_site_fract_x
 _atom_site_fract_y
 _atom_site_fract_z
 _atom_site_occupancy
  Al  Al0  1  0.00000000  0.00000000  0.50000000  1
  Al  Al1  1  0.50000000  0.50000000  0.00000000  1
  Al  Al2  1  0.00000000  0.00000000  0.00000000  1
  Al  Al3  1  0.50000000  0.50000000  0.50000000  1
  H  H4  1  0.26343800  0.29378700  0.75000000  1
  H  H5  1  0.76343800  0.20621300  0.75000000  1
  H  H6  1  0.73656200  0.70621300  0.25000000  1
  H  H7  1  0.23656200  0.79378700  0.25000000  1
  H  H8  1  0.00000000  0.50000000  0.00000000  1
  H  H9  1  0.50000000  0.00000000  0.50000000  1
  H  H10  1  0.00000000  0.50000000  0.50000000  1
  H  H11  1  0.50000000  0.00000000  0.00000000  1
  H  H12  1  0.34862800  0.85274300  0.75000000  1
  H  H13  1  0.84862800  0.64725700  0.75000000  1
  H  H14  1  0.65137200  0.14725700  0.25000000  1
  H  H15  1  0.15137200  0.35274300  0.25000000  1
  O  O16  1  0.44261500  0.37616700  0.75000000  1
  O  O17  1  0.94261500  0.12383300  0.75000000  1
  O  O18  1  0.55738500  0.62383300  0.25000000  1
  O  O19  1  0.05738500  0.87616700  0.25000000  1
  O  O20  1  0.33830900  0.84864600  0.92656000  1
  O  O21  1  0.83830900  0.65135400  0.57344000  1
  O  O22  1  0.66169100  0.15135400  0.42656000  1
  O  O23  1  0.16169100  0.34864600  0.07344000  1
  O  O24  1  0.66169100  0.15135400  0.07344000  1
  O  O25  1  0.16169100  0.34864600  0.42656000  1
  O  O26  1  0.33830900  0.84864600  0.57344000  1
  O  O27  1  0.83830900  0.65135400  0.92656000  1
