# generated using pymatgen
data_Cd8Au5
_symmetry_space_group_name_H-M   'P 1'
_cell_length_a   8.79243723
_cell_length_b   8.79243723
_cell_length_c   8.79243723
_cell_angle_alpha   109.47122063
_cell_angle_beta   109.47122063
_cell_angle_gamma   109.47122063
_symmetry_Int_Tables_number   1
_chemical_formula_structural   Cd8Au5
_chemical_formula_sum   'Cd16 Au10'
_cell_volume   523.24602581
_cell_formula_units_Z   2
loop_
 _symmetry_equiv_pos_site_id
 _symmetry_equiv_pos_as_xyz
  1  'x, y, z'
loop_
 _atom_site_type_symbol
 _atom_site_label
 _atom_site_symmetry_multiplicity
 _atom_site_fract_x
 _atom_site_fract_y
 _atom_site_fract_z
 _atom_site_occupancy
  Cd  Cd0  1  0.21863000  0.00000000  0.00000000  1
  Cd  Cd1  1  0.00000000  0.21863000  0.00000000  1
  Cd  Cd2  1  0.00000000  0.00000000  0.21863000  1
  Cd  Cd3  1  0.78137000  0.78137000  0.78137000  1
  Cd  Cd4  1  0.35021100  0.72332500  0.00000000  1
  Cd  Cd5  1  0.62688600  0.27667500  0.27667500  1
  Cd  Cd6  1  0.35021100  0.00000000  0.72332500  1
  Cd  Cd7  1  0.72332500  0.35021100  0.00000000  1
  Cd  Cd8  1  0.00000000  0.35021100  0.72332500  1
  Cd  Cd9  1  0.27667500  0.62688600  0.27667500  1
  Cd  Cd10  1  0.27667500  0.27667500  0.62688600  1
  Cd  Cd11  1  0.00000000  0.72332500  0.35021100  1
  Cd  Cd12  1  0.72332500  0.00000000  0.35021100  1
  Cd  Cd13  1  0.64978900  0.64978900  0.37311400  1
  Cd  Cd14  1  0.37311400  0.64978900  0.64978900  1
  Cd  Cd15  1  0.64978900  0.37311400  0.64978900  1
  Au  Au16  1  0.65365900  0.00000000  0.00000000  1
  Au  Au17  1  0.00000000  0.65365900  0.00000000  1
  Au  Au18  1  0.00000000  0.00000000  0.65365900  1
  Au  Au19  1  0.34634100  0.34634100  0.34634100  1
  Au  Au20  1  0.00000000  0.64192600  0.64192600  1
  Au  Au21  1  0.35807400  0.00000000  0.35807400  1
  Au  Au22  1  0.35807400  0.35807400  0.00000000  1
  Au  Au23  1  0.00000000  0.35807400  0.35807400  1
  Au  Au24  1  0.64192600  0.00000000  0.64192600  1
  Au  Au25  1  0.64192600  0.64192600  0.00000000  1
