# generated using pymatgen
data_Rb2PtC4(N2Cl)2
_symmetry_space_group_name_H-M   'P 1'
_cell_length_a   7.10834100
_cell_length_b   9.60165931
_cell_length_c   9.97968424
_cell_angle_alpha   89.07091551
_cell_angle_beta   104.16034105
_cell_angle_gamma   107.40529794
_symmetry_Int_Tables_number   1
_chemical_formula_structural   Rb2PtC4(N2Cl)2
_chemical_formula_sum   'Rb4 Pt2 C8 N8 Cl4'
_cell_volume   629.00073653
_cell_formula_units_Z   2
loop_
 _symmetry_equiv_pos_site_id
 _symmetry_equiv_pos_as_xyz
  1  'x, y, z'
loop_
 _atom_site_type_symbol
 _atom_site_label
 _atom_site_symmetry_multiplicity
 _atom_site_fract_x
 _atom_site_fract_y
 _atom_site_fract_z
 _atom_site_occupancy
  Rb  Rb0  1  0.12698300  0.82417000  0.43171100  1
  Rb  Rb1  1  0.87301700  0.17583000  0.56828900  1
  Rb  Rb2  1  0.28832500  0.65594100  0.95190100  1
  Rb  Rb3  1  0.71167500  0.34405900  0.04809900  1
  Pt  Pt4  1  0.00000000  0.00000000  0.00000000  1
  Pt  Pt5  1  0.50000000  0.50000000  0.50000000  1
  C  C6  1  0.93568600  0.07385500  0.16658500  1
  C  C7  1  0.06431400  0.92614500  0.83341500  1
  C  C8  1  0.85131500  0.79511800  0.03850200  1
  C  C9  1  0.14868500  0.20488200  0.96149800  1
  C  C10  1  0.70844200  0.49874000  0.67820200  1
  C  C11  1  0.29155800  0.50126000  0.32179800  1
  C  C12  1  0.60338300  0.71951400  0.49366400  1
  C  C13  1  0.39661700  0.28048600  0.50633600  1
  N  N14  1  0.89474000  0.11591800  0.26181000  1
  N  N15  1  0.10526000  0.88408200  0.73819000  1
  N  N16  1  0.76161400  0.67738200  0.06145300  1
  N  N17  1  0.23838600  0.32261800  0.93854700  1
  N  N18  1  0.82823900  0.49044300  0.77939300  1
  N  N19  1  0.17176100  0.50955700  0.22060700  1
  N  N20  1  0.65609100  0.84639200  0.48625800  1
  N  N21  1  0.34390900  0.15360800  0.51374200  1
  Cl  Cl22  1  0.68874200  0.02104200  0.86110700  1
  Cl  Cl23  1  0.31125800  0.97895800  0.13889300  1
  Cl  Cl24  1  0.73571900  0.47195000  0.37947400  1
  Cl  Cl25  1  0.26428100  0.52805000  0.62052600  1
