# generated using pymatgen
data_Tm2S3
_symmetry_space_group_name_H-M   'P 1'
_cell_length_a   6.81010258
_cell_length_b   6.81010258
_cell_length_c   18.55582200
_cell_angle_alpha   90.00000000
_cell_angle_beta   90.00000000
_cell_angle_gamma   120.00000560
_symmetry_Int_Tables_number   1
_chemical_formula_structural   Tm2S3
_chemical_formula_sum   'Tm12 S18'
_cell_volume   745.27767491
_cell_formula_units_Z   6
loop_
 _symmetry_equiv_pos_site_id
 _symmetry_equiv_pos_as_xyz
  1  'x, y, z'
loop_
 _atom_site_type_symbol
 _atom_site_label
 _atom_site_symmetry_multiplicity
 _atom_site_fract_x
 _atom_site_fract_y
 _atom_site_fract_z
 _atom_site_occupancy
  Tm  Tm0  1  0.00000000  0.00000000  0.45513800  1
  Tm  Tm1  1  0.00000000  0.00000000  0.95513800  1
  Tm  Tm2  1  0.00000000  0.00000000  0.15746000  1
  Tm  Tm3  1  0.00000000  0.00000000  0.65746000  1
  Tm  Tm4  1  0.66666700  0.33333300  0.49105800  1
  Tm  Tm5  1  0.33333300  0.66666700  0.49105800  1
  Tm  Tm6  1  0.33333300  0.66666700  0.99105800  1
  Tm  Tm7  1  0.66666700  0.33333300  0.99105800  1
  Tm  Tm8  1  0.66666700  0.33333300  0.29226100  1
  Tm  Tm9  1  0.33333300  0.66666700  0.29226100  1
  Tm  Tm10  1  0.33333300  0.66666700  0.79226100  1
  Tm  Tm11  1  0.66666700  0.33333300  0.79226100  1
  S  S12  1  0.63129400  0.00000000  0.39519500  1
  S  S13  1  0.36870600  0.36870600  0.39519500  1
  S  S14  1  0.00000000  0.63129400  0.39519500  1
  S  S15  1  0.36870600  0.00000000  0.89519500  1
  S  S16  1  0.63129400  0.63129400  0.89519500  1
  S  S17  1  0.00000000  0.36870600  0.89519500  1
  S  S18  1  0.69965800  0.00000000  0.05206700  1
  S  S19  1  0.30034200  0.30034200  0.05206700  1
  S  S20  1  0.00000000  0.69965800  0.05206700  1
  S  S21  1  0.30034200  0.00000000  0.55206700  1
  S  S22  1  0.69965800  0.69965800  0.55206700  1
  S  S23  1  0.00000000  0.30034200  0.55206700  1
  S  S24  1  0.33943300  0.00000000  0.22399000  1
  S  S25  1  0.66056700  0.66056700  0.22399000  1
  S  S26  1  0.00000000  0.33943300  0.22399000  1
  S  S27  1  0.66056700  0.00000000  0.72399000  1
  S  S28  1  0.33943300  0.33943300  0.72399000  1
  S  S29  1  0.00000000  0.66056700  0.72399000  1
