# generated using pymatgen
data_RbMnCl3O2
_symmetry_space_group_name_H-M   'P 1'
_cell_length_a   7.05034400
_cell_length_b   9.29169000
_cell_length_c   11.13483200
_cell_angle_alpha   90.00000000
_cell_angle_beta   90.00000000
_cell_angle_gamma   90.00000000
_symmetry_Int_Tables_number   1
_chemical_formula_structural   RbMnCl3O2
_chemical_formula_sum   'Rb4 Mn4 Cl12 O8'
_cell_volume   729.43851110
_cell_formula_units_Z   4
loop_
 _symmetry_equiv_pos_site_id
 _symmetry_equiv_pos_as_xyz
  1  'x, y, z'
loop_
 _atom_site_type_symbol
 _atom_site_label
 _atom_site_symmetry_multiplicity
 _atom_site_fract_x
 _atom_site_fract_y
 _atom_site_fract_z
 _atom_site_occupancy
  Rb  Rb0  1  0.00000000  0.75000000  0.63598700  1
  Rb  Rb1  1  0.00000000  0.25000000  0.86401300  1
  Rb  Rb2  1  0.00000000  0.25000000  0.36401300  1
  Rb  Rb3  1  0.00000000  0.75000000  0.13598700  1
  Mn  Mn4  1  0.55869500  0.50000000  0.75000000  1
  Mn  Mn5  1  0.44130500  0.00000000  0.75000000  1
  Mn  Mn6  1  0.44130500  0.50000000  0.25000000  1
  Mn  Mn7  1  0.55869500  0.00000000  0.25000000  1
  Cl  Cl8  1  0.77241300  0.57863000  0.89280200  1
  Cl  Cl9  1  0.22758700  0.92137000  0.89280200  1
  Cl  Cl10  1  0.22758700  0.07863000  0.60719800  1
  Cl  Cl11  1  0.77241300  0.42137000  0.60719800  1
  Cl  Cl12  1  0.22758700  0.42137000  0.10719800  1
  Cl  Cl13  1  0.77241300  0.07863000  0.10719800  1
  Cl  Cl14  1  0.77241300  0.92137000  0.39280200  1
  Cl  Cl15  1  0.22758700  0.57863000  0.39280200  1
  Cl  Cl16  1  0.50000000  0.75000000  0.65199300  1
  Cl  Cl17  1  0.50000000  0.25000000  0.84800700  1
  Cl  Cl18  1  0.50000000  0.25000000  0.34800700  1
  Cl  Cl19  1  0.50000000  0.75000000  0.15199300  1
  O  O20  1  0.27918000  0.52935100  0.80321700  1
  O  O21  1  0.72082000  0.97064900  0.80321700  1
  O  O22  1  0.72082000  0.02935100  0.69678300  1
  O  O23  1  0.27918000  0.47064900  0.69678300  1
  O  O24  1  0.72082000  0.47064900  0.19678300  1
  O  O25  1  0.27918000  0.02935100  0.19678300  1
  O  O26  1  0.27918000  0.97064900  0.30321700  1
  O  O27  1  0.72082000  0.52935100  0.30321700  1
