# generated using pymatgen
data_K2PtC4(N2Cl)2
_symmetry_space_group_name_H-M   'P 1'
_cell_length_a   9.34113200
_cell_length_b   7.21300000
_cell_length_c   8.66528607
_cell_angle_alpha   73.49324316
_cell_angle_beta   90.00000000
_cell_angle_gamma   90.00000000
_symmetry_Int_Tables_number   1
_chemical_formula_structural   K2PtC4(N2Cl)2
_chemical_formula_sum   'K4 Pt2 C8 N8 Cl4'
_cell_volume   559.78355542
_cell_formula_units_Z   2
loop_
 _symmetry_equiv_pos_site_id
 _symmetry_equiv_pos_as_xyz
  1  'x, y, z'
loop_
 _atom_site_type_symbol
 _atom_site_label
 _atom_site_symmetry_multiplicity
 _atom_site_fract_x
 _atom_site_fract_y
 _atom_site_fract_z
 _atom_site_occupancy
  K  K0  1  0.77869900  0.48838400  0.62406500  1
  K  K1  1  0.27869900  0.51161600  0.87593500  1
  K  K2  1  0.22130100  0.51161600  0.37593500  1
  K  K3  1  0.72130100  0.48838400  0.12406500  1
  Pt  Pt4  1  0.00000000  0.00000000  0.00000000  1
  Pt  Pt5  1  0.50000000  0.00000000  0.50000000  1
  C  C6  1  0.96003100  0.79855900  0.88421200  1
  C  C7  1  0.46003100  0.20144100  0.61578800  1
  C  C8  1  0.03996900  0.20144100  0.11578800  1
  C  C9  1  0.53996900  0.79855900  0.38421200  1
  C  C10  1  0.95009100  0.80705400  0.21198300  1
  C  C11  1  0.45009100  0.19294600  0.28801700  1
  C  C12  1  0.04990900  0.19294600  0.78801700  1
  C  C13  1  0.54990900  0.80705400  0.71198300  1
  N  N14  1  0.93831400  0.67439100  0.82504600  1
  N  N15  1  0.43831400  0.32560900  0.67495400  1
  N  N16  1  0.06168600  0.32560900  0.17495400  1
  N  N17  1  0.56168600  0.67439100  0.32504600  1
  N  N18  1  0.92332000  0.68607100  0.33062400  1
  N  N19  1  0.42332000  0.31392900  0.16937600  1
  N  N20  1  0.07668000  0.31392900  0.66937600  1
  N  N21  1  0.57668000  0.68607100  0.83062400  1
  Cl  Cl22  1  0.24060200  0.89092800  0.03536000  1
  Cl  Cl23  1  0.74060200  0.10907200  0.46464000  1
  Cl  Cl24  1  0.75939800  0.10907200  0.96464000  1
  Cl  Cl25  1  0.25939800  0.89092800  0.53536000  1
