# generated using pymatgen
data_ZnC2N6(ClO)2
_symmetry_space_group_name_H-M   'P 1'
_cell_length_a   8.46814100
_cell_length_b   6.16701900
_cell_length_c   12.63209875
_cell_angle_alpha   71.87610728
_cell_angle_beta   90.00000000
_cell_angle_gamma   90.00000000
_symmetry_Int_Tables_number   1
_chemical_formula_structural   ZnC2N6(ClO)2
_chemical_formula_sum   'Zn2 C4 N12 Cl4 O4'
_cell_volume   626.95872803
_cell_formula_units_Z   2
loop_
 _symmetry_equiv_pos_site_id
 _symmetry_equiv_pos_as_xyz
  1  'x, y, z'
loop_
 _atom_site_type_symbol
 _atom_site_label
 _atom_site_symmetry_multiplicity
 _atom_site_fract_x
 _atom_site_fract_y
 _atom_site_fract_z
 _atom_site_occupancy
  Zn  Zn0  1  0.00000000  0.00000000  0.00000000  1
  Zn  Zn1  1  0.50000000  0.00000000  0.50000000  1
  C  C2  1  0.69523400  0.09323200  0.16340600  1
  C  C3  1  0.19523400  0.90676800  0.33659400  1
  C  C4  1  0.30476600  0.90676800  0.83659400  1
  C  C5  1  0.80476600  0.09323200  0.66340600  1
  N  N6  1  0.60994600  0.64876000  0.05642300  1
  N  N7  1  0.10994600  0.35124000  0.44357700  1
  N  N8  1  0.39005400  0.35124000  0.94357700  1
  N  N9  1  0.89005400  0.64876000  0.55642300  1
  N  N10  1  0.73428200  0.69492900  0.03049000  1
  N  N11  1  0.23428200  0.30507100  0.46951000  1
  N  N12  1  0.26571800  0.30507100  0.96951000  1
  N  N13  1  0.76571800  0.69492900  0.53049000  1
  N  N14  1  0.56210200  0.06038300  0.20281100  1
  N  N15  1  0.06210200  0.93961700  0.29718900  1
  N  N16  1  0.43789800  0.93961700  0.79718900  1
  N  N17  1  0.93789800  0.06038300  0.70281100  1
  Cl  Cl18  1  0.12319600  0.76432100  0.13818800  1
  Cl  Cl19  1  0.62319600  0.23567900  0.36181200  1
  Cl  Cl20  1  0.87680400  0.23567900  0.86181200  1
  Cl  Cl21  1  0.37680400  0.76432100  0.63818800  1
  O  O22  1  0.82261900  0.12764200  0.11932400  1
  O  O23  1  0.32261900  0.87235800  0.38067600  1
  O  O24  1  0.17738100  0.87235800  0.88067600  1
  O  O25  1  0.67738100  0.12764200  0.61932400  1
