# generated using pymatgen
data_YI3O11
_symmetry_space_group_name_H-M   'P 1'
_cell_length_a   7.24074600
_cell_length_b   7.54620065
_cell_length_c   9.58653630
_cell_angle_alpha   81.03795171
_cell_angle_beta   86.41124393
_cell_angle_gamma   70.54634426
_symmetry_Int_Tables_number   1
_chemical_formula_structural   YI3O11
_chemical_formula_sum   'Y2 I6 O22'
_cell_volume   487.84384813
_cell_formula_units_Z   2
loop_
 _symmetry_equiv_pos_site_id
 _symmetry_equiv_pos_as_xyz
  1  'x, y, z'
loop_
 _atom_site_type_symbol
 _atom_site_label
 _atom_site_symmetry_multiplicity
 _atom_site_fract_x
 _atom_site_fract_y
 _atom_site_fract_z
 _atom_site_occupancy
  Y  Y0  1  0.73888000  0.65995200  0.16733600  1
  Y  Y1  1  0.26112000  0.34004800  0.83266400  1
  I  I2  1  0.67572800  0.25490000  0.48299900  1
  I  I3  1  0.32427200  0.74510000  0.51700100  1
  I  I4  1  0.73671000  0.40042000  0.85377600  1
  I  I5  1  0.26329000  0.59958000  0.14622400  1
  I  I6  1  0.11849300  0.14391400  0.20077900  1
  I  I7  1  0.88150700  0.85608600  0.79922100  1
  O  O8  1  0.59774700  0.48840600  0.35660400  1
  O  O9  1  0.40225300  0.51159400  0.64339600  1
  O  O10  1  0.83905400  0.10771900  0.36126400  1
  O  O11  1  0.16094600  0.89228100  0.63873600  1
  O  O12  1  0.84120500  0.30762200  0.59188600  1
  O  O13  1  0.15879500  0.69237800  0.40811400  1
  O  O14  1  0.60670600  0.22764100  0.85913900  1
  O  O15  1  0.39329400  0.77235900  0.14086100  1
  O  O16  1  0.98823500  0.23124300  0.87286900  1
  O  O17  1  0.01176500  0.76875700  0.12713100  1
  O  O18  1  0.71276100  0.42745000  0.04283200  1
  O  O19  1  0.28723900  0.57255000  0.95716800  1
  O  O20  1  0.29048200  0.05008400  0.34713100  1
  O  O21  1  0.70951800  0.94991600  0.65286900  1
  O  O22  1  0.02178600  0.39653100  0.22888400  1
  O  O23  1  0.97821400  0.60346900  0.77111600  1
  O  O24  1  0.29475200  0.18911300  0.06401900  1
  O  O25  1  0.70524800  0.81088700  0.93598100  1
  O  O26  1  0.73488100  0.70742800  0.40470300  1
  O  O27  1  0.26511900  0.29257200  0.59529700  1
  O  O28  1  0.63462900  0.99755600  0.20077300  1
  O  O29  1  0.36537100  0.00244400  0.79922700  1
