# generated using pymatgen
data_Zr21S8
_symmetry_space_group_name_H-M   'P 1'
_cell_length_a   13.47370799
_cell_length_b   13.47370799
_cell_length_c   13.47370799
_cell_angle_alpha   90.81224488
_cell_angle_beta   90.81224488
_cell_angle_gamma   166.32400328
_symmetry_Int_Tables_number   1
_chemical_formula_structural   Zr21S8
_chemical_formula_sum   'Zr21 S8'
_cell_volume   574.20336270
_cell_formula_units_Z   1
loop_
 _symmetry_equiv_pos_site_id
 _symmetry_equiv_pos_as_xyz
  1  'x, y, z'
loop_
 _atom_site_type_symbol
 _atom_site_label
 _atom_site_symmetry_multiplicity
 _atom_site_fract_x
 _atom_site_fract_y
 _atom_site_fract_z
 _atom_site_occupancy
  Zr  Zr0  1  0.00000000  0.00000000  0.00000000  1
  Zr  Zr1  1  0.55032800  0.91481700  0.46514500  1
  Zr  Zr2  1  0.44967200  0.08518200  0.53485500  1
  Zr  Zr3  1  0.08518300  0.55032800  0.63551000  1
  Zr  Zr4  1  0.91481700  0.44967200  0.36449000  1
  Zr  Zr5  1  0.97317500  0.73093300  0.70410800  1
  Zr  Zr6  1  0.02682500  0.26906700  0.29589200  1
  Zr  Zr7  1  0.26906700  0.97317500  0.24224200  1
  Zr  Zr8  1  0.73093300  0.02682500  0.75775800  1
  Zr  Zr9  1  0.80833300  0.61248000  0.42081300  1
  Zr  Zr10  1  0.19166700  0.38752000  0.57918700  1
  Zr  Zr11  1  0.38752000  0.80833300  0.19585300  1
  Zr  Zr12  1  0.61248000  0.19166700  0.80414700  1
  Zr  Zr13  1  0.80632000  0.80633200  0.61265200  1
  Zr  Zr14  1  0.19368000  0.19366800  0.38734800  1
  Zr  Zr15  1  0.19366800  0.80632000  0.99998800  1
  Zr  Zr16  1  0.80633200  0.19368000  0.00001200  1
  Zr  Zr17  1  0.63241000  0.54645300  0.17886300  1
  Zr  Zr18  1  0.36759000  0.45354700  0.82113700  1
  Zr  Zr19  1  0.45354700  0.63241000  0.08595700  1
  Zr  Zr20  1  0.54645300  0.36759000  0.91404300  1
  S  S21  1  0.93444800  0.86467900  0.79912700  1
  S  S22  1  0.06555200  0.13532100  0.20087300  1
  S  S23  1  0.13532100  0.93444800  0.06977000  1
  S  S24  1  0.86467900  0.06555200  0.93023000  1
  S  S25  1  0.63759300  0.79330000  0.43089300  1
  S  S26  1  0.36240700  0.20670000  0.56910700  1
  S  S27  1  0.20670000  0.63759300  0.84429300  1
  S  S28  1  0.79330000  0.36240700  0.15570700  1
