# generated using pymatgen
data_RbTeOF4
_symmetry_space_group_name_H-M   'P 1'
_cell_length_a   8.51839259
_cell_length_b   8.51839259
_cell_length_c   14.13179812
_cell_angle_alpha   85.36864814
_cell_angle_beta   85.36864814
_cell_angle_gamma   33.06813283
_symmetry_Int_Tables_number   1
_chemical_formula_structural   RbTeOF4
_chemical_formula_sum   'Rb4 Te4 O4 F16'
_cell_volume   557.53190732
_cell_formula_units_Z   4
loop_
 _symmetry_equiv_pos_site_id
 _symmetry_equiv_pos_as_xyz
  1  'x, y, z'
loop_
 _atom_site_type_symbol
 _atom_site_label
 _atom_site_symmetry_multiplicity
 _atom_site_fract_x
 _atom_site_fract_y
 _atom_site_fract_z
 _atom_site_occupancy
  Rb  Rb0  1  0.16200200  0.35798600  0.49180500  1
  Rb  Rb1  1  0.35798600  0.16200200  0.99180500  1
  Rb  Rb2  1  0.47235200  0.64178800  0.25213700  1
  Rb  Rb3  1  0.64178800  0.47235200  0.75213700  1
  Te  Te4  1  0.97055900  0.02629200  0.50308300  1
  Te  Te5  1  0.02629200  0.97055900  0.00308300  1
  Te  Te6  1  0.79130900  0.84868100  0.24281300  1
  Te  Te7  1  0.84868100  0.79130900  0.74281300  1
  O  O8  1  0.91292900  0.53024700  0.27111000  1
  O  O9  1  0.53024700  0.91292900  0.77111000  1
  O  O10  1  0.28979200  0.90157200  0.46723800  1
  O  O11  1  0.90157200  0.28979200  0.96723800  1
  F  F12  1  0.43993700  0.01333600  0.21587200  1
  F  F13  1  0.01333600  0.43993700  0.71587200  1
  F  F14  1  0.69056700  0.91785200  0.38419200  1
  F  F15  1  0.91785200  0.69056700  0.88419200  1
  F  F16  1  0.92009200  0.71050900  0.10612200  1
  F  F17  1  0.71050900  0.92009200  0.60612200  1
  F  F18  1  0.20711000  0.54060600  0.27042500  1
  F  F19  1  0.54060600  0.20711000  0.77042500  1
  F  F20  1  0.90183000  0.11632800  0.13790000  1
  F  F21  1  0.11632800  0.90183000  0.63790000  1
  F  F22  1  0.26895400  0.60920700  0.48323500  1
  F  F23  1  0.60920700  0.26895400  0.98323500  1
  F  F24  1  0.91543300  0.11806700  0.36036900  1
  F  F25  1  0.11806700  0.91543300  0.86036900  1
  F  F26  1  0.39426500  0.78209800  0.02900900  1
  F  F27  1  0.78209800  0.39426500  0.52900900  1
