# generated using pymatgen
data_Ti6Ga16Rh7
_symmetry_space_group_name_H-M   'P 1'
_cell_length_a   8.63692608
_cell_length_b   8.63692608
_cell_length_c   8.63692608
_cell_angle_alpha   60.00000000
_cell_angle_beta   60.00000000
_cell_angle_gamma   60.00000000
_symmetry_Int_Tables_number   1
_chemical_formula_structural   Ti6Ga16Rh7
_chemical_formula_sum   'Ti6 Ga16 Rh7'
_cell_volume   455.57785995
_cell_formula_units_Z   1
loop_
 _symmetry_equiv_pos_site_id
 _symmetry_equiv_pos_as_xyz
  1  'x, y, z'
loop_
 _atom_site_type_symbol
 _atom_site_label
 _atom_site_symmetry_multiplicity
 _atom_site_fract_x
 _atom_site_fract_y
 _atom_site_fract_z
 _atom_site_occupancy
  Ti  Ti0  1  0.68885300  0.31114700  0.31114700  1
  Ti  Ti1  1  0.68885300  0.31114700  0.68885300  1
  Ti  Ti2  1  0.68885300  0.68885300  0.31114700  1
  Ti  Ti3  1  0.31114700  0.68885300  0.68885300  1
  Ti  Ti4  1  0.31114700  0.68885300  0.31114700  1
  Ti  Ti5  1  0.31114700  0.31114700  0.68885300  1
  Ga  Ga6  1  0.63251500  0.12249500  0.12249500  1
  Ga  Ga7  1  0.12249500  0.63251500  0.12249500  1
  Ga  Ga8  1  0.12249500  0.12249500  0.63251500  1
  Ga  Ga9  1  0.12249500  0.12249500  0.12249500  1
  Ga  Ga10  1  0.36748500  0.87750500  0.87750500  1
  Ga  Ga11  1  0.87750500  0.36748500  0.87750500  1
  Ga  Ga12  1  0.87750500  0.87750500  0.36748500  1
  Ga  Ga13  1  0.87750500  0.87750500  0.87750500  1
  Ga  Ga14  1  0.95219600  0.34926800  0.34926800  1
  Ga  Ga15  1  0.34926800  0.95219600  0.34926800  1
  Ga  Ga16  1  0.34926800  0.34926800  0.95219600  1
  Ga  Ga17  1  0.34926800  0.34926800  0.34926800  1
  Ga  Ga18  1  0.04780400  0.65073200  0.65073200  1
  Ga  Ga19  1  0.65073200  0.04780400  0.65073200  1
  Ga  Ga20  1  0.65073200  0.65073200  0.04780400  1
  Ga  Ga21  1  0.65073200  0.65073200  0.65073200  1
  Rh  Rh22  1  0.00000000  0.00000000  0.00000000  1
  Rh  Rh23  1  0.50000000  0.00000000  0.00000000  1
  Rh  Rh24  1  0.50000000  0.00000000  0.50000000  1
  Rh  Rh25  1  0.50000000  0.50000000  0.00000000  1
  Rh  Rh26  1  0.00000000  0.50000000  0.50000000  1
  Rh  Rh27  1  0.00000000  0.50000000  0.00000000  1
  Rh  Rh28  1  0.00000000  0.00000000  0.50000000  1
