# generated using pymatgen
data_K3Lu(PO4)2
_symmetry_space_group_name_H-M   'P 1'
_cell_length_a   5.65468600
_cell_length_b   7.51164600
_cell_length_c   9.35803598
_cell_angle_alpha   88.60816513
_cell_angle_beta   90.00000000
_cell_angle_gamma   90.00000000
_symmetry_Int_Tables_number   1
_chemical_formula_structural   K3Lu(PO4)2
_chemical_formula_sum   'K6 Lu2 P4 O16'
_cell_volume   397.37465597
_cell_formula_units_Z   2
loop_
 _symmetry_equiv_pos_site_id
 _symmetry_equiv_pos_as_xyz
  1  'x, y, z'
loop_
 _atom_site_type_symbol
 _atom_site_label
 _atom_site_symmetry_multiplicity
 _atom_site_fract_x
 _atom_site_fract_y
 _atom_site_fract_z
 _atom_site_occupancy
  K  K0  1  0.25000000  0.20483200  0.91965300  1
  K  K1  1  0.75000000  0.79516800  0.08034700  1
  K  K2  1  0.25000000  0.63863000  0.58577700  1
  K  K3  1  0.75000000  0.36137000  0.41422300  1
  K  K4  1  0.25000000  0.49741100  0.19167200  1
  K  K5  1  0.75000000  0.50258900  0.80832800  1
  Lu  Lu6  1  0.25000000  0.99094200  0.28556000  1
  Lu  Lu7  1  0.75000000  0.00905800  0.71444000  1
  P  P8  1  0.25000000  0.18123000  0.57125500  1
  P  P9  1  0.75000000  0.81877000  0.42874500  1
  P  P10  1  0.75000000  0.22369400  0.09323500  1
  P  P11  1  0.25000000  0.77630600  0.90676500  1
  O  O12  1  0.25000000  0.98368800  0.52781300  1
  O  O13  1  0.75000000  0.01631200  0.47218700  1
  O  O14  1  0.25000000  0.29144300  0.42827900  1
  O  O15  1  0.75000000  0.70855700  0.57172100  1
  O  O16  1  0.02564900  0.22451600  0.66198500  1
  O  O17  1  0.52564900  0.77548400  0.33801500  1
  O  O18  1  0.97435100  0.77548400  0.33801500  1
  O  O19  1  0.47435100  0.22451600  0.66198500  1
  O  O20  1  0.97479300  0.14647500  0.16976100  1
  O  O21  1  0.47479300  0.85352500  0.83023900  1
  O  O22  1  0.02520700  0.85352500  0.83023900  1
  O  O23  1  0.52520700  0.14647500  0.16976100  1
  O  O24  1  0.75000000  0.16686000  0.93408800  1
  O  O25  1  0.25000000  0.83314000  0.06591200  1
  O  O26  1  0.75000000  0.42850300  0.10395100  1
  O  O27  1  0.25000000  0.57149700  0.89604900  1
