# generated using pymatgen
data_HgN6
_symmetry_space_group_name_H-M   'P 1'
_cell_length_a   6.47243500
_cell_length_b   8.07354400
_cell_length_c   10.73152928
_cell_angle_alpha   112.09603153
_cell_angle_beta   107.55142542
_cell_angle_gamma   90.00000000
_symmetry_Int_Tables_number   1
_chemical_formula_structural   HgN6
_chemical_formula_sum   'Hg4 N24'
_cell_volume   491.30464216
_cell_formula_units_Z   4
loop_
 _symmetry_equiv_pos_site_id
 _symmetry_equiv_pos_as_xyz
  1  'x, y, z'
loop_
 _atom_site_type_symbol
 _atom_site_label
 _atom_site_symmetry_multiplicity
 _atom_site_fract_x
 _atom_site_fract_y
 _atom_site_fract_z
 _atom_site_occupancy
  Hg  Hg0  1  0.40806300  0.06572600  0.80898200  1
  Hg  Hg1  1  0.59908100  0.93427400  0.19101800  1
  Hg  Hg2  1  0.90806300  0.74325600  0.80898200  1
  Hg  Hg3  1  0.09908100  0.25674400  0.19101800  1
  N  N4  1  0.73928200  0.17156200  0.91543600  1
  N  N5  1  0.82384700  0.82843800  0.08456400  1
  N  N6  1  0.23928200  0.74387300  0.91543600  1
  N  N7  1  0.32384700  0.25612700  0.08456400  1
  N  N8  1  0.80443400  0.26829200  0.86652600  1
  N  N9  1  0.93790800  0.73170800  0.13347400  1
  N  N10  1  0.30443400  0.59823400  0.86652600  1
  N  N11  1  0.43790800  0.40176600  0.13347400  1
  N  N12  1  0.88085000  0.36012600  0.82728300  1
  N  N13  1  0.05356700  0.63987400  0.17271700  1
  N  N14  1  0.38085000  0.46715700  0.82728300  1
  N  N15  1  0.55356700  0.53284300  0.17271700  1
  N  N16  1  0.07797400  0.96395300  0.70371900  1
  N  N17  1  0.37425500  0.03604700  0.29628100  1
  N  N18  1  0.57797400  0.73976600  0.70371900  1
  N  N19  1  0.87425500  0.26023400  0.29628100  1
  N  N20  1  0.99441200  0.95667800  0.58334100  1
  N  N21  1  0.41107100  0.04332200  0.41665900  1
  N  N22  1  0.49441200  0.62666300  0.58334100  1
  N  N23  1  0.91107100  0.37333700  0.41665900  1
  N  N24  1  0.89994800  0.94346800  0.46903800  1
  N  N25  1  0.43091000  0.05653200  0.53096200  1
  N  N26  1  0.39994800  0.52557000  0.46903800  1
  N  N27  1  0.93091000  0.47443000  0.53096200  1
