# generated using pymatgen
data_Tl2CrO4
_symmetry_space_group_name_H-M   'P 1'
_cell_length_a   7.15464273
_cell_length_b   7.15464273
_cell_length_c   15.01384477
_cell_angle_alpha   68.76875399
_cell_angle_beta   68.76875399
_cell_angle_gamma   48.88732500
_symmetry_Int_Tables_number   1
_chemical_formula_structural   Tl2CrO4
_chemical_formula_sum   'Tl8 Cr4 O16'
_cell_volume   531.25045115
_cell_formula_units_Z   4
loop_
 _symmetry_equiv_pos_site_id
 _symmetry_equiv_pos_as_xyz
  1  'x, y, z'
loop_
 _atom_site_type_symbol
 _atom_site_label
 _atom_site_symmetry_multiplicity
 _atom_site_fract_x
 _atom_site_fract_y
 _atom_site_fract_z
 _atom_site_occupancy
  Tl  Tl0  1  0.37908300  0.37908300  0.63121600  1
  Tl  Tl1  1  0.62091700  0.62091700  0.36878400  1
  Tl  Tl2  1  0.07816400  0.07816400  0.61440000  1
  Tl  Tl3  1  0.92183600  0.92183600  0.38560000  1
  Tl  Tl4  1  0.18410900  0.18410900  0.88598500  1
  Tl  Tl5  1  0.81589100  0.81589100  0.11401500  1
  Tl  Tl6  1  0.50504800  0.50504800  0.86760500  1
  Tl  Tl7  1  0.49495200  0.49495200  0.13239500  1
  Cr  Cr8  1  0.72352000  0.72352000  0.63863000  1
  Cr  Cr9  1  0.27648000  0.27648000  0.36137000  1
  Cr  Cr10  1  0.85906700  0.85906700  0.85886800  1
  Cr  Cr11  1  0.14093300  0.14093300  0.14113200  1
  O  O12  1  0.67197400  0.67197400  0.55341100  1
  O  O13  1  0.32802600  0.32802600  0.44658900  1
  O  O14  1  0.86317900  0.86317900  0.58637300  1
  O  O15  1  0.13682100  0.13682100  0.41362700  1
  O  O16  1  0.44667700  0.90997100  0.70797900  1
  O  O17  1  0.90997100  0.44667700  0.70797900  1
  O  O18  1  0.55332300  0.09002900  0.29202100  1
  O  O19  1  0.09002900  0.55332300  0.29202100  1
  O  O20  1  0.93946400  0.93946400  0.92268500  1
  O  O21  1  0.06053600  0.06053600  0.07731500  1
  O  O22  1  0.72495900  0.72495900  0.93469500  1
  O  O23  1  0.27504100  0.27504100  0.06530500  1
  O  O24  1  0.65496100  0.12260500  0.78996000  1
  O  O25  1  0.12260500  0.65496100  0.78996000  1
  O  O26  1  0.34503900  0.87739500  0.21004000  1
  O  O27  1  0.87739500  0.34503900  0.21004000  1
