# generated using pymatgen
data_Zr3Fe3C
_symmetry_space_group_name_H-M   'P 1'
_cell_length_a   8.37019267
_cell_length_b   8.37019267
_cell_length_c   8.37019267
_cell_angle_alpha   60.00000000
_cell_angle_beta   60.00000000
_cell_angle_gamma   60.00000000
_symmetry_Int_Tables_number   1
_chemical_formula_structural   Zr3Fe3C
_chemical_formula_sum   'Zr12 Fe12 C4'
_cell_volume   414.65925945
_cell_formula_units_Z   4
loop_
 _symmetry_equiv_pos_site_id
 _symmetry_equiv_pos_as_xyz
  1  'x, y, z'
loop_
 _atom_site_type_symbol
 _atom_site_label
 _atom_site_symmetry_multiplicity
 _atom_site_fract_x
 _atom_site_fract_y
 _atom_site_fract_z
 _atom_site_occupancy
  Zr  Zr0  1  0.79884300  0.79884300  0.20115700  1
  Zr  Zr1  1  0.20115700  0.20115700  0.79884300  1
  Zr  Zr2  1  0.79884300  0.20115700  0.79884300  1
  Zr  Zr3  1  0.20115700  0.79884300  0.20115700  1
  Zr  Zr4  1  0.20115700  0.79884300  0.79884300  1
  Zr  Zr5  1  0.79884300  0.20115700  0.20115700  1
  Zr  Zr6  1  0.45115700  0.45115700  0.04884300  1
  Zr  Zr7  1  0.04884300  0.04884300  0.45115700  1
  Zr  Zr8  1  0.45115700  0.04884300  0.45115700  1
  Zr  Zr9  1  0.04884300  0.45115700  0.04884300  1
  Zr  Zr10  1  0.04884300  0.45115700  0.45115700  1
  Zr  Zr11  1  0.45115700  0.04884300  0.04884300  1
  Fe  Fe12  1  0.12500000  0.62500000  0.62500000  1
  Fe  Fe13  1  0.62500000  0.12500000  0.62500000  1
  Fe  Fe14  1  0.62500000  0.62500000  0.12500000  1
  Fe  Fe15  1  0.62500000  0.62500000  0.62500000  1
  Fe  Fe16  1  0.71357600  0.42880800  0.42880800  1
  Fe  Fe17  1  0.42880800  0.71357600  0.42880800  1
  Fe  Fe18  1  0.42880800  0.42880800  0.71357600  1
  Fe  Fe19  1  0.42880800  0.42880800  0.42880800  1
  Fe  Fe20  1  0.53642400  0.82119200  0.82119200  1
  Fe  Fe21  1  0.82119200  0.53642400  0.82119200  1
  Fe  Fe22  1  0.82119200  0.82119200  0.53642400  1
  Fe  Fe23  1  0.82119200  0.82119200  0.82119200  1
  C  C24  1  0.62500000  0.12500000  0.12500000  1
  C  C25  1  0.12500000  0.62500000  0.12500000  1
  C  C26  1  0.12500000  0.12500000  0.62500000  1
  C  C27  1  0.12500000  0.12500000  0.12500000  1
