# generated using pymatgen
data_Al2PH3O7
_symmetry_space_group_name_H-M   'P 1'
_cell_length_a   7.78221364
_cell_length_b   7.78221364
_cell_length_c   5.16073489
_cell_angle_alpha   71.15108698
_cell_angle_beta   71.15108698
_cell_angle_gamma   62.96459268
_symmetry_Int_Tables_number   1
_chemical_formula_structural   Al2PH3O7
_chemical_formula_sum   'Al4 P2 H6 O14'
_cell_volume   257.64452730
_cell_formula_units_Z   2
loop_
 _symmetry_equiv_pos_site_id
 _symmetry_equiv_pos_as_xyz
  1  'x, y, z'
loop_
 _atom_site_type_symbol
 _atom_site_label
 _atom_site_symmetry_multiplicity
 _atom_site_fract_x
 _atom_site_fract_y
 _atom_site_fract_z
 _atom_site_occupancy
  Al  Al0  1  0.80098000  0.19902000  0.00000000  1
  Al  Al1  1  0.19902000  0.80098000  0.00000000  1
  Al  Al2  1  0.18943400  0.18943400  0.01909400  1
  Al  Al3  1  0.81056600  0.81056600  0.98090600  1
  P  P4  1  0.35245500  0.35245500  0.37168400  1
  P  P5  1  0.64754500  0.64754500  0.62831600  1
  H  H6  1  0.12598700  0.12598700  0.60245400  1
  H  H7  1  0.87401300  0.87401300  0.39754600  1
  H  H8  1  0.85844400  0.36435000  0.29862700  1
  H  H9  1  0.36435000  0.85844400  0.29862700  1
  H  H10  1  0.14155600  0.63565000  0.70137300  1
  H  H11  1  0.63565000  0.14155600  0.70137300  1
  O  O12  1  0.25777600  0.25777600  0.26662800  1
  O  O13  1  0.74222400  0.74222400  0.73337200  1
  O  O14  1  0.30385500  0.30385500  0.69662400  1
  O  O15  1  0.69614500  0.69614500  0.30337600  1
  O  O16  1  0.26476900  0.57843700  0.28330500  1
  O  O17  1  0.57843700  0.26476900  0.28330500  1
  O  O18  1  0.73523100  0.42156300  0.71669500  1
  O  O19  1  0.42156300  0.73523100  0.71669500  1
  O  O20  1  0.08477200  0.08477200  0.80436800  1
  O  O21  1  0.91522800  0.91522800  0.19563200  1
  O  O22  1  0.92787600  0.28792300  0.15223100  1
  O  O23  1  0.28792300  0.92787600  0.15223100  1
  O  O24  1  0.07212400  0.71207700  0.84776900  1
  O  O25  1  0.71207700  0.07212400  0.84776900  1
