# generated using pymatgen
data_Hf9W4S
_symmetry_space_group_name_H-M   'P 1'
_cell_length_a   8.70054612
_cell_length_b   8.70054612
_cell_length_c   8.59005300
_cell_angle_alpha   90.00000000
_cell_angle_beta   90.00000000
_cell_angle_gamma   120.00000090
_symmetry_Int_Tables_number   1
_chemical_formula_structural   Hf9W4S
_chemical_formula_sum   'Hf18 W8 S2'
_cell_volume   563.14404757
_cell_formula_units_Z   2
loop_
 _symmetry_equiv_pos_site_id
 _symmetry_equiv_pos_as_xyz
  1  'x, y, z'
loop_
 _atom_site_type_symbol
 _atom_site_label
 _atom_site_symmetry_multiplicity
 _atom_site_fract_x
 _atom_site_fract_y
 _atom_site_fract_z
 _atom_site_occupancy
  Hf  Hf0  1  0.19647600  0.80352400  0.44879100  1
  Hf  Hf1  1  0.19647600  0.39295300  0.44879100  1
  Hf  Hf2  1  0.60704700  0.80352400  0.44879100  1
  Hf  Hf3  1  0.80352400  0.19647600  0.55120900  1
  Hf  Hf4  1  0.80352400  0.60704700  0.55120900  1
  Hf  Hf5  1  0.39295300  0.19647600  0.55120900  1
  Hf  Hf6  1  0.80352400  0.19647600  0.94879100  1
  Hf  Hf7  1  0.80352400  0.60704700  0.94879100  1
  Hf  Hf8  1  0.39295300  0.19647600  0.94879100  1
  Hf  Hf9  1  0.19647600  0.80352400  0.05120900  1
  Hf  Hf10  1  0.19647600  0.39295300  0.05120900  1
  Hf  Hf11  1  0.60704700  0.80352400  0.05120900  1
  Hf  Hf12  1  0.54191300  0.45808700  0.25000000  1
  Hf  Hf13  1  0.54191300  0.08382700  0.25000000  1
  Hf  Hf14  1  0.91617300  0.45808700  0.25000000  1
  Hf  Hf15  1  0.45808700  0.54191300  0.75000000  1
  Hf  Hf16  1  0.45808700  0.91617300  0.75000000  1
  Hf  Hf17  1  0.08382700  0.54191300  0.75000000  1
  W  W18  1  0.88930600  0.11069400  0.25000000  1
  W  W19  1  0.88930600  0.77861200  0.25000000  1
  W  W20  1  0.22138800  0.11069400  0.25000000  1
  W  W21  1  0.11069400  0.88930600  0.75000000  1
  W  W22  1  0.11069400  0.22138800  0.75000000  1
  W  W23  1  0.77861200  0.88930600  0.75000000  1
  W  W24  1  0.00000000  0.00000000  0.50000000  1
  W  W25  1  0.00000000  0.00000000  0.00000000  1
  S  S26  1  0.33333300  0.66666700  0.25000000  1
  S  S27  1  0.66666700  0.33333300  0.75000000  1
