# generated using pymatgen
data_BiW2(Cl4O)2
_symmetry_space_group_name_H-M   'P 1'
_cell_length_a   7.75882000
_cell_length_b   8.70506450
_cell_length_c   10.89178230
_cell_angle_alpha   92.19838211
_cell_angle_beta   100.39717486
_cell_angle_gamma   92.09300635
_symmetry_Int_Tables_number   1
_chemical_formula_structural   BiW2(Cl4O)2
_chemical_formula_sum   'Bi2 W4 Cl16 O4'
_cell_volume   722.32397591
_cell_formula_units_Z   2
loop_
 _symmetry_equiv_pos_site_id
 _symmetry_equiv_pos_as_xyz
  1  'x, y, z'
loop_
 _atom_site_type_symbol
 _atom_site_label
 _atom_site_symmetry_multiplicity
 _atom_site_fract_x
 _atom_site_fract_y
 _atom_site_fract_z
 _atom_site_occupancy
  Bi  Bi0  1  0.63173800  0.67677900  0.42711500  1
  Bi  Bi1  1  0.36826200  0.32322100  0.57288500  1
  W  W2  1  0.71798600  0.10755700  0.85094500  1
  W  W3  1  0.28201400  0.89244300  0.14905500  1
  W  W4  1  0.78283800  0.90038400  0.15062000  1
  W  W5  1  0.21716200  0.09961600  0.84938000  1
  Cl  Cl6  1  0.70670800  0.37164900  0.80386300  1
  Cl  Cl7  1  0.29329200  0.62835100  0.19613700  1
  Cl  Cl8  1  0.65034300  0.02490700  0.63631000  1
  Cl  Cl9  1  0.34965700  0.97509300  0.36369000  1
  Cl  Cl10  1  0.78344100  0.17382500  0.08256400  1
  Cl  Cl11  1  0.21655900  0.82617500  0.91743600  1
  Cl  Cl12  1  0.72977000  0.82841500  0.92212400  1
  Cl  Cl13  1  0.27023000  0.17158500  0.07787600  1
  Cl  Cl14  1  0.82128900  0.97681100  0.36603000  1
  Cl  Cl15  1  0.17871100  0.02318900  0.63397000  1
  Cl  Cl16  1  0.77566200  0.62906500  0.21275000  1
  Cl  Cl17  1  0.22433800  0.37093500  0.78725000  1
  Cl  Cl18  1  0.58473800  0.37726700  0.39509900  1
  Cl  Cl19  1  0.41526200  0.62273300  0.60490100  1
  Cl  Cl20  1  0.89611900  0.65115300  0.58629500  1
  Cl  Cl21  1  0.10388100  0.34884700  0.41370500  1
  O  O22  1  0.47844900  0.09730500  0.86227300  1
  O  O23  1  0.52155100  0.90269500  0.13772700  1
  O  O24  1  0.03980700  0.89599200  0.14728500  1
  O  O25  1  0.96019300  0.10400800  0.85271500  1
