# generated using pymatgen
data_K2TeSO10
_symmetry_space_group_name_H-M   'P 1'
_cell_length_a   6.25215600
_cell_length_b   6.95047482
_cell_length_c   12.67664431
_cell_angle_alpha   79.87696558
_cell_angle_beta   81.83218899
_cell_angle_gamma   66.20173364
_symmetry_Int_Tables_number   1
_chemical_formula_structural   K2TeSO10
_chemical_formula_sum   'K4 Te2 S2 O20'
_cell_volume   494.63308155
_cell_formula_units_Z   2
loop_
 _symmetry_equiv_pos_site_id
 _symmetry_equiv_pos_as_xyz
  1  'x, y, z'
loop_
 _atom_site_type_symbol
 _atom_site_label
 _atom_site_symmetry_multiplicity
 _atom_site_fract_x
 _atom_site_fract_y
 _atom_site_fract_z
 _atom_site_occupancy
  K  K0  1  0.91904700  0.90463600  0.35350600  1
  K  K1  1  0.08095300  0.09536400  0.64649400  1
  K  K2  1  0.68575900  0.60294600  0.13898000  1
  K  K3  1  0.31424100  0.39705400  0.86102000  1
  Te  Te4  1  0.00000000  0.00000000  0.00000000  1
  Te  Te5  1  0.50000000  0.50000000  0.50000000  1
  S  S6  1  0.25099400  0.29403300  0.24830000  1
  S  S7  1  0.74900600  0.70596700  0.75170000  1
  O  O8  1  0.91503100  0.30300500  0.98730100  1
  O  O9  1  0.08496900  0.69699500  0.01269900  1
  O  O10  1  0.28250700  0.92177800  0.07099800  1
  O  O11  1  0.71749300  0.07822200  0.92900200  1
  O  O12  1  0.83899500  0.93873900  0.13516600  1
  O  O13  1  0.16100500  0.06126100  0.86483400  1
  O  O14  1  0.78925100  0.27641800  0.46130600  1
  O  O15  1  0.21074900  0.72358200  0.53869400  1
  O  O16  1  0.70452400  0.65446300  0.48585600  1
  O  O17  1  0.29547600  0.34553700  0.51414400  1
  O  O18  1  0.47244100  0.64215800  0.35448000  1
  O  O19  1  0.52755900  0.35784200  0.64552000  1
  O  O20  1  0.40525600  0.35246600  0.15827600  1
  O  O21  1  0.59474400  0.64753400  0.84172400  1
  O  O22  1  0.41126000  0.14782500  0.32985100  1
  O  O23  1  0.58874000  0.85217500  0.67014900  1
  O  O24  1  0.11194200  0.19124000  0.21255200  1
  O  O25  1  0.88805800  0.80876000  0.78744800  1
  O  O26  1  0.08454600  0.49311200  0.28855800  1
  O  O27  1  0.91545400  0.50688800  0.71144200  1
