# generated using pymatgen
data_Tm2S3
_symmetry_space_group_name_H-M   'P 1'
_cell_length_a   3.97609800
_cell_length_b   10.07868000
_cell_length_c   17.47210678
_cell_angle_alpha   81.33794034
_cell_angle_beta   90.00000000
_cell_angle_gamma   90.00000000
_symmetry_Int_Tables_number   1
_chemical_formula_structural   Tm2S3
_chemical_formula_sum   'Tm12 S18'
_cell_volume   692.18774883
_cell_formula_units_Z   6
loop_
 _symmetry_equiv_pos_site_id
 _symmetry_equiv_pos_as_xyz
  1  'x, y, z'
loop_
 _atom_site_type_symbol
 _atom_site_label
 _atom_site_symmetry_multiplicity
 _atom_site_fract_x
 _atom_site_fract_y
 _atom_site_fract_z
 _atom_site_occupancy
  Tm  Tm0  1  0.25000000  0.87554000  0.92983400  1
  Tm  Tm1  1  0.75000000  0.12446000  0.07016600  1
  Tm  Tm2  1  0.25000000  0.81301500  0.22054300  1
  Tm  Tm3  1  0.75000000  0.18698500  0.77945700  1
  Tm  Tm4  1  0.25000000  0.81105100  0.52082400  1
  Tm  Tm5  1  0.75000000  0.18894900  0.47917600  1
  Tm  Tm6  1  0.25000000  0.51286900  0.89938900  1
  Tm  Tm7  1  0.75000000  0.48713100  0.10061100  1
  Tm  Tm8  1  0.25000000  0.45091200  0.61501800  1
  Tm  Tm9  1  0.75000000  0.54908800  0.38498200  1
  Tm  Tm10  1  0.25000000  0.17070500  0.28147000  1
  Tm  Tm11  1  0.75000000  0.82929500  0.71853000  1
  S  S12  1  0.25000000  0.99187700  0.76803500  1
  S  S13  1  0.75000000  0.00812300  0.23196500  1
  S  S14  1  0.25000000  0.94794500  0.07516800  1
  S  S15  1  0.75000000  0.05205500  0.92483200  1
  S  S16  1  0.25000000  0.73136700  0.37278700  1
  S  S17  1  0.75000000  0.26863300  0.62721300  1
  S  S18  1  0.25000000  0.68039900  0.68230100  1
  S  S19  1  0.75000000  0.31960100  0.31769900  1
  S  S20  1  0.25000000  0.63262500  0.03116600  1
  S  S21  1  0.75000000  0.36737500  0.96883400  1
  S  S22  1  0.25000000  0.38451100  0.46743900  1
  S  S23  1  0.75000000  0.61548900  0.53256100  1
  S  S24  1  0.25000000  0.36179000  0.78249300  1
  S  S25  1  0.75000000  0.63821000  0.21750700  1
  S  S26  1  0.25000000  0.28997100  0.13147600  1
  S  S27  1  0.75000000  0.71002900  0.86852400  1
  S  S28  1  0.25000000  0.04867600  0.42396400  1
  S  S29  1  0.75000000  0.95132400  0.57603600  1
