# generated using pymatgen
data_V2Re2O11
_symmetry_space_group_name_H-M   'P 1'
_cell_length_a   6.66206800
_cell_length_b   9.62382442
_cell_length_c   8.12436300
_cell_angle_alpha   90.00000000
_cell_angle_beta   90.00000000
_cell_angle_gamma   110.25040749
_symmetry_Int_Tables_number   1
_chemical_formula_structural   V2Re2O11
_chemical_formula_sum   'V4 Re4 O22'
_cell_volume   488.69326119
_cell_formula_units_Z   2
loop_
 _symmetry_equiv_pos_site_id
 _symmetry_equiv_pos_as_xyz
  1  'x, y, z'
loop_
 _atom_site_type_symbol
 _atom_site_label
 _atom_site_symmetry_multiplicity
 _atom_site_fract_x
 _atom_site_fract_y
 _atom_site_fract_z
 _atom_site_occupancy
  V  V0  1  0.24706600  0.49413200  0.73767500  1
  V  V1  1  0.75293400  0.50586800  0.23767500  1
  V  V2  1  0.43258200  0.86516400  0.89755400  1
  V  V3  1  0.56741800  0.13483600  0.39755400  1
  Re  Re4  1  0.99522100  0.99044300  0.48008500  1
  Re  Re5  1  0.00477900  0.00955700  0.98008500  1
  Re  Re6  1  0.68937300  0.37874600  0.84630000  1
  Re  Re7  1  0.31062700  0.62125400  0.34630000  1
  O  O8  1  0.48622600  0.97245200  0.73758000  1
  O  O9  1  0.51377400  0.02754800  0.23758000  1
  O  O10  1  0.05608700  0.11217400  0.80088600  1
  O  O11  1  0.94391300  0.88782600  0.30088600  1
  O  O12  1  0.34052500  0.68104900  0.79312700  1
  O  O13  1  0.65947500  0.31895100  0.29312700  1
  O  O14  1  0.67352000  0.34704100  0.63313000  1
  O  O15  1  0.32648000  0.65295900  0.13313000  1
  O  O16  1  0.92883900  0.85767700  0.63340200  1
  O  O17  1  0.07116100  0.14232300  0.13340200  1
  O  O18  1  0.76895900  0.53791800  0.01645600  1
  O  O19  1  0.23104100  0.46208200  0.51645600  1
  O  O20  1  0.60462200  0.20924400  0.94361900  1
  O  O21  1  0.39537800  0.79075600  0.44361900  1
  O  O22  1  0.98520600  0.41503500  0.84249300  1
  O  O23  1  0.42982900  0.41503500  0.84249300  1
  O  O24  1  0.01479400  0.58496500  0.34249300  1
  O  O25  1  0.57017100  0.58496500  0.34249300  1
  O  O26  1  0.17005000  0.89687900  0.98460000  1
  O  O27  1  0.72682900  0.89687900  0.98460000  1
  O  O28  1  0.82995000  0.10312100  0.48460000  1
  O  O29  1  0.27317100  0.10312100  0.48460000  1
