# generated using pymatgen
data_Ca(BO3)3
_symmetry_space_group_name_H-M   'P 1'
_cell_length_a   6.51473500
_cell_length_b   6.71784799
_cell_length_c   8.13751602
_cell_angle_alpha   93.53072081
_cell_angle_beta   92.76187216
_cell_angle_gamma   104.43023267
_symmetry_Int_Tables_number   1
_chemical_formula_structural   Ca(BO3)3
_chemical_formula_sum   'Ca2 B6 O18'
_cell_volume   343.50383856
_cell_formula_units_Z   2
loop_
 _symmetry_equiv_pos_site_id
 _symmetry_equiv_pos_as_xyz
  1  'x, y, z'
loop_
 _atom_site_type_symbol
 _atom_site_label
 _atom_site_symmetry_multiplicity
 _atom_site_fract_x
 _atom_site_fract_y
 _atom_site_fract_z
 _atom_site_occupancy
  Ca  Ca0  1  0.26394300  0.01623100  0.65164800  1
  Ca  Ca1  1  0.73605700  0.98376900  0.34835200  1
  B  B2  1  0.46335100  0.33544600  0.17879800  1
  B  B3  1  0.53664900  0.66455400  0.82120200  1
  B  B4  1  0.17789300  0.32225400  0.36508000  1
  B  B5  1  0.82210700  0.67774600  0.63492000  1
  B  B6  1  0.29249100  0.98092700  0.25986600  1
  B  B7  1  0.70750900  0.01907300  0.74013400  1
  O  O8  1  0.33623300  0.42848000  0.26604900  1
  O  O9  1  0.66376700  0.57152000  0.73395100  1
  O  O10  1  0.47204100  0.13225500  0.19865100  1
  O  O11  1  0.52795900  0.86774500  0.80134900  1
  O  O12  1  0.12610300  0.08065500  0.33352000  1
  O  O13  1  0.87389700  0.91934500  0.66648000  1
  O  O14  1  0.60231300  0.43836100  0.06884800  1
  O  O15  1  0.39768700  0.56163900  0.93115200  1
  O  O16  1  0.21701000  0.33164700  0.53972800  1
  O  O17  1  0.78299000  0.66835300  0.46027200  1
  O  O18  1  0.96208600  0.33493700  0.34202800  1
  O  O19  1  0.03791400  0.66506300  0.65797200  1
  O  O20  1  0.35925300  0.87654800  0.38964100  1
  O  O21  1  0.64074700  0.12345200  0.61035900  1
  O  O22  1  0.17389100  0.83128800  0.13239600  1
  O  O23  1  0.82610900  0.16871200  0.86760400  1
  O  O24  1  0.15920600  0.15263200  0.90975200  1
  O  O25  1  0.84079400  0.84736800  0.09024800  1
