data_image0
_chemical_formula_structural       Au2La2
_chemical_formula_sum              "Au2 La2"
_cell_length_a       3.97474
_cell_length_b       4.82799
_cell_length_c       6.04203
_cell_angle_alpha    90
_cell_angle_beta     70.7965
_cell_angle_gamma    90

_space_group_name_H-M_alt    "P 1"
_space_group_IT_number       1

loop_
  _space_group_symop_operation_xyz
  'x, y, z'

loop_
  _atom_site_type_symbol
  _atom_site_label
  _atom_site_symmetry_multiplicity
  _atom_site_fract_x
  _atom_site_fract_y
  _atom_site_fract_z
  _atom_site_occupancy
  Au  Au1       1.0  0.41100  0.75000  0.17900  1.0000
  Au  Au2       1.0  0.58900  0.25000  0.82100  1.0000
  La  La1       1.0  0.86500  0.25000  0.27100  1.0000
  La  La2       1.0  0.13500  0.75000  0.72900  1.0000
