# generated using pymatgen
data_U2Mn(AsO12)2
_symmetry_space_group_name_H-M   'P 1'
_cell_length_a   7.14698896
_cell_length_b   7.19646727
_cell_length_c   11.20030357
_cell_angle_alpha   77.50723998
_cell_angle_beta   83.83550310
_cell_angle_gamma   92.12912482
_symmetry_Int_Tables_number   1
_chemical_formula_structural   U2Mn(AsO12)2
_chemical_formula_sum   'U2 Mn1 As2 O24'
_cell_volume   558.09170413
_cell_formula_units_Z   1
loop_
 _symmetry_equiv_pos_site_id
 _symmetry_equiv_pos_as_xyz
  1  'x, y, z'
loop_
 _atom_site_type_symbol
 _atom_site_label
 _atom_site_symmetry_multiplicity
 _atom_site_fract_x
 _atom_site_fract_y
 _atom_site_fract_z
 _atom_site_occupancy
  U  U0  1  0.76931200  0.28107600  0.89913600  1
  U  U1  1  0.23068800  0.71892400  0.10086400  1
  Mn  Mn2  1  0.50000000  0.50000000  0.50000000  1
  As  As3  1  0.25149000  0.25061900  0.00070700  1
  As  As4  1  0.74851000  0.74938100  0.99929300  1
  O  O5  1  0.45788700  0.31614500  0.90389500  1
  O  O6  1  0.54211300  0.68385500  0.09610500  1
  O  O7  1  0.07721800  0.24193700  0.90691800  1
  O  O8  1  0.92278200  0.75806300  0.09308200  1
  O  O9  1  0.26834700  0.03234700  0.09655300  1
  O  O10  1  0.73165300  0.96765300  0.90344700  1
  O  O11  1  0.19909900  0.41163100  0.09092300  1
  O  O12  1  0.80090100  0.58836900  0.90907700  1
  O  O13  1  0.73529300  0.22264600  0.06656100  1
  O  O14  1  0.26470700  0.77735400  0.93343900  1
  O  O15  1  0.80063700  0.33596700  0.73148700  1
  O  O16  1  0.19936300  0.66403300  0.26851300  1
  O  O17  1  0.34726000  0.33007600  0.47907400  1
  O  O18  1  0.65274000  0.66992400  0.52092600  1
  O  O19  1  0.71562100  0.32947000  0.48024600  1
  O  O20  1  0.28437900  0.67053000  0.51975400  1
  O  O21  1  0.12661200  0.85076400  0.71218700  1
  O  O22  1  0.87338800  0.14923600  0.28781300  1
  O  O23  1  0.56973300  0.06278300  0.31349100  1
  O  O24  1  0.43026700  0.93721700  0.68650900  1
  O  O25  1  0.30378700  0.56769500  0.62730400  1
  O  O26  1  0.69621300  0.43230500  0.37269600  1
  O  O27  1  0.25956800  0.98171900  0.67637700  1
  O  O28  1  0.74043200  0.01828100  0.32362300  1
