# generated using pymatgen
data_Yb2S3
_symmetry_space_group_name_H-M   'P 1'
_cell_length_a   7.37793722
_cell_length_b   7.37793722
_cell_length_c   15.00402300
_cell_angle_alpha   90.00000000
_cell_angle_beta   90.00000000
_cell_angle_gamma   123.09278912
_symmetry_Int_Tables_number   1
_chemical_formula_structural   Yb2S3
_chemical_formula_sum   'Yb12 S18'
_cell_volume   684.24475477
_cell_formula_units_Z   6
loop_
 _symmetry_equiv_pos_site_id
 _symmetry_equiv_pos_as_xyz
  1  'x, y, z'
loop_
 _atom_site_type_symbol
 _atom_site_label
 _atom_site_symmetry_multiplicity
 _atom_site_fract_x
 _atom_site_fract_y
 _atom_site_fract_z
 _atom_site_occupancy
  Yb  Yb0  1  0.02409200  0.02409200  0.01029600  1
  Yb  Yb1  1  0.97590800  0.97590800  0.51029600  1
  Yb  Yb2  1  0.97631600  0.97631600  0.23181800  1
  Yb  Yb3  1  0.02368400  0.02368400  0.73181800  1
  Yb  Yb4  1  0.66765800  0.31998800  0.00205600  1
  Yb  Yb5  1  0.31998800  0.66765800  0.00205600  1
  Yb  Yb6  1  0.33234200  0.68001200  0.50205600  1
  Yb  Yb7  1  0.68001200  0.33234200  0.50205600  1
  Yb  Yb8  1  0.67573100  0.34174700  0.23384600  1
  Yb  Yb9  1  0.34174700  0.67573100  0.23384600  1
  Yb  Yb10  1  0.32426900  0.65825300  0.73384600  1
  Yb  Yb11  1  0.65825300  0.32426900  0.73384600  1
  S  S12  1  0.34092200  0.34092200  0.11707000  1
  S  S13  1  0.01732600  0.68089700  0.12254000  1
  S  S14  1  0.68089700  0.01732600  0.12254000  1
  S  S15  1  0.65907800  0.65907800  0.61707000  1
  S  S16  1  0.98267400  0.31910300  0.62254000  1
  S  S17  1  0.31910300  0.98267400  0.62254000  1
  S  S18  1  0.33131700  0.33131700  0.44854800  1
  S  S19  1  0.88494800  0.66749900  0.37220700  1
  S  S20  1  0.66749900  0.88494800  0.37220700  1
  S  S21  1  0.66868300  0.66868300  0.94854800  1
  S  S22  1  0.11505200  0.33250100  0.87220700  1
  S  S23  1  0.33250100  0.11505200  0.87220700  1
  S  S24  1  0.32293400  0.32293400  0.30847200  1
  S  S25  1  0.01808900  0.47748600  0.36489900  1
  S  S26  1  0.47748600  0.01808900  0.36489900  1
  S  S27  1  0.67706600  0.67706600  0.80847200  1
  S  S28  1  0.98191100  0.52251400  0.86489900  1
  S  S29  1  0.52251400  0.98191100  0.86489900  1
