# generated using pymatgen
data_CsSbC6Cl5
_symmetry_space_group_name_H-M   'P 1'
_cell_length_a   7.47189400
_cell_length_b   7.51699400
_cell_length_c   12.96663600
_cell_angle_alpha   90.00000000
_cell_angle_beta   90.00000000
_cell_angle_gamma   90.00000000
_symmetry_Int_Tables_number   1
_chemical_formula_structural   CsSbC6Cl5
_chemical_formula_sum   'Cs2 Sb2 C12 Cl10'
_cell_volume   728.28644226
_cell_formula_units_Z   2
loop_
 _symmetry_equiv_pos_site_id
 _symmetry_equiv_pos_as_xyz
  1  'x, y, z'
loop_
 _atom_site_type_symbol
 _atom_site_label
 _atom_site_symmetry_multiplicity
 _atom_site_fract_x
 _atom_site_fract_y
 _atom_site_fract_z
 _atom_site_occupancy
  Cs  Cs0  1  0.50000000  0.00159500  0.99911400  1
  Cs  Cs1  1  0.00000000  0.50159500  0.00088600  1
  Sb  Sb2  1  0.50000000  0.50179200  0.79224800  1
  Sb  Sb3  1  0.00000000  0.00179200  0.20775200  1
  C  C4  1  0.50000000  0.50410200  0.62490700  1
  C  C5  1  0.00000000  0.00410200  0.37509300  1
  C  C6  1  0.36003400  0.51050800  0.55592200  1
  C  C7  1  0.63996600  0.51050800  0.55592200  1
  C  C8  1  0.13996600  0.01050800  0.44407800  1
  C  C9  1  0.86003400  0.01050800  0.44407800  1
  C  C10  1  0.32492200  0.51783800  0.45540900  1
  C  C11  1  0.67507800  0.51783800  0.45540900  1
  C  C12  1  0.17507800  0.01783800  0.54459100  1
  C  C13  1  0.82492200  0.01783800  0.54459100  1
  C  C14  1  0.50000000  0.51878400  0.43285600  1
  C  C15  1  0.00000000  0.01878400  0.56714400  1
  Cl  Cl16  1  0.50000000  0.50260100  0.98494400  1
  Cl  Cl17  1  0.00000000  0.00260100  0.01505600  1
  Cl  Cl18  1  0.26837400  0.73084900  0.79965000  1
  Cl  Cl19  1  0.73162600  0.73084900  0.79965000  1
  Cl  Cl20  1  0.23162600  0.23084900  0.20035000  1
  Cl  Cl21  1  0.76837400  0.23084900  0.20035000  1
  Cl  Cl22  1  0.26908600  0.27281700  0.80029800  1
  Cl  Cl23  1  0.73091400  0.27281700  0.80029800  1
  Cl  Cl24  1  0.23091400  0.77281700  0.19970200  1
  Cl  Cl25  1  0.76908600  0.77281700  0.19970200  1
