# generated using pymatgen
data_RbPNO2
_symmetry_space_group_name_H-M   'P 1'
_cell_length_a   8.43754585
_cell_length_b   8.43754585
_cell_length_c   8.43754572
_cell_angle_alpha   101.14345125
_cell_angle_beta   101.14345125
_cell_angle_gamma   101.14344494
_symmetry_Int_Tables_number   1
_chemical_formula_structural   RbPNO2
_chemical_formula_sum   'Rb6 P6 N6 O12'
_cell_volume   561.41192797
_cell_formula_units_Z   6
loop_
 _symmetry_equiv_pos_site_id
 _symmetry_equiv_pos_as_xyz
  1  'x, y, z'
loop_
 _atom_site_type_symbol
 _atom_site_label
 _atom_site_symmetry_multiplicity
 _atom_site_fract_x
 _atom_site_fract_y
 _atom_site_fract_z
 _atom_site_occupancy
  Rb  Rb0  1  0.18787600  0.85332900  0.66078700  1
  Rb  Rb1  1  0.66078700  0.18787600  0.85332900  1
  Rb  Rb2  1  0.85332900  0.66078700  0.18787600  1
  Rb  Rb3  1  0.81212400  0.14667100  0.33921300  1
  Rb  Rb4  1  0.33921300  0.81212400  0.14667100  1
  Rb  Rb5  1  0.14667100  0.33921300  0.81212400  1
  P  P6  1  0.28419300  0.18184300  0.44238200  1
  P  P7  1  0.44238200  0.28419300  0.18184300  1
  P  P8  1  0.18184300  0.44238200  0.28419300  1
  P  P9  1  0.71580700  0.81815700  0.55761800  1
  P  P10  1  0.55761800  0.71580700  0.81815700  1
  P  P11  1  0.81815700  0.55761800  0.71580700  1
  N  N12  1  0.56959100  0.81290500  0.66492000  1
  N  N13  1  0.66492000  0.56959100  0.81290500  1
  N  N14  1  0.81290500  0.66492000  0.56959100  1
  N  N15  1  0.43040900  0.18709500  0.33508000  1
  N  N16  1  0.33508000  0.43040900  0.18709500  1
  N  N17  1  0.18709500  0.33508000  0.43040900  1
  O  O18  1  0.37648300  0.63820000  0.80519100  1
  O  O19  1  0.80519100  0.37648300  0.63820000  1
  O  O20  1  0.63820000  0.80519100  0.37648300  1
  O  O21  1  0.62351700  0.36180000  0.19480900  1
  O  O22  1  0.19480900  0.62351700  0.36180000  1
  O  O23  1  0.36180000  0.19480900  0.62351700  1
  O  O24  1  0.85096000  0.97715600  0.64472100  1
  O  O25  1  0.64472100  0.85096000  0.97715600  1
  O  O26  1  0.97715600  0.64472100  0.85096000  1
  O  O27  1  0.14904000  0.02284400  0.35527900  1
  O  O28  1  0.35527900  0.14904000  0.02284400  1
  O  O29  1  0.02284400  0.35527900  0.14904000  1
