# generated using pymatgen
data_VH6C2ClO3
_symmetry_space_group_name_H-M   'P 1'
_cell_length_a   6.30511200
_cell_length_b   6.60771187
_cell_length_c   8.87445314
_cell_angle_alpha   83.33686452
_cell_angle_beta   72.72808378
_cell_angle_gamma   81.67377358
_symmetry_Int_Tables_number   1
_chemical_formula_structural   VH6C2ClO3
_chemical_formula_sum   'V2 H12 C4 Cl2 O6'
_cell_volume   348.29157189
_cell_formula_units_Z   2
loop_
 _symmetry_equiv_pos_site_id
 _symmetry_equiv_pos_as_xyz
  1  'x, y, z'
loop_
 _atom_site_type_symbol
 _atom_site_label
 _atom_site_symmetry_multiplicity
 _atom_site_fract_x
 _atom_site_fract_y
 _atom_site_fract_z
 _atom_site_occupancy
  V  V0  1  0.50207300  0.51152200  0.70583700  1
  V  V1  1  0.49792700  0.48847800  0.29416300  1
  H  H2  1  0.21661000  0.87328700  0.89493200  1
  H  H3  1  0.78339000  0.12671300  0.10506800  1
  H  H4  1  0.95102900  0.82691700  0.87627500  1
  H  H5  1  0.04897100  0.17308300  0.12372500  1
  H  H6  1  0.07591000  0.66523800  0.01089900  1
  H  H7  1  0.92409000  0.33476200  0.98910100  1
  H  H8  1  0.91178800  0.72339600  0.55835500  1
  H  H9  1  0.08821200  0.27660400  0.44164500  1
  H  H10  1  0.93925600  0.70374300  0.35313100  1
  H  H11  1  0.06074400  0.29625700  0.64686900  1
  H  H12  1  0.74750900  0.90356000  0.45910400  1
  H  H13  1  0.25249100  0.09644000  0.54089600  1
  C  C14  1  0.10982700  0.75517900  0.89593200  1
  C  C15  1  0.89017300  0.24482100  0.10406800  1
  C  C16  1  0.82203800  0.74314200  0.46774400  1
  C  C17  1  0.17796200  0.25685800  0.53225600  1
  Cl  Cl18  1  0.54956400  0.17426400  0.76470200  1
  Cl  Cl19  1  0.45043600  0.82573600  0.23529800  1
  O  O20  1  0.62640700  0.60207700  0.81318600  1
  O  O21  1  0.37359300  0.39792300  0.18681400  1
  O  O22  1  0.65033600  0.61033200  0.50854100  1
  O  O23  1  0.34966400  0.38966800  0.49145900  1
  O  O24  1  0.21876500  0.62356100  0.77186900  1
  O  O25  1  0.78123500  0.37643900  0.22813100  1
