# generated using pymatgen
data_UN2O11
_symmetry_space_group_name_H-M   'P 1'
_cell_length_a   6.90283000
_cell_length_b   7.22412950
_cell_length_c   10.23778983
_cell_angle_alpha   84.98555950
_cell_angle_beta   80.42689958
_cell_angle_gamma   68.38904204
_symmetry_Int_Tables_number   1
_chemical_formula_structural   UN2O11
_chemical_formula_sum   'U2 N4 O22'
_cell_volume   467.83999601
_cell_formula_units_Z   2
loop_
 _symmetry_equiv_pos_site_id
 _symmetry_equiv_pos_as_xyz
  1  'x, y, z'
loop_
 _atom_site_type_symbol
 _atom_site_label
 _atom_site_symmetry_multiplicity
 _atom_site_fract_x
 _atom_site_fract_y
 _atom_site_fract_z
 _atom_site_occupancy
  U  U0  1  0.50000000  0.50000000  0.50000000  1
  U  U1  1  0.00000000  0.50000000  0.00000000  1
  N  N2  1  0.73913300  0.75157100  0.52993800  1
  N  N3  1  0.26086700  0.24842900  0.47006200  1
  N  N4  1  0.40447000  0.17422100  0.11481600  1
  N  N5  1  0.59553000  0.82577900  0.88518400  1
  O  O6  1  0.28875900  0.64797900  0.61648700  1
  O  O7  1  0.71124100  0.35202100  0.38351300  1
  O  O8  1  0.67990200  0.24720900  0.68918700  1
  O  O9  1  0.32009800  0.75279100  0.31081300  1
  O  O10  1  0.63369800  0.77198300  0.43300800  1
  O  O11  1  0.36630200  0.22801700  0.56699200  1
  O  O12  1  0.72992000  0.60894000  0.61454500  1
  O  O13  1  0.27008000  0.39106000  0.38545500  1
  O  O14  1  0.08972300  0.39438600  0.83391200  1
  O  O15  1  0.91027700  0.60561400  0.16608800  1
  O  O16  1  0.85654000  0.32928200  0.04627600  1
  O  O17  1  0.14346000  0.67071800  0.95372400  1
  O  O18  1  0.23506500  0.14013500  0.12213400  1
  O  O19  1  0.76493500  0.85986500  0.87786600  1
  O  O20  1  0.40640000  0.33658100  0.05696200  1
  O  O21  1  0.59360000  0.66341900  0.94303800  1
  O  O22  1  0.83848100  0.85652800  0.54091000  1
  O  O23  1  0.16151900  0.14347200  0.45909000  1
  O  O24  1  0.55921800  0.05477800  0.16118700  1
  O  O25  1  0.44078200  0.94522200  0.83881300  1
  O  O26  1  0.13443400  0.84611800  0.30077300  1
  O  O27  1  0.86556600  0.15388200  0.69922700  1
