# generated using pymatgen
data_U2S5
_symmetry_space_group_name_H-M   'P 1'
_cell_length_a   7.38491700
_cell_length_b   7.39224600
_cell_length_c   9.91027500
_cell_angle_alpha   90.00000000
_cell_angle_beta   90.00000000
_cell_angle_gamma   90.00000000
_symmetry_Int_Tables_number   1
_chemical_formula_structural   U2S5
_chemical_formula_sum   'U8 S20'
_cell_volume   541.01304301
_cell_formula_units_Z   4
loop_
 _symmetry_equiv_pos_site_id
 _symmetry_equiv_pos_as_xyz
  1  'x, y, z'
loop_
 _atom_site_type_symbol
 _atom_site_label
 _atom_site_symmetry_multiplicity
 _atom_site_fract_x
 _atom_site_fract_y
 _atom_site_fract_z
 _atom_site_occupancy
  U  U0  1  0.23791300  0.01155000  0.85271100  1
  U  U1  1  0.26208700  0.51155000  0.64728900  1
  U  U2  1  0.73791300  0.98845000  0.64728900  1
  U  U3  1  0.76208700  0.48845000  0.85271100  1
  U  U4  1  0.76208700  0.98845000  0.14728900  1
  U  U5  1  0.73791300  0.48845000  0.35271100  1
  U  U6  1  0.26208700  0.01155000  0.35271100  1
  U  U7  1  0.23791300  0.51155000  0.14728900  1
  S  S8  1  0.36749400  0.38292400  0.39367000  1
  S  S9  1  0.13250600  0.88292400  0.10633000  1
  S  S10  1  0.86749400  0.61707600  0.10633000  1
  S  S11  1  0.63250600  0.11707600  0.39367000  1
  S  S12  1  0.63250600  0.61707600  0.60633000  1
  S  S13  1  0.86749400  0.11707600  0.89367000  1
  S  S14  1  0.13250600  0.38292400  0.89367000  1
  S  S15  1  0.36749400  0.88292400  0.60633000  1
  S  S16  1  0.89391200  0.85608100  0.39760600  1
  S  S17  1  0.60608800  0.35608100  0.10239400  1
  S  S18  1  0.39391200  0.14391900  0.10239400  1
  S  S19  1  0.10608800  0.64391900  0.39760600  1
  S  S20  1  0.10608800  0.14391900  0.60239400  1
  S  S21  1  0.39391200  0.64391900  0.89760600  1
  S  S22  1  0.60608800  0.85608100  0.89760600  1
  S  S23  1  0.89391200  0.35608100  0.60239400  1
  S  S24  1  0.00000000  0.25000000  0.25009800  1
  S  S25  1  0.50000000  0.75000000  0.24990200  1
  S  S26  1  0.00000000  0.75000000  0.74990200  1
  S  S27  1  0.50000000  0.25000000  0.75009800  1
