# generated using pymatgen
data_BaHoFe4O7
_symmetry_space_group_name_H-M   'P 1'
_cell_length_a   9.34999500
_cell_length_b   6.28908800
_cell_length_c   6.40844982
_cell_angle_alpha   88.34979069
_cell_angle_beta   90.00000000
_cell_angle_gamma   90.00000000
_symmetry_Int_Tables_number   1
_chemical_formula_structural   BaHoFe4O7
_chemical_formula_sum   'Ba2 Ho2 Fe8 O14'
_cell_volume   376.67941131
_cell_formula_units_Z   2
loop_
 _symmetry_equiv_pos_site_id
 _symmetry_equiv_pos_as_xyz
  1  'x, y, z'
loop_
 _atom_site_type_symbol
 _atom_site_label
 _atom_site_symmetry_multiplicity
 _atom_site_fract_x
 _atom_site_fract_y
 _atom_site_fract_z
 _atom_site_occupancy
  Ba  Ba0  1  0.00256200  0.76020800  0.73254000  1
  Ba  Ba1  1  0.50256200  0.23979200  0.26746000  1
  Ho  Ho2  1  0.75259700  0.25460000  0.74933700  1
  Ho  Ho3  1  0.25259700  0.74540000  0.25066300  1
  Fe  Fe4  1  0.36844700  0.00449600  0.73240500  1
  Fe  Fe5  1  0.86844700  0.99550400  0.26759500  1
  Fe  Fe6  1  0.12614200  0.27132300  0.50064800  1
  Fe  Fe7  1  0.62614200  0.72867700  0.49935200  1
  Fe  Fe8  1  0.12142200  0.23073400  0.99369600  1
  Fe  Fe9  1  0.62142200  0.76926600  0.00630400  1
  Fe  Fe10  1  0.35786700  0.47793500  0.78209700  1
  Fe  Fe11  1  0.85786700  0.52206500  0.21790300  1
  O  O12  1  0.99109200  0.23607500  0.74922200  1
  O  O13  1  0.49109200  0.76392500  0.25077800  1
  O  O14  1  0.50151300  0.23876500  0.74135100  1
  O  O15  1  0.00151300  0.76123500  0.25864900  1
  O  O16  1  0.22687200  0.54526700  0.54579000  1
  O  O17  1  0.72687200  0.45473300  0.45421000  1
  O  O18  1  0.23182200  0.95020800  0.95060400  1
  O  O19  1  0.73182200  0.04979200  0.04939600  1
  O  O20  1  0.27630300  0.44377600  0.06368700  1
  O  O21  1  0.77630300  0.55622400  0.93631300  1
  O  O22  1  0.27474100  0.03263000  0.46453600  1
  O  O23  1  0.77474100  0.96737000  0.53546400  1
  O  O24  1  0.48962000  0.75448100  0.74609700  1
  O  O25  1  0.98962000  0.24551900  0.25390300  1
