# generated using pymatgen
data_Tm2PbS4
_symmetry_space_group_name_H-M   'P 1'
_cell_length_a   3.94601400
_cell_length_b   11.99528200
_cell_length_c   14.25956400
_cell_angle_alpha   90.00000000
_cell_angle_beta   90.00000000
_cell_angle_gamma   90.00000000
_symmetry_Int_Tables_number   1
_chemical_formula_structural   Tm2PbS4
_chemical_formula_sum   'Tm8 Pb4 S16'
_cell_volume   674.95579564
_cell_formula_units_Z   4
loop_
 _symmetry_equiv_pos_site_id
 _symmetry_equiv_pos_as_xyz
  1  'x, y, z'
loop_
 _atom_site_type_symbol
 _atom_site_label
 _atom_site_symmetry_multiplicity
 _atom_site_fract_x
 _atom_site_fract_y
 _atom_site_fract_z
 _atom_site_occupancy
  Tm  Tm0  1  0.25000000  0.43675700  0.38867200  1
  Tm  Tm1  1  0.25000000  0.93675700  0.11132800  1
  Tm  Tm2  1  0.75000000  0.56324300  0.61132800  1
  Tm  Tm3  1  0.75000000  0.06324300  0.88867200  1
  Tm  Tm4  1  0.25000000  0.41815000  0.90085500  1
  Tm  Tm5  1  0.25000000  0.91815000  0.59914500  1
  Tm  Tm6  1  0.75000000  0.58185000  0.09914500  1
  Tm  Tm7  1  0.75000000  0.08185000  0.40085500  1
  Pb  Pb8  1  0.25000000  0.76171700  0.33488500  1
  Pb  Pb9  1  0.25000000  0.26171700  0.16511500  1
  Pb  Pb10  1  0.75000000  0.23828300  0.66511500  1
  Pb  Pb11  1  0.75000000  0.73828300  0.83488500  1
  S  S12  1  0.25000000  0.20686800  0.83065700  1
  S  S13  1  0.25000000  0.70686800  0.66934300  1
  S  S14  1  0.75000000  0.79313200  0.16934300  1
  S  S15  1  0.75000000  0.29313200  0.33065700  1
  S  S16  1  0.25000000  0.12753800  0.52767500  1
  S  S17  1  0.25000000  0.62753800  0.97232500  1
  S  S18  1  0.75000000  0.87246200  0.47232500  1
  S  S19  1  0.75000000  0.37246200  0.02767500  1
  S  S20  1  0.25000000  0.02388800  0.28533100  1
  S  S21  1  0.25000000  0.52388800  0.21466900  1
  S  S22  1  0.75000000  0.97611200  0.71466900  1
  S  S23  1  0.75000000  0.47611200  0.78533100  1
  S  S24  1  0.25000000  0.41418800  0.57622800  1
  S  S25  1  0.25000000  0.91418800  0.92377200  1
  S  S26  1  0.75000000  0.58581200  0.42377200  1
  S  S27  1  0.75000000  0.08581200  0.07622800  1
