# generated using pymatgen
data_Yb2S3
_symmetry_space_group_name_H-M   'P 1'
_cell_length_a   7.38503643
_cell_length_b   7.38503643
_cell_length_c   15.31441900
_cell_angle_alpha   90.00000000
_cell_angle_beta   90.00000000
_cell_angle_gamma   119.98848277
_symmetry_Int_Tables_number   1
_chemical_formula_structural   Yb2S3
_chemical_formula_sum   'Yb12 S18'
_cell_volume   723.41386995
_cell_formula_units_Z   6
loop_
 _symmetry_equiv_pos_site_id
 _symmetry_equiv_pos_as_xyz
  1  'x, y, z'
loop_
 _atom_site_type_symbol
 _atom_site_label
 _atom_site_symmetry_multiplicity
 _atom_site_fract_x
 _atom_site_fract_y
 _atom_site_fract_z
 _atom_site_occupancy
  Yb  Yb0  1  0.97877000  0.97877000  0.44907100  1
  Yb  Yb1  1  0.02123000  0.02123000  0.94907100  1
  Yb  Yb2  1  0.10302300  0.10302300  0.21415400  1
  Yb  Yb3  1  0.89697700  0.89697700  0.71415400  1
  Yb  Yb4  1  0.62767100  0.34784500  0.54093000  1
  Yb  Yb5  1  0.34784500  0.62767100  0.54093000  1
  Yb  Yb6  1  0.37232900  0.65215500  0.04093000  1
  Yb  Yb7  1  0.65215500  0.37232900  0.04093000  1
  Yb  Yb8  1  0.65846500  0.33688100  0.29533200  1
  Yb  Yb9  1  0.33688100  0.65846500  0.29533200  1
  Yb  Yb10  1  0.34153500  0.66311900  0.79533200  1
  Yb  Yb11  1  0.66311900  0.34153500  0.79533200  1
  S  S12  1  0.60555100  0.60555100  0.41019100  1
  S  S13  1  0.29763900  0.98980000  0.35763000  1
  S  S14  1  0.98980000  0.29763900  0.35763000  1
  S  S15  1  0.39444900  0.39444900  0.91019100  1
  S  S16  1  0.70236100  0.01020000  0.85763000  1
  S  S17  1  0.01020000  0.70236100  0.85763000  1
  S  S18  1  0.80404800  0.80404800  0.10268400  1
  S  S19  1  0.28961100  0.97946600  0.06909000  1
  S  S20  1  0.97946600  0.28961100  0.06909000  1
  S  S21  1  0.19595200  0.19595200  0.60268400  1
  S  S22  1  0.71038900  0.02053400  0.56909000  1
  S  S23  1  0.02053400  0.71038900  0.56909000  1
  S  S24  1  0.46314200  0.46314200  0.17689500  1
  S  S25  1  0.50941000  0.99692900  0.15702100  1
  S  S26  1  0.99692900  0.50941000  0.15702100  1
  S  S27  1  0.53685800  0.53685800  0.67689500  1
  S  S28  1  0.49059000  0.00307100  0.65702100  1
  S  S29  1  0.00307100  0.49059000  0.65702100  1
