# generated using pymatgen
data_CsHgBr3
_symmetry_space_group_name_H-M   'P 1'
_cell_length_a   12.98808273
_cell_length_b   12.98808273
_cell_length_c   14.96308839
_cell_angle_alpha   56.18135183
_cell_angle_beta   56.18135183
_cell_angle_gamma   37.80751443
_symmetry_Int_Tables_number   1
_chemical_formula_structural   CsHgBr3
_chemical_formula_sum   'Cs6 Hg6 Br18'
_cell_volume   1251.23103694
_cell_formula_units_Z   6
loop_
 _symmetry_equiv_pos_site_id
 _symmetry_equiv_pos_as_xyz
  1  'x, y, z'
loop_
 _atom_site_type_symbol
 _atom_site_label
 _atom_site_symmetry_multiplicity
 _atom_site_fract_x
 _atom_site_fract_y
 _atom_site_fract_z
 _atom_site_occupancy
  Cs  Cs0  1  0.50000000  0.00000000  0.00000000  1
  Cs  Cs1  1  0.00000000  0.50000000  0.50000000  1
  Cs  Cs2  1  0.18453200  0.63864000  0.68125600  1
  Cs  Cs3  1  0.36136000  0.81546800  0.81874400  1
  Cs  Cs4  1  0.81546800  0.36136000  0.31874400  1
  Cs  Cs5  1  0.63864000  0.18453200  0.18125600  1
  Hg  Hg6  1  0.26120000  0.73880000  0.25000000  1
  Hg  Hg7  1  0.73880000  0.26120000  0.75000000  1
  Hg  Hg8  1  0.10103300  0.57072700  0.07180700  1
  Hg  Hg9  1  0.42927300  0.89896700  0.42819300  1
  Hg  Hg10  1  0.89896700  0.42927300  0.92819300  1
  Hg  Hg11  1  0.57072700  0.10103300  0.57180700  1
  Br  Br12  1  0.11214600  0.71362300  0.21505700  1
  Br  Br13  1  0.28637700  0.88785400  0.28494300  1
  Br  Br14  1  0.88785400  0.28637700  0.78494300  1
  Br  Br15  1  0.71362300  0.11214600  0.71505700  1
  Br  Br16  1  0.94130100  0.88358400  0.96299600  1
  Br  Br17  1  0.11641600  0.05869900  0.53700400  1
  Br  Br18  1  0.05869900  0.11641600  0.03700400  1
  Br  Br19  1  0.88358400  0.94130100  0.46299600  1
  Br  Br20  1  0.18397800  0.33275200  0.24745200  1
  Br  Br21  1  0.66724800  0.81602200  0.25254800  1
  Br  Br22  1  0.81602200  0.66724800  0.75254800  1
  Br  Br23  1  0.33275200  0.18397800  0.74745200  1
  Br  Br24  1  0.00000000  0.50000000  0.00000000  1
  Br  Br25  1  0.50000000  0.00000000  0.50000000  1
  Br  Br26  1  0.40829800  0.43902600  0.43055300  1
  Br  Br27  1  0.56097400  0.59170200  0.06944700  1
  Br  Br28  1  0.59170200  0.56097400  0.56944700  1
  Br  Br29  1  0.43902600  0.40829800  0.93055300  1
