# generated using pymatgen
data_Bi2(NCl3)3
_symmetry_space_group_name_H-M   'P 1'
_cell_length_a   8.94991993
_cell_length_b   8.94991993
_cell_length_c   20.47941200
_cell_angle_alpha   90.00000000
_cell_angle_beta   90.00000000
_cell_angle_gamma   119.99999948
_symmetry_Int_Tables_number   1
_chemical_formula_structural   Bi2(NCl3)3
_chemical_formula_sum   'Bi4 N6 Cl18'
_cell_volume   1420.64777966
_cell_formula_units_Z   2
loop_
 _symmetry_equiv_pos_site_id
 _symmetry_equiv_pos_as_xyz
  1  'x, y, z'
loop_
 _atom_site_type_symbol
 _atom_site_label
 _atom_site_symmetry_multiplicity
 _atom_site_fract_x
 _atom_site_fract_y
 _atom_site_fract_z
 _atom_site_occupancy
  Bi  Bi0  1  0.33333300  0.66666700  0.34157700  1
  Bi  Bi1  1  0.66666700  0.33333300  0.65842300  1
  Bi  Bi2  1  0.66666700  0.33333300  0.84157700  1
  Bi  Bi3  1  0.33333300  0.66666700  0.15842300  1
  N  N4  1  0.00000000  0.00000000  0.25000000  1
  N  N5  1  0.00000000  0.00000000  0.75000000  1
  N  N6  1  0.66666700  0.33333300  0.41147200  1
  N  N7  1  0.33333300  0.66666700  0.58852800  1
  N  N8  1  0.33333300  0.66666700  0.91147200  1
  N  N9  1  0.66666700  0.33333300  0.08852800  1
  Cl  Cl10  1  0.46294100  0.53705900  0.25000000  1
  Cl  Cl11  1  0.46294100  0.92588300  0.25000000  1
  Cl  Cl12  1  0.07411700  0.53705900  0.25000000  1
  Cl  Cl13  1  0.53705900  0.46294100  0.75000000  1
  Cl  Cl14  1  0.53705900  0.07411700  0.75000000  1
  Cl  Cl15  1  0.92588300  0.46294100  0.75000000  1
  Cl  Cl16  1  0.19455000  0.80545000  0.39903800  1
  Cl  Cl17  1  0.19455000  0.38910000  0.39903800  1
  Cl  Cl18  1  0.61090000  0.80545000  0.39903800  1
  Cl  Cl19  1  0.80545000  0.19455000  0.60096200  1
  Cl  Cl20  1  0.80545000  0.61090000  0.60096200  1
  Cl  Cl21  1  0.38910000  0.19455000  0.60096200  1
  Cl  Cl22  1  0.80545000  0.19455000  0.89903800  1
  Cl  Cl23  1  0.80545000  0.61090000  0.89903800  1
  Cl  Cl24  1  0.38910000  0.19455000  0.89903800  1
  Cl  Cl25  1  0.19455000  0.80545000  0.10096200  1
  Cl  Cl26  1  0.19455000  0.38910000  0.10096200  1
  Cl  Cl27  1  0.61090000  0.80545000  0.10096200  1
