# generated using pymatgen
data_Pr4MnSb9
_symmetry_space_group_name_H-M   'P 1'
_cell_length_a   12.36897629
_cell_length_b   12.36897629
_cell_length_c   15.78779316
_cell_angle_alpha   82.21585552
_cell_angle_beta   82.21585552
_cell_angle_gamma   19.71873191
_symmetry_Int_Tables_number   1
_chemical_formula_structural   Pr4MnSb9
_chemical_formula_sum   'Pr8 Mn2 Sb18'
_cell_volume   807.22556395
_cell_formula_units_Z   2
loop_
 _symmetry_equiv_pos_site_id
 _symmetry_equiv_pos_as_xyz
  1  'x, y, z'
loop_
 _atom_site_type_symbol
 _atom_site_label
 _atom_site_symmetry_multiplicity
 _atom_site_fract_x
 _atom_site_fract_y
 _atom_site_fract_z
 _atom_site_occupancy
  Pr  Pr0  1  0.06619600  0.06619600  0.60735500  1
  Pr  Pr1  1  0.93380400  0.93380400  0.39264500  1
  Pr  Pr2  1  0.05909000  0.05909000  0.18053400  1
  Pr  Pr3  1  0.94091000  0.94091000  0.81946600  1
  Pr  Pr4  1  0.11305400  0.11305400  0.85782900  1
  Pr  Pr5  1  0.88694600  0.88694600  0.14217100  1
  Pr  Pr6  1  0.20580200  0.20580200  0.38713000  1
  Pr  Pr7  1  0.79419800  0.79419800  0.61287000  1
  Mn  Mn8  1  0.27027900  0.27027900  0.87546500  1
  Mn  Mn9  1  0.72972100  0.72972100  0.12453500  1
  Sb  Sb10  1  0.07212500  0.07212500  0.38557800  1
  Sb  Sb11  1  0.92787500  0.92787500  0.61442200  1
  Sb  Sb12  1  0.50000000  0.50000000  0.50000000  1
  Sb  Sb13  1  0.19187200  0.19187200  0.66642200  1
  Sb  Sb14  1  0.80812800  0.80812800  0.33357800  1
  Sb  Sb15  1  0.40852200  0.40852200  0.98014700  1
  Sb  Sb16  1  0.59147800  0.59147800  0.01985300  1
  Sb  Sb17  1  0.00000000  0.00000000  0.00000000  1
  Sb  Sb18  1  0.35827200  0.35827200  0.72936100  1
  Sb  Sb19  1  0.64172800  0.64172800  0.27063900  1
  Sb  Sb20  1  0.33416400  0.33416400  0.45791200  1
  Sb  Sb21  1  0.66583600  0.66583600  0.54208800  1
  Sb  Sb22  1  0.71784700  0.71784700  0.80588300  1
  Sb  Sb23  1  0.28215300  0.28215300  0.19411700  1
  Sb  Sb24  1  0.80663100  0.80663100  0.97123100  1
  Sb  Sb25  1  0.19336900  0.19336900  0.02876900  1
  Sb  Sb26  1  0.53990900  0.53990900  0.76255000  1
  Sb  Sb27  1  0.46009100  0.46009100  0.23745000  1
