# generated using pymatgen
data_V3As2O9
_symmetry_space_group_name_H-M   'P 1'
_cell_length_a   9.07219000
_cell_length_b   9.07219000
_cell_length_c   4.78535500
_cell_angle_alpha   90.00000000
_cell_angle_beta   90.00000000
_cell_angle_gamma   90.00000000
_symmetry_Int_Tables_number   1
_chemical_formula_structural   V3As2O9
_chemical_formula_sum   'V6 As4 O18'
_cell_volume   393.85687937
_cell_formula_units_Z   2
loop_
 _symmetry_equiv_pos_site_id
 _symmetry_equiv_pos_as_xyz
  1  'x, y, z'
loop_
 _atom_site_type_symbol
 _atom_site_label
 _atom_site_symmetry_multiplicity
 _atom_site_fract_x
 _atom_site_fract_y
 _atom_site_fract_z
 _atom_site_occupancy
  V  V0  1  0.88324200  0.61675800  0.35507200  1
  V  V1  1  0.11675800  0.38324200  0.35507200  1
  V  V2  1  0.38324200  0.88324200  0.35507200  1
  V  V3  1  0.61675800  0.11675800  0.35507200  1
  V  V4  1  0.50000000  0.50000000  0.42997700  1
  V  V5  1  0.00000000  0.00000000  0.42997700  1
  As  As6  1  0.70003900  0.79996100  0.70870900  1
  As  As7  1  0.29996100  0.20003900  0.70870900  1
  As  As8  1  0.20003900  0.70003900  0.70870900  1
  As  As9  1  0.79996100  0.29996100  0.70870900  1
  O  O10  1  0.68211700  0.62024100  0.52963700  1
  O  O11  1  0.31788300  0.37975900  0.52963700  1
  O  O12  1  0.18211700  0.87975900  0.52963700  1
  O  O13  1  0.81788300  0.12024100  0.52963700  1
  O  O14  1  0.37975900  0.68211700  0.52963700  1
  O  O15  1  0.62024100  0.31788300  0.52963700  1
  O  O16  1  0.12024100  0.18211700  0.52963700  1
  O  O17  1  0.87975900  0.81788300  0.52963700  1
  O  O18  1  0.59689600  0.90310400  0.44089300  1
  O  O19  1  0.40310400  0.09689600  0.44089300  1
  O  O20  1  0.09689600  0.59689600  0.44089300  1
  O  O21  1  0.90310400  0.40310400  0.44089300  1
  O  O22  1  0.50000000  0.50000000  0.09001700  1
  O  O23  1  0.00000000  0.00000000  0.09001700  1
  O  O24  1  0.87081000  0.62919000  0.01205900  1
  O  O25  1  0.12919000  0.37081000  0.01205900  1
  O  O26  1  0.37081000  0.87081000  0.01205900  1
  O  O27  1  0.62919000  0.12919000  0.01205900  1
