# generated using pymatgen
data_Cs2MoS3O
_symmetry_space_group_name_H-M   'P 1'
_cell_length_a   7.60288500
_cell_length_b   10.05450000
_cell_length_c   12.40041200
_cell_angle_alpha   90.00000000
_cell_angle_beta   90.00000000
_cell_angle_gamma   90.00000000
_symmetry_Int_Tables_number   1
_chemical_formula_structural   Cs2MoS3O
_chemical_formula_sum   'Cs8 Mo4 S12 O4'
_cell_volume   947.92726428
_cell_formula_units_Z   4
loop_
 _symmetry_equiv_pos_site_id
 _symmetry_equiv_pos_as_xyz
  1  'x, y, z'
loop_
 _atom_site_type_symbol
 _atom_site_label
 _atom_site_symmetry_multiplicity
 _atom_site_fract_x
 _atom_site_fract_y
 _atom_site_fract_z
 _atom_site_occupancy
  Cs  Cs0  1  0.25000000  0.16713600  0.62378200  1
  Cs  Cs1  1  0.25000000  0.66713600  0.87621800  1
  Cs  Cs2  1  0.75000000  0.83286400  0.37621800  1
  Cs  Cs3  1  0.75000000  0.33286400  0.12378200  1
  Cs  Cs4  1  0.25000000  0.95781900  0.18758700  1
  Cs  Cs5  1  0.25000000  0.45781900  0.31241300  1
  Cs  Cs6  1  0.75000000  0.04218100  0.81241300  1
  Cs  Cs7  1  0.75000000  0.54218100  0.68758700  1
  Mo  Mo8  1  0.25000000  0.24292300  0.95087000  1
  Mo  Mo9  1  0.25000000  0.74292300  0.54913000  1
  Mo  Mo10  1  0.75000000  0.75707700  0.04913000  1
  Mo  Mo11  1  0.75000000  0.25707700  0.45087000  1
  S  S12  1  0.01120400  0.34003600  0.88335100  1
  S  S13  1  0.48879600  0.84003600  0.61664900  1
  S  S14  1  0.51120400  0.65996400  0.11664900  1
  S  S15  1  0.98879600  0.15996400  0.38335100  1
  S  S16  1  0.98879600  0.65996400  0.11664900  1
  S  S17  1  0.51120400  0.15996400  0.38335100  1
  S  S18  1  0.48879600  0.34003600  0.88335100  1
  S  S19  1  0.01120400  0.84003600  0.61664900  1
  S  S20  1  0.25000000  0.02950600  0.90354000  1
  S  S21  1  0.25000000  0.52950600  0.59646000  1
  S  S22  1  0.75000000  0.97049400  0.09646000  1
  S  S23  1  0.75000000  0.47049400  0.40354000  1
  O  O24  1  0.25000000  0.25567100  0.09330900  1
  O  O25  1  0.25000000  0.75567100  0.40669100  1
  O  O26  1  0.75000000  0.74432900  0.90669100  1
  O  O27  1  0.75000000  0.24432900  0.59330900  1
