# generated using pymatgen
data_Nd2SeOF2
_symmetry_space_group_name_H-M   'P 1'
_cell_length_a   13.92576316
_cell_length_b   13.92576316
_cell_length_c   3.90812700
_cell_angle_alpha   90.00000000
_cell_angle_beta   90.00000000
_cell_angle_gamma   120.00000552
_symmetry_Int_Tables_number   1
_chemical_formula_structural   Nd2SeOF2
_chemical_formula_sum   'Nd12 Se6 O6 F12'
_cell_volume   656.35271394
_cell_formula_units_Z   6
loop_
 _symmetry_equiv_pos_site_id
 _symmetry_equiv_pos_as_xyz
  1  'x, y, z'
loop_
 _atom_site_type_symbol
 _atom_site_label
 _atom_site_symmetry_multiplicity
 _atom_site_fract_x
 _atom_site_fract_y
 _atom_site_fract_z
 _atom_site_occupancy
  Nd  Nd0  1  0.60292600  0.48433100  0.75000000  1
  Nd  Nd1  1  0.51566900  0.11859500  0.75000000  1
  Nd  Nd2  1  0.88140500  0.39707400  0.75000000  1
  Nd  Nd3  1  0.39707400  0.51566900  0.25000000  1
  Nd  Nd4  1  0.48433100  0.88140500  0.25000000  1
  Nd  Nd5  1  0.11859500  0.60292600  0.25000000  1
  Nd  Nd6  1  0.94498100  0.71027500  0.75000000  1
  Nd  Nd7  1  0.28972500  0.23470600  0.75000000  1
  Nd  Nd8  1  0.76529400  0.05501900  0.75000000  1
  Nd  Nd9  1  0.05501900  0.28972500  0.25000000  1
  Nd  Nd10  1  0.71027500  0.76529400  0.25000000  1
  Nd  Nd11  1  0.23470600  0.94498100  0.25000000  1
  Se  Se12  1  0.28186700  0.79467700  0.75000000  1
  Se  Se13  1  0.20532300  0.48718900  0.75000000  1
  Se  Se14  1  0.51281100  0.71813300  0.75000000  1
  Se  Se15  1  0.71813300  0.20532300  0.25000000  1
  Se  Se16  1  0.79467700  0.51281100  0.25000000  1
  Se  Se17  1  0.48718900  0.28186700  0.25000000  1
  O  O18  1  0.01490900  0.58727600  0.75000000  1
  O  O19  1  0.41272400  0.42763300  0.75000000  1
  O  O20  1  0.57236700  0.98509100  0.75000000  1
  O  O21  1  0.98509100  0.41272400  0.25000000  1
  O  O22  1  0.58727600  0.57236700  0.25000000  1
  O  O23  1  0.42763300  0.01490900  0.25000000  1
  F  F24  1  0.10871500  0.89803100  0.75000000  1
  F  F25  1  0.10196900  0.21068400  0.75000000  1
  F  F26  1  0.78931600  0.89128500  0.75000000  1
  F  F27  1  0.89128500  0.10196900  0.25000000  1
  F  F28  1  0.89803100  0.78931600  0.25000000  1
  F  F29  1  0.21068400  0.10871500  0.25000000  1
  F  F30  1  0.75176900  0.68397600  0.75000000  1
  F  F31  1  0.31602400  0.06779300  0.75000000  1
  F  F32  1  0.93220700  0.24823100  0.75000000  1
  F  F33  1  0.24823100  0.31602400  0.25000000  1
  F  F34  1  0.68397600  0.93220700  0.25000000  1
  F  F35  1  0.06779300  0.75176900  0.25000000  1
