# generated using pymatgen
data_ZrF4
_symmetry_space_group_name_H-M   'P 1'
_cell_length_a   7.84660572
_cell_length_b   7.84660572
_cell_length_c   7.83854260
_cell_angle_alpha   63.33770110
_cell_angle_beta   63.33770110
_cell_angle_gamma   80.27673076
_symmetry_Int_Tables_number   1
_chemical_formula_structural   ZrF4
_chemical_formula_sum   'Zr6 F24'
_cell_volume   385.11554696
_cell_formula_units_Z   6
loop_
 _symmetry_equiv_pos_site_id
 _symmetry_equiv_pos_as_xyz
  1  'x, y, z'
loop_
 _atom_site_type_symbol
 _atom_site_label
 _atom_site_symmetry_multiplicity
 _atom_site_fract_x
 _atom_site_fract_y
 _atom_site_fract_z
 _atom_site_occupancy
  Zr  Zr0  1  0.21387700  0.78612300  0.75000000  1
  Zr  Zr1  1  0.78612300  0.21387700  0.25000000  1
  Zr  Zr2  1  0.22310300  0.36559400  0.33318200  1
  Zr  Zr3  1  0.36559400  0.22310300  0.83318200  1
  Zr  Zr4  1  0.77689700  0.63440600  0.66681800  1
  Zr  Zr5  1  0.63440600  0.77689700  0.16681800  1
  F  F6  1  0.50000000  0.00000000  0.00000000  1
  F  F7  1  0.00000000  0.50000000  0.50000000  1
  F  F8  1  0.60367400  0.39632600  0.75000000  1
  F  F9  1  0.39632600  0.60367400  0.25000000  1
  F  F10  1  0.40296400  0.81587300  0.42354100  1
  F  F11  1  0.81587300  0.40296400  0.92354100  1
  F  F12  1  0.59703600  0.18412700  0.57645900  1
  F  F13  1  0.18412700  0.59703600  0.07645900  1
  F  F14  1  0.17221000  0.06208900  0.54453000  1
  F  F15  1  0.06208900  0.17221000  0.04453000  1
  F  F16  1  0.82779000  0.93791100  0.45547000  1
  F  F17  1  0.93791100  0.82779000  0.95547000  1
  F  F18  1  0.74127600  0.68346500  0.39401500  1
  F  F19  1  0.68346500  0.74127600  0.89401500  1
  F  F20  1  0.25872400  0.31653500  0.60598500  1
  F  F21  1  0.31653500  0.25872400  0.10598500  1
  F  F22  1  0.50277900  0.25883000  0.28240700  1
  F  F23  1  0.25883000  0.50277900  0.78240700  1
  F  F24  1  0.49722100  0.74117000  0.71759300  1
  F  F25  1  0.74117000  0.49722100  0.21759300  1
  F  F26  1  0.72534000  0.03056200  0.14787100  1
  F  F27  1  0.03056200  0.72534000  0.64787100  1
  F  F28  1  0.27466000  0.96943800  0.85212900  1
  F  F29  1  0.96943800  0.27466000  0.35212900  1
