# generated using pymatgen
data_Fe2Te3O10
_symmetry_space_group_name_H-M   'P 1'
_cell_length_a   7.73182710
_cell_length_b   8.04827718
_cell_length_c   7.97205800
_cell_angle_alpha   98.31241452
_cell_angle_beta   96.22679308
_cell_angle_gamma   82.77109748
_symmetry_Int_Tables_number   1
_chemical_formula_structural   Fe2Te3O10
_chemical_formula_sum   'Fe4 Te6 O20'
_cell_volume   484.90741307
_cell_formula_units_Z   2
loop_
 _symmetry_equiv_pos_site_id
 _symmetry_equiv_pos_as_xyz
  1  'x, y, z'
loop_
 _atom_site_type_symbol
 _atom_site_label
 _atom_site_symmetry_multiplicity
 _atom_site_fract_x
 _atom_site_fract_y
 _atom_site_fract_z
 _atom_site_occupancy
  Fe  Fe0  1  0.96296200  0.80823800  0.02872800  1
  Fe  Fe1  1  0.03703800  0.19176200  0.97127200  1
  Fe  Fe2  1  0.52366000  0.69018600  0.46685700  1
  Fe  Fe3  1  0.47634000  0.30981400  0.53314300  1
  Te  Te4  1  0.14948900  0.48062500  0.28736900  1
  Te  Te5  1  0.85051100  0.51937500  0.71263100  1
  Te  Te6  1  0.20875900  0.96941300  0.34921700  1
  Te  Te7  1  0.79124100  0.03058700  0.65078300  1
  Te  Te8  1  0.31141400  0.85523500  0.83703400  1
  Te  Te9  1  0.68858600  0.14476500  0.16296600  1
  O  O10  1  0.15430600  0.99118800  0.10823700  1
  O  O11  1  0.84569400  0.00881200  0.89176300  1
  O  O12  1  0.81753100  0.93790300  0.20491800  1
  O  O13  1  0.18246900  0.06209700  0.79508200  1
  O  O14  1  0.10874500  0.70609300  0.22259600  1
  O  O15  1  0.89125500  0.29390700  0.77740400  1
  O  O16  1  0.81909800  0.63091400  0.93282100  1
  O  O17  1  0.18090200  0.36908600  0.06717900  1
  O  O18  1  0.12163400  0.72938700  0.84325900  1
  O  O19  1  0.87836600  0.27061300  0.15674100  1
  O  O20  1  0.43694900  0.86304500  0.31658500  1
  O  O21  1  0.56305100  0.13695500  0.68341500  1
  O  O22  1  0.33189100  0.78690000  0.59588800  1
  O  O23  1  0.66810900  0.21310000  0.40411200  1
  O  O24  1  0.71768300  0.79800500  0.61157500  1
  O  O25  1  0.28231700  0.20199500  0.38842500  1
  O  O26  1  0.39802600  0.49197300  0.35601200  1
  O  O27  1  0.60197400  0.50802700  0.64398800  1
  O  O28  1  0.71423900  0.61838900  0.35545800  1
  O  O29  1  0.28576100  0.38161100  0.64454200  1
