# generated using pymatgen
data_Cu3TePbO8
_symmetry_space_group_name_H-M   'P 1'
_cell_length_a   13.16431722
_cell_length_b   12.55970653
_cell_length_c   5.69028898
_cell_angle_alpha   83.23952166
_cell_angle_beta   71.34079035
_cell_angle_gamma   25.41968799
_symmetry_Int_Tables_number   1
_chemical_formula_structural   Cu3TePbO8
_chemical_formula_sum   'Cu6 Te2 Pb2 O16'
_cell_volume   347.04659535
_cell_formula_units_Z   2
loop_
 _symmetry_equiv_pos_site_id
 _symmetry_equiv_pos_as_xyz
  1  'x, y, z'
loop_
 _atom_site_type_symbol
 _atom_site_label
 _atom_site_symmetry_multiplicity
 _atom_site_fract_x
 _atom_site_fract_y
 _atom_site_fract_z
 _atom_site_occupancy
  Cu  Cu0  1  0.95385400  0.95385400  0.54614600  1
  Cu  Cu1  1  0.70385400  0.70385400  0.29614600  1
  Cu  Cu2  1  0.95458200  0.95458200  0.04541800  1
  Cu  Cu3  1  0.20458200  0.20458200  0.29541800  1
  Cu  Cu4  1  0.51230700  0.51230700  0.48769300  1
  Cu  Cu5  1  0.76230700  0.76230700  0.73769300  1
  Te  Te6  1  0.51187600  0.51187600  0.98812400  1
  Te  Te7  1  0.26187600  0.26187600  0.73812400  1
  Pb  Pb8  1  0.11316100  0.11316100  0.88683900  1
  Pb  Pb9  1  0.36316100  0.36316100  0.13683900  1
  O  O10  1  0.95361100  0.85710400  0.31525500  1
  O  O11  1  0.85710400  0.95361100  0.87403100  1
  O  O12  1  0.37596900  0.93474500  0.39289600  1
  O  O13  1  0.93474500  0.37596900  0.29638900  1
  O  O14  1  0.54709500  0.58222000  0.69438600  1
  O  O15  1  0.58222000  0.54709500  0.17629900  1
  O  O16  1  0.07370100  0.55561400  0.66778000  1
  O  O17  1  0.55561400  0.07370100  0.70290500  1
  O  O18  1  0.09402500  0.92027600  0.19753800  1
  O  O19  1  0.92027600  0.09402500  0.78816200  1
  O  O20  1  0.46183800  0.05246200  0.32972400  1
  O  O21  1  0.05246200  0.46183800  0.15597500  1
  O  O22  1  0.45977200  0.45723700  0.78722700  1
  O  O23  1  0.45723700  0.45977200  0.29576400  1
  O  O24  1  0.95423600  0.46277300  0.79276300  1
  O  O25  1  0.46277300  0.95423600  0.79022800  1
