# generated using pymatgen
data_CaCO3
_symmetry_space_group_name_H-M   'P 1'
_cell_length_a   7.23779691
_cell_length_b   7.23779691
_cell_length_c   9.45140007
_cell_angle_alpha   68.24574703
_cell_angle_beta   68.24574703
_cell_angle_gamma   60.51910360
_symmetry_Int_Tables_number   1
_chemical_formula_structural   CaCO3
_chemical_formula_sum   'Ca6 C6 O18'
_cell_volume   389.31525040
_cell_formula_units_Z   6
loop_
 _symmetry_equiv_pos_site_id
 _symmetry_equiv_pos_as_xyz
  1  'x, y, z'
loop_
 _atom_site_type_symbol
 _atom_site_label
 _atom_site_symmetry_multiplicity
 _atom_site_fract_x
 _atom_site_fract_y
 _atom_site_fract_z
 _atom_site_occupancy
  Ca  Ca0  1  0.00000000  0.50000000  0.50000000  1
  Ca  Ca1  1  0.50000000  0.00000000  0.00000000  1
  Ca  Ca2  1  0.19885100  0.64968900  0.00093000  1
  Ca  Ca3  1  0.35031100  0.80114900  0.49907000  1
  Ca  Ca4  1  0.80114900  0.35031100  0.99907000  1
  Ca  Ca5  1  0.64968900  0.19885100  0.50093000  1
  C  C6  1  0.20581700  0.41796100  0.76510000  1
  C  C7  1  0.58203900  0.79418300  0.73490000  1
  C  C8  1  0.79418300  0.58203900  0.23490000  1
  C  C9  1  0.41796100  0.20581700  0.26510000  1
  C  C10  1  0.94970100  0.05029900  0.75000000  1
  C  C11  1  0.05029900  0.94970100  0.25000000  1
  O  O12  1  0.34446500  0.45744300  0.63733500  1
  O  O13  1  0.54255700  0.65553500  0.86266500  1
  O  O14  1  0.65553500  0.54255700  0.36266500  1
  O  O15  1  0.45744300  0.34446500  0.13733500  1
  O  O16  1  0.24201600  0.36404400  0.90269400  1
  O  O17  1  0.63595600  0.75798400  0.59730600  1
  O  O18  1  0.75798400  0.63595600  0.09730600  1
  O  O19  1  0.36404400  0.24201600  0.40269400  1
  O  O20  1  0.81777300  0.09228300  0.88327600  1
  O  O21  1  0.90771700  0.18222700  0.61672400  1
  O  O22  1  0.18222700  0.90771700  0.11672400  1
  O  O23  1  0.09228300  0.81777300  0.38327600  1
  O  O24  1  0.02493100  0.43263600  0.75530400  1
  O  O25  1  0.56736400  0.97506900  0.74469600  1
  O  O26  1  0.97506900  0.56736400  0.24469600  1
  O  O27  1  0.43263600  0.02493100  0.25530400  1
  O  O28  1  0.12734300  0.87265700  0.75000000  1
  O  O29  1  0.87265700  0.12734300  0.25000000  1
