# generated using pymatgen
data_Na3In(PO4)2
_symmetry_space_group_name_H-M   'P 1'
_cell_length_a   5.53502000
_cell_length_b   7.12730100
_cell_length_c   8.77930326
_cell_angle_alpha   89.98613175
_cell_angle_beta   90.00000000
_cell_angle_gamma   90.00000000
_symmetry_Int_Tables_number   1
_chemical_formula_structural   Na3In(PO4)2
_chemical_formula_sum   'Na6 In2 P4 O16'
_cell_volume   346.34133996
_cell_formula_units_Z   2
loop_
 _symmetry_equiv_pos_site_id
 _symmetry_equiv_pos_as_xyz
  1  'x, y, z'
loop_
 _atom_site_type_symbol
 _atom_site_label
 _atom_site_symmetry_multiplicity
 _atom_site_fract_x
 _atom_site_fract_y
 _atom_site_fract_z
 _atom_site_occupancy
  Na  Na0  1  0.75000000  0.50582900  0.74390200  1
  Na  Na1  1  0.25000000  0.49417100  0.25609800  1
  Na  Na2  1  0.75000000  0.72356900  0.43355500  1
  Na  Na3  1  0.25000000  0.27643100  0.56644500  1
  Na  Na4  1  0.75000000  0.28946900  0.06062600  1
  Na  Na5  1  0.25000000  0.71053100  0.93937400  1
  In  In6  1  0.75000000  0.00270000  0.75269500  1
  In  In7  1  0.25000000  0.99730000  0.24730500  1
  P  P8  1  0.75000000  0.22346800  0.40113300  1
  P  P9  1  0.25000000  0.77653200  0.59886700  1
  P  P10  1  0.75000000  0.77713400  0.09506900  1
  P  P11  1  0.25000000  0.22286600  0.90493100  1
  O  O12  1  0.75000000  0.05039200  0.50853200  1
  O  O13  1  0.25000000  0.94960800  0.49146800  1
  O  O14  1  0.75000000  0.40663600  0.48973900  1
  O  O15  1  0.25000000  0.59336400  0.51026100  1
  O  O16  1  0.02092600  0.78365400  0.70603100  1
  O  O17  1  0.52092600  0.21634600  0.29396900  1
  O  O18  1  0.97907400  0.21634600  0.29396900  1
  O  O19  1  0.47907400  0.78365400  0.70603100  1
  O  O20  1  0.75000000  0.95793700  0.99660000  1
  O  O21  1  0.25000000  0.04206300  0.00340000  1
  O  O22  1  0.02078400  0.22374100  0.79730300  1
  O  O23  1  0.52078400  0.77625900  0.20269700  1
  O  O24  1  0.97921600  0.77625900  0.20269700  1
  O  O25  1  0.47921600  0.22374100  0.79730300  1
  O  O26  1  0.75000000  0.60124800  0.99739100  1
  O  O27  1  0.25000000  0.39875200  0.00260900  1
