# generated using pymatgen
data_Mg2S3(NO6)2
_symmetry_space_group_name_H-M   'P 1'
_cell_length_a   10.08546500
_cell_length_b   10.08546500
_cell_length_c   10.08546500
_cell_angle_alpha   90.00000000
_cell_angle_beta   90.00000000
_cell_angle_gamma   90.00000000
_symmetry_Int_Tables_number   1
_chemical_formula_structural   Mg2S3(NO6)2
_chemical_formula_sum   'Mg8 S12 N8 O48'
_cell_volume   1025.85925225
_cell_formula_units_Z   4
loop_
 _symmetry_equiv_pos_site_id
 _symmetry_equiv_pos_as_xyz
  1  'x, y, z'
loop_
 _atom_site_type_symbol
 _atom_site_label
 _atom_site_symmetry_multiplicity
 _atom_site_fract_x
 _atom_site_fract_y
 _atom_site_fract_z
 _atom_site_occupancy
  Mg  Mg0  1  0.91468500  0.41468500  0.08531500  1
  Mg  Mg1  1  0.41468500  0.08531500  0.91468500  1
  Mg  Mg2  1  0.08531500  0.91468500  0.41468500  1
  Mg  Mg3  1  0.58531500  0.58531500  0.58531500  1
  Mg  Mg4  1  0.64862100  0.14862100  0.35137900  1
  Mg  Mg5  1  0.14862100  0.35137900  0.64862100  1
  Mg  Mg6  1  0.35137900  0.64862100  0.14862100  1
  Mg  Mg7  1  0.85137900  0.85137900  0.85137900  1
  S  S8  1  0.23390400  0.37567500  0.96619900  1
  S  S9  1  0.03380100  0.73390400  0.12432500  1
  S  S10  1  0.87567500  0.53380100  0.76609600  1
  S  S11  1  0.73390400  0.12432500  0.03380100  1
  S  S12  1  0.53380100  0.76609600  0.87567500  1
  S  S13  1  0.37567500  0.96619900  0.23390400  1
  S  S14  1  0.76609600  0.87567500  0.53380100  1
  S  S15  1  0.96619900  0.23390400  0.37567500  1
  S  S16  1  0.12432500  0.03380100  0.73390400  1
  S  S17  1  0.26609600  0.62432500  0.46619900  1
  S  S18  1  0.46619900  0.26609600  0.62432500  1
  S  S19  1  0.62432500  0.46619900  0.26609600  1
  N  N20  1  0.43393900  0.93393900  0.56606100  1
  N  N21  1  0.93393900  0.56606100  0.43393900  1
  N  N22  1  0.56606100  0.43393900  0.93393900  1
  N  N23  1  0.06606100  0.06606100  0.06606100  1
  N  N24  1  0.20216800  0.70216800  0.79783200  1
  N  N25  1  0.70216800  0.79783200  0.20216800  1
  N  N26  1  0.79783200  0.20216800  0.70216800  1
  N  N27  1  0.29783200  0.29783200  0.29783200  1
  O  O28  1  0.09348800  0.35192200  0.00279500  1
  O  O29  1  0.99720500  0.59348800  0.14807800  1
  O  O30  1  0.85192200  0.49720500  0.90651200  1
  O  O31  1  0.59348800  0.14807800  0.99720500  1
  O  O32  1  0.49720500  0.90651200  0.85192200  1
  O  O33  1  0.35192200  0.00279500  0.09348800  1
  O  O34  1  0.90651200  0.85192200  0.49720500  1
  O  O35  1  0.00279500  0.09348800  0.35192200  1
  O  O36  1  0.14807800  0.99720500  0.59348800  1
  O  O37  1  0.40651200  0.64807800  0.50279500  1
  O  O38  1  0.50279500  0.40651200  0.64807800  1
  O  O39  1  0.64807800  0.50279500  0.40651200  1
  O  O40  1  0.30979000  0.25072800  0.98126400  1
  O  O41  1  0.01873600  0.80979000  0.24927200  1
  O  O42  1  0.75072800  0.51873600  0.69021000  1
  O  O43  1  0.80979000  0.24927200  0.01873600  1
  O  O44  1  0.51873600  0.69021000  0.75072800  1
  O  O45  1  0.25072800  0.98126400  0.30979000  1
  O  O46  1  0.69021000  0.75072800  0.51873600  1
  O  O47  1  0.98126400  0.30979000  0.25072800  1
  O  O48  1  0.24927200  0.01873600  0.80979000  1
  O  O49  1  0.19021000  0.74927200  0.48126400  1
  O  O50  1  0.48126400  0.19021000  0.74927200  1
  O  O51  1  0.74927200  0.48126400  0.19021000  1
  O  O52  1  0.23899600  0.41722000  0.82532700  1
  O  O53  1  0.17467300  0.73899600  0.08278000  1
  O  O54  1  0.91722000  0.67467300  0.76100400  1
  O  O55  1  0.73899600  0.08278000  0.17467300  1
  O  O56  1  0.67467300  0.76100400  0.91722000  1
  O  O57  1  0.41722000  0.82532700  0.23899600  1
  O  O58  1  0.76100400  0.91722000  0.67467300  1
  O  O59  1  0.82532700  0.23899600  0.41722000  1
  O  O60  1  0.08278000  0.17467300  0.73899600  1
  O  O61  1  0.26100400  0.58278000  0.32532700  1
  O  O62  1  0.32532700  0.26100400  0.58278000  1
  O  O63  1  0.58278000  0.32532700  0.26100400  1
  O  O64  1  0.29182000  0.47734300  0.05284300  1
  O  O65  1  0.94715700  0.79182000  0.02265700  1
  O  O66  1  0.97734300  0.44715700  0.70818000  1
  O  O67  1  0.79182000  0.02265700  0.94715700  1
  O  O68  1  0.44715700  0.70818000  0.97734300  1
  O  O69  1  0.47734300  0.05284300  0.29182000  1
  O  O70  1  0.70818000  0.97734300  0.44715700  1
  O  O71  1  0.05284300  0.29182000  0.47734300  1
  O  O72  1  0.02265700  0.94715700  0.79182000  1
  O  O73  1  0.20818000  0.52265700  0.55284300  1
  O  O74  1  0.55284300  0.20818000  0.52265700  1
  O  O75  1  0.52265700  0.55284300  0.20818000  1
