# generated using pymatgen
data_Yb2EuS4
_symmetry_space_group_name_H-M   'P 1'
_cell_length_a   4.31907400
_cell_length_b   11.02198100
_cell_length_c   14.78188000
_cell_angle_alpha   90.00000000
_cell_angle_beta   90.00000000
_cell_angle_gamma   90.00000000
_symmetry_Int_Tables_number   1
_chemical_formula_structural   Yb2EuS4
_chemical_formula_sum   'Yb8 Eu4 S16'
_cell_volume   703.68772507
_cell_formula_units_Z   4
loop_
 _symmetry_equiv_pos_site_id
 _symmetry_equiv_pos_as_xyz
  1  'x, y, z'
loop_
 _atom_site_type_symbol
 _atom_site_label
 _atom_site_symmetry_multiplicity
 _atom_site_fract_x
 _atom_site_fract_y
 _atom_site_fract_z
 _atom_site_occupancy
  Yb  Yb0  1  0.25000000  0.43448100  0.38591200  1
  Yb  Yb1  1  0.25000000  0.93448100  0.11408800  1
  Yb  Yb2  1  0.75000000  0.56551900  0.61408800  1
  Yb  Yb3  1  0.75000000  0.06551900  0.88591200  1
  Yb  Yb4  1  0.25000000  0.40588100  0.89024200  1
  Yb  Yb5  1  0.25000000  0.90588100  0.60975800  1
  Yb  Yb6  1  0.75000000  0.59411900  0.10975800  1
  Yb  Yb7  1  0.75000000  0.09411900  0.39024200  1
  Eu  Eu8  1  0.25000000  0.76732200  0.31625300  1
  Eu  Eu9  1  0.25000000  0.26732200  0.18374700  1
  Eu  Eu10  1  0.75000000  0.23267800  0.68374700  1
  Eu  Eu11  1  0.75000000  0.73267800  0.81625300  1
  S  S12  1  0.25000000  0.18552300  0.81845600  1
  S  S13  1  0.25000000  0.68552300  0.68154400  1
  S  S14  1  0.75000000  0.81447700  0.18154400  1
  S  S15  1  0.75000000  0.31447700  0.31845600  1
  S  S16  1  0.25000000  0.18692200  0.52740600  1
  S  S17  1  0.25000000  0.68692200  0.97259400  1
  S  S18  1  0.75000000  0.81307800  0.47259400  1
  S  S19  1  0.75000000  0.31307800  0.02740600  1
  S  S20  1  0.25000000  0.03242800  0.29136600  1
  S  S21  1  0.25000000  0.53242800  0.20863400  1
  S  S22  1  0.75000000  0.96757200  0.70863400  1
  S  S23  1  0.75000000  0.46757200  0.79136600  1
  S  S24  1  0.25000000  0.37387100  0.57880700  1
  S  S25  1  0.25000000  0.87387100  0.92119300  1
  S  S26  1  0.75000000  0.62612900  0.42119300  1
  S  S27  1  0.75000000  0.12612900  0.07880700  1
