# generated using pymatgen
data_Ca2AlH2OF7
_symmetry_space_group_name_H-M   'P 1'
_cell_length_a   5.91739500
_cell_length_b   5.93446673
_cell_length_c   9.39787911
_cell_angle_alpha   78.61667926
_cell_angle_beta   77.55360720
_cell_angle_gamma   73.14887718
_symmetry_Int_Tables_number   1
_chemical_formula_structural   Ca2AlH2OF7
_chemical_formula_sum   'Ca4 Al2 H4 O2 F14'
_cell_volume   305.19786851
_cell_formula_units_Z   2
loop_
 _symmetry_equiv_pos_site_id
 _symmetry_equiv_pos_as_xyz
  1  'x, y, z'
loop_
 _atom_site_type_symbol
 _atom_site_label
 _atom_site_symmetry_multiplicity
 _atom_site_fract_x
 _atom_site_fract_y
 _atom_site_fract_z
 _atom_site_occupancy
  Ca  Ca0  1  0.41551900  0.41562400  0.35477400  1
  Ca  Ca1  1  0.58448100  0.58437600  0.64522600  1
  Ca  Ca2  1  0.84248400  0.84267300  0.20700900  1
  Ca  Ca3  1  0.15751600  0.15732700  0.79299100  1
  Al  Al4  1  0.50000000  0.50000000  0.00000000  1
  Al  Al5  1  0.00000000  0.00000000  0.50000000  1
  H  H6  1  0.05917800  0.25055400  0.10928500  1
  H  H7  1  0.94082200  0.74944600  0.89071500  1
  H  H8  1  0.27565100  0.03392500  0.11154300  1
  H  H9  1  0.72434900  0.96607500  0.88845700  1
  O  O10  1  0.11912000  0.09127300  0.08043800  1
  O  O11  1  0.88088000  0.90872700  0.91956200  1
  F  F12  1  0.59207400  0.64475000  0.12376600  1
  F  F13  1  0.40792600  0.35525000  0.87623400  1
  F  F14  1  0.19736700  0.56035500  0.11371200  1
  F  F15  1  0.80263300  0.43964500  0.88628800  1
  F  F16  1  0.57593000  0.21883100  0.12658900  1
  F  F17  1  0.42407000  0.78116900  0.87341100  1
  F  F18  1  0.17604600  0.17676100  0.37248700  1
  F  F19  1  0.82395400  0.82323900  0.62751300  1
  F  F20  1  0.75927300  0.11191700  0.38598000  1
  F  F21  1  0.24072700  0.88808300  0.61402000  1
  F  F22  1  0.11569800  0.76072000  0.38127000  1
  F  F23  1  0.88430200  0.23928000  0.61873000  1
  F  F24  1  0.64887400  0.63645100  0.39688600  1
  F  F25  1  0.35112600  0.36354900  0.60311400  1
