# generated using pymatgen
data_CoH12C2(I2N)2
_symmetry_space_group_name_H-M   'P 1'
_cell_length_a   11.52231800
_cell_length_b   12.28664900
_cell_length_c   21.38525500
_cell_angle_alpha   90.00000000
_cell_angle_beta   90.00000000
_cell_angle_gamma   90.00000000
_symmetry_Int_Tables_number   1
_chemical_formula_structural   CoH12C2(I2N)2
_chemical_formula_sum   'Co8 H96 C16 I32 N16'
_cell_volume   3027.52502672
_cell_formula_units_Z   8
loop_
 _symmetry_equiv_pos_site_id
 _symmetry_equiv_pos_as_xyz
  1  'x, y, z'
loop_
 _atom_site_type_symbol
 _atom_site_label
 _atom_site_symmetry_multiplicity
 _atom_site_fract_x
 _atom_site_fract_y
 _atom_site_fract_z
 _atom_site_occupancy
  Co  Co0  1  0.94373100  0.11618800  0.36248700  1
  Co  Co1  1  0.44373100  0.38381200  0.63751300  1
  Co  Co2  1  0.05626900  0.61618800  0.13751300  1
  Co  Co3  1  0.55626900  0.88381200  0.86248700  1
  Co  Co4  1  0.05626900  0.88381200  0.63751300  1
  Co  Co5  1  0.55626900  0.61618800  0.36248700  1
  Co  Co6  1  0.94373100  0.38381200  0.86248700  1
  Co  Co7  1  0.44373100  0.11618800  0.13751300  1
  H  H8  1  0.17651800  0.10988200  0.47211500  1
  H  H9  1  0.67651800  0.39011800  0.52788500  1
  H  H10  1  0.82348200  0.60988200  0.02788500  1
  H  H11  1  0.32348200  0.89011800  0.97211500  1
  H  H12  1  0.82348200  0.89011800  0.52788500  1
  H  H13  1  0.32348200  0.60988200  0.47211500  1
  H  H14  1  0.17651800  0.39011800  0.97211500  1
  H  H15  1  0.67651800  0.10988200  0.02788500  1
  H  H16  1  0.25535800  0.04686900  0.52682900  1
  H  H17  1  0.75535800  0.45313100  0.47317100  1
  H  H18  1  0.74464200  0.54686900  0.97317100  1
  H  H19  1  0.24464200  0.95313100  0.02682900  1
  H  H20  1  0.74464200  0.95313100  0.47317100  1
  H  H21  1  0.24464200  0.54686900  0.52682900  1
  H  H22  1  0.25535800  0.45313100  0.02682900  1
  H  H23  1  0.75535800  0.04686900  0.97317100  1
  H  H24  1  0.25502200  0.18384900  0.52190100  1
  H  H25  1  0.75502200  0.31615100  0.47809900  1
  H  H26  1  0.74497800  0.68384900  0.97809900  1
  H  H27  1  0.24497800  0.81615100  0.02190100  1
  H  H28  1  0.74497800  0.81615100  0.47809900  1
  H  H29  1  0.24497800  0.68384900  0.52190100  1
  H  H30  1  0.25502200  0.31615100  0.02190100  1
  H  H31  1  0.75502200  0.18384900  0.97809900  1
  H  H32  1  0.16614500  0.30256700  0.27922800  1
  H  H33  1  0.66614500  0.19743300  0.72077200  1
  H  H34  1  0.83385500  0.80256700  0.22077200  1
  H  H35  1  0.33385500  0.69743300  0.77922800  1
  H  H36  1  0.83385500  0.69743300  0.72077200  1
  H  H37  1  0.33385500  0.80256700  0.27922800  1
  H  H38  1  0.16614500  0.19743300  0.77922800  1
  H  H39  1  0.66614500  0.30256700  0.22077200  1
  H  H40  1  0.11241400  0.36828300  0.21750900  1
  H  H41  1  0.61241400  0.13171700  0.78249100  1
  H  H42  1  0.88758600  0.86828300  0.28249100  1
  H  H43  1  0.38758600  0.63171700  0.71750900  1
  H  H44  1  0.88758600  0.63171700  0.78249100  1
  H  H45  1  0.38758600  0.86828300  0.21750900  1
  H  H46  1  0.11241400  0.13171700  0.71750900  1
  H  H47  1  0.61241400  0.36828300  0.28249100  1
  H  H48  1  0.18681500  0.25355100  0.20693300  1
  H  H49  1  0.68681500  0.24644900  0.79306700  1
  H  H50  1  0.81318500  0.75355100  0.29306700  1
  H  H51  1  0.31318500  0.74644900  0.70693300  1
  H  H52  1  0.81318500  0.74644900  0.79306700  1
  H  H53  1  0.31318500  0.75355100  0.20693300  1
  H  H54  1  0.18681500  0.24644900  0.70693300  1
  H  H55  1  0.68681500  0.25355100  0.29306700  1
  H  H56  1  0.39824600  0.18607100  0.44990800  1
  H  H57  1  0.89824600  0.31392900  0.55009200  1
  H  H58  1  0.60175400  0.68607100  0.05009200  1
  H  H59  1  0.10175400  0.81392900  0.94990800  1
  H  H60  1  0.60175400  0.81392900  0.55009200  1
  H  H61  1  0.10175400  0.68607100  0.44990800  1
  H  H62  1  0.39824600  0.31392900  0.94990800  1
  H  H63  1  0.89824600  0.18607100  0.05009200  1
  H  H64  1  0.41458900  0.04334700  0.46606300  1
  H  H65  1  0.91458900  0.45665300  0.53393700  1
  H  H66  1  0.58541100  0.54334700  0.03393700  1
  H  H67  1  0.08541100  0.95665300  0.96606300  1
  H  H68  1  0.58541100  0.95665300  0.53393700  1
  H  H69  1  0.08541100  0.54334700  0.46606300  1
  H  H70  1  0.41458900  0.45665300  0.96606300  1
  H  H71  1  0.91458900  0.04334700  0.03393700  1
  H  H72  1  0.32146200  0.08747200  0.40437800  1
  H  H73  1  0.82146200  0.41252800  0.59562200  1
  H  H74  1  0.67853800  0.58747200  0.09562200  1
  H  H75  1  0.17853800  0.91252800  0.90437800  1
  H  H76  1  0.67853800  0.91252800  0.59562200  1
  H  H77  1  0.17853800  0.58747200  0.40437800  1
  H  H78  1  0.32146200  0.41252800  0.90437800  1
  H  H79  1  0.82146200  0.08747200  0.09562200  1
  H  H80  1  0.64390000  0.84168400  0.29960700  1
  H  H81  1  0.14390000  0.65831600  0.70039300  1
  H  H82  1  0.35610000  0.34168400  0.20039300  1
  H  H83  1  0.85610000  0.15831600  0.79960700  1
  H  H84  1  0.35610000  0.15831600  0.70039300  1
  H  H85  1  0.85610000  0.34168400  0.29960700  1
  H  H86  1  0.64390000  0.65831600  0.79960700  1
  H  H87  1  0.14390000  0.84168400  0.20039300  1
  H  H88  1  0.72795900  0.96476000  0.29935000  1
  H  H89  1  0.22795900  0.53524000  0.70065000  1
  H  H90  1  0.27204100  0.46476000  0.20065000  1
  H  H91  1  0.77204100  0.03524000  0.79935000  1
  H  H92  1  0.27204100  0.03524000  0.70065000  1
  H  H93  1  0.77204100  0.46476000  0.29935000  1
  H  H94  1  0.72795900  0.53524000  0.79935000  1
  H  H95  1  0.22795900  0.96476000  0.20065000  1
  H  H96  1  0.67377000  0.91069300  0.22751900  1
  H  H97  1  0.17377000  0.58930700  0.77248100  1
  H  H98  1  0.32623000  0.41069300  0.27248100  1
  H  H99  1  0.82623000  0.08930700  0.72751900  1
  H  H100  1  0.32623000  0.08930700  0.77248100  1
  H  H101  1  0.82623000  0.41069300  0.22751900  1
  H  H102  1  0.67377000  0.58930700  0.72751900  1
  H  H103  1  0.17377000  0.91069300  0.27248100  1
  C  C104  1  0.35480400  0.10714300  0.45100100  1
  C  C105  1  0.85480400  0.39285700  0.54899900  1
  C  C106  1  0.64519600  0.60714300  0.04899900  1
  C  C107  1  0.14519600  0.89285700  0.95100100  1
  C  C108  1  0.64519600  0.89285700  0.54899900  1
  C  C109  1  0.14519600  0.60714300  0.45100100  1
  C  C110  1  0.35480400  0.39285700  0.95100100  1
  C  C111  1  0.85480400  0.10714300  0.04899900  1
  C  C112  1  0.70734600  0.89003900  0.27380900  1
  C  C113  1  0.20734600  0.60996100  0.72619100  1
  C  C114  1  0.29265400  0.39003900  0.22619100  1
  C  C115  1  0.79265400  0.10996100  0.77380900  1
  C  C116  1  0.29265400  0.10996100  0.72619100  1
  C  C117  1  0.79265400  0.39003900  0.27380900  1
  C  C118  1  0.70734600  0.60996100  0.77380900  1
  C  C119  1  0.20734600  0.89003900  0.22619100  1
  I  I120  1  0.93798500  0.10975600  0.24215800  1
  I  I121  1  0.43798500  0.39024400  0.75784200  1
  I  I122  1  0.06201500  0.60975600  0.25784200  1
  I  I123  1  0.56201500  0.89024400  0.74215800  1
  I  I124  1  0.06201500  0.89024400  0.75784200  1
  I  I125  1  0.56201500  0.60975600  0.24215800  1
  I  I126  1  0.93798500  0.39024400  0.74215800  1
  I  I127  1  0.43798500  0.10975600  0.25784200  1
  I  I128  1  0.73469400  0.14082900  0.40944900  1
  I  I129  1  0.23469400  0.35917100  0.59055100  1
  I  I130  1  0.26530600  0.64082900  0.09055100  1
  I  I131  1  0.76530600  0.85917100  0.90944900  1
  I  I132  1  0.26530600  0.85917100  0.59055100  1
  I  I133  1  0.76530600  0.64082900  0.40944900  1
  I  I134  1  0.73469400  0.35917100  0.90944900  1
  I  I135  1  0.23469400  0.14082900  0.09055100  1
  I  I136  1  0.07332400  0.27998200  0.39396000  1
  I  I137  1  0.57332400  0.22001800  0.60604000  1
  I  I138  1  0.92667600  0.77998200  0.10604000  1
  I  I139  1  0.42667600  0.72001800  0.89396000  1
  I  I140  1  0.92667600  0.72001800  0.60604000  1
  I  I141  1  0.42667600  0.77998200  0.39396000  1
  I  I142  1  0.07332400  0.22001800  0.89396000  1
  I  I143  1  0.57332400  0.27998200  0.10604000  1
  I  I144  1  0.03053800  0.93567700  0.40057500  1
  I  I145  1  0.53053800  0.56432300  0.59942500  1
  I  I146  1  0.96946200  0.43567700  0.09942500  1
  I  I147  1  0.46946200  0.06432300  0.90057500  1
  I  I148  1  0.96946200  0.06432300  0.59942500  1
  I  I149  1  0.46946200  0.43567700  0.40057500  1
  I  I150  1  0.03053800  0.56432300  0.90057500  1
  I  I151  1  0.53053800  0.93567700  0.09942500  1
  N  N152  1  0.25455000  0.11214800  0.49588500  1
  N  N153  1  0.75455000  0.38785200  0.50411500  1
  N  N154  1  0.74545000  0.61214800  0.00411500  1
  N  N155  1  0.24545000  0.88785200  0.99588500  1
  N  N156  1  0.74545000  0.88785200  0.50411500  1
  N  N157  1  0.24545000  0.61214800  0.49588500  1
  N  N158  1  0.25455000  0.38785200  0.99588500  1
  N  N159  1  0.75455000  0.11214800  0.00411500  1
  N  N160  1  0.18287900  0.32417100  0.23310200  1
  N  N161  1  0.68287900  0.17582900  0.76689800  1
  N  N162  1  0.81712100  0.82417100  0.26689800  1
  N  N163  1  0.31712100  0.67582900  0.73310200  1
  N  N164  1  0.81712100  0.67582900  0.76689800  1
  N  N165  1  0.31712100  0.82417100  0.23310200  1
  N  N166  1  0.18287900  0.17582900  0.73310200  1
  N  N167  1  0.68287900  0.32417100  0.26689800  1
