# generated using pymatgen
data_Nb2NiS4
_symmetry_space_group_name_H-M   'P 1'
_cell_length_a   3.37289000
_cell_length_b   10.41037600
_cell_length_c   15.65573400
_cell_angle_alpha   90.00000000
_cell_angle_beta   90.00000000
_cell_angle_gamma   90.00000000
_symmetry_Int_Tables_number   1
_chemical_formula_structural   Nb2NiS4
_chemical_formula_sum   'Nb8 Ni4 S16'
_cell_volume   549.72061937
_cell_formula_units_Z   4
loop_
 _symmetry_equiv_pos_site_id
 _symmetry_equiv_pos_as_xyz
  1  'x, y, z'
loop_
 _atom_site_type_symbol
 _atom_site_label
 _atom_site_symmetry_multiplicity
 _atom_site_fract_x
 _atom_site_fract_y
 _atom_site_fract_z
 _atom_site_occupancy
  Nb  Nb0  1  0.75000000  0.44474400  0.92221800  1
  Nb  Nb1  1  0.75000000  0.94474400  0.57778200  1
  Nb  Nb2  1  0.25000000  0.55525600  0.07778200  1
  Nb  Nb3  1  0.25000000  0.05525600  0.42221800  1
  Nb  Nb4  1  0.75000000  0.36528300  0.43796900  1
  Nb  Nb5  1  0.75000000  0.86528300  0.06203100  1
  Nb  Nb6  1  0.25000000  0.63471700  0.56203100  1
  Nb  Nb7  1  0.25000000  0.13471700  0.93796900  1
  Ni  Ni8  1  0.75000000  0.33427900  0.26504000  1
  Ni  Ni9  1  0.75000000  0.83427900  0.23496000  1
  Ni  Ni10  1  0.25000000  0.66572100  0.73496000  1
  Ni  Ni11  1  0.25000000  0.16572100  0.76504000  1
  S  S12  1  0.75000000  0.16433000  0.51987600  1
  S  S13  1  0.75000000  0.66433000  0.98012400  1
  S  S14  1  0.25000000  0.83567000  0.48012400  1
  S  S15  1  0.25000000  0.33567000  0.01987600  1
  S  S16  1  0.75000000  0.23692200  0.83673200  1
  S  S17  1  0.75000000  0.73692200  0.66326800  1
  S  S18  1  0.25000000  0.76307800  0.16326800  1
  S  S19  1  0.25000000  0.26307800  0.33673200  1
  S  S20  1  0.75000000  0.46304100  0.58662800  1
  S  S21  1  0.75000000  0.96304100  0.91337200  1
  S  S22  1  0.25000000  0.53695900  0.41337200  1
  S  S23  1  0.25000000  0.03695900  0.08662800  1
  S  S24  1  0.75000000  0.49827500  0.18516500  1
  S  S25  1  0.75000000  0.99827500  0.31483500  1
  S  S26  1  0.25000000  0.50172500  0.81483500  1
  S  S27  1  0.25000000  0.00172500  0.68516500  1
