# generated using pymatgen
data_Fe3OF9
_symmetry_space_group_name_H-M   'P 1'
_cell_length_a   7.47577266
_cell_length_b   7.47577266
_cell_length_c   7.60079600
_cell_angle_alpha   90.00000000
_cell_angle_beta   90.00000000
_cell_angle_gamma   119.72612612
_symmetry_Int_Tables_number   1
_chemical_formula_structural   Fe3OF9
_chemical_formula_sum   'Fe6 O2 F18'
_cell_volume   368.88739367
_cell_formula_units_Z   2
loop_
 _symmetry_equiv_pos_site_id
 _symmetry_equiv_pos_as_xyz
  1  'x, y, z'
loop_
 _atom_site_type_symbol
 _atom_site_label
 _atom_site_symmetry_multiplicity
 _atom_site_fract_x
 _atom_site_fract_y
 _atom_site_fract_z
 _atom_site_occupancy
  Fe  Fe0  1  0.50000000  0.50000000  0.00000000  1
  Fe  Fe1  1  0.50000000  0.50000000  0.50000000  1
  Fe  Fe2  1  0.50000000  0.00000000  0.00000000  1
  Fe  Fe3  1  0.00000000  0.50000000  0.00000000  1
  Fe  Fe4  1  0.50000000  0.00000000  0.50000000  1
  Fe  Fe5  1  0.00000000  0.50000000  0.50000000  1
  O  O6  1  0.99944800  0.00055200  0.75000000  1
  O  O7  1  0.00055200  0.99944800  0.25000000  1
  F  F8  1  0.78405500  0.21594500  0.44729300  1
  F  F9  1  0.21594500  0.78405500  0.55270700  1
  F  F10  1  0.78405500  0.21594500  0.05270700  1
  F  F11  1  0.21594500  0.78405500  0.94729300  1
  F  F12  1  0.41901500  0.21071000  0.95679800  1
  F  F13  1  0.21071000  0.41901500  0.04320200  1
  F  F14  1  0.41901500  0.21071000  0.54320200  1
  F  F15  1  0.21071000  0.41901500  0.45679800  1
  F  F16  1  0.58098500  0.78929000  0.04320200  1
  F  F17  1  0.78929000  0.58098500  0.95679800  1
  F  F18  1  0.58098500  0.78929000  0.45679800  1
  F  F19  1  0.78929000  0.58098500  0.54320200  1
  F  F20  1  0.46301700  0.53698300  0.75000000  1
  F  F21  1  0.53698300  0.46301700  0.25000000  1
  F  F22  1  0.57443900  0.00899500  0.75000000  1
  F  F23  1  0.00899500  0.57443900  0.25000000  1
  F  F24  1  0.42556100  0.99100500  0.25000000  1
  F  F25  1  0.99100500  0.42556100  0.75000000  1
