# generated using pymatgen
data_RbNdSe2O11
_symmetry_space_group_name_H-M   'P 1'
_cell_length_a   5.72297000
_cell_length_b   7.27536345
_cell_length_c   14.68429173
_cell_angle_alpha   95.46201503
_cell_angle_beta   100.15943788
_cell_angle_gamma   106.76389461
_symmetry_Int_Tables_number   1
_chemical_formula_structural   RbNdSe2O11
_chemical_formula_sum   'Rb2 Nd2 Se4 O22'
_cell_volume   569.28059571
_cell_formula_units_Z   2
loop_
 _symmetry_equiv_pos_site_id
 _symmetry_equiv_pos_as_xyz
  1  'x, y, z'
loop_
 _atom_site_type_symbol
 _atom_site_label
 _atom_site_symmetry_multiplicity
 _atom_site_fract_x
 _atom_site_fract_y
 _atom_site_fract_z
 _atom_site_occupancy
  Rb  Rb0  1  0.69452400  0.22547900  0.61154600  1
  Rb  Rb1  1  0.30547600  0.77452100  0.38845400  1
  Nd  Nd2  1  0.95227900  0.69384600  0.83310800  1
  Nd  Nd3  1  0.04772100  0.30615400  0.16689200  1
  Se  Se4  1  0.34338800  0.59336000  0.64343800  1
  Se  Se5  1  0.65661200  0.40664000  0.35656200  1
  Se  Se6  1  0.97179300  0.20963300  0.91287400  1
  Se  Se7  1  0.02820700  0.79036700  0.08712600  1
  O  O8  1  0.61368400  0.58308800  0.71010600  1
  O  O9  1  0.38631600  0.41691200  0.28989400  1
  O  O10  1  0.15814600  0.62081000  0.71898700  1
  O  O11  1  0.84185400  0.37919000  0.28101300  1
  O  O12  1  0.40779000  0.78305800  0.58773300  1
  O  O13  1  0.59221000  0.21694200  0.41226700  1
  O  O14  1  0.21120300  0.38032300  0.57526700  1
  O  O15  1  0.78879700  0.61967700  0.42473300  1
  O  O16  1  0.85150900  0.18437800  0.00847400  1
  O  O17  1  0.14849100  0.81562200  0.99152600  1
  O  O18  1  0.86339600  0.99878800  0.83839300  1
  O  O19  1  0.13660400  0.00121200  0.16160700  1
  O  O20  1  0.28602300  0.28349900  0.94114000  1
  O  O21  1  0.71397700  0.71650100  0.05886000  1
  O  O22  1  0.86640800  0.36842500  0.85567100  1
  O  O23  1  0.13359200  0.63157500  0.14432900  1
  O  O24  1  0.58110700  0.67490500  0.90939800  1
  O  O25  1  0.41889300  0.32509500  0.09060200  1
  O  O26  1  0.11515700  0.02583400  0.66617200  1
  O  O27  1  0.88484300  0.97416600  0.33382800  1
  O  O28  1  0.28215900  0.05284500  0.73663100  1
  O  O29  1  0.71784100  0.94715500  0.26336900  1
