# generated using pymatgen
data_YbMn28
_symmetry_space_group_name_H-M   'P 1'
_cell_length_a   7.54341728
_cell_length_b   7.54341728
_cell_length_c   7.54341728
_cell_angle_alpha   109.47122063
_cell_angle_beta   109.47122063
_cell_angle_gamma   109.47122063
_symmetry_Int_Tables_number   1
_chemical_formula_structural   YbMn28
_chemical_formula_sum   'Yb1 Mn28'
_cell_volume   330.43231037
_cell_formula_units_Z   1
loop_
 _symmetry_equiv_pos_site_id
 _symmetry_equiv_pos_as_xyz
  1  'x, y, z'
loop_
 _atom_site_type_symbol
 _atom_site_label
 _atom_site_symmetry_multiplicity
 _atom_site_fract_x
 _atom_site_fract_y
 _atom_site_fract_z
 _atom_site_occupancy
  Yb  Yb0  1  0.00000000  0.00000000  0.00000000  1
  Mn  Mn1  1  0.62601600  0.00000000  0.00000000  1
  Mn  Mn2  1  0.00000000  0.62601600  0.00000000  1
  Mn  Mn3  1  0.00000000  0.00000000  0.62601600  1
  Mn  Mn4  1  0.37398400  0.37398400  0.37398400  1
  Mn  Mn5  1  0.39270400  0.67825300  0.00000000  1
  Mn  Mn6  1  0.71445100  0.32174700  0.32174700  1
  Mn  Mn7  1  0.39270400  0.00000000  0.67825300  1
  Mn  Mn8  1  0.67825300  0.39270400  0.00000000  1
  Mn  Mn9  1  0.00000000  0.39270400  0.67825300  1
  Mn  Mn10  1  0.32174700  0.71445100  0.32174700  1
  Mn  Mn11  1  0.32174700  0.32174700  0.71445100  1
  Mn  Mn12  1  0.00000000  0.67825300  0.39270400  1
  Mn  Mn13  1  0.67825300  0.00000000  0.39270400  1
  Mn  Mn14  1  0.60729600  0.60729600  0.28554900  1
  Mn  Mn15  1  0.28554900  0.60729600  0.60729600  1
  Mn  Mn16  1  0.60729600  0.28554900  0.60729600  1
  Mn  Mn17  1  0.37741500  0.19863200  0.00000000  1
  Mn  Mn18  1  0.17878300  0.80136800  0.80136800  1
  Mn  Mn19  1  0.37741500  0.00000000  0.19863200  1
  Mn  Mn20  1  0.19863200  0.37741500  0.00000000  1
  Mn  Mn21  1  0.00000000  0.37741500  0.19863200  1
  Mn  Mn22  1  0.80136800  0.17878300  0.80136800  1
  Mn  Mn23  1  0.80136800  0.80136800  0.17878300  1
  Mn  Mn24  1  0.00000000  0.19863200  0.37741500  1
  Mn  Mn25  1  0.19863200  0.00000000  0.37741500  1
  Mn  Mn26  1  0.62258500  0.62258500  0.82121700  1
  Mn  Mn27  1  0.82121700  0.62258500  0.62258500  1
  Mn  Mn28  1  0.62258500  0.82121700  0.62258500  1
