# generated using pymatgen
data_SrAl2(SiO5)2
_symmetry_space_group_name_H-M   'P 1'
_cell_length_a   13.18749400
_cell_length_b   5.38638500
_cell_length_c   5.44104839
_cell_angle_alpha   66.29446028
_cell_angle_beta   90.00000000
_cell_angle_gamma   90.00000000
_symmetry_Int_Tables_number   1
_chemical_formula_structural   SrAl2(SiO5)2
_chemical_formula_sum   'Sr2 Al4 Si4 O20'
_cell_volume   353.88266824
_cell_formula_units_Z   2
loop_
 _symmetry_equiv_pos_site_id
 _symmetry_equiv_pos_as_xyz
  1  'x, y, z'
loop_
 _atom_site_type_symbol
 _atom_site_label
 _atom_site_symmetry_multiplicity
 _atom_site_fract_x
 _atom_site_fract_y
 _atom_site_fract_z
 _atom_site_occupancy
  Sr  Sr0  1  0.75000000  0.32147500  0.34309300  1
  Sr  Sr1  1  0.25000000  0.67852500  0.65690700  1
  Al  Al2  1  0.00000000  0.00000000  0.50000000  1
  Al  Al3  1  0.50000000  0.00000000  0.50000000  1
  Al  Al4  1  0.00000000  0.50000000  0.00000000  1
  Al  Al5  1  0.50000000  0.50000000  0.00000000  1
  Si  Si6  1  0.12826500  0.00975700  0.02554600  1
  Si  Si7  1  0.62826500  0.99024300  0.97445400  1
  Si  Si8  1  0.87173500  0.99024300  0.97445400  1
  Si  Si9  1  0.37173500  0.00975700  0.02554600  1
  O  O10  1  0.75000000  0.05397700  0.00845200  1
  O  O11  1  0.25000000  0.94602300  0.99154800  1
  O  O12  1  0.11046300  0.33923200  0.89924600  1
  O  O13  1  0.61046300  0.66076800  0.10075400  1
  O  O14  1  0.88953700  0.66076800  0.10075400  1
  O  O15  1  0.38953700  0.33923200  0.89924600  1
  O  O16  1  0.39667900  0.87527300  0.34603700  1
  O  O17  1  0.89667900  0.12472700  0.65396300  1
  O  O18  1  0.60332100  0.12472700  0.65396300  1
  O  O19  1  0.10332100  0.87527300  0.34603700  1
  O  O20  1  0.07227700  0.85489500  0.85499100  1
  O  O21  1  0.57227700  0.14510500  0.14500900  1
  O  O22  1  0.92772300  0.14510500  0.14500900  1
  O  O23  1  0.42772300  0.85489500  0.85499100  1
  O  O24  1  0.06153700  0.34801000  0.34510000  1
  O  O25  1  0.56153700  0.65199000  0.65490000  1
  O  O26  1  0.93846300  0.65199000  0.65490000  1
  O  O27  1  0.43846300  0.34801000  0.34510000  1
  O  O28  1  0.75000000  0.71449900  0.54262300  1
  O  O29  1  0.25000000  0.28550100  0.45737700  1
