# generated using pymatgen
data_Hg2H8C2NCl5
_symmetry_space_group_name_H-M   'P 1'
_cell_length_a   7.33883000
_cell_length_b   10.72471900
_cell_length_c   18.07661998
_cell_angle_alpha   67.02156776
_cell_angle_beta   90.00000000
_cell_angle_gamma   90.00000000
_symmetry_Int_Tables_number   1
_chemical_formula_structural   Hg2H8C2NCl5
_chemical_formula_sum   'Hg8 H32 C8 N4 Cl20'
_cell_volume   1309.86162139
_cell_formula_units_Z   4
loop_
 _symmetry_equiv_pos_site_id
 _symmetry_equiv_pos_as_xyz
  1  'x, y, z'
loop_
 _atom_site_type_symbol
 _atom_site_label
 _atom_site_symmetry_multiplicity
 _atom_site_fract_x
 _atom_site_fract_y
 _atom_site_fract_z
 _atom_site_occupancy
  Hg  Hg0  1  0.87824700  0.50032500  0.34773500  1
  Hg  Hg1  1  0.37824700  0.49967500  0.15226500  1
  Hg  Hg2  1  0.12175300  0.49967500  0.65226500  1
  Hg  Hg3  1  0.62175300  0.50032500  0.84773500  1
  Hg  Hg4  1  0.38307800  0.65616500  0.40314200  1
  Hg  Hg5  1  0.88307800  0.34383500  0.09685800  1
  Hg  Hg6  1  0.61692200  0.34383500  0.59685800  1
  Hg  Hg7  1  0.11692200  0.65616500  0.90314200  1
  H  H8  1  0.27173200  0.06721100  0.31822600  1
  H  H9  1  0.77173200  0.93278900  0.18177400  1
  H  H10  1  0.72826800  0.93278900  0.68177400  1
  H  H11  1  0.22826800  0.06721100  0.81822600  1
  H  H12  1  0.14361800  0.20609800  0.29950300  1
  H  H13  1  0.64361800  0.79390200  0.20049700  1
  H  H14  1  0.85638200  0.79390200  0.70049700  1
  H  H15  1  0.35638200  0.20609800  0.79950300  1
  H  H16  1  0.94367000  0.05761700  0.41484700  1
  H  H17  1  0.44367000  0.94238300  0.08515300  1
  H  H18  1  0.05633000  0.94238300  0.58515300  1
  H  H19  1  0.55633000  0.05761700  0.91484700  1
  H  H20  1  0.06024700  0.91964300  0.40195000  1
  H  H21  1  0.56024700  0.08035700  0.09805000  1
  H  H22  1  0.93975300  0.08035700  0.59805000  1
  H  H23  1  0.43975300  0.91964300  0.90195000  1
  H  H24  1  0.93113200  0.03902700  0.32087300  1
  H  H25  1  0.43113200  0.96097300  0.17912700  1
  H  H26  1  0.06886800  0.96097300  0.67912700  1
  H  H27  1  0.56886800  0.03902700  0.82087300  1
  H  H28  1  0.32305400  0.04438800  0.45555900  1
  H  H29  1  0.82305400  0.95561200  0.04444100  1
  H  H30  1  0.67694600  0.95561200  0.54444100  1
  H  H31  1  0.17694600  0.04438800  0.95555900  1
  H  H32  1  0.19041500  0.19628800  0.43212500  1
  H  H33  1  0.69041500  0.80371200  0.06787500  1
  H  H34  1  0.80958500  0.80371200  0.56787500  1
  H  H35  1  0.30958500  0.19628800  0.93212500  1
  H  H36  1  0.40208000  0.20184800  0.38139000  1
  H  H37  1  0.90208000  0.79815200  0.11861000  1
  H  H38  1  0.59792000  0.79815200  0.61861000  1
  H  H39  1  0.09792000  0.20184800  0.88139000  1
  C  C40  1  0.01753000  0.02554900  0.37274800  1
  C  C41  1  0.51753000  0.97445100  0.12725200  1
  C  C42  1  0.98247000  0.97445100  0.62725200  1
  C  C43  1  0.48247000  0.02554900  0.87274800  1
  C  C44  1  0.28168500  0.14053600  0.40811000  1
  C  C45  1  0.78168500  0.85946400  0.09189000  1
  C  C46  1  0.71831500  0.85946400  0.59189000  1
  C  C47  1  0.21831500  0.14053600  0.90811000  1
  N  N48  1  0.18270200  0.11249100  0.34421600  1
  N  N49  1  0.68270200  0.88750900  0.15578400  1
  N  N50  1  0.81729800  0.88750900  0.65578400  1
  N  N51  1  0.31729800  0.11249100  0.84421600  1
  Cl  Cl52  1  0.02088700  0.71891600  0.30070200  1
  Cl  Cl53  1  0.52088700  0.28108400  0.19929800  1
  Cl  Cl54  1  0.97911300  0.28108400  0.69929800  1
  Cl  Cl55  1  0.47911300  0.71891600  0.80070200  1
  Cl  Cl56  1  0.79006800  0.27925200  0.43881400  1
  Cl  Cl57  1  0.29006800  0.72074800  0.06118600  1
  Cl  Cl58  1  0.20993200  0.72074800  0.56118600  1
  Cl  Cl59  1  0.70993200  0.27925200  0.93881400  1
  Cl  Cl60  1  0.54695400  0.59790600  0.26944500  1
  Cl  Cl61  1  0.04695400  0.40209400  0.23055500  1
  Cl  Cl62  1  0.45304600  0.40209400  0.73055500  1
  Cl  Cl63  1  0.95304600  0.59790600  0.76944500  1
  Cl  Cl64  1  0.49519800  0.88140200  0.34970100  1
  Cl  Cl65  1  0.99519800  0.11859800  0.15029900  1
  Cl  Cl66  1  0.50480200  0.11859800  0.65029900  1
  Cl  Cl67  1  0.00480200  0.88140200  0.84970100  1
  Cl  Cl68  1  0.26429800  0.43885100  0.47909200  1
  Cl  Cl69  1  0.76429800  0.56114900  0.02090800  1
  Cl  Cl70  1  0.73570200  0.56114900  0.52090800  1
  Cl  Cl71  1  0.23570200  0.43885100  0.97909200  1
