# generated using pymatgen
data_CsH3CN2O
_symmetry_space_group_name_H-M   'P 1'
_cell_length_a   6.51940500
_cell_length_b   7.25628100
_cell_length_c   9.33152300
_cell_angle_alpha   90.00000000
_cell_angle_beta   90.00000000
_cell_angle_gamma   90.00000000
_symmetry_Int_Tables_number   1
_chemical_formula_structural   CsH3CN2O
_chemical_formula_sum   'Cs4 H12 C4 N8 O4'
_cell_volume   441.44294913
_cell_formula_units_Z   4
loop_
 _symmetry_equiv_pos_site_id
 _symmetry_equiv_pos_as_xyz
  1  'x, y, z'
loop_
 _atom_site_type_symbol
 _atom_site_label
 _atom_site_symmetry_multiplicity
 _atom_site_fract_x
 _atom_site_fract_y
 _atom_site_fract_z
 _atom_site_occupancy
  Cs  Cs0  1  0.83242800  0.57299200  0.36297900  1
  Cs  Cs1  1  0.66757200  0.42700800  0.86297900  1
  Cs  Cs2  1  0.33242800  0.92700800  0.63702100  1
  Cs  Cs3  1  0.16757200  0.07299200  0.13702100  1
  H  H4  1  0.94592800  0.82385300  0.85767600  1
  H  H5  1  0.55407200  0.17614700  0.35767600  1
  H  H6  1  0.44592800  0.67614700  0.14232400  1
  H  H7  1  0.05407200  0.32385300  0.64232400  1
  H  H8  1  0.81135200  0.99190600  0.75479000  1
  H  H9  1  0.68864800  0.00809400  0.25479000  1
  H  H10  1  0.31135200  0.50809400  0.24521000  1
  H  H11  1  0.18864800  0.49190600  0.74521000  1
  H  H12  1  0.81996500  0.73980200  0.06251000  1
  H  H13  1  0.68003500  0.26019800  0.56251000  1
  H  H14  1  0.31996500  0.76019800  0.93749000  1
  H  H15  1  0.18003500  0.23980200  0.43749000  1
  C  C16  1  0.67715200  0.92577400  0.95232700  1
  C  C17  1  0.82284800  0.07422600  0.45232700  1
  C  C18  1  0.17715200  0.57422600  0.04767300  1
  C  C19  1  0.32284800  0.42577400  0.54767300  1
  N  N20  1  0.81934900  0.90664300  0.84270800  1
  N  N21  1  0.68065100  0.09335700  0.34270800  1
  N  N22  1  0.31934900  0.59335700  0.15729200  1
  N  N23  1  0.18065100  0.40664300  0.65729200  1
  N  N24  1  0.69464300  0.82515900  0.07256700  1
  N  N25  1  0.80535700  0.17484100  0.57256700  1
  N  N26  1  0.19464300  0.67484100  0.92743300  1
  N  N27  1  0.30535700  0.32515900  0.42743300  1
  O  O28  1  0.52830000  0.03999900  0.93180000  1
  O  O29  1  0.97170000  0.96000100  0.43180000  1
  O  O30  1  0.02830000  0.46000100  0.06820000  1
  O  O31  1  0.47170000  0.53999900  0.56820000  1
