# generated using pymatgen
data_Ba4Y2Fe2O11
_symmetry_space_group_name_H-M   'P 1'
_cell_length_a   6.14441800
_cell_length_b   8.22726400
_cell_length_c   12.32419800
_cell_angle_alpha   90.00000000
_cell_angle_beta   90.00000000
_cell_angle_gamma   90.00000000
_symmetry_Int_Tables_number   1
_chemical_formula_structural   Ba4Y2Fe2O11
_chemical_formula_sum   'Ba8 Y4 Fe4 O22'
_cell_volume   623.00976407
_cell_formula_units_Z   2
loop_
 _symmetry_equiv_pos_site_id
 _symmetry_equiv_pos_as_xyz
  1  'x, y, z'
loop_
 _atom_site_type_symbol
 _atom_site_label
 _atom_site_symmetry_multiplicity
 _atom_site_fract_x
 _atom_site_fract_y
 _atom_site_fract_z
 _atom_site_occupancy
  Ba  Ba0  1  0.72658000  0.23789700  0.86745800  1
  Ba  Ba1  1  0.72658000  0.76210300  0.86745800  1
  Ba  Ba2  1  0.22658000  0.76210300  0.13254200  1
  Ba  Ba3  1  0.22658000  0.23789700  0.13254200  1
  Ba  Ba4  1  0.24387900  0.22897500  0.60712000  1
  Ba  Ba5  1  0.24387900  0.77102500  0.60712000  1
  Ba  Ba6  1  0.74387900  0.77102500  0.39288000  1
  Ba  Ba7  1  0.74387900  0.22897500  0.39288000  1
  Y  Y8  1  0.74345800  0.50000000  0.62500500  1
  Y  Y9  1  0.24345800  0.50000000  0.37499500  1
  Y  Y10  1  0.22445400  0.00000000  0.87434800  1
  Y  Y11  1  0.72445400  0.00000000  0.12565200  1
  Fe  Fe12  1  0.73098400  0.00000000  0.63816900  1
  Fe  Fe13  1  0.23098400  0.00000000  0.36183100  1
  Fe  Fe14  1  0.22061400  0.50000000  0.84108900  1
  Fe  Fe15  1  0.72061400  0.50000000  0.15891100  1
  O  O16  1  0.52393100  0.50000000  0.48475900  1
  O  O17  1  0.02393100  0.50000000  0.51524100  1
  O  O18  1  0.75532200  0.22844000  0.62819600  1
  O  O19  1  0.75532200  0.77156000  0.62819600  1
  O  O20  1  0.25532200  0.77156000  0.37180400  1
  O  O21  1  0.25532200  0.22844000  0.37180400  1
  O  O22  1  0.23238100  0.29217000  0.89615800  1
  O  O23  1  0.23238100  0.70783000  0.89615800  1
  O  O24  1  0.73238100  0.70783000  0.10384200  1
  O  O25  1  0.73238100  0.29217000  0.10384200  1
  O  O26  1  0.45811400  0.50000000  0.75083700  1
  O  O27  1  0.95811400  0.50000000  0.24916300  1
  O  O28  1  0.44398500  0.50000000  0.21352100  1
  O  O29  1  0.94398500  0.50000000  0.78647900  1
  O  O30  1  0.49850200  0.00000000  0.75461200  1
  O  O31  1  0.99850200  0.00000000  0.24538800  1
  O  O32  1  0.47970900  0.00000000  0.26366500  1
  O  O33  1  0.97970900  0.00000000  0.73633500  1
  O  O34  1  0.44110900  0.00000000  0.01524500  1
  O  O35  1  0.94110900  0.00000000  0.98475500  1
  O  O36  1  0.53881500  0.00000000  0.51944600  1
  O  O37  1  0.03881500  0.00000000  0.48055400  1
