# generated using pymatgen
data_CsPSe6
_symmetry_space_group_name_H-M   'P 1'
_cell_length_a   12.79460000
_cell_length_b   12.79460000
_cell_length_c   13.10258000
_cell_angle_alpha   90.00000000
_cell_angle_beta   90.00000000
_cell_angle_gamma   90.00000000
_symmetry_Int_Tables_number   1
_chemical_formula_structural   CsPSe6
_chemical_formula_sum   'Cs8 P8 Se48'
_cell_volume   2144.91578861
_cell_formula_units_Z   8
loop_
 _symmetry_equiv_pos_site_id
 _symmetry_equiv_pos_as_xyz
  1  'x, y, z'
loop_
 _atom_site_type_symbol
 _atom_site_label
 _atom_site_symmetry_multiplicity
 _atom_site_fract_x
 _atom_site_fract_y
 _atom_site_fract_z
 _atom_site_occupancy
  Cs  Cs0  1  0.00000000  0.00000000  0.50000000  1
  Cs  Cs1  1  0.50000000  0.50000000  0.00000000  1
  Cs  Cs2  1  0.00000000  0.00000000  0.00000000  1
  Cs  Cs3  1  0.50000000  0.50000000  0.50000000  1
  Cs  Cs4  1  0.50000000  0.00000000  0.21260200  1
  Cs  Cs5  1  0.00000000  0.50000000  0.28739800  1
  Cs  Cs6  1  0.00000000  0.50000000  0.78739800  1
  Cs  Cs7  1  0.50000000  0.00000000  0.71260200  1
  P  P8  1  0.75884100  0.73218900  0.08744800  1
  P  P9  1  0.25884100  0.76781100  0.41255200  1
  P  P10  1  0.24115900  0.26781100  0.08744800  1
  P  P11  1  0.74115900  0.23218900  0.41255200  1
  P  P12  1  0.73218900  0.24115900  0.91255200  1
  P  P13  1  0.76781100  0.74115900  0.58744800  1
  P  P14  1  0.26781100  0.75884100  0.91255200  1
  P  P15  1  0.23218900  0.25884100  0.58744800  1
  Se  Se16  1  0.80004700  0.87918800  0.18213700  1
  Se  Se17  1  0.30004700  0.62081200  0.31786300  1
  Se  Se18  1  0.19995300  0.12081200  0.18213700  1
  Se  Se19  1  0.69995300  0.37918800  0.31786300  1
  Se  Se20  1  0.87918800  0.19995300  0.81786300  1
  Se  Se21  1  0.62081200  0.69995300  0.68213700  1
  Se  Se22  1  0.12081200  0.80004700  0.81786300  1
  Se  Se23  1  0.37918800  0.30004700  0.68213700  1
  Se  Se24  1  0.91943900  0.80321100  0.29890100  1
  Se  Se25  1  0.41943900  0.69678900  0.20109900  1
  Se  Se26  1  0.08056100  0.19678900  0.29890100  1
  Se  Se27  1  0.58056100  0.30321100  0.20109900  1
  Se  Se28  1  0.80321100  0.08056100  0.70109900  1
  Se  Se29  1  0.69678900  0.58056100  0.79890100  1
  Se  Se30  1  0.19678900  0.91943900  0.70109900  1
  Se  Se31  1  0.30321100  0.41943900  0.79890100  1
  Se  Se32  1  0.57720200  0.71435200  0.30106900  1
  Se  Se33  1  0.07720200  0.78564800  0.19893100  1
  Se  Se34  1  0.42279800  0.28564800  0.30106900  1
  Se  Se35  1  0.92279800  0.21435200  0.19893100  1
  Se  Se36  1  0.71435200  0.42279800  0.69893100  1
  Se  Se37  1  0.78564800  0.92279800  0.80106900  1
  Se  Se38  1  0.28564800  0.57720200  0.69893100  1
  Se  Se39  1  0.21435200  0.07720200  0.80106900  1
  Se  Se40  1  0.70234900  0.61314600  0.20818500  1
  Se  Se41  1  0.20234900  0.88685400  0.29181500  1
  Se  Se42  1  0.29765100  0.38685400  0.20818500  1
  Se  Se43  1  0.79765100  0.11314600  0.29181500  1
  Se  Se44  1  0.61314600  0.29765100  0.79181500  1
  Se  Se45  1  0.88685400  0.79765100  0.70818500  1
  Se  Se46  1  0.38685400  0.70234900  0.79181500  1
  Se  Se47  1  0.11314600  0.20234900  0.70818500  1
  Se  Se48  1  0.63086700  0.78750300  0.99504600  1
  Se  Se49  1  0.13086700  0.71249700  0.50495400  1
  Se  Se50  1  0.36913300  0.21249700  0.99504600  1
  Se  Se51  1  0.86913300  0.28750300  0.50495400  1
  Se  Se52  1  0.78750300  0.36913300  0.00495400  1
  Se  Se53  1  0.71249700  0.86913300  0.49504600  1
  Se  Se54  1  0.21249700  0.63086700  0.00495400  1
  Se  Se55  1  0.28750300  0.13086700  0.49504600  1
  Se  Se56  1  0.90068000  0.66168600  0.03026100  1
  Se  Se57  1  0.40068000  0.83831400  0.46973900  1
  Se  Se58  1  0.09932000  0.33831400  0.03026100  1
  Se  Se59  1  0.59932000  0.16168600  0.46973900  1
  Se  Se60  1  0.66168600  0.09932000  0.96973900  1
  Se  Se61  1  0.83831400  0.59932000  0.53026100  1
  Se  Se62  1  0.33831400  0.90068000  0.96973900  1
  Se  Se63  1  0.16168600  0.40068000  0.53026100  1
