# generated using pymatgen
data_RbU3F13
_symmetry_space_group_name_H-M   'P 1'
_cell_length_a   7.39558400
_cell_length_b   8.10314700
_cell_length_c   8.52508300
_cell_angle_alpha   90.00000000
_cell_angle_beta   90.00000000
_cell_angle_gamma   90.00000000
_symmetry_Int_Tables_number   1
_chemical_formula_structural   RbU3F13
_chemical_formula_sum   'Rb2 U6 F26'
_cell_volume   510.88694816
_cell_formula_units_Z   2
loop_
 _symmetry_equiv_pos_site_id
 _symmetry_equiv_pos_as_xyz
  1  'x, y, z'
loop_
 _atom_site_type_symbol
 _atom_site_label
 _atom_site_symmetry_multiplicity
 _atom_site_fract_x
 _atom_site_fract_y
 _atom_site_fract_z
 _atom_site_occupancy
  Rb  Rb0  1  0.39598100  0.50000000  0.26371100  1
  Rb  Rb1  1  0.60401900  0.50000000  0.76371100  1
  U  U2  1  0.89678100  0.25282000  0.12220400  1
  U  U3  1  0.89678100  0.74718000  0.12220400  1
  U  U4  1  0.10321900  0.74718000  0.62220400  1
  U  U5  1  0.10321900  0.25282000  0.62220400  1
  U  U6  1  0.60957800  0.00000000  0.46019900  1
  U  U7  1  0.39042200  0.00000000  0.96019900  1
  F  F8  1  0.80860200  0.17124300  0.59894200  1
  F  F9  1  0.80860200  0.82875700  0.59894200  1
  F  F10  1  0.19139800  0.82875700  0.09894200  1
  F  F11  1  0.19139800  0.17124300  0.09894200  1
  F  F12  1  0.61128600  0.19367400  0.00597400  1
  F  F13  1  0.61128600  0.80632600  0.00597400  1
  F  F14  1  0.38871400  0.80632600  0.50597400  1
  F  F15  1  0.38871400  0.19367400  0.50597400  1
  F  F16  1  0.68226800  0.25885000  0.31837600  1
  F  F17  1  0.68226800  0.74115000  0.31837600  1
  F  F18  1  0.31773200  0.74115000  0.81837600  1
  F  F19  1  0.31773200  0.25885000  0.81837600  1
  F  F20  1  0.04948300  0.30320400  0.36817200  1
  F  F21  1  0.04948300  0.69679600  0.36817200  1
  F  F22  1  0.95051700  0.69679600  0.86817200  1
  F  F23  1  0.95051700  0.30320400  0.86817200  1
  F  F24  1  0.06194100  0.50000000  0.11373300  1
  F  F25  1  0.93805900  0.50000000  0.61373300  1
  F  F26  1  0.72883900  0.50000000  0.09019600  1
  F  F27  1  0.27116100  0.50000000  0.59019600  1
  F  F28  1  0.89762000  0.00000000  0.00082600  1
  F  F29  1  0.10238000  0.00000000  0.50082600  1
  F  F30  1  0.86249700  0.00000000  0.28327600  1
  F  F31  1  0.13750300  0.00000000  0.78327600  1
  F  F32  1  0.46756100  0.00000000  0.23120300  1
  F  F33  1  0.53243900  0.00000000  0.73120300  1
