# generated using pymatgen
data_K5Mn3O6
_symmetry_space_group_name_H-M   'P 1'
_cell_length_a   6.22671200
_cell_length_b   9.87152700
_cell_length_c   17.01672500
_cell_angle_alpha   90.00000000
_cell_angle_beta   90.00000000
_cell_angle_gamma   90.00000000
_symmetry_Int_Tables_number   1
_chemical_formula_structural   K5Mn3O6
_chemical_formula_sum   'K20 Mn12 O24'
_cell_volume   1045.96968387
_cell_formula_units_Z   4
loop_
 _symmetry_equiv_pos_site_id
 _symmetry_equiv_pos_as_xyz
  1  'x, y, z'
loop_
 _atom_site_type_symbol
 _atom_site_label
 _atom_site_symmetry_multiplicity
 _atom_site_fract_x
 _atom_site_fract_y
 _atom_site_fract_z
 _atom_site_occupancy
  K  K0  1  0.63633500  0.41919000  0.41237600  1
  K  K1  1  0.13633500  0.58081000  0.58762400  1
  K  K2  1  0.13633500  0.91919000  0.08762400  1
  K  K3  1  0.63633500  0.08081000  0.91237600  1
  K  K4  1  0.65053700  0.38913900  0.61257700  1
  K  K5  1  0.15053700  0.61086100  0.38742300  1
  K  K6  1  0.15053700  0.88913900  0.88742300  1
  K  K7  1  0.65053700  0.11086100  0.11257700  1
  K  K8  1  0.24192000  0.91112300  0.49679600  1
  K  K9  1  0.74192000  0.08887700  0.50320400  1
  K  K10  1  0.74192000  0.41112300  0.00320400  1
  K  K11  1  0.24192000  0.58887700  0.99679600  1
  K  K12  1  0.54547100  0.05642900  0.71352900  1
  K  K13  1  0.04547100  0.94357100  0.28647100  1
  K  K14  1  0.04547100  0.55642900  0.78647100  1
  K  K15  1  0.54547100  0.44357100  0.21352900  1
  K  K16  1  0.01181000  0.88534100  0.68464800  1
  K  K17  1  0.51181000  0.11465900  0.31535200  1
  K  K18  1  0.51181000  0.38534100  0.81535200  1
  K  K19  1  0.01181000  0.61465900  0.18464800  1
  Mn  Mn20  1  0.63023300  0.72513500  0.58102100  1
  Mn  Mn21  1  0.13023300  0.27486500  0.41897900  1
  Mn  Mn22  1  0.13023300  0.22513500  0.91897900  1
  Mn  Mn23  1  0.63023300  0.77486500  0.08102100  1
  Mn  Mn24  1  0.65274100  0.75031100  0.41323800  1
  Mn  Mn25  1  0.15274100  0.24968900  0.58676200  1
  Mn  Mn26  1  0.15274100  0.25031100  0.08676200  1
  Mn  Mn27  1  0.65274100  0.74968900  0.91323800  1
  Mn  Mn28  1  0.56411000  0.72767700  0.74973100  1
  Mn  Mn29  1  0.06411000  0.27232300  0.25026900  1
  Mn  Mn30  1  0.06411000  0.22767700  0.75026900  1
  Mn  Mn31  1  0.56411000  0.77232300  0.24973100  1
  O  O32  1  0.78306100  0.64363400  0.66860800  1
  O  O33  1  0.28306100  0.35636600  0.33139200  1
  O  O34  1  0.28306100  0.14363400  0.83139200  1
  O  O35  1  0.78306100  0.85636600  0.16860800  1
  O  O36  1  0.46318500  0.64943100  0.49726200  1
  O  O37  1  0.96318500  0.35056900  0.50273800  1
  O  O38  1  0.96318500  0.14943100  0.00273800  1
  O  O39  1  0.46318500  0.85056900  0.99726200  1
  O  O40  1  0.76143100  0.64243100  0.31696500  1
  O  O41  1  0.26143100  0.35756900  0.68303500  1
  O  O42  1  0.26143100  0.14243100  0.18303500  1
  O  O43  1  0.76143100  0.85756900  0.81696500  1
  O  O44  1  0.42292100  0.64222000  0.84827000  1
  O  O45  1  0.92292100  0.35778000  0.15173000  1
  O  O46  1  0.92292100  0.14222000  0.65173000  1
  O  O47  1  0.42292100  0.85778000  0.34827000  1
  O  O48  1  0.41329200  0.80813700  0.64804300  1
  O  O49  1  0.91329200  0.19186300  0.35195700  1
  O  O50  1  0.91329200  0.30813700  0.85195700  1
  O  O51  1  0.41329200  0.69186300  0.14804300  1
  O  O52  1  0.84873200  0.80042000  0.51013300  1
  O  O53  1  0.34873200  0.19958000  0.48986700  1
  O  O54  1  0.34873200  0.30042000  0.98986700  1
  O  O55  1  0.84873200  0.69958000  0.01013300  1
