# generated using pymatgen
data_ThTe2WO9
_symmetry_space_group_name_H-M   'P 1'
_cell_length_a   14.49630389
_cell_length_b   14.49630389
_cell_length_c   14.49630389
_cell_angle_alpha   94.12631396
_cell_angle_beta   94.12631396
_cell_angle_gamma   148.88024592
_symmetry_Int_Tables_number   1
_chemical_formula_structural   ThTe2WO9
_chemical_formula_sum   'Th8 Te16 W8 O72'
_cell_volume   1516.71058058
_cell_formula_units_Z   8
loop_
 _symmetry_equiv_pos_site_id
 _symmetry_equiv_pos_as_xyz
  1  'x, y, z'
loop_
 _atom_site_type_symbol
 _atom_site_label
 _atom_site_symmetry_multiplicity
 _atom_site_fract_x
 _atom_site_fract_y
 _atom_site_fract_z
 _atom_site_occupancy
  Th  Th0  1  0.28040600  0.63423500  0.11832500  1
  Th  Th1  1  0.51591000  0.16208200  0.88167500  1
  Th  Th2  1  0.41208200  0.03040600  0.14617100  1
  Th  Th3  1  0.88423500  0.26591000  0.85382900  1
  Th  Th4  1  0.96959400  0.11576500  0.38167500  1
  Th  Th5  1  0.73409000  0.58791800  0.61832500  1
  Th  Th6  1  0.83791800  0.71959400  0.35382900  1
  Th  Th7  1  0.36576500  0.48409000  0.64617100  1
  Te  Te8  1  0.57305100  0.97651600  0.34865900  1
  Te  Te9  1  0.62785700  0.22439200  0.65134100  1
  Te  Te10  1  0.47439200  0.32305100  0.09653600  1
  Te  Te11  1  0.22651600  0.37785700  0.90346400  1
  Te  Te12  1  0.67694900  0.77348400  0.15134100  1
  Te  Te13  1  0.62214300  0.52560800  0.84865900  1
  Te  Te14  1  0.77560800  0.42694900  0.40346400  1
  Te  Te15  1  0.02348400  0.37214300  0.59653600  1
  Te  Te16  1  0.80706200  0.20066400  0.12166300  1
  Te  Te17  1  0.07900100  0.68540000  0.87833700  1
  Te  Te18  1  0.93540000  0.55706200  0.10639900  1
  Te  Te19  1  0.45066400  0.82900100  0.89360100  1
  Te  Te20  1  0.44293800  0.54933600  0.37833700  1
  Te  Te21  1  0.17099900  0.06460000  0.62166300  1
  Te  Te22  1  0.31460000  0.19293800  0.39360100  1
  Te  Te23  1  0.79933600  0.92099900  0.60639900  1
  W  W24  1  0.12523200  0.51572900  0.35871100  1
  W  W25  1  0.15701800  0.76652100  0.64128900  1
  W  W26  1  0.01652100  0.87523200  0.10950300  1
  W  W27  1  0.76572900  0.90701800  0.89049700  1
  W  W28  1  0.12476800  0.23427100  0.14128900  1
  W  W29  1  0.09298200  0.98347900  0.85871100  1
  W  W30  1  0.23347900  0.87476800  0.39049700  1
  W  W31  1  0.48427100  0.84298200  0.60950300  1
  O  O32  1  0.36410000  0.71009200  0.30293300  1
  O  O33  1  0.40715900  0.06116700  0.69706700  1
  O  O34  1  0.31116700  0.11410000  0.15400800  1
  O  O35  1  0.96009200  0.15715900  0.84599200  1
  O  O36  1  0.88590000  0.03990800  0.19706700  1
  O  O37  1  0.84284100  0.68883300  0.80293300  1
  O  O38  1  0.93883300  0.63590000  0.34599200  1
  O  O39  1  0.28990800  0.59284100  0.65400800  1
  O  O40  1  0.94898500  0.33848500  0.02946500  1
  O  O41  1  0.30902000  0.91952000  0.97053500  1
  O  O42  1  0.16952000  0.69898500  0.11049900  1
  O  O43  1  0.58848500  0.05902000  0.88950100  1
  O  O44  1  0.30101500  0.41151500  0.47053500  1
  O  O45  1  0.94098000  0.83048000  0.52946500  1
  O  O46  1  0.08048000  0.05101500  0.38950100  1
  O  O47  1  0.66151500  0.69098000  0.61049900  1
  O  O48  1  0.47165100  0.86399300  0.02660600  1
  O  O49  1  0.83738600  0.44504500  0.97339400  1
  O  O50  1  0.69504500  0.22165100  0.10765900  1
  O  O51  1  0.11399300  0.58738600  0.89234100  1
  O  O52  1  0.77834900  0.88600700  0.47339400  1
  O  O53  1  0.41261400  0.30495500  0.52660600  1
  O  O54  1  0.55495500  0.52834900  0.39234100  1
  O  O55  1  0.13600700  0.16261400  0.60765900  1
  O  O56  1  0.15573100  0.38707900  0.15499100  1
  O  O57  1  0.23208800  0.00074000  0.84500900  1
  O  O58  1  0.25074000  0.90573100  0.26865200  1
  O  O59  1  0.63707900  0.98208800  0.73134800  1
  O  O60  1  0.09426900  0.36292100  0.34500900  1
  O  O61  1  0.01791200  0.74926000  0.65499100  1
  O  O62  1  0.99926000  0.84426900  0.23134800  1
  O  O63  1  0.61292100  0.76791200  0.76865200  1
  O  O64  1  0.02552000  0.44552800  0.21475700  1
  O  O65  1  0.23077100  0.81076300  0.78524300  1
  O  O66  1  0.06076300  0.77552000  0.07999200  1
  O  O67  1  0.69552800  0.98077100  0.92000800  1
  O  O68  1  0.22448000  0.30447200  0.28524300  1
  O  O69  1  0.01922900  0.93923700  0.71475700  1
  O  O70  1  0.18923700  0.97448000  0.42000800  1
  O  O71  1  0.55447200  0.76922900  0.57999200  1
  O  O72  1  0.20386300  0.72028000  0.36609200  1
  O  O73  1  0.35418800  0.83777100  0.63390800  1
  O  O74  1  0.08777100  0.95386300  0.98358300  1
  O  O75  1  0.97028000  0.10418800  0.01641700  1
  O  O76  1  0.04613700  0.02972000  0.13390800  1
  O  O77  1  0.89581200  0.91222900  0.86609200  1
  O  O78  1  0.16222900  0.79613700  0.51641700  1
  O  O79  1  0.27972000  0.64581200  0.48358300  1
  O  O80  1  0.73890900  0.02146500  0.35281400  1
  O  O81  1  0.66865100  0.38609500  0.64718600  1
  O  O82  1  0.63609500  0.48890900  0.21744400  1
  O  O83  1  0.27146500  0.41865100  0.78255600  1
  O  O84  1  0.51109100  0.72853500  0.14718600  1
  O  O85  1  0.58134900  0.36390500  0.85281400  1
  O  O86  1  0.61390500  0.26109100  0.28255600  1
  O  O87  1  0.97853500  0.33134900  0.71744400  1
  O  O88  1  0.90398500  0.35646600  0.38078900  1
  O  O89  1  0.97567700  0.52319600  0.61921100  1
  O  O90  1  0.77319600  0.65398500  0.04751900  1
  O  O91  1  0.60646600  0.72567700  0.95248100  1
  O  O92  1  0.34601500  0.39353400  0.11921100  1
  O  O93  1  0.27432300  0.22680400  0.88078900  1
  O  O94  1  0.47680400  0.09601500  0.45248100  1
  O  O95  1  0.64353400  0.02432300  0.54751900  1
  O  O96  1  0.52710400  0.96842000  0.21690900  1
  O  O97  1  0.75151100  0.31019500  0.78309100  1
  O  O98  1  0.56019500  0.27710400  0.05868400  1
  O  O99  1  0.21842000  0.50151100  0.94131600  1
  O  O100  1  0.72289600  0.78158000  0.28309100  1
  O  O101  1  0.49848900  0.43980500  0.71690900  1
  O  O102  1  0.68980500  0.47289600  0.44131600  1
  O  O103  1  0.03158000  0.24848900  0.55868400  1
