# generated using pymatgen
data_Mn2CuH16(C2N11)2
_symmetry_space_group_name_H-M   'P 1'
_cell_length_a   6.32677408
_cell_length_b   9.38995900
_cell_length_c   9.38995900
_cell_angle_alpha   119.33332636
_cell_angle_beta   92.04376780
_cell_angle_gamma   92.04376780
_symmetry_Int_Tables_number   1
_chemical_formula_structural   Mn2CuH16(C2N11)2
_chemical_formula_sum   'Mn2 Cu1 H16 C4 N22'
_cell_volume   485.10229117
_cell_formula_units_Z   1
loop_
 _symmetry_equiv_pos_site_id
 _symmetry_equiv_pos_as_xyz
  1  'x, y, z'
loop_
 _atom_site_type_symbol
 _atom_site_label
 _atom_site_symmetry_multiplicity
 _atom_site_fract_x
 _atom_site_fract_y
 _atom_site_fract_z
 _atom_site_occupancy
  Mn  Mn0  1  0.50000000  0.61064500  0.38935500  1
  Mn  Mn1  1  0.50000000  0.38935500  0.61064500  1
  Cu  Cu2  1  0.00000000  0.00000000  0.00000000  1
  H  H3  1  0.03563000  0.64416700  0.08836900  1
  H  H4  1  0.03563000  0.08836900  0.64416700  1
  H  H5  1  0.96437000  0.35583300  0.91163100  1
  H  H6  1  0.96437000  0.91163100  0.35583300  1
  H  H7  1  0.23901300  0.80209900  0.17471100  1
  H  H8  1  0.23901300  0.17471100  0.80209900  1
  H  H9  1  0.76098700  0.19790100  0.82528900  1
  H  H10  1  0.76098700  0.82528900  0.19790100  1
  H  H11  1  0.98276300  0.68905400  0.87133400  1
  H  H12  1  0.98276300  0.87133400  0.68905400  1
  H  H13  1  0.01723700  0.31094600  0.12866600  1
  H  H14  1  0.01723700  0.12866600  0.31094600  1
  H  H15  1  0.23259200  0.75548600  0.91972200  1
  H  H16  1  0.23259200  0.91972200  0.75548600  1
  H  H17  1  0.76740800  0.24451400  0.08027800  1
  H  H18  1  0.76740800  0.08027800  0.24451400  1
  C  C19  1  0.07890700  0.76971000  0.11537600  1
  C  C20  1  0.07890700  0.11537600  0.76971000  1
  C  C21  1  0.92109300  0.23029000  0.88462400  1
  C  C22  1  0.92109300  0.88462400  0.23029000  1
  N  N23  1  0.63988400  0.87075700  0.87075700  1
  N  N24  1  0.36011600  0.12924300  0.12924300  1
  N  N25  1  0.46352100  0.64113000  0.64113000  1
  N  N26  1  0.53647900  0.35887000  0.35887000  1
  N  N27  1  0.55516700  0.75728900  0.75728900  1
  N  N28  1  0.44483300  0.24271100  0.24271100  1
  N  N29  1  0.44025100  0.86877100  0.47626600  1
  N  N30  1  0.44025100  0.47626600  0.86877100  1
  N  N31  1  0.55974900  0.13122900  0.52373400  1
  N  N32  1  0.55974900  0.52373400  0.13122900  1
  N  N33  1  0.50000000  0.00000000  0.50000000  1
  N  N34  1  0.50000000  0.50000000  0.00000000  1
  N  N35  1  0.84735400  0.67654600  0.45495500  1
  N  N36  1  0.84735400  0.45495500  0.67654600  1
  N  N37  1  0.15264600  0.32345400  0.54504500  1
  N  N38  1  0.15264600  0.54504500  0.32345400  1
  N  N39  1  0.00000000  0.61051500  0.38948500  1
  N  N40  1  0.00000000  0.38948500  0.61051500  1
  N  N41  1  0.08398900  0.77845000  0.96192000  1
  N  N42  1  0.08398900  0.96192000  0.77845000  1
  N  N43  1  0.91601100  0.22155000  0.03808000  1
  N  N44  1  0.91601100  0.03808000  0.22155000  1
