# generated using pymatgen
data_Sm3P3O14
_symmetry_space_group_name_H-M   'P 1'
_cell_length_a   14.50698737
_cell_length_b   14.50698737
_cell_length_c   12.14227306
_cell_angle_alpha   65.65314751
_cell_angle_beta   65.65314751
_cell_angle_gamma   28.67952165
_symmetry_Int_Tables_number   1
_chemical_formula_structural   Sm3P3O14
_chemical_formula_sum   'Sm12 P12 O56'
_cell_volume   1109.78550394
_cell_formula_units_Z   4
loop_
 _symmetry_equiv_pos_site_id
 _symmetry_equiv_pos_as_xyz
  1  'x, y, z'
loop_
 _atom_site_type_symbol
 _atom_site_label
 _atom_site_symmetry_multiplicity
 _atom_site_fract_x
 _atom_site_fract_y
 _atom_site_fract_z
 _atom_site_occupancy
  Sm  Sm0  1  0.23401800  0.84876900  0.69484400  1
  Sm  Sm1  1  0.15123100  0.76598200  0.30515600  1
  Sm  Sm2  1  0.10100500  0.14795400  0.87605700  1
  Sm  Sm3  1  0.85204600  0.89899500  0.12394300  1
  Sm  Sm4  1  0.60782500  0.64101200  0.37410700  1
  Sm  Sm5  1  0.35898800  0.39217500  0.62589300  1
  Sm  Sm6  1  0.39748400  0.01875800  0.05879500  1
  Sm  Sm7  1  0.98124200  0.60251600  0.94120500  1
  Sm  Sm8  1  0.47432400  0.10916900  0.44207400  1
  Sm  Sm9  1  0.89083100  0.52567600  0.55792600  1
  Sm  Sm10  1  0.73669800  0.34669000  0.19527000  1
  Sm  Sm11  1  0.65331000  0.26330200  0.80473000  1
  P  P12  1  0.26962100  0.89678700  0.18410000  1
  P  P13  1  0.10321300  0.73037900  0.81590000  1
  P  P14  1  0.24959000  0.25101900  0.75017000  1
  P  P15  1  0.74898100  0.75041000  0.24983000  1
  P  P16  1  0.51684000  0.14967300  0.93666400  1
  P  P17  1  0.85032700  0.48316000  0.06333600  1
  P  P18  1  0.01719900  0.64940200  0.43580000  1
  P  P19  1  0.35059800  0.98280100  0.56420000  1
  P  P20  1  0.59667000  0.23496000  0.31450800  1
  P  P21  1  0.76504000  0.40333000  0.68549200  1
  P  P22  1  0.49316700  0.50683300  0.50000000  1
  P  P23  1  0.99742900  0.00257100  0.00000000  1
  O  O24  1  0.26439500  0.97727800  0.05010200  1
  O  O25  1  0.02272200  0.73560500  0.94989800  1
  O  O26  1  0.39699100  0.69395300  0.19412000  1
  O  O27  1  0.30604700  0.60300900  0.80588000  1
  O  O28  1  0.06981400  0.02066700  0.24762800  1
  O  O29  1  0.97933300  0.93018600  0.75237200  1
  O  O30  1  0.35787900  0.88246200  0.24412700  1
  O  O31  1  0.11753800  0.64212100  0.75587300  1
  O  O32  1  0.59903300  0.82234800  0.21616600  1
  O  O33  1  0.17765200  0.40096700  0.78383400  1
  O  O34  1  0.39994600  0.17301800  0.63798800  1
  O  O35  1  0.82698200  0.60005400  0.36201200  1
  O  O36  1  0.32911000  0.09313900  0.85609700  1
  O  O37  1  0.90686100  0.67089000  0.14390300  1
  O  O38  1  0.07903400  0.34742900  0.72069500  1
  O  O39  1  0.65257100  0.92096600  0.27930500  1
  O  O40  1  0.60071300  0.14215400  0.99548500  1
  O  O41  1  0.85784600  0.39928700  0.00451500  1
  O  O42  1  0.31280700  0.28226500  0.99555900  1
  O  O43  1  0.71773500  0.68719300  0.00444100  1
  O  O44  1  0.05306400  0.35831900  0.04366600  1
  O  O45  1  0.64168100  0.94693600  0.95633400  1
  O  O46  1  0.52550400  0.21570400  0.80026300  1
  O  O47  1  0.78429600  0.47449600  0.19973700  1
  O  O48  1  0.01354400  0.72726100  0.30118400  1
  O  O49  1  0.27273900  0.98645600  0.69881600  1
  O  O50  1  0.13881200  0.45041600  0.44890400  1
  O  O51  1  0.54958400  0.86118800  0.55109600  1
  O  O52  1  0.36067200  0.89908600  0.50301700  1
  O  O53  1  0.10091400  0.63932800  0.49698300  1
  O  O54  1  0.81015000  0.78386300  0.49445500  1
  O  O55  1  0.21613700  0.18985000  0.50554500  1
  O  O56  1  0.56563300  0.52696200  0.74703900  1
  O  O57  1  0.47303800  0.43436700  0.25296100  1
  O  O58  1  0.52083500  0.23625900  0.44940100  1
  O  O59  1  0.76374100  0.47916500  0.55059900  1
  O  O60  1  0.60486800  0.15085700  0.25583600  1
  O  O61  1  0.84914300  0.39513200  0.74416400  1
  O  O62  1  0.80197000  0.10510900  0.30133100  1
  O  O63  1  0.89489100  0.19803000  0.69866900  1
  O  O64  1  0.41073000  0.66562500  0.53139900  1
  O  O65  1  0.33437500  0.58927000  0.46860100  1
  O  O66  1  0.57364600  0.35104300  0.60899800  1
  O  O67  1  0.64895700  0.42635400  0.39100200  1
  O  O68  1  0.07550500  0.84831200  0.10911000  1
  O  O69  1  0.15168800  0.92449500  0.89089000  1
  O  O70  1  0.91453700  0.16131200  0.03235200  1
  O  O71  1  0.83868800  0.08546300  0.96764800  1
  O  O72  1  0.55754200  0.54665600  0.02011500  1
  O  O73  1  0.45334400  0.44245800  0.97988500  1
  O  O74  1  0.19842200  0.20315600  0.23622200  1
  O  O75  1  0.79684400  0.80157800  0.76377800  1
  O  O76  1  0.04145600  0.07208300  0.52230200  1
  O  O77  1  0.92791700  0.95854400  0.47769800  1
  O  O78  1  0.77863600  0.70468900  0.70974200  1
  O  O79  1  0.29531100  0.22136400  0.29025800  1
