# generated using pymatgen
data_MgH8C4(NO3)2
_symmetry_space_group_name_H-M   'P 1'
_cell_length_a   8.60024500
_cell_length_b   8.76998300
_cell_length_c   12.60294064
_cell_angle_alpha   89.68402680
_cell_angle_beta   90.00000000
_cell_angle_gamma   90.00000000
_symmetry_Int_Tables_number   1
_chemical_formula_structural   MgH8C4(NO3)2
_chemical_formula_sum   'Mg4 H32 C16 N8 O24'
_cell_volume   950.54977140
_cell_formula_units_Z   4
loop_
 _symmetry_equiv_pos_site_id
 _symmetry_equiv_pos_as_xyz
  1  'x, y, z'
loop_
 _atom_site_type_symbol
 _atom_site_label
 _atom_site_symmetry_multiplicity
 _atom_site_fract_x
 _atom_site_fract_y
 _atom_site_fract_z
 _atom_site_occupancy
  Mg  Mg0  1  0.00000000  0.00000000  0.50000000  1
  Mg  Mg1  1  0.50000000  0.00000000  0.00000000  1
  Mg  Mg2  1  0.50000000  0.50000000  0.50000000  1
  Mg  Mg3  1  0.00000000  0.50000000  0.00000000  1
  H  H4  1  0.14197700  0.00505800  0.13743900  1
  H  H5  1  0.64197700  0.99494200  0.36256100  1
  H  H6  1  0.85802300  0.99494200  0.86256100  1
  H  H7  1  0.35802300  0.00505800  0.63743900  1
  H  H8  1  0.44864700  0.29247400  0.16543200  1
  H  H9  1  0.94864700  0.70752600  0.33456800  1
  H  H10  1  0.55135300  0.70752600  0.83456800  1
  H  H11  1  0.05135300  0.29247400  0.66543200  1
  H  H12  1  0.52284300  0.27915700  0.29784200  1
  H  H13  1  0.02284300  0.72084300  0.20215800  1
  H  H14  1  0.47715700  0.72084300  0.70215800  1
  H  H15  1  0.97715700  0.27915700  0.79784200  1
  H  H16  1  0.02835200  0.17006300  0.11986400  1
  H  H17  1  0.52835200  0.82993700  0.38013600  1
  H  H18  1  0.97164800  0.82993700  0.88013600  1
  H  H19  1  0.47164800  0.17006300  0.61986400  1
  H  H20  1  0.20190900  0.70057600  0.45476100  1
  H  H21  1  0.70190900  0.29942400  0.04523900  1
  H  H22  1  0.79809100  0.29942400  0.54523900  1
  H  H23  1  0.29809100  0.70057600  0.95476100  1
  H  H24  1  0.37021700  0.53995600  0.18882700  1
  H  H25  1  0.87021700  0.46004400  0.31117300  1
  H  H26  1  0.62978300  0.46004400  0.81117300  1
  H  H27  1  0.12978300  0.53995600  0.68882700  1
  H  H28  1  0.28062000  0.21410600  0.42089000  1
  H  H29  1  0.78062000  0.78589400  0.07911000  1
  H  H30  1  0.71938000  0.78589400  0.57911000  1
  H  H31  1  0.21938000  0.21410600  0.92089000  1
  H  H32  1  0.93981700  0.18028300  0.28773700  1
  H  H33  1  0.43981700  0.81971700  0.21226300  1
  H  H34  1  0.06018300  0.81971700  0.71226300  1
  H  H35  1  0.56018300  0.18028300  0.78773700  1
  C  C36  1  0.27004100  0.76682300  0.51324500  1
  C  C37  1  0.77004100  0.23317700  0.98675500  1
  C  C38  1  0.72995900  0.23317700  0.48675500  1
  C  C39  1  0.22995900  0.76682300  0.01324500  1
  C  C40  1  0.22482200  0.27232800  0.48918600  1
  C  C41  1  0.72482200  0.72767200  0.01081400  1
  C  C42  1  0.77517800  0.72767200  0.51081400  1
  C  C43  1  0.27517800  0.27232800  0.98918600  1
  C  C44  1  0.02066400  0.08666600  0.26865300  1
  C  C45  1  0.52066400  0.91333400  0.23134700  1
  C  C46  1  0.97933600  0.91333400  0.73134700  1
  C  C47  1  0.47933600  0.08666600  0.76865300  1
  C  C48  1  0.42602300  0.48251200  0.25708900  1
  C  C49  1  0.92602300  0.51748800  0.24291100  1
  C  C50  1  0.57397700  0.51748800  0.74291100  1
  C  C51  1  0.07397700  0.48251200  0.75708900  1
  N  N52  1  0.06559100  0.08419500  0.16811300  1
  N  N53  1  0.56559100  0.91580500  0.33188700  1
  N  N54  1  0.93440900  0.91580500  0.83188700  1
  N  N55  1  0.43440900  0.08419500  0.66811300  1
  N  N56  1  0.46967300  0.34030400  0.23857900  1
  N  N57  1  0.96967300  0.65969600  0.26142100  1
  N  N58  1  0.53032700  0.65969600  0.76142100  1
  N  N59  1  0.03032700  0.34030400  0.73857900  1
  O  O60  1  0.21327900  0.89218200  0.54532900  1
  O  O61  1  0.71327900  0.10781800  0.95467100  1
  O  O62  1  0.78672100  0.10781800  0.45467100  1
  O  O63  1  0.28672100  0.89218200  0.04532900  1
  O  O64  1  0.10107300  0.21257100  0.52635500  1
  O  O65  1  0.60107300  0.78742900  0.97364500  1
  O  O66  1  0.89892700  0.78742900  0.47364500  1
  O  O67  1  0.39892700  0.21257100  0.02635500  1
  O  O68  1  0.06248900  0.99246000  0.33858900  1
  O  O69  1  0.56248900  0.00754000  0.16141100  1
  O  O70  1  0.93751100  0.00754000  0.66141100  1
  O  O71  1  0.43751100  0.99246000  0.83858900  1
  O  O72  1  0.28816800  0.39094500  0.52506300  1
  O  O73  1  0.78816800  0.60905500  0.97493700  1
  O  O74  1  0.71183200  0.60905500  0.47493700  1
  O  O75  1  0.21183200  0.39094500  0.02506300  1
  O  O76  1  0.39947600  0.71213900  0.54384900  1
  O  O77  1  0.89947600  0.28786100  0.95615100  1
  O  O78  1  0.60052400  0.28786100  0.45615100  1
  O  O79  1  0.10052400  0.71213900  0.04384900  1
  O  O80  1  0.44254700  0.55260100  0.34313200  1
  O  O81  1  0.94254700  0.44739900  0.15686800  1
  O  O82  1  0.55745300  0.44739900  0.65686800  1
  O  O83  1  0.05745300  0.55260100  0.84313200  1
