# generated using pymatgen
data_Eu2(MoO4)3
_symmetry_space_group_name_H-M   'P 1'
_cell_length_a   10.61415400
_cell_length_b   10.62031300
_cell_length_c   10.84319700
_cell_angle_alpha   90.00000000
_cell_angle_beta   90.00000000
_cell_angle_gamma   90.00000000
_symmetry_Int_Tables_number   1
_chemical_formula_structural   Eu2(MoO4)3
_chemical_formula_sum   'Eu8 Mo12 O48'
_cell_volume   1222.30629664
_cell_formula_units_Z   4
loop_
 _symmetry_equiv_pos_site_id
 _symmetry_equiv_pos_as_xyz
  1  'x, y, z'
loop_
 _atom_site_type_symbol
 _atom_site_label
 _atom_site_symmetry_multiplicity
 _atom_site_fract_x
 _atom_site_fract_y
 _atom_site_fract_z
 _atom_site_occupancy
  Eu  Eu0  1  0.68956000  0.00257000  0.73586700  1
  Eu  Eu1  1  0.31044000  0.99743000  0.73586700  1
  Eu  Eu2  1  0.81044000  0.50257000  0.73586700  1
  Eu  Eu3  1  0.18956000  0.49743000  0.73586700  1
  Eu  Eu4  1  0.99376300  0.19058000  0.26416200  1
  Eu  Eu5  1  0.00623700  0.80942000  0.26416200  1
  Eu  Eu6  1  0.50623700  0.69058000  0.26416200  1
  Eu  Eu7  1  0.49376300  0.30942000  0.26416200  1
  Mo  Mo8  1  0.70680900  0.01253400  0.35626200  1
  Mo  Mo9  1  0.29319100  0.98746600  0.35626200  1
  Mo  Mo10  1  0.79319100  0.51253400  0.35626200  1
  Mo  Mo11  1  0.20680900  0.48746600  0.35626200  1
  Mo  Mo12  1  0.50267500  0.29262900  0.64360200  1
  Mo  Mo13  1  0.49732500  0.70737100  0.64360200  1
  Mo  Mo14  1  0.99732500  0.79262900  0.64360200  1
  Mo  Mo15  1  0.00267500  0.20737100  0.64360200  1
  Mo  Mo16  1  0.74208200  0.25708500  0.00034300  1
  Mo  Mo17  1  0.25791800  0.74291500  0.00034300  1
  Mo  Mo18  1  0.75791800  0.75708500  0.00034300  1
  Mo  Mo19  1  0.24208200  0.24291500  0.00034300  1
  O  O20  1  0.69489000  0.01553300  0.52046800  1
  O  O21  1  0.30511000  0.98446700  0.52046800  1
  O  O22  1  0.80511000  0.51553300  0.52046800  1
  O  O23  1  0.19489000  0.48446700  0.52046800  1
  O  O24  1  0.65469900  0.16281100  0.30245700  1
  O  O25  1  0.34530100  0.83718900  0.30245700  1
  O  O26  1  0.84530100  0.66281100  0.30245700  1
  O  O27  1  0.15469900  0.33718900  0.30245700  1
  O  O28  1  0.62867200  0.49458500  0.31021100  1
  O  O29  1  0.37132800  0.50541500  0.31021100  1
  O  O30  1  0.87132800  0.99458500  0.31021100  1
  O  O31  1  0.12867200  0.00541500  0.31021100  1
  O  O32  1  0.88390200  0.38614800  0.29460000  1
  O  O33  1  0.11609800  0.61385200  0.29460000  1
  O  O34  1  0.61609800  0.88614800  0.29460000  1
  O  O35  1  0.38390200  0.11385200  0.29460000  1
  O  O36  1  0.65623000  0.34950900  0.68121400  1
  O  O37  1  0.34377000  0.65049100  0.68121400  1
  O  O38  1  0.84377000  0.84950900  0.68121400  1
  O  O39  1  0.15623000  0.15049100  0.68121400  1
  O  O40  1  0.97886100  0.19747000  0.48075000  1
  O  O41  1  0.02113900  0.80253000  0.48075000  1
  O  O42  1  0.52113900  0.69747000  0.48075000  1
  O  O43  1  0.47886100  0.30253000  0.48075000  1
  O  O44  1  0.88281800  0.11890800  0.71905100  1
  O  O45  1  0.11718200  0.88109200  0.71905100  1
  O  O46  1  0.61718200  0.61890800  0.71905100  1
  O  O47  1  0.38281800  0.38109200  0.71905100  1
  O  O48  1  0.99392800  0.37192900  0.69300000  1
  O  O49  1  0.00607200  0.62807100  0.69300000  1
  O  O50  1  0.50607200  0.87192900  0.69300000  1
  O  O51  1  0.49392800  0.12807100  0.69300000  1
  O  O52  1  0.61917000  0.32374100  0.09300700  1
  O  O53  1  0.38083000  0.67625900  0.09300700  1
  O  O54  1  0.88083000  0.82374100  0.09300700  1
  O  O55  1  0.11917000  0.17625900  0.09300700  1
  O  O56  1  0.81502700  0.37995100  0.91216300  1
  O  O57  1  0.18497300  0.62004900  0.91216300  1
  O  O58  1  0.68497300  0.87995100  0.91216300  1
  O  O59  1  0.31502700  0.12004900  0.91216300  1
  O  O60  1  0.85388600  0.18143000  0.09965800  1
  O  O61  1  0.14611400  0.81857000  0.09965800  1
  O  O62  1  0.64611400  0.68143000  0.09965800  1
  O  O63  1  0.35388600  0.31857000  0.09965800  1
  O  O64  1  0.67429700  0.14599700  0.89548800  1
  O  O65  1  0.32570300  0.85400300  0.89548800  1
  O  O66  1  0.82570300  0.64599700  0.89548800  1
  O  O67  1  0.17429700  0.35400300  0.89548800  1
