# generated using pymatgen
data_Cd2B6PbO12
_symmetry_space_group_name_H-M   'P 1'
_cell_length_a   7.08654400
_cell_length_b   6.64770600
_cell_length_c   20.57122235
_cell_angle_alpha   71.35196511
_cell_angle_beta   90.00000000
_cell_angle_gamma   90.00000000
_symmetry_Int_Tables_number   1
_chemical_formula_structural   Cd2B6PbO12
_chemical_formula_sum   'Cd8 B24 Pb4 O48'
_cell_volume   918.21824347
_cell_formula_units_Z   4
loop_
 _symmetry_equiv_pos_site_id
 _symmetry_equiv_pos_as_xyz
  1  'x, y, z'
loop_
 _atom_site_type_symbol
 _atom_site_label
 _atom_site_symmetry_multiplicity
 _atom_site_fract_x
 _atom_site_fract_y
 _atom_site_fract_z
 _atom_site_occupancy
  Cd  Cd0  1  0.26854700  0.54673000  0.52596900  1
  Cd  Cd1  1  0.23145300  0.54673000  0.02596900  1
  Cd  Cd2  1  0.73145300  0.45327000  0.47403100  1
  Cd  Cd3  1  0.76854700  0.45327000  0.97403100  1
  Cd  Cd4  1  0.24724600  0.04705300  0.73565900  1
  Cd  Cd5  1  0.25275400  0.04705300  0.23565900  1
  Cd  Cd6  1  0.75275400  0.95294700  0.26434100  1
  Cd  Cd7  1  0.74724600  0.95294700  0.76434100  1
  B  B8  1  0.93725000  0.26290300  0.62613100  1
  B  B9  1  0.56275000  0.26290300  0.12613100  1
  B  B10  1  0.06275000  0.73709700  0.37386900  1
  B  B11  1  0.43725000  0.73709700  0.87386900  1
  B  B12  1  0.30957000  0.11618300  0.53511300  1
  B  B13  1  0.19043000  0.11618300  0.03511300  1
  B  B14  1  0.69043000  0.88381700  0.46488700  1
  B  B15  1  0.80957000  0.88381700  0.96488700  1
  B  B16  1  0.43137600  0.78359900  0.62271500  1
  B  B17  1  0.06862400  0.78359900  0.12271500  1
  B  B18  1  0.56862400  0.21640100  0.37728500  1
  B  B19  1  0.93137600  0.21640100  0.87728500  1
  B  B20  1  0.59299800  0.13890100  0.60880900  1
  B  B21  1  0.90700200  0.13890100  0.10880900  1
  B  B22  1  0.40700200  0.86109900  0.39119100  1
  B  B23  1  0.09299800  0.86109900  0.89119100  1
  B  B24  1  0.52979300  0.40500400  0.67683900  1
  B  B25  1  0.97020700  0.40500400  0.17683900  1
  B  B26  1  0.47020700  0.59499600  0.32316100  1
  B  B27  1  0.02979300  0.59499600  0.82316100  1
  B  B28  1  0.30776000  0.56511700  0.74104400  1
  B  B29  1  0.19224000  0.56511700  0.24104400  1
  B  B30  1  0.69224000  0.43488300  0.25895600  1
  B  B31  1  0.80776000  0.43488300  0.75895600  1
  Pb  Pb32  1  0.92575800  0.77148100  0.61170300  1
  Pb  Pb33  1  0.57424200  0.77148100  0.11170300  1
  Pb  Pb34  1  0.07424200  0.22851900  0.38829700  1
  Pb  Pb35  1  0.42575800  0.22851900  0.88829700  1
  O  O36  1  0.60095600  0.90925000  0.62411400  1
  O  O37  1  0.89904400  0.90925000  0.12411400  1
  O  O38  1  0.39904400  0.09075000  0.37588600  1
  O  O39  1  0.10095600  0.09075000  0.87588600  1
  O  O40  1  0.47143800  0.57614900  0.61587100  1
  O  O41  1  0.02856200  0.57614900  0.11587100  1
  O  O42  1  0.52856200  0.42385100  0.38412900  1
  O  O43  1  0.97143800  0.42385100  0.88412900  1
  O  O44  1  0.52883200  0.19093800  0.66999900  1
  O  O45  1  0.97116800  0.19093800  0.16999900  1
  O  O46  1  0.47116800  0.80906200  0.33000100  1
  O  O47  1  0.02883200  0.80906200  0.83000100  1
  O  O48  1  0.39636700  0.38589800  0.73529300  1
  O  O49  1  0.10363300  0.38589800  0.23529300  1
  O  O50  1  0.60363300  0.61410200  0.26470700  1
  O  O51  1  0.89636700  0.61410200  0.76470700  1
  O  O52  1  0.22062900  0.53911200  0.80305100  1
  O  O53  1  0.27937100  0.53911200  0.30305100  1
  O  O54  1  0.77937100  0.46088800  0.19694900  1
  O  O55  1  0.72062900  0.46088800  0.69694900  1
  O  O56  1  0.05254900  0.43553600  0.60733500  1
  O  O57  1  0.44745100  0.43553600  0.10733500  1
  O  O58  1  0.94745100  0.56446400  0.39266500  1
  O  O59  1  0.55254900  0.56446400  0.89266500  1
  O  O60  1  0.30525900  0.89656600  0.56470800  1
  O  O61  1  0.19474100  0.89656600  0.06470800  1
  O  O62  1  0.69474100  0.10343400  0.43529200  1
  O  O63  1  0.80525900  0.10343400  0.93529200  1
  O  O64  1  0.77996700  0.24459600  0.58468300  1
  O  O65  1  0.72003300  0.24459600  0.08468300  1
  O  O66  1  0.22003300  0.75540400  0.41531700  1
  O  O67  1  0.27996700  0.75540400  0.91531700  1
  O  O68  1  0.46182900  0.23239600  0.55003400  1
  O  O69  1  0.03817100  0.23239600  0.05003400  1
  O  O70  1  0.53817100  0.76760400  0.44996600  1
  O  O71  1  0.96182900  0.76760400  0.94996600  1
  O  O72  1  0.31774100  0.75607200  0.68941700  1
  O  O73  1  0.18225900  0.75607200  0.18941700  1
  O  O74  1  0.68225900  0.24392800  0.31058300  1
  O  O75  1  0.81774100  0.24392800  0.81058300  1
  O  O76  1  0.16810900  0.22992800  0.49687100  1
  O  O77  1  0.33189100  0.22992800  0.99687100  1
  O  O78  1  0.83189100  0.77007200  0.50312900  1
  O  O79  1  0.66810900  0.77007200  0.00312900  1
  O  O80  1  0.97021300  0.09297300  0.68477900  1
  O  O81  1  0.52978700  0.09297300  0.18477900  1
  O  O82  1  0.02978700  0.90702700  0.31522100  1
  O  O83  1  0.47021300  0.90702700  0.81522100  1
