# generated using pymatgen
data_KTaV2O8
_symmetry_space_group_name_H-M   'P 1'
_cell_length_a   5.66864300
_cell_length_b   8.72038300
_cell_length_c   15.19028700
_cell_angle_alpha   90.00000000
_cell_angle_beta   90.00000000
_cell_angle_gamma   90.00000000
_symmetry_Int_Tables_number   1
_chemical_formula_structural   KTaV2O8
_chemical_formula_sum   'K4 Ta4 V8 O32'
_cell_volume   750.89747818
_cell_formula_units_Z   4
loop_
 _symmetry_equiv_pos_site_id
 _symmetry_equiv_pos_as_xyz
  1  'x, y, z'
loop_
 _atom_site_type_symbol
 _atom_site_label
 _atom_site_symmetry_multiplicity
 _atom_site_fract_x
 _atom_site_fract_y
 _atom_site_fract_z
 _atom_site_occupancy
  K  K0  1  0.25000000  0.94842200  0.87662800  1
  K  K1  1  0.25000000  0.55157800  0.37662800  1
  K  K2  1  0.75000000  0.05157800  0.12337200  1
  K  K3  1  0.75000000  0.44842200  0.62337200  1
  Ta  Ta4  1  0.25000000  0.81255800  0.61777700  1
  Ta  Ta5  1  0.25000000  0.68744200  0.11777700  1
  Ta  Ta6  1  0.75000000  0.18744200  0.38222300  1
  Ta  Ta7  1  0.75000000  0.31255800  0.88222300  1
  V  V8  1  0.25000000  0.51234800  0.78623300  1
  V  V9  1  0.25000000  0.98765200  0.28623300  1
  V  V10  1  0.75000000  0.48765200  0.21376700  1
  V  V11  1  0.75000000  0.01234800  0.71376700  1
  V  V12  1  0.25000000  0.20801600  0.52773200  1
  V  V13  1  0.25000000  0.29198400  0.02773200  1
  V  V14  1  0.75000000  0.79198400  0.47226800  1
  V  V15  1  0.75000000  0.70801600  0.97226800  1
  O  O16  1  0.00862900  0.89845800  0.70063600  1
  O  O17  1  0.49137100  0.60154200  0.20063600  1
  O  O18  1  0.50862900  0.10154200  0.29936400  1
  O  O19  1  0.99137100  0.39845800  0.79936400  1
  O  O20  1  0.99137100  0.10154200  0.29936400  1
  O  O21  1  0.50862900  0.39845800  0.79936400  1
  O  O22  1  0.49137100  0.89845800  0.70063600  1
  O  O23  1  0.00862900  0.60154200  0.20063600  1
  O  O24  1  0.99966900  0.73372800  0.53764300  1
  O  O25  1  0.50033100  0.76627200  0.03764300  1
  O  O26  1  0.49966900  0.26627200  0.46235700  1
  O  O27  1  0.00033100  0.23372800  0.96235700  1
  O  O28  1  0.00033100  0.26627200  0.46235700  1
  O  O29  1  0.49966900  0.23372800  0.96235700  1
  O  O30  1  0.50033100  0.73372800  0.53764300  1
  O  O31  1  0.99966900  0.76627200  0.03764300  1
  O  O32  1  0.25000000  0.61740900  0.68417500  1
  O  O33  1  0.25000000  0.88259100  0.18417500  1
  O  O34  1  0.75000000  0.38259100  0.31582500  1
  O  O35  1  0.75000000  0.11740900  0.81582500  1
  O  O36  1  0.25000000  0.01079600  0.55259200  1
  O  O37  1  0.25000000  0.48920400  0.05259200  1
  O  O38  1  0.75000000  0.98920400  0.44740800  1
  O  O39  1  0.75000000  0.51079600  0.94740800  1
  O  O40  1  0.25000000  0.63865800  0.86580700  1
  O  O41  1  0.25000000  0.86134200  0.36580700  1
  O  O42  1  0.75000000  0.36134200  0.13419300  1
  O  O43  1  0.75000000  0.13865800  0.63419300  1
  O  O44  1  0.75000000  0.81088000  0.88182900  1
  O  O45  1  0.75000000  0.68912000  0.38182900  1
  O  O46  1  0.25000000  0.18912000  0.11817100  1
  O  O47  1  0.25000000  0.31088000  0.61817100  1
