# generated using pymatgen
data_Co2I3(N2O)3
_symmetry_space_group_name_H-M   'P 1'
_cell_length_a   6.11945800
_cell_length_b   9.04501800
_cell_length_c   9.07759300
_cell_angle_alpha   90.00000000
_cell_angle_beta   90.00000000
_cell_angle_gamma   90.00000000
_symmetry_Int_Tables_number   1
_chemical_formula_structural   Co2I3(N2O)3
_chemical_formula_sum   'Co4 I6 N12 O6'
_cell_volume   502.45028955
_cell_formula_units_Z   2
loop_
 _symmetry_equiv_pos_site_id
 _symmetry_equiv_pos_as_xyz
  1  'x, y, z'
loop_
 _atom_site_type_symbol
 _atom_site_label
 _atom_site_symmetry_multiplicity
 _atom_site_fract_x
 _atom_site_fract_y
 _atom_site_fract_z
 _atom_site_occupancy
  Co  Co0  1  0.50000000  0.81167700  0.77978300  1
  Co  Co1  1  0.00000000  0.18832300  0.27978300  1
  Co  Co2  1  0.50000000  0.48650000  0.59521700  1
  Co  Co3  1  0.00000000  0.51350000  0.09521700  1
  I  I4  1  0.50000000  0.10348300  0.57424700  1
  I  I5  1  0.00000000  0.89651700  0.07424700  1
  I  I6  1  0.50000000  0.11763400  0.12379100  1
  I  I7  1  0.00000000  0.88236600  0.62379100  1
  I  I8  1  0.50000000  0.68120300  0.14803200  1
  I  I9  1  0.00000000  0.31879700  0.64803200  1
  N  N10  1  0.50000000  0.82185900  0.98765100  1
  N  N11  1  0.00000000  0.17814100  0.48765100  1
  N  N12  1  0.27921900  0.96750300  0.71275700  1
  N  N13  1  0.72078100  0.96750300  0.71275700  1
  N  N14  1  0.22078100  0.03249700  0.21275700  1
  N  N15  1  0.77921900  0.03249700  0.21275700  1
  N  N16  1  0.25502700  0.48452500  0.46990500  1
  N  N17  1  0.74497300  0.48452500  0.46990500  1
  N  N18  1  0.24497300  0.51547500  0.96990500  1
  N  N19  1  0.75502700  0.51547500  0.96990500  1
  N  N20  1  0.50000000  0.28863700  0.66621900  1
  N  N21  1  0.00000000  0.71136300  0.16621900  1
  O  O22  1  0.50000000  0.68393900  0.63024500  1
  O  O23  1  0.00000000  0.31606100  0.13024500  1
  O  O24  1  0.23219200  0.59004200  0.86024600  1
  O  O25  1  0.76780800  0.59004200  0.86024600  1
  O  O26  1  0.26780800  0.40995800  0.36024600  1
  O  O27  1  0.73219200  0.40995800  0.36024600  1
