# generated using pymatgen
data_Cs2CdGe3S8
_symmetry_space_group_name_H-M   'P 1'
_cell_length_a   7.56961600
_cell_length_b   12.97401100
_cell_length_c   17.33072600
_cell_angle_alpha   90.00000000
_cell_angle_beta   90.00000000
_cell_angle_gamma   90.00000000
_symmetry_Int_Tables_number   1
_chemical_formula_structural   Cs2CdGe3S8
_chemical_formula_sum   'Cs8 Cd4 Ge12 S32'
_cell_volume   1702.02081327
_cell_formula_units_Z   4
loop_
 _symmetry_equiv_pos_site_id
 _symmetry_equiv_pos_as_xyz
  1  'x, y, z'
loop_
 _atom_site_type_symbol
 _atom_site_label
 _atom_site_symmetry_multiplicity
 _atom_site_fract_x
 _atom_site_fract_y
 _atom_site_fract_z
 _atom_site_occupancy
  Cs  Cs0  1  0.74763400  0.36720300  0.55459700  1
  Cs  Cs1  1  0.75236600  0.63279700  0.05459700  1
  Cs  Cs2  1  0.24763400  0.13279700  0.44540300  1
  Cs  Cs3  1  0.25236600  0.86720300  0.94540300  1
  Cs  Cs4  1  0.23071600  0.19470900  0.84821000  1
  Cs  Cs5  1  0.26928400  0.80529100  0.34821000  1
  Cs  Cs6  1  0.73071600  0.30529100  0.15179000  1
  Cs  Cs7  1  0.76928400  0.69470900  0.65179000  1
  Cd  Cd8  1  0.52757000  0.50143200  0.84822600  1
  Cd  Cd9  1  0.97243000  0.49856800  0.34822600  1
  Cd  Cd10  1  0.02757000  0.99856800  0.15177400  1
  Cd  Cd11  1  0.47243000  0.00143200  0.65177400  1
  Ge  Ge12  1  0.46930700  0.47065600  0.34613300  1
  Ge  Ge13  1  0.03069300  0.52934400  0.84613300  1
  Ge  Ge14  1  0.96930700  0.02934400  0.65386700  1
  Ge  Ge15  1  0.53069300  0.97065600  0.15386700  1
  Ge  Ge16  1  0.26127900  0.44631700  0.01750500  1
  Ge  Ge17  1  0.23872100  0.55368300  0.51750500  1
  Ge  Ge18  1  0.76127900  0.05368300  0.98249500  1
  Ge  Ge19  1  0.73872100  0.94631700  0.48249500  1
  Ge  Ge20  1  0.26850100  0.45285800  0.67713200  1
  Ge  Ge21  1  0.23149900  0.54714200  0.17713200  1
  Ge  Ge22  1  0.76850100  0.04714200  0.32286800  1
  Ge  Ge23  1  0.73149900  0.95285800  0.82286800  1
  S  S24  1  0.50105100  0.38395600  0.72976200  1
  S  S25  1  0.99894900  0.61604400  0.22976200  1
  S  S26  1  0.00105100  0.11604400  0.27023800  1
  S  S27  1  0.49894900  0.88395600  0.77023800  1
  S  S28  1  0.98785400  0.92354700  0.76042800  1
  S  S29  1  0.51214600  0.07645300  0.26042800  1
  S  S30  1  0.48785400  0.57645300  0.23957200  1
  S  S31  1  0.01214600  0.42354700  0.73957200  1
  S  S32  1  0.73445200  0.12696300  0.65604700  1
  S  S33  1  0.76554800  0.87303700  0.15604700  1
  S  S34  1  0.23445200  0.37303700  0.34395300  1
  S  S35  1  0.26554800  0.62696300  0.84395300  1
  S  S36  1  0.20974800  0.12530500  0.65015500  1
  S  S37  1  0.29025200  0.87469500  0.15015500  1
  S  S38  1  0.70974800  0.37469500  0.34984500  1
  S  S39  1  0.79025200  0.62530500  0.84984500  1
  S  S40  1  0.00666800  0.11338700  0.03080900  1
  S  S41  1  0.49333200  0.88661300  0.53080900  1
  S  S42  1  0.50666800  0.38661300  0.96919100  1
  S  S43  1  0.99333200  0.61338700  0.46919100  1
  S  S44  1  0.98422900  0.91484900  0.55224200  1
  S  S45  1  0.51577100  0.08515100  0.05224200  1
  S  S46  1  0.48422900  0.58515100  0.44775800  1
  S  S47  1  0.01577100  0.41484900  0.94775800  1
  S  S48  1  0.23191500  0.38490700  0.55659500  1
  S  S49  1  0.26808500  0.61509300  0.05659500  1
  S  S50  1  0.73191500  0.11509300  0.44340500  1
  S  S51  1  0.76808500  0.88490700  0.94340500  1
  S  S52  1  0.21361500  0.37902900  0.13674400  1
  S  S53  1  0.28638500  0.62097100  0.63674400  1
  S  S54  1  0.71361500  0.12097100  0.86325600  1
  S  S55  1  0.78638500  0.87902900  0.36325600  1
