# generated using pymatgen
data_Na2ZrSi6(HO3)6
_symmetry_space_group_name_H-M   'P 1'
_cell_length_a   7.20704800
_cell_length_b   14.84860000
_cell_length_c   14.86344400
_cell_angle_alpha   90.00000000
_cell_angle_beta   90.00000000
_cell_angle_gamma   90.00000000
_symmetry_Int_Tables_number   1
_chemical_formula_structural   Na2ZrSi6(HO3)6
_chemical_formula_sum   'Na8 Zr4 Si24 H24 O72'
_cell_volume   1590.60511197
_cell_formula_units_Z   4
loop_
 _symmetry_equiv_pos_site_id
 _symmetry_equiv_pos_as_xyz
  1  'x, y, z'
loop_
 _atom_site_type_symbol
 _atom_site_label
 _atom_site_symmetry_multiplicity
 _atom_site_fract_x
 _atom_site_fract_y
 _atom_site_fract_z
 _atom_site_occupancy
  Na  Na0  1  0.43910600  0.75000000  0.76895200  1
  Na  Na1  1  0.56089400  0.25000000  0.23104800  1
  Na  Na2  1  0.43910600  0.25000000  0.73104800  1
  Na  Na3  1  0.56089400  0.75000000  0.26895200  1
  Na  Na4  1  0.99549500  0.50000000  0.75000000  1
  Na  Na5  1  0.00450500  0.00000000  0.25000000  1
  Na  Na6  1  0.00450500  0.50000000  0.25000000  1
  Na  Na7  1  0.99549500  0.00000000  0.75000000  1
  Zr  Zr8  1  0.49595400  0.50000000  0.75000000  1
  Zr  Zr9  1  0.50404600  0.00000000  0.25000000  1
  Zr  Zr10  1  0.50404600  0.50000000  0.25000000  1
  Zr  Zr11  1  0.49595400  0.00000000  0.75000000  1
  Si  Si12  1  0.77270900  0.64636700  0.61395500  1
  Si  Si13  1  0.22729100  0.14636700  0.38604500  1
  Si  Si14  1  0.77270900  0.35363300  0.88604500  1
  Si  Si15  1  0.22729100  0.85363300  0.11395500  1
  Si  Si16  1  0.22729100  0.35363300  0.38604500  1
  Si  Si17  1  0.77270900  0.85363300  0.61395500  1
  Si  Si18  1  0.22729100  0.64636700  0.11395500  1
  Si  Si19  1  0.77270900  0.14636700  0.88604500  1
  Si  Si20  1  0.50742200  0.64227500  0.95264200  1
  Si  Si21  1  0.49257800  0.14227500  0.04735800  1
  Si  Si22  1  0.50742200  0.35772500  0.54735800  1
  Si  Si23  1  0.49257800  0.85772500  0.45264200  1
  Si  Si24  1  0.49257800  0.35772500  0.04735800  1
  Si  Si25  1  0.50742200  0.85772500  0.95264200  1
  Si  Si26  1  0.49257800  0.64227500  0.45264200  1
  Si  Si27  1  0.50742200  0.14227500  0.54735800  1
  Si  Si28  1  0.21836200  0.64450700  0.60803000  1
  Si  Si29  1  0.78163800  0.14450700  0.39197000  1
  Si  Si30  1  0.21836200  0.35549300  0.89197000  1
  Si  Si31  1  0.78163800  0.85549300  0.10803000  1
  Si  Si32  1  0.78163800  0.35549300  0.39197000  1
  Si  Si33  1  0.21836200  0.85549300  0.60803000  1
  Si  Si34  1  0.78163800  0.64450700  0.10803000  1
  Si  Si35  1  0.21836200  0.14450700  0.89197000  1
  H  H36  1  0.90051000  0.58222400  0.92587000  1
  H  H37  1  0.09949000  0.08222400  0.07413000  1
  H  H38  1  0.90051000  0.41777600  0.57413000  1
  H  H39  1  0.09949000  0.91777600  0.42587000  1
  H  H40  1  0.09949000  0.41777600  0.07413000  1
  H  H41  1  0.90051000  0.91777600  0.92587000  1
  H  H42  1  0.09949000  0.58222400  0.42587000  1
  H  H43  1  0.90051000  0.08222400  0.57413000  1
  H  H44  1  0.05740200  0.80352700  0.83414400  1
  H  H45  1  0.94259800  0.30352700  0.16585600  1
  H  H46  1  0.05740200  0.19647300  0.66585600  1
  H  H47  1  0.94259800  0.69647300  0.33414400  1
  H  H48  1  0.94259800  0.19647300  0.16585600  1
  H  H49  1  0.05740200  0.69647300  0.83414400  1
  H  H50  1  0.94259800  0.80352700  0.33414400  1
  H  H51  1  0.05740200  0.30352700  0.66585600  1
  H  H52  1  0.11726800  0.58215400  0.92378900  1
  H  H53  1  0.88273200  0.08215300  0.07621100  1
  H  H54  1  0.11726800  0.41784600  0.57621100  1
  H  H55  1  0.88273200  0.91784600  0.42378900  1
  H  H56  1  0.88273200  0.41784600  0.07621100  1
  H  H57  1  0.11726800  0.91784600  0.92378900  1
  H  H58  1  0.88273200  0.58215400  0.42378900  1
  H  H59  1  0.11726800  0.08215300  0.57621100  1
  O  O60  1  0.99491200  0.63825800  0.59602400  1
  O  O61  1  0.00508800  0.13825800  0.40397600  1
  O  O62  1  0.99491200  0.36174200  0.90397600  1
  O  O63  1  0.00508800  0.86174200  0.09602400  1
  O  O64  1  0.00508800  0.36174200  0.40397600  1
  O  O65  1  0.99491200  0.86174200  0.59602400  1
  O  O66  1  0.00508800  0.63825800  0.09602400  1
  O  O67  1  0.99491200  0.13825800  0.90397600  1
  O  O68  1  0.71990500  0.75000000  0.64521700  1
  O  O69  1  0.28009500  0.25000000  0.35478300  1
  O  O70  1  0.71990500  0.25000000  0.85478300  1
  O  O71  1  0.28009500  0.75000000  0.14521700  1
  O  O72  1  0.70740900  0.57747200  0.69064100  1
  O  O73  1  0.29259100  0.07747200  0.30935900  1
  O  O74  1  0.70740900  0.42252800  0.80935900  1
  O  O75  1  0.29259100  0.92252800  0.19064100  1
  O  O76  1  0.29259100  0.42252800  0.30935900  1
  O  O77  1  0.70740900  0.92252800  0.69064100  1
  O  O78  1  0.29259100  0.57747200  0.19064100  1
  O  O79  1  0.70740900  0.07747200  0.80935900  1
  O  O80  1  0.67808300  0.62567300  0.51505700  1
  O  O81  1  0.32191700  0.12567300  0.48494300  1
  O  O82  1  0.67808300  0.37432700  0.98494300  1
  O  O83  1  0.32191700  0.87432700  0.01505700  1
  O  O84  1  0.32191700  0.37432700  0.48494300  1
  O  O85  1  0.67808300  0.87432700  0.51505700  1
  O  O86  1  0.32191700  0.62567300  0.01505700  1
  O  O87  1  0.67808300  0.12567300  0.98494300  1
  O  O88  1  0.52326600  0.75000000  0.92820200  1
  O  O89  1  0.47673400  0.25000000  0.07179800  1
  O  O90  1  0.52326600  0.25000000  0.57179800  1
  O  O91  1  0.47673400  0.75000000  0.42820200  1
  O  O92  1  0.49199200  0.58870000  0.85976600  1
  O  O93  1  0.50800800  0.08870000  0.14023400  1
  O  O94  1  0.49199200  0.41130000  0.64023400  1
  O  O95  1  0.50800800  0.91130000  0.35976600  1
  O  O96  1  0.50800800  0.41130000  0.14023400  1
  O  O97  1  0.49199200  0.91130000  0.85976600  1
  O  O98  1  0.50800800  0.58870000  0.35976600  1
  O  O99  1  0.49199200  0.08870000  0.64023400  1
  O  O100  1  0.30431200  0.61338900  0.50933700  1
  O  O101  1  0.69568800  0.11338900  0.49066300  1
  O  O102  1  0.30431200  0.38661100  0.99066300  1
  O  O103  1  0.69568800  0.88661100  0.00933700  1
  O  O104  1  0.69568800  0.38661100  0.49066300  1
  O  O105  1  0.30431200  0.88661100  0.50933700  1
  O  O106  1  0.69568800  0.61338900  0.00933700  1
  O  O107  1  0.30431200  0.11338900  0.99066300  1
  O  O108  1  0.28212300  0.75000000  0.62468200  1
  O  O109  1  0.71787700  0.25000000  0.37531800  1
  O  O110  1  0.28212300  0.25000000  0.87531800  1
  O  O111  1  0.71787700  0.75000000  0.12468200  1
  O  O112  1  0.29124400  0.58276700  0.68942100  1
  O  O113  1  0.70875600  0.08276700  0.31057900  1
  O  O114  1  0.29124400  0.41723300  0.81057900  1
  O  O115  1  0.70875600  0.91723300  0.18942100  1
  O  O116  1  0.70875600  0.41723300  0.31057900  1
  O  O117  1  0.29124400  0.91723300  0.68942100  1
  O  O118  1  0.70875600  0.58276700  0.18942100  1
  O  O119  1  0.29124400  0.08276700  0.81057900  1
  O  O120  1  0.00759600  0.58168900  0.88479500  1
  O  O121  1  0.99240400  0.08168900  0.11520500  1
  O  O122  1  0.00759600  0.41831100  0.61520500  1
  O  O123  1  0.99240400  0.91831100  0.38479500  1
  O  O124  1  0.99240400  0.41831100  0.11520500  1
  O  O125  1  0.00759600  0.91831100  0.88479500  1
  O  O126  1  0.99240400  0.58168900  0.38479500  1
  O  O127  1  0.00759600  0.08168900  0.61520500  1
  O  O128  1  0.12065700  0.75000000  0.80990800  1
  O  O129  1  0.87934300  0.25000000  0.19009200  1
  O  O130  1  0.12065700  0.25000000  0.69009200  1
  O  O131  1  0.87934300  0.75000000  0.30990800  1
