# generated using pymatgen
data_GaSb2(TeCl2)2
_symmetry_space_group_name_H-M   'P 1'
_cell_length_a   9.80670800
_cell_length_b   13.48689043
_cell_length_c   18.43148624
_cell_angle_alpha   76.10678009
_cell_angle_beta   87.89866245
_cell_angle_gamma   89.18439628
_symmetry_Int_Tables_number   1
_chemical_formula_structural   GaSb2(TeCl2)2
_chemical_formula_sum   'Ga8 Sb16 Te16 Cl32'
_cell_volume   2364.83911044
_cell_formula_units_Z   8
loop_
 _symmetry_equiv_pos_site_id
 _symmetry_equiv_pos_as_xyz
  1  'x, y, z'
loop_
 _atom_site_type_symbol
 _atom_site_label
 _atom_site_symmetry_multiplicity
 _atom_site_fract_x
 _atom_site_fract_y
 _atom_site_fract_z
 _atom_site_occupancy
  Ga  Ga0  1  0.52121900  0.99965100  0.33753200  1
  Ga  Ga1  1  0.47878100  0.00034900  0.66246800  1
  Ga  Ga2  1  0.99669900  0.74731800  0.81295600  1
  Ga  Ga3  1  0.00330100  0.25268200  0.18704400  1
  Ga  Ga4  1  0.98318600  0.24435100  0.85757200  1
  Ga  Ga5  1  0.01681400  0.75564900  0.14242800  1
  Ga  Ga6  1  0.46708100  0.47696900  0.67022100  1
  Ga  Ga7  1  0.53291900  0.52303100  0.32977900  1
  Sb  Sb8  1  0.38326600  0.99577900  0.90897500  1
  Sb  Sb9  1  0.61673400  0.00422100  0.09102500  1
  Sb  Sb10  1  0.70315300  0.75258700  0.99916500  1
  Sb  Sb11  1  0.29684700  0.24741300  0.00083500  1
  Sb  Sb12  1  0.31666900  0.76919600  0.94622700  1
  Sb  Sb13  1  0.68333100  0.23080400  0.05377300  1
  Sb  Sb14  1  0.42739100  0.48912900  0.10487900  1
  Sb  Sb15  1  0.57260900  0.51087100  0.89512100  1
  Sb  Sb16  1  0.81446100  0.04282700  0.46583600  1
  Sb  Sb17  1  0.18553900  0.95717300  0.53416400  1
  Sb  Sb18  1  0.96124600  0.78055800  0.38132000  1
  Sb  Sb19  1  0.03875400  0.21944200  0.61868000  1
  Sb  Sb20  1  0.11639300  0.73023200  0.58227800  1
  Sb  Sb21  1  0.88360700  0.26976800  0.41772200  1
  Sb  Sb22  1  0.19429800  0.48668300  0.46764000  1
  Sb  Sb23  1  0.80570200  0.51331700  0.53236000  1
  Te  Te24  1  0.66606200  0.98424400  0.94102500  1
  Te  Te25  1  0.33393800  0.01575600  0.05897500  1
  Te  Te26  1  0.45114800  0.73549500  0.08569600  1
  Te  Te27  1  0.54885200  0.26450500  0.91430400  1
  Te  Te28  1  0.56621100  0.74896700  0.86586700  1
  Te  Te29  1  0.43378900  0.25103300  0.13413300  1
  Te  Te30  1  0.30660900  0.50519000  0.96273300  1
  Te  Te31  1  0.69339100  0.49481000  0.03726700  1
  Te  Te32  1  0.05939900  0.99476600  0.39193700  1
  Te  Te33  1  0.94060100  0.00523400  0.60806300  1
  Te  Te34  1  0.84380500  0.75646300  0.52945000  1
  Te  Te35  1  0.15619500  0.24353700  0.47055000  1
  Te  Te36  1  0.22320600  0.72061600  0.43812000  1
  Te  Te37  1  0.77679400  0.27938400  0.56188000  1
  Te  Te38  1  0.94511100  0.53218700  0.38940100  1
  Te  Te39  1  0.05488900  0.46781300  0.61059900  1
  Cl  Cl40  1  0.73176200  0.97915800  0.29464200  1
  Cl  Cl41  1  0.26823800  0.02084200  0.70535800  1
  Cl  Cl42  1  0.49465200  0.89372200  0.44831700  1
  Cl  Cl43  1  0.50534800  0.10627800  0.55168300  1
  Cl  Cl44  1  0.49318400  0.15612400  0.34919100  1
  Cl  Cl45  1  0.50681600  0.84387600  0.65080900  1
  Cl  Cl46  1  0.37593900  0.96615700  0.25931100  1
  Cl  Cl47  1  0.62406100  0.03384300  0.74068900  1
  Cl  Cl48  1  0.86708400  0.71152000  0.72776300  1
  Cl  Cl49  1  0.13291600  0.28848000  0.27223700  1
  Cl  Cl50  1  0.95977000  0.63380700  0.91991600  1
  Cl  Cl51  1  0.04023000  0.36619300  0.08008400  1
  Cl  Cl52  1  0.21253300  0.74523600  0.77709400  1
  Cl  Cl53  1  0.78746700  0.25476400  0.22290600  1
  Cl  Cl54  1  0.94469400  0.89693000  0.83288400  1
  Cl  Cl55  1  0.05530600  0.10307000  0.16711600  1
  Cl  Cl56  1  0.85426300  0.20352500  0.77412500  1
  Cl  Cl57  1  0.14573700  0.79647500  0.22587500  1
  Cl  Cl58  1  0.95838300  0.13209200  0.96669900  1
  Cl  Cl59  1  0.04161700  0.86790800  0.03330100  1
  Cl  Cl60  1  0.19940300  0.23972900  0.82257200  1
  Cl  Cl61  1  0.80059700  0.76027100  0.17742800  1
  Cl  Cl62  1  0.92095700  0.39308000  0.87559500  1
  Cl  Cl63  1  0.07904300  0.60692000  0.12440500  1
  Cl  Cl64  1  0.33943200  0.49888300  0.76517700  1
  Cl  Cl65  1  0.66056800  0.50111700  0.23482300  1
  Cl  Cl66  1  0.40205400  0.34475000  0.63052600  1
  Cl  Cl67  1  0.59794600  0.65525000  0.36947400  1
  Cl  Cl68  1  0.45549800  0.61210900  0.57526900  1
  Cl  Cl69  1  0.54450200  0.38789100  0.42473100  1
  Cl  Cl70  1  0.68205000  0.45838700  0.70364900  1
  Cl  Cl71  1  0.31795000  0.54161300  0.29635100  1
