# generated using pymatgen
data_NaP15
_symmetry_space_group_name_H-M   'P 1'
_cell_length_a   7.15960700
_cell_length_b   9.24080305
_cell_length_c   11.84329137
_cell_angle_alpha   92.13038828
_cell_angle_beta   99.50615651
_cell_angle_gamma   108.18456169
_symmetry_Int_Tables_number   1
_chemical_formula_structural   NaP15
_chemical_formula_sum   'Na2 P30'
_cell_volume   730.90375076
_cell_formula_units_Z   2
loop_
 _symmetry_equiv_pos_site_id
 _symmetry_equiv_pos_as_xyz
  1  'x, y, z'
loop_
 _atom_site_type_symbol
 _atom_site_label
 _atom_site_symmetry_multiplicity
 _atom_site_fract_x
 _atom_site_fract_y
 _atom_site_fract_z
 _atom_site_occupancy
  Na  Na0  1  0.78813100  0.79002600  0.00032000  1
  Na  Na1  1  0.21186900  0.20997400  0.99968000  1
  P  P2  1  0.66274100  0.31164200  0.56868000  1
  P  P3  1  0.33725900  0.68835800  0.43132000  1
  P  P4  1  0.70817100  0.13482500  0.82913600  1
  P  P5  1  0.29182900  0.86517500  0.17086400  1
  P  P6  1  0.34214800  0.80634500  0.85102900  1
  P  P7  1  0.65785200  0.19365500  0.14897100  1
  P  P8  1  0.74290900  0.51619100  0.82624800  1
  P  P9  1  0.25709100  0.48380900  0.17375200  1
  P  P10  1  0.52751100  0.91959100  0.72465100  1
  P  P11  1  0.47248900  0.08040900  0.27534900  1
  P  P12  1  0.50789200  0.28108400  0.82496200  1
  P  P13  1  0.49210800  0.71891600  0.17503800  1
  P  P14  1  0.98543800  0.55871700  0.16869300  1
  P  P15  1  0.01456200  0.44128300  0.83130700  1
  P  P16  1  0.02309500  0.90024400  0.66226000  1
  P  P17  1  0.97690500  0.09975600  0.33774000  1
  P  P18  1  0.20719600  0.59453700  0.72870900  1
  P  P19  1  0.79280400  0.40546300  0.27129100  1
  P  P20  1  0.88794100  0.24155400  0.70127500  1
  P  P21  1  0.11205900  0.75844600  0.29872500  1
  P  P22  1  0.61879700  0.76318500  0.36352800  1
  P  P23  1  0.38120300  0.23681500  0.63647200  1
  P  P24  1  0.10869500  0.91073100  0.84790400  1
  P  P25  1  0.89130500  0.08926900  0.15209600  1
  P  P26  1  0.69115000  0.54459000  0.63783700  1
  P  P27  1  0.30885000  0.45541000  0.36216300  1
  P  P28  1  0.98827100  0.66113000  0.59772100  1
  P  P29  1  0.01172900  0.33887000  0.40227900  1
  P  P30  1  0.30817600  0.98829000  0.59536600  1
  P  P31  1  0.69182400  0.01171000  0.40463400  1
