# generated using pymatgen
data_AgB5H6N2Cl5
_symmetry_space_group_name_H-M   'P 1'
_cell_length_a   15.08461600
_cell_length_b   12.53220300
_cell_length_c   14.01437200
_cell_angle_alpha   90.00000000
_cell_angle_beta   90.00000000
_cell_angle_gamma   90.00000000
_symmetry_Int_Tables_number   1
_chemical_formula_structural   AgB5H6N2Cl5
_chemical_formula_sum   'Ag8 B40 H48 N16 Cl40'
_cell_volume   2649.32551120
_cell_formula_units_Z   8
loop_
 _symmetry_equiv_pos_site_id
 _symmetry_equiv_pos_as_xyz
  1  'x, y, z'
loop_
 _atom_site_type_symbol
 _atom_site_label
 _atom_site_symmetry_multiplicity
 _atom_site_fract_x
 _atom_site_fract_y
 _atom_site_fract_z
 _atom_site_occupancy
  Ag  Ag0  1  0.70589700  0.10165400  0.93655900  1
  Ag  Ag1  1  0.79410300  0.39834600  0.43655900  1
  Ag  Ag2  1  0.20589700  0.39834600  0.06344100  1
  Ag  Ag3  1  0.29410300  0.10165400  0.56344100  1
  Ag  Ag4  1  0.29410300  0.89834600  0.06344100  1
  Ag  Ag5  1  0.20589700  0.60165400  0.56344100  1
  Ag  Ag6  1  0.79410300  0.60165400  0.93655900  1
  Ag  Ag7  1  0.70589700  0.89834600  0.43655900  1
  B  B8  1  0.38703500  0.25916100  0.30043800  1
  B  B9  1  0.11296500  0.24083900  0.80043800  1
  B  B10  1  0.88703500  0.24083900  0.69956200  1
  B  B11  1  0.61296500  0.25916100  0.19956200  1
  B  B12  1  0.61296500  0.74083900  0.69956200  1
  B  B13  1  0.88703500  0.75916100  0.19956200  1
  B  B14  1  0.11296500  0.75916100  0.30043800  1
  B  B15  1  0.38703500  0.74083900  0.80043800  1
  B  B16  1  0.48401200  0.29745500  0.35048300  1
  B  B17  1  0.01598800  0.20254500  0.85048300  1
  B  B18  1  0.98401200  0.20254500  0.64951700  1
  B  B19  1  0.51598800  0.29745500  0.14951700  1
  B  B20  1  0.51598800  0.70254500  0.64951700  1
  B  B21  1  0.98401200  0.79745500  0.14951700  1
  B  B22  1  0.01598800  0.79745500  0.35048300  1
  B  B23  1  0.48401200  0.70254500  0.85048300  1
  B  B24  1  0.57758400  0.21911100  0.30845700  1
  B  B25  1  0.92241600  0.28088900  0.80845700  1
  B  B26  1  0.07758400  0.28088900  0.69154300  1
  B  B27  1  0.42241600  0.21911100  0.19154300  1
  B  B28  1  0.42241600  0.78088900  0.69154300  1
  B  B29  1  0.07758400  0.71911100  0.19154300  1
  B  B30  1  0.92241600  0.71911100  0.30845700  1
  B  B31  1  0.57758400  0.78088900  0.80845700  1
  B  B32  1  0.55924300  0.35531600  0.26167600  1
  B  B33  1  0.94075700  0.14468400  0.76167600  1
  B  B34  1  0.05924300  0.14468400  0.73832400  1
  B  B35  1  0.44075700  0.35531600  0.23832400  1
  B  B36  1  0.44075700  0.64468400  0.73832400  1
  B  B37  1  0.05924300  0.85531600  0.23832400  1
  B  B38  1  0.94075700  0.85531600  0.26167600  1
  B  B39  1  0.55924300  0.64468400  0.76167600  1
  B  B40  1  0.46554200  0.16227000  0.30326100  1
  B  B41  1  0.03445800  0.33773000  0.80326100  1
  B  B42  1  0.96554200  0.33773000  0.69673900  1
  B  B43  1  0.53445800  0.16227000  0.19673900  1
  B  B44  1  0.53445800  0.83773000  0.69673900  1
  B  B45  1  0.96554200  0.66227000  0.19673900  1
  B  B46  1  0.03445800  0.66227000  0.30326100  1
  B  B47  1  0.46554200  0.83773000  0.80326100  1
  H  H48  1  0.80174900  0.94626500  0.02653500  1
  H  H49  1  0.69825100  0.55373500  0.52653500  1
  H  H50  1  0.30174900  0.55373500  0.97346500  1
  H  H51  1  0.19825100  0.94626500  0.47346500  1
  H  H52  1  0.19825100  0.05373500  0.97346500  1
  H  H53  1  0.30174900  0.44626500  0.47346500  1
  H  H54  1  0.69825100  0.44626500  0.02653500  1
  H  H55  1  0.80174900  0.05373500  0.52653500  1
  H  H56  1  0.85940300  0.05716500  0.02884100  1
  H  H57  1  0.64059700  0.44283500  0.52884100  1
  H  H58  1  0.35940300  0.44283500  0.97115900  1
  H  H59  1  0.14059700  0.05716500  0.47115900  1
  H  H60  1  0.14059700  0.94283500  0.97115900  1
  H  H61  1  0.35940300  0.55716500  0.47115900  1
  H  H62  1  0.64059700  0.55716500  0.02884100  1
  H  H63  1  0.85940300  0.94283500  0.52884100  1
  H  H64  1  0.77748000  0.03875500  0.10509200  1
  H  H65  1  0.72252000  0.46124500  0.60509200  1
  H  H66  1  0.27748000  0.46124500  0.89490800  1
  H  H67  1  0.22252000  0.03875500  0.39490800  1
  H  H68  1  0.22252000  0.96124500  0.89490800  1
  H  H69  1  0.27748000  0.53875500  0.39490800  1
  H  H70  1  0.72252000  0.53875500  0.10509200  1
  H  H71  1  0.77748000  0.96124500  0.60509200  1
  H  H72  1  0.58859800  0.12022000  0.79122300  1
  H  H73  1  0.91140200  0.37978000  0.29122300  1
  H  H74  1  0.08859800  0.37978000  0.20877700  1
  H  H75  1  0.41140200  0.12022000  0.70877700  1
  H  H76  1  0.41140200  0.87978000  0.20877700  1
  H  H77  1  0.08859800  0.62022000  0.70877700  1
  H  H78  1  0.91140200  0.62022000  0.79122300  1
  H  H79  1  0.58859800  0.87978000  0.29122300  1
  H  H80  1  0.56304700  0.21148400  0.87228700  1
  H  H81  1  0.93695300  0.28851600  0.37228700  1
  H  H82  1  0.06304700  0.28851600  0.12771300  1
  H  H83  1  0.43695300  0.21148400  0.62771300  1
  H  H84  1  0.43695300  0.78851600  0.12771300  1
  H  H85  1  0.06304700  0.71148400  0.62771300  1
  H  H86  1  0.93695300  0.71148400  0.87228700  1
  H  H87  1  0.56304700  0.78851600  0.37228700  1
  H  H88  1  0.64564700  0.23283100  0.79677400  1
  H  H89  1  0.85435300  0.26716900  0.29677400  1
  H  H90  1  0.14564700  0.26716900  0.20322600  1
  H  H91  1  0.35435300  0.23283100  0.70322600  1
  H  H92  1  0.35435300  0.76716900  0.20322600  1
  H  H93  1  0.14564700  0.73283100  0.70322600  1
  H  H94  1  0.85435300  0.73283100  0.79677400  1
  H  H95  1  0.64564700  0.76716900  0.29677400  1
  N  N96  1  0.79673700  0.02703800  0.03599300  1
  N  N97  1  0.70326300  0.47296200  0.53599300  1
  N  N98  1  0.29673700  0.47296200  0.96400700  1
  N  N99  1  0.20326300  0.02703800  0.46400700  1
  N  N100  1  0.20326300  0.97296200  0.96400700  1
  N  N101  1  0.29673700  0.52703800  0.46400700  1
  N  N102  1  0.70326300  0.52703800  0.03599300  1
  N  N103  1  0.79673700  0.97296200  0.53599300  1
  N  N104  1  0.61421900  0.17620300  0.83681700  1
  N  N105  1  0.88578100  0.32379700  0.33681700  1
  N  N106  1  0.11421900  0.32379700  0.16318300  1
  N  N107  1  0.38578100  0.17620300  0.66318300  1
  N  N108  1  0.38578100  0.82379700  0.16318300  1
  N  N109  1  0.11421900  0.67620300  0.66318300  1
  N  N110  1  0.88578100  0.67620300  0.83681700  1
  N  N111  1  0.61421900  0.82379700  0.33681700  1
  Cl  Cl112  1  0.27768200  0.26144100  0.34906000  1
  Cl  Cl113  1  0.22231800  0.23855900  0.84906000  1
  Cl  Cl114  1  0.77768200  0.23855900  0.65094000  1
  Cl  Cl115  1  0.72231800  0.26144100  0.15094000  1
  Cl  Cl116  1  0.72231800  0.73855900  0.65094000  1
  Cl  Cl117  1  0.77768200  0.76144100  0.15094000  1
  Cl  Cl118  1  0.22231800  0.76144100  0.34906000  1
  Cl  Cl119  1  0.27768200  0.73855900  0.84906000  1
  Cl  Cl120  1  0.48576800  0.34599900  0.47196200  1
  Cl  Cl121  1  0.01423200  0.15400100  0.97196200  1
  Cl  Cl122  1  0.98576800  0.15400100  0.52803800  1
  Cl  Cl123  1  0.51423200  0.34599900  0.02803800  1
  Cl  Cl124  1  0.51423200  0.65400100  0.52803800  1
  Cl  Cl125  1  0.98576800  0.84599900  0.02803800  1
  Cl  Cl126  1  0.01423200  0.84599900  0.47196200  1
  Cl  Cl127  1  0.48576800  0.65400100  0.97196200  1
  Cl  Cl128  1  0.65618900  0.16870100  0.39390600  1
  Cl  Cl129  1  0.84381100  0.33129900  0.89390600  1
  Cl  Cl130  1  0.15618900  0.33129900  0.60609400  1
  Cl  Cl131  1  0.34381100  0.16870100  0.10609400  1
  Cl  Cl132  1  0.34381100  0.83129900  0.60609400  1
  Cl  Cl133  1  0.15618900  0.66870100  0.10609400  1
  Cl  Cl134  1  0.84381100  0.66870100  0.39390600  1
  Cl  Cl135  1  0.65618900  0.83129900  0.89390600  1
  Cl  Cl136  1  0.61423100  0.47987200  0.28711100  1
  Cl  Cl137  1  0.88576900  0.02012800  0.78711100  1
  Cl  Cl138  1  0.11423100  0.02012800  0.71288900  1
  Cl  Cl139  1  0.38576900  0.47987200  0.21288900  1
  Cl  Cl140  1  0.38576900  0.52012800  0.71288900  1
  Cl  Cl141  1  0.11423100  0.97987200  0.21288900  1
  Cl  Cl142  1  0.88576900  0.97987200  0.28711100  1
  Cl  Cl143  1  0.61423100  0.52012800  0.78711100  1
  Cl  Cl144  1  0.44225500  0.03758900  0.36267200  1
  Cl  Cl145  1  0.05774500  0.46241100  0.86267200  1
  Cl  Cl146  1  0.94225500  0.46241100  0.63732800  1
  Cl  Cl147  1  0.55774500  0.03758900  0.13732800  1
  Cl  Cl148  1  0.55774500  0.96241100  0.63732800  1
  Cl  Cl149  1  0.94225500  0.53758900  0.13732800  1
  Cl  Cl150  1  0.05774500  0.53758900  0.36267200  1
  Cl  Cl151  1  0.44225500  0.96241100  0.86267200  1
