# generated using pymatgen
data_Ca2Al4(Si2O7)3
_symmetry_space_group_name_H-M   'P 1'
_cell_length_a   17.63870300
_cell_length_b   6.53483000
_cell_length_c   9.46422143
_cell_angle_alpha   68.40420147
_cell_angle_beta   90.00000000
_cell_angle_gamma   90.00000000
_symmetry_Int_Tables_number   1
_chemical_formula_structural   Ca2Al4(Si2O7)3
_chemical_formula_sum   'Ca4 Al8 Si12 O42'
_cell_volume   1014.32469899
_cell_formula_units_Z   2
loop_
 _symmetry_equiv_pos_site_id
 _symmetry_equiv_pos_as_xyz
  1  'x, y, z'
loop_
 _atom_site_type_symbol
 _atom_site_label
 _atom_site_symmetry_multiplicity
 _atom_site_fract_x
 _atom_site_fract_y
 _atom_site_fract_z
 _atom_site_occupancy
  Ca  Ca0  1  0.59703500  0.68546100  0.96561700  1
  Ca  Ca1  1  0.40296500  0.68546100  0.46561700  1
  Ca  Ca2  1  0.87765100  0.99656300  0.61250900  1
  Ca  Ca3  1  0.12234900  0.99656300  0.11250900  1
  Al  Al4  1  0.84781800  0.33952500  0.76871400  1
  Al  Al5  1  0.15218200  0.33952500  0.26871400  1
  Al  Al6  1  0.66581800  0.73588800  0.26710000  1
  Al  Al7  1  0.33418200  0.73588800  0.76710000  1
  Al  Al8  1  0.59461400  0.53361200  0.66141600  1
  Al  Al9  1  0.40538600  0.53361200  0.16141600  1
  Al  Al10  1  0.90156500  0.09792400  0.17950800  1
  Al  Al11  1  0.09843500  0.09792400  0.67950800  1
  Si  Si12  1  0.64141800  0.99315300  0.50657600  1
  Si  Si13  1  0.35858200  0.99315300  0.00657600  1
  Si  Si14  1  0.88032600  0.61065900  0.95067700  1
  Si  Si15  1  0.11967400  0.61065900  0.45067700  1
  Si  Si16  1  0.77456400  0.95042200  0.02355700  1
  Si  Si17  1  0.22543600  0.95042200  0.52355700  1
  Si  Si18  1  0.73656000  0.35648800  0.52375800  1
  Si  Si19  1  0.26344000  0.35648800  0.02375800  1
  Si  Si20  1  0.98231600  0.99190100  0.92545700  1
  Si  Si21  1  0.01768400  0.99190100  0.42545700  1
  Si  Si22  1  0.53494900  0.42524200  0.38928000  1
  Si  Si23  1  0.46505100  0.42524200  0.88928000  1
  O  O24  1  0.87044000  0.59650100  0.77920400  1
  O  O25  1  0.12956000  0.59650100  0.27920400  1
  O  O26  1  0.64858100  0.89743400  0.37335000  1
  O  O27  1  0.35141900  0.89743400  0.87335000  1
  O  O28  1  0.61436600  0.79936900  0.66758100  1
  O  O29  1  0.38563400  0.79936900  0.16758100  1
  O  O30  1  0.88172800  0.37641900  0.08622000  1
  O  O31  1  0.11827200  0.37641900  0.58622000  1
  O  O32  1  0.81014700  0.77656400  0.94975200  1
  O  O33  1  0.18985300  0.77656400  0.44975200  1
  O  O34  1  0.72363800  0.09642600  0.53453400  1
  O  O35  1  0.27636200  0.09642600  0.03453400  1
  O  O36  1  0.96093300  0.73894000  0.94526800  1
  O  O37  1  0.03906700  0.73894000  0.44526800  1
  O  O38  1  0.57601600  0.18650700  0.45962400  1
  O  O39  1  0.42398400  0.18650700  0.95962400  1
  O  O40  1  0.98161500  0.02576700  0.08806200  1
  O  O41  1  0.01838500  0.02576700  0.58806200  1
  O  O42  1  0.52661400  0.53479500  0.52089300  1
  O  O43  1  0.47338600  0.53479500  0.02089300  1
  O  O44  1  0.77520200  0.19509700  0.89152900  1
  O  O45  1  0.22479800  0.19509700  0.39152900  1
  O  O46  1  0.73029800  0.52471400  0.35009400  1
  O  O47  1  0.26970200  0.52471400  0.85009400  1
  O  O48  1  0.92485700  0.15348600  0.79812700  1
  O  O49  1  0.07514300  0.15348600  0.29812700  1
  O  O50  1  0.58048000  0.59964300  0.24201100  1
  O  O51  1  0.41952000  0.59964300  0.74201100  1
  O  O52  1  0.82289300  0.94162100  0.17043600  1
  O  O53  1  0.17710700  0.94162100  0.67043600  1
  O  O54  1  0.67694100  0.41152800  0.63358100  1
  O  O55  1  0.32305900  0.41152800  0.13358100  1
  O  O56  1  0.82405900  0.34233200  0.58667200  1
  O  O57  1  0.17594100  0.34233200  0.08667200  1
  O  O58  1  0.68640300  0.86615900  0.06982100  1
  O  O59  1  0.31359700  0.86615900  0.56982100  1
  O  O60  1  0.07189300  0.03342700  0.87309600  1
  O  O61  1  0.92810700  0.03342700  0.37309600  1
  O  O62  1  0.55331900  0.40648400  0.84309700  1
  O  O63  1  0.44668100  0.40648400  0.34309700  1
  O  O64  1  0.68170700  0.37385000  0.07428000  1
  O  O65  1  0.31829300  0.37385000  0.57428000  1
