# generated using pymatgen
data_BH17C5N2
_symmetry_space_group_name_H-M   'P 1'
_cell_length_a   6.48212042
_cell_length_b   8.16935690
_cell_length_c   10.42920186
_cell_angle_alpha   69.45708304
_cell_angle_beta   77.32942652
_cell_angle_gamma   73.90736265
_symmetry_Int_Tables_number   1
_chemical_formula_structural   BH17C5N2
_chemical_formula_sum   'B2 H34 C10 N4'
_cell_volume   492.29639688
_cell_formula_units_Z   2
loop_
 _symmetry_equiv_pos_site_id
 _symmetry_equiv_pos_as_xyz
  1  'x, y, z'
loop_
 _atom_site_type_symbol
 _atom_site_label
 _atom_site_symmetry_multiplicity
 _atom_site_fract_x
 _atom_site_fract_y
 _atom_site_fract_z
 _atom_site_occupancy
  B  B0  1  0.02480500  0.69966800  0.23333300  1
  B  B1  1  0.97519500  0.30033200  0.76666700  1
  H  H2  1  0.72110100  0.96189300  0.10539900  1
  H  H3  1  0.27889900  0.03810700  0.89460100  1
  H  H4  1  0.90971000  0.05364800  0.14647100  1
  H  H5  1  0.09029000  0.94635200  0.85352900  1
  H  H6  1  0.74927500  0.94911700  0.46022100  1
  H  H7  1  0.25072500  0.05088300  0.53977900  1
  H  H8  1  0.93802500  0.73596400  0.49120000  1
  H  H9  1  0.06197500  0.26403600  0.50880000  1
  H  H10  1  0.02316200  0.93184000  0.37222900  1
  H  H11  1  0.97683800  0.06816000  0.62777100  1
  H  H12  1  0.58754600  0.71084300  0.27435000  1
  H  H13  1  0.41245400  0.28915700  0.72565000  1
  H  H14  1  0.69007200  0.61433400  0.43687400  1
  H  H15  1  0.30992800  0.38566600  0.56312600  1
  H  H16  1  0.49983600  0.82680900  0.40160400  1
  H  H17  1  0.50016400  0.17319100  0.59839600  1
  H  H18  1  0.70716700  0.37139400  0.11141700  1
  H  H19  1  0.29283300  0.62860600  0.88858300  1
  H  H20  1  0.50634500  0.38676600  0.25672700  1
  H  H21  1  0.49365500  0.61323400  0.74327300  1
  H  H22  1  0.77585100  0.26335000  0.28225200  1
  H  H23  1  0.22414900  0.73665000  0.71774800  1
  H  H24  1  0.34322100  0.06183800  0.16172200  1
  H  H25  1  0.65677900  0.93816200  0.83827800  1
  H  H26  1  0.26212000  0.27125800  0.19684500  1
  H  H27  1  0.73788000  0.72874200  0.80315500  1
  H  H28  1  0.43151700  0.25474300  0.04058000  1
  H  H29  1  0.56848300  0.74525700  0.95942000  1
  H  H30  1  0.07091300  0.56259800  0.32860200  1
  H  H31  1  0.92908700  0.43740200  0.67139800  1
  H  H32  1  0.17374600  0.77844800  0.18869100  1
  H  H33  1  0.82625400  0.22155200  0.81130900  1
  H  H34  1  0.96220200  0.67175700  0.14212400  1
  H  H35  1  0.03779800  0.32824300  0.85787600  1
  C  C36  1  0.75973500  0.00341700  0.18515600  1
  C  C37  1  0.24026500  0.99658300  0.81484400  1
  C  C38  1  0.88682400  0.86484800  0.41365600  1
  C  C39  1  0.11317600  0.13515200  0.58634400  1
  C  C40  1  0.63636800  0.73989200  0.35683200  1
  C  C41  1  0.36363200  0.26010800  0.64316800  1
  C  C42  1  0.64698300  0.29713700  0.21843100  1
  C  C43  1  0.35301700  0.70286300  0.78156900  1
  C  C44  1  0.39600500  0.18272800  0.15227500  1
  C  C45  1  0.60399500  0.81727200  0.84772500  1
  N  N46  1  0.82241900  0.82920100  0.29933600  1
  N  N47  1  0.17758100  0.17079900  0.70066400  1
  N  N48  1  0.58297900  0.13513600  0.22580700  1
  N  N49  1  0.41702100  0.86486400  0.77419300  1
