# generated using pymatgen
data_Bi13Pt3I7
_symmetry_space_group_name_H-M   'P 1'
_cell_length_a   9.32075700
_cell_length_b   16.21125715
_cell_length_c   22.94576106
_cell_angle_alpha   103.69890286
_cell_angle_beta   101.68567242
_cell_angle_gamma   90.12592441
_symmetry_Int_Tables_number   1
_chemical_formula_structural   Bi13Pt3I7
_chemical_formula_sum   'Bi52 Pt12 I28'
_cell_volume   3294.09889096
_cell_formula_units_Z   4
loop_
 _symmetry_equiv_pos_site_id
 _symmetry_equiv_pos_as_xyz
  1  'x, y, z'
loop_
 _atom_site_type_symbol
 _atom_site_label
 _atom_site_symmetry_multiplicity
 _atom_site_fract_x
 _atom_site_fract_y
 _atom_site_fract_z
 _atom_site_occupancy
  Bi  Bi0  1  0.61396300  0.02609300  0.12713200  1
  Bi  Bi1  1  0.38603700  0.97390700  0.87286800  1
  Bi  Bi2  1  0.68944600  0.07851100  0.28129800  1
  Bi  Bi3  1  0.31055400  0.92148900  0.71870200  1
  Bi  Bi4  1  0.51727900  0.25019100  0.28007900  1
  Bi  Bi5  1  0.48272100  0.74980900  0.71992100  1
  Bi  Bi6  1  0.43848700  0.19701600  0.12481700  1
  Bi  Bi7  1  0.56151300  0.80298400  0.87518300  1
  Bi  Bi8  1  0.94098300  0.13662900  0.12529600  1
  Bi  Bi9  1  0.05901700  0.86337100  0.87470400  1
  Bi  Bi10  1  0.01826200  0.18825100  0.28052100  1
  Bi  Bi11  1  0.98173800  0.81174900  0.71947900  1
  Bi  Bi12  1  0.84818800  0.35938500  0.28237700  1
  Bi  Bi13  1  0.15181200  0.64061500  0.71762300  1
  Bi  Bi14  1  0.76690600  0.30928500  0.12735400  1
  Bi  Bi15  1  0.23309400  0.69071500  0.87264600  1
  Bi  Bi16  1  0.10748500  0.30613100  0.12379900  1
  Bi  Bi17  1  0.89251500  0.69386900  0.87620100  1
  Bi  Bi18  1  0.18925400  0.35923200  0.27986200  1
  Bi  Bi19  1  0.81074600  0.64076800  0.72013800  1
  Bi  Bi20  1  0.18550500  0.58034900  0.28260000  1
  Bi  Bi21  1  0.81449500  0.41965100  0.71740000  1
  Bi  Bi22  1  0.11212200  0.52666500  0.12767400  1
  Bi  Bi23  1  0.88787800  0.47333500  0.87232600  1
  Bi  Bi24  1  0.76715700  0.52698300  0.12399900  1
  Bi  Bi25  1  0.23284300  0.47301700  0.87600100  1
  Bi  Bi26  1  0.84337500  0.57845600  0.28022800  1
  Bi  Bi27  1  0.15662500  0.42154400  0.71977200  1
  Bi  Bi28  1  0.01397200  0.75016300  0.27977400  1
  Bi  Bi29  1  0.98602800  0.24983700  0.72022600  1
  Bi  Bi30  1  0.93487900  0.69737400  0.12496700  1
  Bi  Bi31  1  0.06512100  0.30262600  0.87503300  1
  Bi  Bi32  1  0.43752800  0.63704900  0.12449100  1
  Bi  Bi33  1  0.56247200  0.36295100  0.87550900  1
  Bi  Bi34  1  0.51416200  0.68779100  0.27974800  1
  Bi  Bi35  1  0.48583800  0.31220900  0.72025200  1
  Bi  Bi36  1  0.68598800  0.85981900  0.28102400  1
  Bi  Bi37  1  0.31401200  0.14018100  0.71897600  1
  Bi  Bi38  1  0.60595000  0.80602900  0.12422600  1
  Bi  Bi39  1  0.39405000  0.19397100  0.87577400  1
  Bi  Bi40  1  0.26379100  0.81005300  0.12753500  1
  Bi  Bi41  1  0.73620900  0.18994700  0.87246500  1
  Bi  Bi42  1  0.34536900  0.86010700  0.28221400  1
  Bi  Bi43  1  0.65463100  0.13989300  0.71778600  1
  Bi  Bi44  1  0.26902700  0.02746400  0.12412900  1
  Bi  Bi45  1  0.73097300  0.97253600  0.87587100  1
  Bi  Bi46  1  0.34760100  0.08005200  0.28101400  1
  Bi  Bi47  1  0.65239900  0.91994800  0.71898600  1
  Bi  Bi48  1  0.85935900  0.12006800  0.50014000  1
  Bi  Bi49  1  0.14064100  0.87993200  0.49986000  1
  Bi  Bi50  1  0.15808000  0.37759200  0.50330200  1
  Bi  Bi51  1  0.84192000  0.62240800  0.49669800  1
  Pt  Pt52  1  0.72987700  0.19339900  0.20456900  1
  Pt  Pt53  1  0.27012300  0.80660100  0.79543100  1
  Pt  Pt54  1  0.97857200  0.44385800  0.20505800  1
  Pt  Pt55  1  0.02142800  0.55614200  0.79494200  1
  Pt  Pt56  1  0.72547200  0.69327000  0.20395300  1
  Pt  Pt57  1  0.27452800  0.30673000  0.79604700  1
  Pt  Pt58  1  0.47787200  0.94389600  0.20485200  1
  Pt  Pt59  1  0.52212800  0.05610400  0.79514800  1
  Pt  Pt60  1  0.22621200  0.69423000  0.20449400  1
  Pt  Pt61  1  0.77378800  0.30577000  0.79550600  1
  Pt  Pt62  1  0.22953600  0.19362000  0.20375700  1
  Pt  Pt63  1  0.77046400  0.80638000  0.79624300  1
  I  I64  1  0.48018800  0.44479100  0.20858600  1
  I  I65  1  0.51981200  0.55520900  0.79141400  1
  I  I66  1  0.98082100  0.94564500  0.20971800  1
  I  I67  1  0.01917900  0.05435500  0.79028200  1
  I  I68  1  0.38178100  0.37824200  0.00831300  1
  I  I69  1  0.61821900  0.62175800  0.99168700  1
  I  I70  1  0.87525200  0.37497100  0.99896500  1
  I  I71  1  0.12474800  0.62502900  0.00103500  1
  I  I72  1  0.62719600  0.12576200  0.00030800  1
  I  I73  1  0.37280400  0.87423800  0.99969200  1
  I  I74  1  0.12254500  0.12226700  0.99178300  1
  I  I75  1  0.87745500  0.87773300  0.00821700  1
  I  I76  1  0.06509700  0.00212000  0.41373200  1
  I  I77  1  0.93490300  0.99788000  0.58626800  1
  I  I78  1  0.59151000  0.01685000  0.42306700  1
  I  I79  1  0.40849000  0.98315000  0.57693300  1
  I  I80  1  0.67482200  0.22814800  0.57759300  1
  I  I81  1  0.32517800  0.77185200  0.42240700  1
  I  I82  1  0.16550500  0.23362000  0.57573600  1
  I  I83  1  0.83449500  0.76638000  0.42426400  1
  I  I84  1  0.84677200  0.25971900  0.42314800  1
  I  I85  1  0.15322800  0.74028100  0.57685200  1
  I  I86  1  0.34323400  0.27662600  0.42409300  1
  I  I87  1  0.65676600  0.72337400  0.57590700  1
  I  I88  1  0.40010600  0.47820700  0.59428400  1
  I  I89  1  0.59989400  0.52179300  0.40571600  1
  I  I90  1  0.90513000  0.48543000  0.57437800  1
  I  I91  1  0.09487000  0.51457000  0.42562200  1
