# generated using pymatgen
data_B3H7C2S
_symmetry_space_group_name_H-M   'P 1'
_cell_length_a   8.52329893
_cell_length_b   8.52329893
_cell_length_c   13.57483865
_cell_angle_alpha   102.07707624
_cell_angle_beta   102.07707624
_cell_angle_gamma   108.11419986
_symmetry_Int_Tables_number   1
_chemical_formula_structural   B3H7C2S
_chemical_formula_sum   'B18 H42 C12 S6'
_cell_volume   875.72478687
_cell_formula_units_Z   6
loop_
 _symmetry_equiv_pos_site_id
 _symmetry_equiv_pos_as_xyz
  1  'x, y, z'
loop_
 _atom_site_type_symbol
 _atom_site_label
 _atom_site_symmetry_multiplicity
 _atom_site_fract_x
 _atom_site_fract_y
 _atom_site_fract_z
 _atom_site_occupancy
  B  B0  1  0.10880900  0.69312500  0.65488400  1
  B  B1  1  0.69312500  0.10880900  0.15488400  1
  B  B2  1  0.03215300  0.76456400  0.75906400  1
  B  B3  1  0.76456400  0.03215300  0.25906400  1
  B  B4  1  0.06631300  0.56969600  0.74306800  1
  B  B5  1  0.56969600  0.06631300  0.24306800  1
  B  B6  1  0.25033700  0.59162900  0.69940600  1
  B  B7  1  0.59162900  0.25033700  0.19940600  1
  B  B8  1  0.33611100  0.80173200  0.69206600  1
  B  B9  1  0.80173200  0.33611100  0.19206600  1
  B  B10  1  0.19986900  0.91536300  0.73223600  1
  B  B11  1  0.91536300  0.19986900  0.23223600  1
  B  B12  1  0.21104100  0.92182300  0.86669100  1
  B  B13  1  0.92182300  0.21104100  0.36669100  1
  B  B14  1  0.40327600  0.95185100  0.81834300  1
  B  B15  1  0.95185100  0.40327600  0.31834300  1
  B  B16  1  0.42923900  0.74814600  0.80267000  1
  B  B17  1  0.74814600  0.42923900  0.30267000  1
  H  H18  1  0.47644300  0.48149200  0.04738300  1
  H  H19  1  0.48149200  0.47644300  0.54738300  1
  H  H20  1  0.58114200  0.64594600  0.99417700  1
  H  H21  1  0.64594600  0.58114200  0.49417700  1
  H  H22  1  0.42564800  0.67208100  0.06114700  1
  H  H23  1  0.67208100  0.42564800  0.56114700  1
  H  H24  1  0.93717700  0.78148700  0.08446800  1
  H  H25  1  0.78148700  0.93717700  0.58446800  1
  H  H26  1  0.12840500  0.93552200  0.07648800  1
  H  H27  1  0.93552200  0.12840500  0.57648800  1
  H  H28  1  0.92333600  0.87797000  0.98038500  1
  H  H29  1  0.87797000  0.92333600  0.48038500  1
  H  H30  1  0.67339200  0.37736100  0.76603800  1
  H  H31  1  0.37736100  0.67339200  0.26603800  1
  H  H32  1  0.56649800  0.16389100  0.67219400  1
  H  H33  1  0.16389100  0.56649800  0.17219400  1
  H  H34  1  0.44253000  0.27664300  0.72838100  1
  H  H35  1  0.27664300  0.44253000  0.22838100  1
  H  H36  1  0.88067500  0.25571300  0.87028800  1
  H  H37  1  0.25571300  0.88067500  0.37028800  1
  H  H38  1  0.80878200  0.09450800  0.93411100  1
  H  H39  1  0.09450800  0.80878200  0.43411100  1
  H  H40  1  0.76572500  0.03148200  0.79294200  1
  H  H41  1  0.03148200  0.76572500  0.29294200  1
  H  H42  1  0.01948000  0.64539200  0.56575400  1
  H  H43  1  0.64539200  0.01948000  0.06575400  1
  H  H44  1  0.89120000  0.76759600  0.75181100  1
  H  H45  1  0.76759600  0.89120000  0.25181100  1
  H  H46  1  0.95509600  0.43308900  0.72628400  1
  H  H47  1  0.43308900  0.95509600  0.22628400  1
  H  H48  1  0.25703600  0.46291100  0.64840600  1
  H  H49  1  0.46291100  0.25703600  0.14840600  1
  H  H50  1  0.41115700  0.83927100  0.62995800  1
  H  H51  1  0.83927100  0.41115700  0.12995800  1
  H  H52  1  0.17165400  0.02375600  0.69632200  1
  H  H53  1  0.02375600  0.17165400  0.19632200  1
  H  H54  1  0.18580800  0.03327500  0.92283300  1
  H  H55  1  0.03327500  0.18580800  0.42283300  1
  H  H56  1  0.56381600  0.72745700  0.81874500  1
  H  H57  1  0.72745700  0.56381600  0.31874500  1
  H  H58  1  0.38459600  0.93708000  0.90718200  1
  H  H59  1  0.93708000  0.38459600  0.40718200  1
  C  C60  1  0.45974900  0.57898000  0.00931400  1
  C  C61  1  0.57898000  0.45974900  0.50931400  1
  C  C62  1  0.00492900  0.83011200  0.03032700  1
  C  C63  1  0.83011200  0.00492900  0.53032700  1
  C  C64  1  0.56388000  0.25371000  0.74203400  1
  C  C65  1  0.25371000  0.56388000  0.24203400  1
  C  C66  1  0.77919600  0.13271200  0.86240900  1
  C  C67  1  0.13271200  0.77919600  0.36240900  1
  C  C68  1  0.26736900  0.62887900  0.83233900  1
  C  C69  1  0.62887900  0.26736900  0.33233900  1
  C  C70  1  0.13996700  0.72000600  0.86484700  1
  C  C71  1  0.72000600  0.13996700  0.36484700  1
  S  S72  1  0.28721800  0.46058900  0.88786200  1
  S  S73  1  0.46058900  0.28721800  0.38786200  1
  S  S74  1  0.03427500  0.64355200  0.95738500  1
  S  S75  1  0.64355200  0.03427500  0.45738500  1
  S  S76  1  0.58228200  0.17331800  0.85469800  1
  S  S77  1  0.17331800  0.58228200  0.35469800  1
