# generated using pymatgen
data_H10PbC6S2IN
_symmetry_space_group_name_H-M   'P 1'
_cell_length_a   4.99974300
_cell_length_b   11.94546805
_cell_length_c   12.20879919
_cell_angle_alpha   112.34707442
_cell_angle_beta   95.16904995
_cell_angle_gamma   100.39153596
_symmetry_Int_Tables_number   1
_chemical_formula_structural   H10PbC6S2IN
_chemical_formula_sum   'H20 Pb2 C12 S4 I2 N2'
_cell_volume   653.17023459
_cell_formula_units_Z   2
loop_
 _symmetry_equiv_pos_site_id
 _symmetry_equiv_pos_as_xyz
  1  'x, y, z'
loop_
 _atom_site_type_symbol
 _atom_site_label
 _atom_site_symmetry_multiplicity
 _atom_site_fract_x
 _atom_site_fract_y
 _atom_site_fract_z
 _atom_site_occupancy
  H  H0  1  0.24149800  0.61879100  0.24858800  1
  H  H1  1  0.75850200  0.38120900  0.75141200  1
  H  H2  1  0.97111500  0.55047200  0.12115800  1
  H  H3  1  0.02888500  0.44952800  0.87884200  1
  H  H4  1  0.11354100  0.78376700  0.19493200  1
  H  H5  1  0.88645900  0.21623300  0.80506800  1
  H  H6  1  0.76109100  0.73012900  0.19846400  1
  H  H7  1  0.23890900  0.26987100  0.80153600  1
  H  H8  1  0.24464800  0.84816600  0.41138600  1
  H  H9  1  0.75535200  0.15183400  0.58861400  1
  H  H10  1  0.96368100  0.91201500  0.38813100  1
  H  H11  1  0.03631900  0.08798500  0.61186900  1
  H  H12  1  0.63931900  0.75179000  0.42098800  1
  H  H13  1  0.36068100  0.24821000  0.57901200  1
  H  H14  1  0.92572400  0.81218700  0.54044900  1
  H  H15  1  0.07427600  0.18781300  0.45955100  1
  H  H16  1  0.77358800  0.57776300  0.45381500  1
  H  H17  1  0.22641200  0.42223700  0.54618500  1
  H  H18  1  0.12336400  0.63319100  0.44621800  1
  H  H19  1  0.87663600  0.36680900  0.55378200  1
  Pb  Pb20  1  0.24093100  0.18028300  0.09946500  1
  Pb  Pb21  1  0.75906900  0.81971700  0.90053500  1
  C  C22  1  0.67598000  0.44194200  0.22846700  1
  C  C23  1  0.32402000  0.55805800  0.77153300  1
  C  C24  1  0.02326100  0.61150500  0.21716400  1
  C  C25  1  0.97673900  0.38849500  0.78283600  1
  C  C26  1  0.97369600  0.74087300  0.24025700  1
  C  C27  1  0.02630400  0.25912700  0.75974300  1
  C  C28  1  0.02244300  0.82386300  0.37453600  1
  C  C29  1  0.97755700  0.17613700  0.62546400  1
  C  C30  1  0.86146300  0.75851300  0.44272700  1
  C  C31  1  0.13853700  0.24148700  0.55727300  1
  C  C32  1  0.90751100  0.62767100  0.41261900  1
  C  C33  1  0.09248900  0.37232900  0.58738100  1
  S  S34  1  0.66212800  0.34987400  0.07751400  1
  S  S35  1  0.33787200  0.65012600  0.92248600  1
  S  S36  1  0.45740600  0.38829000  0.30899300  1
  S  S37  1  0.54259400  0.61171000  0.69100700  1
  I  I38  1  0.58470000  0.03123000  0.18455700  1
  I  I39  1  0.41530000  0.96877000  0.81544300  1
  N  N40  1  0.85464800  0.55312700  0.28207600  1
  N  N41  1  0.14535200  0.44687300  0.71792400  1
