# generated using pymatgen
data_NaY(BH4)4
_symmetry_space_group_name_H-M   'P 1'
_cell_length_a   7.52995931
_cell_length_b   7.52995931
_cell_length_c   9.21739600
_cell_angle_alpha   90.00000000
_cell_angle_beta   90.00000000
_cell_angle_gamma   109.64986388
_symmetry_Int_Tables_number   1
_chemical_formula_structural   NaY(BH4)4
_chemical_formula_sum   'Na2 Y2 B8 H32'
_cell_volume   492.19378204
_cell_formula_units_Z   2
loop_
 _symmetry_equiv_pos_site_id
 _symmetry_equiv_pos_as_xyz
  1  'x, y, z'
loop_
 _atom_site_type_symbol
 _atom_site_label
 _atom_site_symmetry_multiplicity
 _atom_site_fract_x
 _atom_site_fract_y
 _atom_site_fract_z
 _atom_site_occupancy
  Na  Na0  1  0.06150500  0.06150500  0.00000000  1
  Na  Na1  1  0.93849500  0.93849500  0.50000000  1
  Y  Y2  1  0.65241700  0.34758300  0.75000000  1
  Y  Y3  1  0.34758300  0.65241700  0.25000000  1
  B  B4  1  0.23233200  0.77112700  0.03215300  1
  B  B5  1  0.77112700  0.23233200  0.96784700  1
  B  B6  1  0.76766800  0.22887300  0.53215300  1
  B  B7  1  0.22887300  0.76766800  0.46784700  1
  B  B8  1  0.22760400  0.30126400  0.24979900  1
  B  B9  1  0.30126400  0.22760400  0.75020100  1
  B  B10  1  0.77239600  0.69873600  0.74979900  1
  B  B11  1  0.69873600  0.77239600  0.25020100  1
  H  H12  1  0.17516400  0.82358400  0.92404100  1
  H  H13  1  0.82358400  0.17516400  0.07595900  1
  H  H14  1  0.82483600  0.17641600  0.42404100  1
  H  H15  1  0.17641600  0.82483600  0.57595900  1
  H  H16  1  0.35723400  0.70550200  0.00017300  1
  H  H17  1  0.70550200  0.35723400  0.99982700  1
  H  H18  1  0.64276600  0.29449800  0.50017300  1
  H  H19  1  0.29449800  0.64276600  0.49982700  1
  H  H20  1  0.10459700  0.64635700  0.09549400  1
  H  H21  1  0.64635700  0.10459700  0.90450600  1
  H  H22  1  0.89540300  0.35364300  0.59549400  1
  H  H23  1  0.35364300  0.89540300  0.40450600  1
  H  H24  1  0.09955100  0.69773400  0.37929400  1
  H  H25  1  0.69773400  0.09955100  0.62070600  1
  H  H26  1  0.90044900  0.30226600  0.87929400  1
  H  H27  1  0.30226600  0.90044900  0.12070600  1
  H  H28  1  0.16476200  0.13117200  0.25505500  1
  H  H29  1  0.13117200  0.16476200  0.74494500  1
  H  H30  1  0.83523800  0.86882800  0.75505500  1
  H  H31  1  0.86882800  0.83523800  0.24494500  1
  H  H32  1  0.10330400  0.37021100  0.27512100  1
  H  H33  1  0.37021100  0.10330400  0.72487900  1
  H  H34  1  0.89669600  0.62978900  0.77512100  1
  H  H35  1  0.62978900  0.89669600  0.22487900  1
  H  H36  1  0.29561200  0.35876500  0.12875500  1
  H  H37  1  0.35876500  0.29561200  0.87124500  1
  H  H38  1  0.70438800  0.64123500  0.62875500  1
  H  H39  1  0.64123500  0.70438800  0.37124500  1
  H  H40  1  0.35549000  0.36313400  0.33966800  1
  H  H41  1  0.36313400  0.35549000  0.66033200  1
  H  H42  1  0.64451000  0.63686600  0.83966800  1
  H  H43  1  0.63686600  0.64451000  0.16033200  1
